MODEL 1
REMARK VINA RESULT: -11.273445261      0.000      0.000
REMARK  8 active torsions:
REMARK  status: ('A' for Active; 'I' for Inactive)
REMARK    1  A    between atoms: C1_4  and  C2_6 
REMARK    2  A    between atoms: C4_10  and  C5_11 
REMARK    3  A    between atoms: C8_14  and  N4_15 
REMARK       I    between atoms: N4_15  and  C9_17 
REMARK    4  A    between atoms: C9_17  and  C10_19 
REMARK    5  A    between atoms: C14_24  and  C15_25 
REMARK       I    between atoms: C15_25  and  N6_27 
REMARK    6  A    between atoms: N6_27  and  C16_29 
REMARK    7  A    between atoms: C19_32  and  N7_33 
REMARK    8  A    between atoms: C20_38  and  C21_39 
ROOT
HETATM    1  C10 UNL     1      -9.316 -23.599 -12.647  1.00  0.00     0.033 A 
HETATM    2  C11 UNL     1      -9.367 -24.180 -11.400  1.00  0.00     0.019 A 
HETATM    3  C12 UNL     1      -9.598 -23.417 -10.274  1.00  0.00     0.028 A 
HETATM    4  C13 UNL     1      -9.787 -22.054 -10.337  1.00  0.00     0.062 A 
HETATM    5  N5  UNL     1     -10.027 -21.262  -9.184  1.00  0.00    -0.101 NA
HETATM    6  C14 UNL     1      -9.737 -21.462 -11.598  1.00  0.00     0.057 A 
HETATM    7  C26 UNL     1      -9.505 -22.228 -12.719  1.00  0.00     0.036 A 
ENDROOT
BRANCH   1   8
HETATM    8  C9  UNL     1      -9.057 -24.400 -13.874  1.00  0.00     0.256 C 
HETATM    9  N4  UNL     1      -8.275 -25.564 -13.829  1.00  0.00    -0.323 N 
ATOM     10  H4  UNL     1      -7.878 -25.843 -12.932  1.00  0.00     0.169 HD
HETATM   11  O1  UNL     1      -9.572 -23.966 -14.911  1.00  0.00    -0.267 OA
BRANCH   9  12
HETATM   12  C8  UNL     1      -8.007 -26.369 -14.955  1.00  0.00     0.035 A 
HETATM   13  C7  UNL     1      -6.758 -26.223 -15.576  1.00  0.00     0.030 A 
HETATM   14  C6  UNL     1      -6.384 -26.968 -16.658  1.00  0.00     0.016 A 
HETATM   15  C5  UNL     1      -7.233 -27.904 -17.184  1.00  0.00    -0.001 A 
HETATM   16  C28 UNL     1      -8.464 -28.085 -16.614  1.00  0.00     0.016 A 
HETATM   17  C27 UNL     1      -8.837 -27.313 -15.501  1.00  0.00     0.030 A 
BRANCH  15  18
HETATM   18  C4  UNL     1      -6.785 -28.685 -18.348  1.00  0.00     0.103 A 
HETATM   19  C3  UNL     1      -7.464 -29.710 -18.972  1.00  0.00     0.128 A 
HETATM   20  N3  UNL     1      -6.684 -30.127 -19.979  1.00  0.00    -0.341 N 
HETATM   21  C2  UNL     1      -5.543 -29.388 -19.995  1.00  0.00     0.189 A 
ATOM     22  H3  UNL     1      -6.910 -30.879 -20.630  1.00  0.00     0.167 HD
HETATM   23  O3  UNL     1      -5.658 -28.547 -19.005  1.00  0.00    -0.288 OA
BRANCH  21  24
HETATM   24  C1  UNL     1      -4.432 -29.528 -20.940  1.00  0.00     0.161 C 
HETATM   25  N1  UNL     1      -4.305 -28.694 -21.904  1.00  0.00    -0.384 N 
ATOM     26  H12 UNL     1      -3.531 -28.791 -22.562  1.00  0.00     0.157 HD
ATOM     27  H11 UNL     1      -4.985 -27.940 -22.000  1.00  0.00     0.157 HD
HETATM   28  N2  UNL     1      -3.490 -30.571 -20.807  1.00  0.00    -0.079 NA
ENDBRANCH  21  24
ENDBRANCH  15  18
ENDBRANCH   9  12
ENDBRANCH   1   8
BRANCH   6  29
HETATM   29  C15 UNL     1      -9.931 -20.010 -11.714  1.00  0.00     0.258 C 
HETATM   30  O2  UNL     1      -8.872 -19.336 -11.879  1.00  0.00    -0.267 OA
HETATM   31  N6  UNL     1     -11.164 -19.399 -11.653  1.00  0.00    -0.321 N 
ATOM     32  H6  UNL     1     -11.966 -20.016 -11.531  1.00  0.00     0.169 HD
BRANCH  31  33
HETATM   33  C16 UNL     1     -11.447 -18.023 -11.741  1.00  0.00     0.063 A 
HETATM   34  C17 UNL     1     -10.803 -17.192 -10.823  1.00  0.00     0.036 A 
HETATM   35  C18 UNL     1     -11.162 -15.868 -10.732  1.00  0.00     0.050 A 
HETATM   36  C19 UNL     1     -12.152 -15.385 -11.548  1.00  0.00     0.099 A 
HETATM   37  N8  UNL     1     -12.766 -16.175 -12.425  1.00  0.00    -0.340 N 
HETATM   38  C20 UNL     1     -12.442 -17.495 -12.552  1.00  0.00     0.072 A 
ATOM     39  H8  UNL     1     -13.499 -15.784 -13.017  1.00  0.00     0.167 HD
BRANCH  36  40
HETATM   40  N7  UNL     1     -12.518 -14.130 -11.482  1.00  0.00    -0.385 N 
ATOM     41  H72 UNL     1     -11.792 -13.421 -11.379  1.00  0.00     0.157 HD
ATOM     42  H71 UNL     1     -13.503 -13.872 -11.534  1.00  0.00     0.157 HD
ENDBRANCH  36  40
BRANCH  38  43
HETATM   43  C21 UNL     1     -13.143 -18.315 -13.510  1.00  0.00     0.008 A 
HETATM   44  C22 UNL     1     -14.442 -18.722 -13.164  1.00  0.00     0.016 A 
HETATM   45  C23 UNL     1     -15.226 -19.423 -14.055  1.00  0.00     0.018 A 
HETATM   46  C24 UNL     1     -14.755 -19.743 -15.306  1.00  0.00     0.087 A 
HETATM   47  N9  UNL     1     -13.528 -19.364 -15.646  1.00  0.00    -0.374 N 
HETATM   48  C25 UNL     1     -12.745 -18.667 -14.768  1.00  0.00     0.101 A 
ATOM     49  H9  UNL     1     -13.166 -19.596 -16.571  1.00  0.00     0.164 HD
ENDBRANCH  38  43
ENDBRANCH  31  33
ENDBRANCH   6  29
TORSDOF 8
ENDMDL
MODEL 2
REMARK VINA RESULT: -11.133874970      2.323      4.045
REMARK  8 active torsions:
REMARK  status: ('A' for Active; 'I' for Inactive)
REMARK    1  A    between atoms: C1_4  and  C2_6 
REMARK    2  A    between atoms: C4_10  and  C5_11 
REMARK    3  A    between atoms: C8_14  and  N4_15 
REMARK       I    between atoms: N4_15  and  C9_17 
REMARK    4  A    between atoms: C9_17  and  C10_19 
REMARK    5  A    between atoms: C14_24  and  C15_25 
REMARK       I    between atoms: C15_25  and  N6_27 
REMARK    6  A    between atoms: N6_27  and  C16_29 
REMARK    7  A    between atoms: C19_32  and  N7_33 
REMARK    8  A    between atoms: C20_38  and  C21_39 
ROOT
HETATM    1  C10 UNL     1      -8.407 -25.378 -15.410  1.00  0.00     0.033 A 
HETATM    2  C11 UNL     1      -8.240 -25.875 -14.137  1.00  0.00     0.019 A 
HETATM    3  C12 UNL     1      -8.705 -25.176 -13.040  1.00  0.00     0.028 A 
HETATM    4  C13 UNL     1      -9.347 -23.965 -13.161  1.00  0.00     0.062 A 
HETATM    5  N5  UNL     1      -9.828 -23.241 -12.039  1.00  0.00    -0.101 NA
HETATM    6  C14 UNL     1      -9.518 -23.459 -14.449  1.00  0.00     0.057 A 
HETATM    7  C26 UNL     1      -9.053 -24.160 -15.539  1.00  0.00     0.036 A 
ENDROOT
BRANCH   1   8
HETATM    8  C9  UNL     1      -7.905 -26.108 -16.606  1.00  0.00     0.256 C 
HETATM    9  N4  UNL     1      -7.131 -27.270 -16.475  1.00  0.00    -0.323 N 
ATOM     10  H4  UNL     1      -6.910 -27.598 -15.535  1.00  0.00     0.169 HD
HETATM   11  O1  UNL     1      -8.217 -25.618 -17.698  1.00  0.00    -0.267 OA
BRANCH   9  12
HETATM   12  C8  UNL     1      -6.640 -28.010 -17.571  1.00  0.00     0.035 A 
HETATM   13  C7  UNL     1      -5.302 -27.812 -17.940  1.00  0.00     0.030 A 
HETATM   14  C6  UNL     1      -4.716 -28.492 -18.970  1.00  0.00     0.016 A 
HETATM   15  C5  UNL     1      -5.429 -29.411 -19.691  1.00  0.00    -0.001 A 
HETATM   16  C28 UNL     1      -6.740 -29.641 -19.369  1.00  0.00     0.016 A 
HETATM   17  C27 UNL     1      -7.331 -28.935 -18.308  1.00  0.00     0.030 A 
BRANCH  15  18
HETATM   18  C4  UNL     1      -4.756 -30.122 -20.789  1.00  0.00     0.103 A 
HETATM   19  C3  UNL     1      -5.313 -30.524 -21.984  1.00  0.00     0.128 A 
HETATM   20  N3  UNL     1      -4.337 -31.131 -22.675  1.00  0.00    -0.341 N 
HETATM   21  C2  UNL     1      -3.193 -31.113 -21.941  1.00  0.00     0.189 A 
ATOM     22  H3  UNL     1      -4.437 -31.540 -23.604  1.00  0.00     0.167 HD
HETATM   23  O3  UNL     1      -3.501 -30.501 -20.830  1.00  0.00    -0.288 OA
BRANCH  21  24
HETATM   24  C1  UNL     1      -1.899 -31.672 -22.338  1.00  0.00     0.161 C 
HETATM   25  N1  UNL     1      -1.854 -32.752 -23.028  1.00  0.00    -0.384 N 
ATOM     26  H12 UNL     1      -0.952 -33.142 -23.304  1.00  0.00     0.157 HD
ATOM     27  H11 UNL     1      -2.727 -33.209 -23.290  1.00  0.00     0.157 HD
HETATM   28  N2  UNL     1      -0.690 -31.040 -21.975  1.00  0.00    -0.079 NA
ENDBRANCH  21  24
ENDBRANCH  15  18
ENDBRANCH   9  12
ENDBRANCH   1   8
BRANCH   6  29
HETATM   29  C15 UNL     1     -10.197 -22.168 -14.625  1.00  0.00     0.258 C 
HETATM   30  O2  UNL     1      -9.630 -21.365 -15.424  1.00  0.00    -0.267 OA
HETATM   31  N6  UNL     1     -11.368 -21.829 -13.984  1.00  0.00    -0.321 N 
ATOM     32  H6  UNL     1     -11.765 -22.538 -13.368  1.00  0.00     0.169 HD
BRANCH  31  33
HETATM   33  C16 UNL     1     -12.082 -20.621 -14.079  1.00  0.00     0.063 A 
HETATM   34  C17 UNL     1     -12.811 -20.416 -15.253  1.00  0.00     0.036 A 
HETATM   35  C18 UNL     1     -13.387 -19.191 -15.492  1.00  0.00     0.050 A 
HETATM   36  C19 UNL     1     -13.236 -18.187 -14.571  1.00  0.00     0.099 A 
HETATM   37  N8  UNL     1     -12.543 -18.381 -13.451  1.00  0.00    -0.340 N 
HETATM   38  C20 UNL     1     -11.955 -19.580 -13.169  1.00  0.00     0.072 A 
ATOM     39  H8  UNL     1     -12.449 -17.613 -12.787  1.00  0.00     0.167 HD
BRANCH  36  40
HETATM   40  N7  UNL     1     -13.770 -17.009 -14.773  1.00  0.00    -0.385 N 
ATOM     41  H72 UNL     1     -14.434 -16.905 -15.540  1.00  0.00     0.157 HD
ATOM     42  H71 UNL     1     -13.528 -16.219 -14.176  1.00  0.00     0.157 HD
ENDBRANCH  36  40
BRANCH  38  43
HETATM   43  C21 UNL     1     -11.205 -19.740 -11.947  1.00  0.00     0.008 A 
HETATM   44  C22 UNL     1     -11.865 -20.366 -10.878  1.00  0.00     0.016 A 
HETATM   45  C23 UNL     1     -11.201 -20.652  -9.705  1.00  0.00     0.018 A 
HETATM   46  C24 UNL     1      -9.873 -20.332  -9.552  1.00  0.00     0.087 A 
HETATM   47  N9  UNL     1      -9.236 -19.739 -10.557  1.00  0.00    -0.374 N 
HETATM   48  C25 UNL     1      -9.889 -19.454 -11.724  1.00  0.00     0.101 A 
ATOM     49  H9  UNL     1      -8.251 -19.495 -10.456  1.00  0.00     0.164 HD
ENDBRANCH  38  43
ENDBRANCH  31  33
ENDBRANCH   6  29
TORSDOF 8
ENDMDL
MODEL 3
REMARK VINA RESULT: -11.131444987      1.762      3.152
REMARK  8 active torsions:
REMARK  status: ('A' for Active; 'I' for Inactive)
REMARK    1  A    between atoms: C1_4  and  C2_6 
REMARK    2  A    between atoms: C4_10  and  C5_11 
REMARK    3  A    between atoms: C8_14  and  N4_15 
REMARK       I    between atoms: N4_15  and  C9_17 
REMARK    4  A    between atoms: C9_17  and  C10_19 
REMARK    5  A    between atoms: C14_24  and  C15_25 
REMARK       I    between atoms: C15_25  and  N6_27 
REMARK    6  A    between atoms: N6_27  and  C16_29 
REMARK    7  A    between atoms: C19_32  and  N7_33 
REMARK    8  A    between atoms: C20_38  and  C21_39 
ROOT
HETATM    1  C10 UNL     1      -8.996 -24.664 -13.188  1.00  0.00     0.033 A 
HETATM    2  C11 UNL     1      -8.927 -24.729 -11.814  1.00  0.00     0.019 A 
HETATM    3  C12 UNL     1      -9.458 -23.723 -11.032  1.00  0.00     0.028 A 
HETATM    4  C13 UNL     1     -10.073 -22.618 -11.577  1.00  0.00     0.062 A 
HETATM    5  N5  UNL     1     -10.622 -21.580 -10.780  1.00  0.00    -0.101 NA
HETATM    6  C14 UNL     1     -10.145 -22.549 -12.968  1.00  0.00     0.057 A 
HETATM    7  C26 UNL     1      -9.614 -23.556 -13.743  1.00  0.00     0.036 A 
ENDROOT
BRANCH   1   8
HETATM    8  C9  UNL     1      -8.421 -25.731 -14.051  1.00  0.00     0.256 C 
HETATM    9  N4  UNL     1      -8.367 -25.586 -15.445  1.00  0.00    -0.323 N 
ATOM     10  H4  UNL     1      -8.743 -24.731 -15.855  1.00  0.00     0.169 HD
HETATM   11  O1  UNL     1      -8.007 -26.732 -13.454  1.00  0.00    -0.267 OA
BRANCH   9  12
HETATM   12  C8  UNL     1      -7.823 -26.557 -16.311  1.00  0.00     0.035 A 
HETATM   13  C7  UNL     1      -8.656 -27.613 -16.708  1.00  0.00     0.030 A 
HETATM   14  C6  UNL     1      -8.241 -28.594 -17.563  1.00  0.00     0.016 A 
HETATM   15  C5  UNL     1      -6.970 -28.580 -18.073  1.00  0.00    -0.001 A 
HETATM   16  C28 UNL     1      -6.118 -27.570 -17.715  1.00  0.00     0.016 A 
HETATM   17  C27 UNL     1      -6.557 -26.566 -16.836  1.00  0.00     0.030 A 
BRANCH  15  18
HETATM   18  C4  UNL     1      -6.568 -29.656 -18.992  1.00  0.00     0.103 A 
HETATM   19  C3  UNL     1      -6.677 -31.014 -18.781  1.00  0.00     0.128 A 
HETATM   20  N3  UNL     1      -6.190 -31.611 -19.879  1.00  0.00    -0.341 N 
HETATM   21  C2  UNL     1      -5.785 -30.660 -20.761  1.00  0.00     0.189 A 
ATOM     22  H3  UNL     1      -6.133 -32.618 -20.028  1.00  0.00     0.167 HD
HETATM   23  O3  UNL     1      -6.034 -29.517 -20.182  1.00  0.00    -0.288 OA
BRANCH  21  24
HETATM   24  C1  UNL     1      -5.194 -30.896 -22.081  1.00  0.00     0.161 C 
HETATM   25  N1  UNL     1      -3.964 -30.604 -22.293  1.00  0.00    -0.384 N 
ATOM     26  H12 UNL     1      -3.553 -30.768 -23.212  1.00  0.00     0.157 HD
ATOM     27  H11 UNL     1      -3.412 -30.206 -21.532  1.00  0.00     0.157 HD
HETATM   28  N2  UNL     1      -5.958 -31.446 -23.133  1.00  0.00    -0.079 NA
ENDBRANCH  21  24
ENDBRANCH  15  18
ENDBRANCH   9  12
ENDBRANCH   1   8
BRANCH   6  29
HETATM   29  C15 UNL     1     -10.793 -21.387 -13.592  1.00  0.00     0.258 C 
HETATM   30  O2  UNL     1     -10.141 -20.851 -14.537  1.00  0.00    -0.267 OA
HETATM   31  N6  UNL     1     -12.019 -20.896 -13.202  1.00  0.00    -0.321 N 
ATOM     32  H6  UNL     1     -12.481 -21.394 -12.442  1.00  0.00     0.169 HD
BRANCH  31  33
HETATM   33  C16 UNL     1     -12.709 -19.789 -13.729  1.00  0.00     0.063 A 
HETATM   34  C17 UNL     1     -13.273 -19.949 -14.996  1.00  0.00     0.036 A 
HETATM   35  C18 UNL     1     -13.807 -18.862 -15.646  1.00  0.00     0.050 A 
HETATM   36  C19 UNL     1     -13.777 -17.635 -15.037  1.00  0.00     0.099 A 
HETATM   37  N8  UNL     1     -13.242 -17.480 -13.829  1.00  0.00    -0.340 N 
HETATM   38  C20 UNL     1     -12.701 -18.530 -13.143  1.00  0.00     0.072 A 
ATOM     39  H8  UNL     1     -13.235 -16.554 -13.403  1.00  0.00     0.167 HD
BRANCH  36  40
HETATM   40  N7  UNL     1     -14.275 -16.581 -15.633  1.00  0.00    -0.385 N 
ATOM     41  H72 UNL     1     -15.271 -16.576 -15.852  1.00  0.00     0.157 HD
ATOM     42  H71 UNL     1     -13.681 -15.787 -15.869  1.00  0.00     0.157 HD
ENDBRANCH  36  40
BRANCH  38  43
HETATM   43  C21 UNL     1     -12.123 -18.313 -11.840  1.00  0.00     0.008 A 
HETATM   44  C22 UNL     1     -12.998 -18.362 -10.743  1.00  0.00     0.016 A 
HETATM   45  C23 UNL     1     -12.524 -18.266  -9.453  1.00  0.00     0.018 A 
HETATM   46  C24 UNL     1     -11.180 -18.118  -9.207  1.00  0.00     0.087 A 
HETATM   47  N9  UNL     1     -10.340 -18.070 -10.236  1.00  0.00    -0.374 N 
HETATM   48  C25 UNL     1     -10.803 -18.167 -11.518  1.00  0.00     0.101 A 
ATOM     49  H9  UNL     1      -9.341 -17.960 -10.067  1.00  0.00     0.164 HD
ENDBRANCH  38  43
ENDBRANCH  31  33
ENDBRANCH   6  29
TORSDOF 8
ENDMDL
MODEL 4
REMARK VINA RESULT: -10.832416415      1.771      3.148
REMARK  8 active torsions:
REMARK  status: ('A' for Active; 'I' for Inactive)
REMARK    1  A    between atoms: C1_4  and  C2_6 
REMARK    2  A    between atoms: C4_10  and  C5_11 
REMARK    3  A    between atoms: C8_14  and  N4_15 
REMARK       I    between atoms: N4_15  and  C9_17 
REMARK    4  A    between atoms: C9_17  and  C10_19 
REMARK    5  A    between atoms: C14_24  and  C15_25 
REMARK       I    between atoms: C15_25  and  N6_27 
REMARK    6  A    between atoms: N6_27  and  C16_29 
REMARK    7  A    between atoms: C19_32  and  N7_33 
REMARK    8  A    between atoms: C20_38  and  C21_39 
ROOT
HETATM    1  C10 UNL     1      -9.042 -24.628 -13.145  1.00  0.00     0.033 A 
HETATM    2  C11 UNL     1      -8.997 -24.673 -11.769  1.00  0.00     0.019 A 
HETATM    3  C12 UNL     1      -9.548 -23.661 -11.010  1.00  0.00     0.028 A 
HETATM    4  C13 UNL     1     -10.161 -22.567 -11.580  1.00  0.00     0.062 A 
HETATM    5  N5  UNL     1     -10.731 -21.523 -10.807  1.00  0.00    -0.101 NA
HETATM    6  C14 UNL     1     -10.209 -22.518 -12.973  1.00  0.00     0.057 A 
HETATM    7  C26 UNL     1      -9.658 -23.531 -13.725  1.00  0.00     0.036 A 
ENDROOT
BRANCH   1   8
HETATM    8  C9  UNL     1      -8.446 -25.703 -13.984  1.00  0.00     0.256 C 
HETATM    9  N4  UNL     1      -8.366 -25.575 -15.378  1.00  0.00    -0.323 N 
ATOM     10  H4  UNL     1      -8.739 -24.727 -15.806  1.00  0.00     0.169 HD
HETATM   11  O1  UNL     1      -8.037 -26.694 -13.367  1.00  0.00    -0.267 OA
BRANCH   9  12
HETATM   12  C8  UNL     1      -7.800 -26.553 -16.222  1.00  0.00     0.035 A 
HETATM   13  C7  UNL     1      -6.421 -26.480 -16.467  1.00  0.00     0.030 A 
HETATM   14  C6  UNL     1      -5.765 -27.388 -17.248  1.00  0.00     0.016 A 
HETATM   15  C5  UNL     1      -6.445 -28.424 -17.830  1.00  0.00    -0.001 A 
HETATM   16  C28 UNL     1      -7.793 -28.539 -17.621  1.00  0.00     0.016 A 
HETATM   17  C27 UNL     1      -8.457 -27.599 -16.816  1.00  0.00     0.030 A 
BRANCH  15  18
HETATM   18  C4  UNL     1      -5.696 -29.380 -18.661  1.00  0.00     0.103 A 
HETATM   19  C3  UNL     1      -4.991 -30.482 -18.229  1.00  0.00     0.128 A 
HETATM   20  N3  UNL     1      -4.473 -31.057 -19.324  1.00  0.00    -0.341 N 
HETATM   21  C2  UNL     1      -4.839 -30.341 -20.419  1.00  0.00     0.189 A 
ATOM     22  H3  UNL     1      -3.896 -31.898 -19.333  1.00  0.00     0.167 HD
HETATM   23  O3  UNL     1      -5.566 -29.357 -19.966  1.00  0.00    -0.288 OA
BRANCH  21  24
HETATM   24  C1  UNL     1      -4.480 -30.637 -21.809  1.00  0.00     0.161 C 
HETATM   25  N1  UNL     1      -3.285 -30.422 -22.219  1.00  0.00    -0.384 N 
ATOM     26  H12 UNL     1      -3.034 -30.627 -23.186  1.00  0.00     0.157 HD
ATOM     27  H11 UNL     1      -2.597 -30.044 -21.566  1.00  0.00     0.157 HD
HETATM   28  N2  UNL     1      -5.431 -31.159 -22.712  1.00  0.00    -0.079 NA
ENDBRANCH  21  24
ENDBRANCH  15  18
ENDBRANCH   9  12
ENDBRANCH   1   8
BRANCH   6  29
HETATM   29  C15 UNL     1     -10.854 -21.369 -13.625  1.00  0.00     0.258 C 
HETATM   30  O2  UNL     1     -10.203 -20.860 -14.585  1.00  0.00    -0.267 OA
HETATM   31  N6  UNL     1     -12.076 -20.862 -13.243  1.00  0.00    -0.321 N 
ATOM     32  H6  UNL     1     -12.538 -21.339 -12.468  1.00  0.00     0.169 HD
BRANCH  31  33
HETATM   33  C16 UNL     1     -12.763 -19.766 -13.794  1.00  0.00     0.063 A 
HETATM   34  C17 UNL     1     -13.240 -19.918 -15.098  1.00  0.00     0.036 A 
HETATM   35  C18 UNL     1     -13.763 -18.835 -15.763  1.00  0.00     0.050 A 
HETATM   36  C19 UNL     1     -13.807 -17.619 -15.134  1.00  0.00     0.099 A 
HETATM   37  N8  UNL     1     -13.355 -17.471 -13.891  1.00  0.00    -0.340 N 
HETATM   38  C20 UNL     1     -12.829 -18.518 -13.189  1.00  0.00     0.072 A 
ATOM     39  H8  UNL     1     -13.403 -16.553 -13.451  1.00  0.00     0.167 HD
BRANCH  36  40
HETATM   40  N7  UNL     1     -14.297 -16.569 -15.743  1.00  0.00    -0.385 N 
ATOM     41  H72 UNL     1     -14.500 -16.640 -16.740  1.00  0.00     0.157 HD
ATOM     42  H71 UNL     1     -14.470 -15.704 -15.231  1.00  0.00     0.157 HD
ENDBRANCH  36  40
BRANCH  38  43
HETATM   43  C21 UNL     1     -12.342 -18.309 -11.848  1.00  0.00     0.008 A 
HETATM   44  C22 UNL     1     -10.985 -17.976 -11.713  1.00  0.00     0.016 A 
HETATM   45  C23 UNL     1     -10.451 -17.660 -10.482  1.00  0.00     0.018 A 
HETATM   46  C24 UNL     1     -11.236 -17.663  -9.353  1.00  0.00     0.087 A 
HETATM   47  N9  UNL     1     -12.522 -17.976  -9.468  1.00  0.00    -0.374 N 
HETATM   48  C25 UNL     1     -13.058 -18.289 -10.685  1.00  0.00     0.101 A 
ATOM     49  H9  UNL     1     -13.115 -17.983  -8.638  1.00  0.00     0.164 HD
ENDBRANCH  38  43
ENDBRANCH  31  33
ENDBRANCH   6  29
TORSDOF 8
ENDMDL
MODEL 5
REMARK VINA RESULT: -10.705247713      0.918      1.225
REMARK  8 active torsions:
REMARK  status: ('A' for Active; 'I' for Inactive)
REMARK    1  A    between atoms: C1_4  and  C2_6 
REMARK    2  A    between atoms: C4_10  and  C5_11 
REMARK    3  A    between atoms: C8_14  and  N4_15 
REMARK       I    between atoms: N4_15  and  C9_17 
REMARK    4  A    between atoms: C9_17  and  C10_19 
REMARK    5  A    between atoms: C14_24  and  C15_25 
REMARK       I    between atoms: C15_25  and  N6_27 
REMARK    6  A    between atoms: N6_27  and  C16_29 
REMARK    7  A    between atoms: C19_32  and  N7_33 
REMARK    8  A    between atoms: C20_38  and  C21_39 
ROOT
HETATM    1  C10 UNL     1      -9.190 -23.470 -12.385  1.00  0.00     0.033 A 
HETATM    2  C11 UNL     1      -9.367 -24.009 -11.130  1.00  0.00     0.019 A 
HETATM    3  C12 UNL     1      -9.731 -23.212 -10.064  1.00  0.00     0.028 A 
HETATM    4  C13 UNL     1      -9.933 -21.856 -10.197  1.00  0.00     0.062 A 
HETATM    5  N5  UNL     1     -10.309 -21.030  -9.106  1.00  0.00    -0.101 NA
HETATM    6  C14 UNL     1      -9.756 -21.307 -11.466  1.00  0.00     0.057 A 
HETATM    7  C26 UNL     1      -9.392 -22.107 -12.526  1.00  0.00     0.036 A 
ENDROOT
BRANCH   1   8
HETATM    8  C9  UNL     1      -8.787 -24.308 -13.547  1.00  0.00     0.256 C 
HETATM    9  N4  UNL     1      -7.648 -25.124 -13.492  1.00  0.00    -0.323 N 
ATOM     10  H4  UNL     1      -7.094 -25.121 -12.635  1.00  0.00     0.169 HD
HETATM   11  O1  UNL     1      -9.519 -24.226 -14.541  1.00  0.00    -0.267 OA
BRANCH   9  12
HETATM   12  C8  UNL     1      -7.225 -25.948 -14.556  1.00  0.00     0.035 A 
HETATM   13  C7  UNL     1      -6.445 -25.360 -15.562  1.00  0.00     0.030 A 
HETATM   14  C6  UNL     1      -5.962 -26.070 -16.625  1.00  0.00     0.016 A 
HETATM   15  C5  UNL     1      -6.227 -27.407 -16.747  1.00  0.00    -0.001 A 
HETATM   16  C28 UNL     1      -6.985 -28.028 -15.790  1.00  0.00     0.016 A 
HETATM   17  C27 UNL     1      -7.476 -27.287 -14.701  1.00  0.00     0.030 A 
BRANCH  15  18
HETATM   18  C4  UNL     1      -5.683 -28.131 -17.906  1.00  0.00     0.103 A 
HETATM   19  C3  UNL     1      -4.418 -28.013 -18.441  1.00  0.00     0.128 A 
HETATM   20  N3  UNL     1      -4.364 -28.856 -19.482  1.00  0.00    -0.341 N 
HETATM   21  C2  UNL     1      -5.559 -29.492 -19.604  1.00  0.00     0.189 A 
ATOM     22  H3  UNL     1      -3.554 -28.998 -20.086  1.00  0.00     0.167 HD
HETATM   23  O3  UNL     1      -6.304 -29.023 -18.641  1.00  0.00    -0.288 OA
BRANCH  21  24
HETATM   24  C1  UNL     1      -5.910 -30.492 -20.615  1.00  0.00     0.161 C 
HETATM   25  N1  UNL     1      -6.209 -31.686 -20.256  1.00  0.00    -0.384 N 
ATOM     26  H12 UNL     1      -6.454 -32.382 -20.960  1.00  0.00     0.157 HD
ATOM     27  H11 UNL     1      -6.197 -31.922 -19.264  1.00  0.00     0.157 HD
HETATM   28  N2  UNL     1      -5.927 -30.165 -21.988  1.00  0.00    -0.079 NA
ENDBRANCH  21  24
ENDBRANCH  15  18
ENDBRANCH   9  12
ENDBRANCH   1   8
BRANCH   6  29
HETATM   29  C15 UNL     1      -9.960 -19.864 -11.655  1.00  0.00     0.258 C 
HETATM   30  O2  UNL     1      -8.920 -19.207 -11.954  1.00  0.00    -0.267 OA
HETATM   31  N6  UNL     1     -11.183 -19.243 -11.524  1.00  0.00    -0.321 N 
ATOM     32  H6  UNL     1     -11.971 -19.848 -11.293  1.00  0.00     0.169 HD
BRANCH  31  33
HETATM   33  C16 UNL     1     -11.473 -17.875 -11.672  1.00  0.00     0.063 A 
HETATM   34  C17 UNL     1     -10.858 -17.004 -10.770  1.00  0.00     0.036 A 
HETATM   35  C18 UNL     1     -11.229 -15.680 -10.740  1.00  0.00     0.050 A 
HETATM   36  C19 UNL     1     -12.200 -15.236 -11.599  1.00  0.00     0.099 A 
HETATM   37  N8  UNL     1     -12.785 -16.064 -12.461  1.00  0.00    -0.340 N 
HETATM   38  C20 UNL     1     -12.449 -17.386 -12.529  1.00  0.00     0.072 A 
ATOM     39  H8  UNL     1     -13.504 -15.702 -13.088  1.00  0.00     0.167 HD
BRANCH  36  40
HETATM   40  N7  UNL     1     -12.575 -13.983 -11.592  1.00  0.00    -0.385 N 
ATOM     41  H72 UNL     1     -12.565 -13.470 -12.474  1.00  0.00     0.157 HD
ATOM     42  H71 UNL     1     -12.871 -13.532 -10.726  1.00  0.00     0.157 HD
ENDBRANCH  36  40
BRANCH  38  43
HETATM   43  C21 UNL     1     -13.119 -18.247 -13.472  1.00  0.00     0.008 A 
HETATM   44  C22 UNL     1     -14.421 -18.655 -13.143  1.00  0.00     0.016 A 
HETATM   45  C23 UNL     1     -15.177 -19.396 -14.026  1.00  0.00     0.018 A 
HETATM   46  C24 UNL     1     -14.673 -19.756 -15.253  1.00  0.00     0.087 A 
HETATM   47  N9  UNL     1     -13.442 -19.377 -15.577  1.00  0.00    -0.374 N 
HETATM   48  C25 UNL     1     -12.687 -18.640 -14.707  1.00  0.00     0.101 A 
ATOM     49  H9  UNL     1     -13.056 -19.639 -16.484  1.00  0.00     0.164 HD
ENDBRANCH  38  43
ENDBRANCH  31  33
ENDBRANCH   6  29
TORSDOF 8
ENDMDL
