MODEL 1
REMARK VINA RESULT: -10.304213514      0.000      0.000
REMARK  10 active torsions:
REMARK  status: ('A' for Active; 'I' for Inactive)
REMARK    1  A    between atoms: N1_1  and  C1_4 
REMARK    2  A    between atoms: C1_4  and  C2_6 
REMARK    3  A    between atoms: C5_9  and  C6_10 
REMARK    4  A    between atoms: C9_13  and  O1_14 
REMARK    5  A    between atoms: O1_14  and  C10_15 
REMARK    6  A    between atoms: C13_18  and  N3_19 
REMARK    7  A    between atoms: N3_19  and  C14_21 
REMARK    8  A    between atoms: C15_25  and  N5_26 
REMARK    9  A    between atoms: N5_26  and  C16_28 
REMARK   10  A    between atoms: C18_30  and  C19_31 
ROOT
HETATM    1  C10 UNL     1      -8.849 -22.234 -10.741  1.00  0.00     0.148 A 
HETATM    2  C11 UNL     1      -9.534 -23.405 -10.982  1.00  0.00     0.059 A 
HETATM    3  C12 UNL     1      -9.405 -24.047 -12.212  1.00  0.00     0.036 A 
HETATM    4  C13 UNL     1      -8.594 -23.523 -13.201  1.00  0.00     0.064 A 
HETATM    5  C21 UNL     1      -7.931 -22.349 -12.912  1.00  0.00     0.120 A 
HETATM    6  N10 UNL     1      -8.068 -21.743 -11.718  1.00  0.00    -0.344 N 
ATOM      7  H10 UNL     1      -7.559 -20.876 -11.548  1.00  0.00     0.167 HD
ENDROOT
BRANCH   4   8
HETATM    8  N3  UNL     1      -8.420 -24.123 -14.463  1.00  0.00    -0.190 N 
ATOM      9  H3  UNL     1      -7.932 -25.015 -14.548  1.00  0.00     0.184 HD
BRANCH   8  10
HETATM   10  C14 UNL     1      -8.893 -23.518 -15.531  1.00  0.00     0.691 A 
HETATM   11  N4  UNL     1      -8.145 -23.495 -16.633  1.00  0.00    -0.157 N 
HETATM   12  S1  UNL     1      -9.100 -22.647 -17.726  1.00  0.00     0.039 SA
ATOM     13  H4  UNL     1      -7.218 -23.895 -16.778  1.00  0.00     0.193 HD
HETATM   14  C15 UNL     1     -10.438 -22.353 -16.714  1.00  0.00     0.182 A 
HETATM   15  N9  UNL     1     -10.069 -22.934 -15.569  1.00  0.00    -0.168 N 
ATOM     16  H9  UNL     1     -10.680 -22.924 -14.752  1.00  0.00     0.186 HD
BRANCH  14  17
HETATM   17  N5  UNL     1     -11.566 -21.717 -16.966  1.00  0.00    -0.321 N 
ATOM     18  H5  UNL     1     -12.094 -21.877 -17.824  1.00  0.00     0.169 HD
BRANCH  17  19
HETATM   19  C16 UNL     1     -12.003 -20.797 -15.976  1.00  0.00     0.107 A 
HETATM   20  C17 UNL     1     -13.317 -20.691 -15.506  1.00  0.00     0.064 A 
HETATM   21  C18 UNL     1     -13.378 -19.699 -14.555  1.00  0.00     0.024 A 
HETATM   22  C20 UNL     1     -12.103 -19.197 -14.440  1.00  0.00     0.104 A 
HETATM   23  N8  UNL     1     -11.299 -19.877 -15.307  1.00  0.00    -0.351 N 
ATOM     24  H8  UNL     1     -10.300 -19.708 -15.428  1.00  0.00     0.166 HD
BRANCH  21  25
HETATM   25  C19 UNL     1     -14.577 -19.301 -13.843  1.00  0.00     0.121 C 
HETATM   26  N6  UNL     1     -15.726 -19.823 -14.103  1.00  0.00    -0.387 N 
ATOM     27  H62 UNL     1     -15.798 -20.536 -14.828  1.00  0.00     0.157 HD
ATOM     28  H61 UNL     1     -16.570 -19.544 -13.602  1.00  0.00     0.157 HD
HETATM   29  N7  UNL     1     -14.479 -18.313 -12.837  1.00  0.00    -0.082 NA
ENDBRANCH  21  25
ENDBRANCH  17  19
ENDBRANCH  14  17
ENDBRANCH   8  10
ENDBRANCH   4   8
BRANCH   1  30
HETATM   30  O1  UNL     1      -9.000 -21.615  -9.499  1.00  0.00    -0.294 OA
BRANCH  30  31
HETATM   31  C9  UNL     1      -9.754 -20.448  -9.463  1.00  0.00     0.077 A 
HETATM   32  C8  UNL     1      -9.145 -19.241  -9.725  1.00  0.00     0.038 A 
HETATM   33  C7  UNL     1      -9.882 -18.062  -9.695  1.00  0.00     0.015 A 
HETATM   34  C6  UNL     1     -11.240 -18.062  -9.402  1.00  0.00    -0.026 A 
HETATM   35  C23 UNL     1     -11.820 -19.285  -9.143  1.00  0.00     0.015 A 
HETATM   36  C22 UNL     1     -11.091 -20.476  -9.172  1.00  0.00     0.038 A 
BRANCH  34  37
HETATM   37  C5  UNL     1     -12.015 -16.827  -9.367  1.00  0.00    -0.026 A 
HETATM   38  C4  UNL     1     -12.988 -16.583  -8.424  1.00  0.00     0.013 A 
HETATM   39  C3  UNL     1     -13.738 -15.415  -8.373  1.00  0.00     0.015 A 
HETATM   40  C2  UNL     1     -13.494 -14.446  -9.318  1.00  0.00     0.004 A 
HETATM   41  C25 UNL     1     -12.515 -14.654 -10.295  1.00  0.00     0.015 A 
HETATM   42  C24 UNL     1     -11.802 -15.833 -10.295  1.00  0.00     0.013 A 
BRANCH  40  43
HETATM   43  C1  UNL     1     -14.247 -13.214  -9.308  1.00  0.00     0.120 C 
HETATM   44  N2  UNL     1     -13.815 -12.147 -10.168  1.00  0.00    -0.082 NA
BRANCH  43  45
HETATM   45  N1  UNL     1     -15.264 -13.036  -8.580  1.00  0.00    -0.387 N 
ATOM     46  H12 UNL     1     -16.113 -13.594  -8.665  1.00  0.00     0.157 HD
ATOM     47  H11 UNL     1     -15.238 -12.300  -7.874  1.00  0.00     0.157 HD
ENDBRANCH  43  45
ENDBRANCH  40  43
ENDBRANCH  34  37
ENDBRANCH  30  31
ENDBRANCH   1  30
TORSDOF 10
ENDMDL
MODEL 2
REMARK VINA RESULT: -10.216374082      0.974      1.595
REMARK  10 active torsions:
REMARK  status: ('A' for Active; 'I' for Inactive)
REMARK    1  A    between atoms: N1_1  and  C1_4 
REMARK    2  A    between atoms: C1_4  and  C2_6 
REMARK    3  A    between atoms: C5_9  and  C6_10 
REMARK    4  A    between atoms: C9_13  and  O1_14 
REMARK    5  A    between atoms: O1_14  and  C10_15 
REMARK    6  A    between atoms: C13_18  and  N3_19 
REMARK    7  A    between atoms: N3_19  and  C14_21 
REMARK    8  A    between atoms: C15_25  and  N5_26 
REMARK    9  A    between atoms: N5_26  and  C16_28 
REMARK   10  A    between atoms: C18_30  and  C19_31 
ROOT
HETATM    1  C10 UNL     1      -8.853 -22.204 -10.715  1.00  0.00     0.148 A 
HETATM    2  C11 UNL     1      -9.701 -23.149 -11.251  1.00  0.00     0.059 A 
HETATM    3  C12 UNL     1      -9.420 -23.713 -12.493  1.00  0.00     0.036 A 
HETATM    4  C13 UNL     1      -8.294 -23.336 -13.202  1.00  0.00     0.064 A 
HETATM    5  C21 UNL     1      -7.477 -22.386 -12.625  1.00  0.00     0.120 A 
HETATM    6  N10 UNL     1      -7.766 -21.853 -11.423  1.00  0.00    -0.344 N 
ATOM      7  H10 UNL     1      -7.134 -21.153 -11.034  1.00  0.00     0.167 HD
ENDROOT
BRANCH   4   8
HETATM    8  N3  UNL     1      -7.953 -23.869 -14.460  1.00  0.00    -0.190 N 
ATOM      9  H3  UNL     1      -7.607 -24.825 -14.540  1.00  0.00     0.184 HD
BRANCH   8  10
HETATM   10  C14 UNL     1      -8.085 -23.117 -15.531  1.00  0.00     0.691 A 
HETATM   11  N4  UNL     1      -7.059 -23.028 -16.376  1.00  0.00    -0.157 N 
HETATM   12  S1  UNL     1      -7.637 -21.997 -17.572  1.00  0.00     0.039 SA
ATOM     13  H4  UNL     1      -6.145 -23.476 -16.314  1.00  0.00     0.193 HD
HETATM   14  C15 UNL     1      -9.191 -21.718 -16.933  1.00  0.00     0.182 A 
HETATM   15  N9  UNL     1      -9.180 -22.447 -15.813  1.00  0.00    -0.168 N 
ATOM     16  H9  UNL     1      -9.993 -22.482 -15.199  1.00  0.00     0.186 HD
BRANCH  14  17
HETATM   17  N5  UNL     1     -10.177 -20.977 -17.400  1.00  0.00    -0.321 N 
ATOM     18  H5  UNL     1     -10.192 -20.646 -18.365  1.00  0.00     0.169 HD
BRANCH  17  19
HETATM   19  C16 UNL     1     -11.218 -20.667 -16.485  1.00  0.00     0.107 A 
HETATM   20  C17 UNL     1     -11.295 -19.494 -15.725  1.00  0.00     0.064 A 
HETATM   21  C18 UNL     1     -12.431 -19.530 -14.951  1.00  0.00     0.024 A 
HETATM   22  C20 UNL     1     -13.052 -20.723 -15.234  1.00  0.00     0.104 A 
HETATM   23  N8  UNL     1     -12.300 -21.385 -16.160  1.00  0.00    -0.351 N 
ATOM     24  H8  UNL     1     -12.530 -22.300 -16.549  1.00  0.00     0.166 HD
BRANCH  21  25
HETATM   25  C19 UNL     1     -12.846 -18.487 -14.033  1.00  0.00     0.121 C 
HETATM   26  N6  UNL     1     -12.503 -18.499 -12.791  1.00  0.00    -0.387 N 
ATOM     27  H62 UNL     1     -11.923 -19.262 -12.441  1.00  0.00     0.157 HD
ATOM     28  H61 UNL     1     -12.794 -17.766 -12.145  1.00  0.00     0.157 HD
HETATM   29  N7  UNL     1     -13.649 -17.429 -14.517  1.00  0.00    -0.082 NA
ENDBRANCH  21  25
ENDBRANCH  17  19
ENDBRANCH  14  17
ENDBRANCH   8  10
ENDBRANCH   4   8
BRANCH   1  30
HETATM   30  O1  UNL     1      -9.163 -21.658  -9.468  1.00  0.00    -0.294 OA
BRANCH  30  31
HETATM   31  C9  UNL     1      -9.864 -20.457  -9.463  1.00  0.00     0.077 A 
HETATM   32  C8  UNL     1     -11.214 -20.462  -9.193  1.00  0.00     0.038 A 
HETATM   33  C7  UNL     1     -11.931 -19.271  -9.182  1.00  0.00     0.015 A 
HETATM   34  C6  UNL     1     -11.319 -18.052  -9.441  1.00  0.00    -0.026 A 
HETATM   35  C23 UNL     1      -9.967 -18.080  -9.710  1.00  0.00     0.015 A 
HETATM   36  C22 UNL     1      -9.235 -19.269  -9.722  1.00  0.00     0.038 A 
BRANCH  34  37
HETATM   37  C5  UNL     1     -12.070 -16.801  -9.433  1.00  0.00    -0.026 A 
HETATM   38  C4  UNL     1     -11.902 -15.824 -10.389  1.00  0.00     0.013 A 
HETATM   39  C3  UNL     1     -12.605 -14.626 -10.400  1.00  0.00     0.015 A 
HETATM   40  C2  UNL     1     -13.522 -14.404  -9.399  1.00  0.00     0.004 A 
HETATM   41  C25 UNL     1     -13.724 -15.371  -8.408  1.00  0.00     0.015 A 
HETATM   42  C24 UNL     1     -12.996 -16.540  -8.449  1.00  0.00     0.013 A 
BRANCH  40  43
HETATM   43  C1  UNL     1     -14.279 -13.175  -9.366  1.00  0.00     0.120 C 
HETATM   44  N2  UNL     1     -13.851 -12.090 -10.206  1.00  0.00    -0.082 NA
BRANCH  43  45
HETATM   45  N1  UNL     1     -15.295 -13.013  -8.633  1.00  0.00    -0.387 N 
ATOM     46  H12 UNL     1     -15.326 -12.341  -7.866  1.00  0.00     0.157 HD
ATOM     47  H11 UNL     1     -16.125 -13.578  -8.813  1.00  0.00     0.157 HD
ENDBRANCH  43  45
ENDBRANCH  40  43
ENDBRANCH  34  37
ENDBRANCH  30  31
ENDBRANCH   1  30
TORSDOF 10
ENDMDL
MODEL 3
REMARK VINA RESULT: -10.026966693      2.964      9.106
REMARK  10 active torsions:
REMARK  status: ('A' for Active; 'I' for Inactive)
REMARK    1  A    between atoms: N1_1  and  C1_4 
REMARK    2  A    between atoms: C1_4  and  C2_6 
REMARK    3  A    between atoms: C5_9  and  C6_10 
REMARK    4  A    between atoms: C9_13  and  O1_14 
REMARK    5  A    between atoms: O1_14  and  C10_15 
REMARK    6  A    between atoms: C13_18  and  N3_19 
REMARK    7  A    between atoms: N3_19  and  C14_21 
REMARK    8  A    between atoms: C15_25  and  N5_26 
REMARK    9  A    between atoms: N5_26  and  C16_28 
REMARK   10  A    between atoms: C18_30  and  C19_31 
ROOT
HETATM    1  C10 UNL     1      -9.258 -21.033  -9.528  1.00  0.00     0.148 A 
HETATM    2  C11 UNL     1     -10.470 -21.286  -8.924  1.00  0.00     0.059 A 
HETATM    3  C12 UNL     1     -11.467 -20.313  -8.926  1.00  0.00     0.036 A 
HETATM    4  C13 UNL     1     -11.256 -19.088  -9.530  1.00  0.00     0.064 A 
HETATM    5  C21 UNL     1     -10.027 -18.881 -10.120  1.00  0.00     0.120 A 
HETATM    6  N10 UNL     1      -9.076 -19.835 -10.107  1.00  0.00    -0.344 N 
ATOM      7  H10 UNL     1      -8.181 -19.639 -10.556  1.00  0.00     0.167 HD
ENDROOT
BRANCH   4   8
HETATM    8  N3  UNL     1     -12.222 -18.063  -9.569  1.00  0.00    -0.190 N 
ATOM      9  H3  UNL     1     -12.825 -17.890  -8.764  1.00  0.00     0.184 HD
BRANCH   8  10
HETATM   10  C14 UNL     1     -12.336 -17.331 -10.656  1.00  0.00     0.691 A 
HETATM   11  N4  UNL     1     -12.013 -16.040 -10.590  1.00  0.00    -0.157 N 
HETATM   12  S1  UNL     1     -12.298 -15.495 -12.155  1.00  0.00     0.039 SA
ATOM     13  H4  UNL     1     -11.676 -15.511  -9.787  1.00  0.00     0.193 HD
HETATM   14  C15 UNL     1     -12.825 -16.963 -12.840  1.00  0.00     0.182 A 
HETATM   15  N9  UNL     1     -12.752 -17.808 -11.808  1.00  0.00    -0.168 N 
ATOM     16  H9  UNL     1     -13.011 -18.789 -11.910  1.00  0.00     0.186 HD
BRANCH  14  17
HETATM   17  N5  UNL     1     -13.213 -17.231 -14.072  1.00  0.00    -0.321 N 
ATOM     18  H5  UNL     1     -13.518 -16.497 -14.712  1.00  0.00     0.169 HD
BRANCH  17  19
HETATM   19  C16 UNL     1     -13.182 -18.598 -14.458  1.00  0.00     0.107 A 
HETATM   20  C17 UNL     1     -12.129 -19.214 -15.143  1.00  0.00     0.064 A 
HETATM   21  C18 UNL     1     -12.438 -20.538 -15.350  1.00  0.00     0.024 A 
HETATM   22  C20 UNL     1     -13.679 -20.736 -14.793  1.00  0.00     0.104 A 
HETATM   23  N8  UNL     1     -14.101 -19.551 -14.264  1.00  0.00    -0.351 N 
ATOM     24  H8  UNL     1     -14.993 -19.412 -13.788  1.00  0.00     0.166 HD
BRANCH  21  25
HETATM   25  C19 UNL     1     -11.585 -21.495 -16.030  1.00  0.00     0.121 C 
HETATM   26  N6  UNL     1     -10.645 -22.125 -15.413  1.00  0.00    -0.387 N 
ATOM     27  H62 UNL     1     -10.494 -21.949 -14.420  1.00  0.00     0.157 HD
ATOM     28  H61 UNL     1     -10.046 -22.798 -15.890  1.00  0.00     0.157 HD
HETATM   29  N7  UNL     1     -11.795 -21.740 -17.406  1.00  0.00    -0.082 NA
ENDBRANCH  21  25
ENDBRANCH  17  19
ENDBRANCH  14  17
ENDBRANCH   8  10
ENDBRANCH   4   8
BRANCH   1  30
HETATM   30  O1  UNL     1      -8.280 -22.029  -9.508  1.00  0.00    -0.294 OA
BRANCH  30  31
HETATM   31  C9  UNL     1      -8.256 -22.910 -10.583  1.00  0.00     0.077 A 
HETATM   32  C8  UNL     1      -7.065 -23.157 -11.230  1.00  0.00     0.038 A 
HETATM   33  C7  UNL     1      -7.020 -24.034 -12.307  1.00  0.00     0.015 A 
HETATM   34  C6  UNL     1      -8.160 -24.683 -12.763  1.00  0.00    -0.026 A 
HETATM   35  C23 UNL     1      -9.338 -24.414 -12.097  1.00  0.00     0.015 A 
HETATM   36  C22 UNL     1      -9.395 -23.536 -11.013  1.00  0.00     0.038 A 
BRANCH  34  37
HETATM   37  C5  UNL     1      -8.117 -25.602 -13.895  1.00  0.00    -0.026 A 
HETATM   38  C4  UNL     1      -8.648 -25.294 -15.128  1.00  0.00     0.013 A 
HETATM   39  C3  UNL     1      -8.618 -26.155 -16.218  1.00  0.00     0.015 A 
HETATM   40  C2  UNL     1      -8.024 -27.384 -16.056  1.00  0.00     0.004 A 
HETATM   41  C25 UNL     1      -7.473 -27.738 -14.820  1.00  0.00     0.015 A 
HETATM   42  C24 UNL     1      -7.533 -26.843 -13.775  1.00  0.00     0.013 A 
BRANCH  40  43
HETATM   43  C1  UNL     1      -7.968 -28.315 -17.159  1.00  0.00     0.120 C 
HETATM   44  N2  UNL     1      -8.987 -29.324 -17.250  1.00  0.00    -0.082 NA
BRANCH  43  45
HETATM   45  N1  UNL     1      -7.065 -28.281 -18.042  1.00  0.00    -0.387 N 
ATOM     46  H12 UNL     1      -7.230 -28.539 -19.014  1.00  0.00     0.157 HD
ATOM     47  H11 UNL     1      -6.128 -27.981 -17.774  1.00  0.00     0.157 HD
ENDBRANCH  43  45
ENDBRANCH  40  43
ENDBRANCH  34  37
ENDBRANCH  30  31
ENDBRANCH   1  30
TORSDOF 10
ENDMDL
MODEL 4
REMARK VINA RESULT: -9.864886757      3.460      9.240
REMARK  10 active torsions:
REMARK  status: ('A' for Active; 'I' for Inactive)
REMARK    1  A    between atoms: N1_1  and  C1_4 
REMARK    2  A    between atoms: C1_4  and  C2_6 
REMARK    3  A    between atoms: C5_9  and  C6_10 
REMARK    4  A    between atoms: C9_13  and  O1_14 
REMARK    5  A    between atoms: O1_14  and  C10_15 
REMARK    6  A    between atoms: C13_18  and  N3_19 
REMARK    7  A    between atoms: N3_19  and  C14_21 
REMARK    8  A    between atoms: C15_25  and  N5_26 
REMARK    9  A    between atoms: N5_26  and  C16_28 
REMARK   10  A    between atoms: C18_30  and  C19_31 
ROOT
HETATM    1  C10 UNL     1      -8.253 -20.998  -9.185  1.00  0.00     0.148 A 
HETATM    2  C11 UNL     1      -7.138 -20.214  -8.986  1.00  0.00     0.059 A 
HETATM    3  C12 UNL     1      -7.218 -18.833  -9.158  1.00  0.00     0.036 A 
HETATM    4  C13 UNL     1      -8.407 -18.235  -9.526  1.00  0.00     0.064 A 
HETATM    5  C21 UNL     1      -9.495 -19.062  -9.714  1.00  0.00     0.120 A 
HETATM    6  N10 UNL     1      -9.398 -20.395  -9.543  1.00  0.00    -0.344 N 
ATOM      7  H10 UNL     1     -10.228 -20.968  -9.693  1.00  0.00     0.167 HD
ENDROOT
BRANCH   4   8
HETATM    8  N3  UNL     1      -8.555 -16.847  -9.714  1.00  0.00    -0.190 N 
ATOM      9  H3  UNL     1      -7.735 -16.247  -9.800  1.00  0.00     0.184 HD
BRANCH   8  10
HETATM   10  C14 UNL     1      -9.765 -16.334  -9.778  1.00  0.00     0.691 A 
HETATM   11  N4  UNL     1     -10.282 -15.786  -8.680  1.00  0.00    -0.157 N 
HETATM   12  S1  UNL     1     -11.799 -15.268  -9.188  1.00  0.00     0.039 SA
ATOM     13  H4  UNL     1      -9.861 -15.701  -7.755  1.00  0.00     0.193 HD
HETATM   14  C15 UNL     1     -11.707 -15.781 -10.811  1.00  0.00     0.182 A 
HETATM   15  N9  UNL     1     -10.492 -16.333 -10.873  1.00  0.00    -0.168 N 
ATOM     16  H9  UNL     1     -10.142 -16.740 -11.740  1.00  0.00     0.186 HD
BRANCH  14  17
HETATM   17  N5  UNL     1     -12.593 -15.674 -11.782  1.00  0.00    -0.321 N 
ATOM     18  H5  UNL     1     -13.001 -14.776 -12.043  1.00  0.00     0.169 HD
BRANCH  17  19
HETATM   19  C16 UNL     1     -12.945 -16.879 -12.446  1.00  0.00     0.107 A 
HETATM   20  C17 UNL     1     -13.048 -17.030 -13.834  1.00  0.00     0.064 A 
HETATM   21  C18 UNL     1     -13.407 -18.326 -14.123  1.00  0.00     0.024 A 
HETATM   22  C20 UNL     1     -13.525 -18.971 -12.915  1.00  0.00     0.104 A 
HETATM   23  N8  UNL     1     -13.241 -18.076 -11.925  1.00  0.00    -0.351 N 
ATOM     24  H8  UNL     1     -13.252 -18.289 -10.927  1.00  0.00     0.166 HD
BRANCH  21  25
HETATM   25  C19 UNL     1     -13.610 -18.855 -15.458  1.00  0.00     0.121 C 
HETATM   26  N6  UNL     1     -13.660 -18.088 -16.492  1.00  0.00    -0.387 N 
ATOM     27  H62 UNL     1     -13.556 -17.081 -16.373  1.00  0.00     0.157 HD
ATOM     28  H61 UNL     1     -13.802 -18.461 -17.431  1.00  0.00     0.157 HD
HETATM   29  N7  UNL     1     -13.754 -20.251 -15.625  1.00  0.00    -0.082 NA
ENDBRANCH  21  25
ENDBRANCH  17  19
ENDBRANCH  14  17
ENDBRANCH   8  10
ENDBRANCH   4   8
BRANCH   1  30
HETATM   30  O1  UNL     1      -8.140 -22.378  -9.005  1.00  0.00    -0.294 OA
BRANCH  30  31
HETATM   31  C9  UNL     1      -8.170 -23.167 -10.148  1.00  0.00     0.077 A 
HETATM   32  C8  UNL     1      -6.986 -23.556 -10.735  1.00  0.00     0.038 A 
HETATM   33  C7  UNL     1      -6.996 -24.346 -11.878  1.00  0.00     0.015 A 
HETATM   34  C6  UNL     1      -8.184 -24.764 -12.463  1.00  0.00    -0.026 A 
HETATM   35  C23 UNL     1      -9.353 -24.357 -11.854  1.00  0.00     0.015 A 
HETATM   36  C22 UNL     1      -9.356 -23.565 -10.704  1.00  0.00     0.038 A 
BRANCH  34  37
HETATM   37  C5  UNL     1      -8.198 -25.590 -13.664  1.00  0.00    -0.026 A 
HETATM   38  C4  UNL     1      -8.872 -25.231 -14.810  1.00  0.00     0.013 A 
HETATM   39  C3  UNL     1      -8.898 -26.003 -15.965  1.00  0.00     0.015 A 
HETATM   40  C2  UNL     1      -8.212 -27.194 -15.963  1.00  0.00     0.004 A 
HETATM   41  C25 UNL     1      -7.515 -27.598 -14.819  1.00  0.00     0.015 A 
HETATM   42  C24 UNL     1      -7.524 -26.791 -13.704  1.00  0.00     0.013 A 
BRANCH  40  43
HETATM   43  C1  UNL     1      -8.208 -28.033 -17.138  1.00  0.00     0.120 C 
HETATM   44  N2  UNL     1      -9.060 -29.191 -17.149  1.00  0.00    -0.082 NA
BRANCH  43  45
HETATM   45  N1  UNL     1      -7.493 -27.795 -18.151  1.00  0.00    -0.387 N 
ATOM     46  H12 UNL     1      -6.677 -27.184 -18.123  1.00  0.00     0.157 HD
ATOM     47  H11 UNL     1      -7.739 -28.231 -19.040  1.00  0.00     0.157 HD
ENDBRANCH  43  45
ENDBRANCH  40  43
ENDBRANCH  34  37
ENDBRANCH  30  31
ENDBRANCH   1  30
TORSDOF 10
ENDMDL
MODEL 5
REMARK VINA RESULT: -9.837073571      1.097      1.616
REMARK  10 active torsions:
REMARK  status: ('A' for Active; 'I' for Inactive)
REMARK    1  A    between atoms: N1_1  and  C1_4 
REMARK    2  A    between atoms: C1_4  and  C2_6 
REMARK    3  A    between atoms: C5_9  and  C6_10 
REMARK    4  A    between atoms: C9_13  and  O1_14 
REMARK    5  A    between atoms: O1_14  and  C10_15 
REMARK    6  A    between atoms: C13_18  and  N3_19 
REMARK    7  A    between atoms: N3_19  and  C14_21 
REMARK    8  A    between atoms: C15_25  and  N5_26 
REMARK    9  A    between atoms: N5_26  and  C16_28 
REMARK   10  A    between atoms: C18_30  and  C19_31 
ROOT
HETATM    1  C10 UNL     1      -8.536 -22.721 -10.511  1.00  0.00     0.148 A 
HETATM    2  C11 UNL     1      -9.378 -23.687 -11.018  1.00  0.00     0.059 A 
HETATM    3  C12 UNL     1      -9.056 -24.337 -12.208  1.00  0.00     0.036 A 
HETATM    4  C13 UNL     1      -7.896 -24.025 -12.891  1.00  0.00     0.064 A 
HETATM    5  C21 UNL     1      -7.086 -23.051 -12.344  1.00  0.00     0.120 A 
HETATM    6  N10 UNL     1      -7.415 -22.434 -11.193  1.00  0.00    -0.344 N 
ATOM      7  H10 UNL     1      -6.787 -21.720 -10.825  1.00  0.00     0.167 HD
ENDROOT
BRANCH   4   8
HETATM    8  N3  UNL     1      -7.512 -24.645 -14.096  1.00  0.00    -0.190 N 
ATOM      9  H3  UNL     1      -7.118 -25.586 -14.091  1.00  0.00     0.184 HD
BRANCH   8  10
HETATM   10  C14 UNL     1      -7.669 -23.996 -15.230  1.00  0.00     0.691 A 
HETATM   11  N4  UNL     1      -6.592 -23.739 -15.970  1.00  0.00    -0.157 N 
HETATM   12  S1  UNL     1      -7.224 -22.917 -17.293  1.00  0.00     0.039 SA
ATOM     13  H4  UNL     1      -5.620 -23.982 -15.780  1.00  0.00     0.193 HD
HETATM   14  C15 UNL     1      -8.866 -22.937 -16.839  1.00  0.00     0.182 A 
HETATM   15  N9  UNL     1      -8.837 -23.586 -15.672  1.00  0.00    -0.168 N 
ATOM     16  H9  UNL     1      -9.691 -23.758 -15.143  1.00  0.00     0.186 HD
BRANCH  14  17
HETATM   17  N5  UNL     1      -9.921 -22.445 -17.459  1.00  0.00    -0.321 N 
ATOM     18  H5  UNL     1     -10.181 -22.743 -18.399  1.00  0.00     0.169 HD
BRANCH  17  19
HETATM   19  C16 UNL     1     -10.675 -21.476 -16.744  1.00  0.00     0.107 A 
HETATM   20  C17 UNL     1     -11.868 -21.735 -16.059  1.00  0.00     0.064 A 
HETATM   21  C18 UNL     1     -12.321 -20.570 -15.484  1.00  0.00     0.024 A 
HETATM   22  C20 UNL     1     -11.408 -19.597 -15.816  1.00  0.00     0.104 A 
HETATM   23  N8  UNL     1     -10.430 -20.172 -16.574  1.00  0.00    -0.351 N 
ATOM     24  H8  UNL     1      -9.624 -19.676 -16.956  1.00  0.00     0.166 HD
BRANCH  21  25
HETATM   25  C19 UNL     1     -13.531 -20.448 -14.694  1.00  0.00     0.121 C 
HETATM   26  N6  UNL     1     -13.494 -20.271 -13.418  1.00  0.00    -0.387 N 
ATOM     27  H62 UNL     1     -12.590 -20.215 -12.948  1.00  0.00     0.157 HD
ATOM     28  H61 UNL     1     -14.344 -20.185 -12.862  1.00  0.00     0.157 HD
HETATM   29  N7  UNL     1     -14.783 -20.525 -15.345  1.00  0.00    -0.082 NA
ENDBRANCH  21  25
ENDBRANCH  17  19
ENDBRANCH  14  17
ENDBRANCH   8  10
ENDBRANCH   4   8
BRANCH   1  30
HETATM   30  O1  UNL     1      -8.888 -22.088  -9.317  1.00  0.00    -0.294 OA
BRANCH  30  31
HETATM   31  C9  UNL     1      -9.563 -20.878  -9.420  1.00  0.00     0.077 A 
HETATM   32  C8  UNL     1      -8.866 -19.741  -9.764  1.00  0.00     0.038 A 
HETATM   33  C7  UNL     1      -9.524 -18.521  -9.872  1.00  0.00     0.015 A 
HETATM   34  C6  UNL     1     -10.888 -18.408  -9.639  1.00  0.00    -0.026 A 
HETATM   35  C23 UNL     1     -11.558 -19.564  -9.296  1.00  0.00     0.015 A 
HETATM   36  C22 UNL     1     -10.909 -20.795  -9.185  1.00  0.00     0.038 A 
BRANCH  34  37
HETATM   37  C5  UNL     1     -11.581 -17.129  -9.750  1.00  0.00    -0.026 A 
HETATM   38  C4  UNL     1     -11.522 -16.344 -10.880  1.00  0.00     0.013 A 
HETATM   39  C3  UNL     1     -12.173 -15.123 -11.006  1.00  0.00     0.015 A 
HETATM   40  C2  UNL     1     -12.919 -14.674  -9.942  1.00  0.00     0.004 A 
HETATM   41  C25 UNL     1     -13.005 -15.440  -8.774  1.00  0.00     0.015 A 
HETATM   42  C24 UNL     1     -12.338 -16.643  -8.708  1.00  0.00     0.013 A 
BRANCH  40  43
HETATM   43  C1  UNL     1     -13.615 -13.411 -10.023  1.00  0.00     0.120 C 
HETATM   44  N2  UNL     1     -14.510 -13.059  -8.955  1.00  0.00    -0.082 NA
BRANCH  43  45
HETATM   45  N1  UNL     1     -13.471 -12.608 -10.987  1.00  0.00    -0.387 N 
ATOM     46  H12 UNL     1     -13.602 -11.600 -10.895  1.00  0.00     0.157 HD
ATOM     47  H11 UNL     1     -13.212 -12.979 -11.901  1.00  0.00     0.157 HD
ENDBRANCH  43  45
ENDBRANCH  40  43
ENDBRANCH  34  37
ENDBRANCH  30  31
ENDBRANCH   1  30
TORSDOF 10
ENDMDL
