MODEL 1
REMARK VINA RESULT: -7.115362963      0.000      0.000
REMARK  6 active torsions:
REMARK  status: ('A' for Active; 'I' for Inactive)
REMARK    1  A    between atoms: C1_4  and  C2_5 
REMARK    2  A    between atoms: C1_4  and  N4_18 
REMARK    3  A    between atoms: C2_5  and  C3_6 
REMARK    4  A    between atoms: C3_6  and  C4_12 
REMARK    5  A    between atoms: N2_7  and  N3_9 
REMARK    6  A    between atoms: N4_18  and  C10_20 
ROOT
HETATM    1  C2  UNL     1      24.979  -4.431  31.798  1.00  0.00     0.134 C 
ENDROOT
BRANCH   1   2
HETATM    2  C1  UNL     1      25.197  -5.479  30.762  1.00  0.00     0.076 C 
HETATM    3  N1  UNL     1      24.199  -6.117  30.295  1.00  0.00    -0.389 N 
ATOM      4  H12 UNL     1      23.256  -5.917  30.629  1.00  0.00     0.157 HD
ATOM      5  H11 UNL     1      24.348  -6.835  29.585  1.00  0.00     0.157 HD
BRANCH   2   6
HETATM    6  N4  UNL     1      26.499  -5.756  30.300  1.00  0.00    -0.375 N 
ATOM      7  H4  UNL     1      27.075  -4.940  30.089  1.00  0.00     0.161 HD
BRANCH   6   8
HETATM    8  C10 UNL     1      27.120  -7.021  30.087  1.00  0.00     0.082 C 
HETATM    9  C11 UNL     1      27.759  -7.482  31.415  1.00  0.00     0.025 C 
HETATM   10  C12 UNL     1      28.885  -6.568  31.768  1.00  0.00     0.002 C 
HETATM   11  C13 UNL     1      29.922  -6.606  30.691  1.00  0.00     0.000 C 
HETATM   12  C14 UNL     1      29.382  -6.277  29.316  1.00  0.00     0.002 C 
HETATM   13  C15 UNL     1      28.145  -7.080  28.998  1.00  0.00     0.025 C 
ENDBRANCH   6   8
ENDBRANCH   2   6
ENDBRANCH   1   2
BRANCH   1  14
HETATM   14  C3  UNL     1      25.366  -3.061  31.289  1.00  0.00     0.038 C 
HETATM   15  N2  UNL     1      24.683  -2.603  30.367  1.00  0.00    -0.310 N 
ATOM     16  H2  UNL     1      23.949  -3.259  30.101  1.00  0.00     0.186 HD
BRANCH  15  17
HETATM   17  N3  UNL     1      24.624  -1.486  29.604  1.00  0.00    -0.345 N 
ATOM     18  H32 UNL     1      23.673  -1.117  29.624  1.00  0.00     0.176 HD
ATOM     19  H31 UNL     1      25.246  -0.919  29.027  1.00  0.00     0.176 HD
ENDBRANCH  15  17
BRANCH  14  20
HETATM   20  C4  UNL     1      26.478  -2.411  31.916  1.00  0.00    -0.037 C 
HETATM   21  C5  UNL     1      26.410  -1.317  32.672  1.00  0.00    -0.018 C 
HETATM   22  C6  UNL     1      27.725  -0.825  33.217  1.00  0.00     0.028 C 
HETATM   23  C7  UNL     1      28.317  -1.997  33.971  1.00  0.00     0.004 C 
HETATM   24  C8  UNL     1      28.634  -3.077  32.976  1.00  0.00     0.005 C 
HETATM   25  C9  UNL     1      27.859  -3.006  31.705  1.00  0.00     0.040 C 
ENDBRANCH  14  20
ENDBRANCH   1  14
TORSDOF 6
ENDMDL
MODEL 2
REMARK VINA RESULT: -6.998296766      1.534      2.398
REMARK  6 active torsions:
REMARK  status: ('A' for Active; 'I' for Inactive)
REMARK    1  A    between atoms: C1_4  and  C2_5 
REMARK    2  A    between atoms: C1_4  and  N4_18 
REMARK    3  A    between atoms: C2_5  and  C3_6 
REMARK    4  A    between atoms: C3_6  and  C4_12 
REMARK    5  A    between atoms: N2_7  and  N3_9 
REMARK    6  A    between atoms: N4_18  and  C10_20 
ROOT
HETATM    1  C2  UNL     1      26.467  -5.622  29.845  1.00  0.00     0.134 C 
ENDROOT
BRANCH   1   2
HETATM    2  C1  UNL     1      26.691  -6.824  30.697  1.00  0.00     0.076 C 
HETATM    3  N1  UNL     1      25.703  -7.560  31.016  1.00  0.00    -0.389 N 
ATOM      4  H12 UNL     1      24.762  -7.329  30.695  1.00  0.00     0.157 HD
ATOM      5  H11 UNL     1      25.856  -8.383  31.599  1.00  0.00     0.157 HD
BRANCH   2   6
HETATM    6  N4  UNL     1      27.990  -7.143  31.141  1.00  0.00    -0.375 N 
ATOM      7  H4  UNL     1      28.250  -8.128  31.074  1.00  0.00     0.161 HD
BRANCH   6   8
HETATM    8  C10 UNL     1      28.990  -6.276  31.670  1.00  0.00     0.082 C 
HETATM    9  C11 UNL     1      29.908  -5.823  30.514  1.00  0.00     0.025 C 
HETATM   10  C12 UNL     1      30.669  -6.999  29.996  1.00  0.00     0.002 C 
HETATM   11  C13 UNL     1      31.512  -7.576  31.088  1.00  0.00     0.000 C 
HETATM   12  C14 UNL     1      30.727  -7.956  32.324  1.00  0.00     0.002 C 
HETATM   13  C15 UNL     1      29.828  -6.832  32.779  1.00  0.00     0.025 C 
ENDBRANCH   6   8
ENDBRANCH   2   6
ENDBRANCH   1   2
BRANCH   1  14
HETATM   14  C3  UNL     1      25.507  -4.654  30.497  1.00  0.00     0.038 C 
HETATM   15  N2  UNL     1      24.306  -4.827  30.262  1.00  0.00    -0.310 N 
ATOM     16  H2  UNL     1      24.171  -5.627  29.643  1.00  0.00     0.186 HD
BRANCH  15  17
HETATM   17  N3  UNL     1      23.116  -4.266  30.584  1.00  0.00    -0.345 N 
ATOM     18  H32 UNL     1      23.176  -3.256  30.454  1.00  0.00     0.176 HD
ATOM     19  H31 UNL     1      22.196  -4.559  30.914  1.00  0.00     0.176 HD
ENDBRANCH  15  17
BRANCH  14  20
HETATM   20  C4  UNL     1      26.061  -3.628  31.330  1.00  0.00    -0.037 C 
HETATM   21  C5  UNL     1      25.525  -3.174  32.460  1.00  0.00    -0.018 C 
HETATM   22  C6  UNL     1      26.303  -2.088  33.155  1.00  0.00     0.028 C 
HETATM   23  C7  UNL     1      27.689  -2.658  33.375  1.00  0.00     0.004 C 
HETATM   24  C8  UNL     1      28.328  -2.861  32.031  1.00  0.00     0.005 C 
HETATM   25  C9  UNL     1      27.371  -2.994  30.896  1.00  0.00     0.040 C 
ENDBRANCH  14  20
ENDBRANCH   1  14
TORSDOF 6
ENDMDL
MODEL 3
REMARK VINA RESULT: -6.928269606      0.831      1.363
REMARK  6 active torsions:
REMARK  status: ('A' for Active; 'I' for Inactive)
REMARK    1  A    between atoms: C1_4  and  C2_5 
REMARK    2  A    between atoms: C1_4  and  N4_18 
REMARK    3  A    between atoms: C2_5  and  C3_6 
REMARK    4  A    between atoms: C3_6  and  C4_12 
REMARK    5  A    between atoms: N2_7  and  N3_9 
REMARK    6  A    between atoms: N4_18  and  C10_20 
ROOT
HETATM    1  C2  UNL     1      25.769  -4.030  29.462  1.00  0.00     0.134 C 
ENDROOT
BRANCH   1   2
HETATM    2  C1  UNL     1      25.318  -5.260  30.172  1.00  0.00     0.076 C 
HETATM    3  N1  UNL     1      24.094  -5.604  30.115  1.00  0.00    -0.389 N 
ATOM      4  H12 UNL     1      23.424  -5.041  29.592  1.00  0.00     0.157 HD
ATOM      5  H11 UNL     1      23.785  -6.446  30.601  1.00  0.00     0.157 HD
BRANCH   2   6
HETATM    6  N4  UNL     1      26.245  -6.038  30.896  1.00  0.00    -0.375 N 
ATOM      7  H4  UNL     1      26.412  -5.743  31.858  1.00  0.00     0.161 HD
BRANCH   6   8
HETATM    8  C10 UNL     1      26.980  -7.181  30.464  1.00  0.00     0.082 C 
HETATM    9  C11 UNL     1      27.922  -7.617  31.606  1.00  0.00     0.025 C 
HETATM   10  C12 UNL     1      28.960  -6.564  31.822  1.00  0.00     0.002 C 
HETATM   11  C13 UNL     1      29.761  -6.382  30.573  1.00  0.00     0.000 C 
HETATM   12  C14 UNL     1      28.923  -6.059  29.355  1.00  0.00     0.002 C 
HETATM   13  C15 UNL     1      27.770  -7.020  29.203  1.00  0.00     0.025 C 
ENDBRANCH   6   8
ENDBRANCH   2   6
ENDBRANCH   1   2
BRANCH   1  14
HETATM   14  C3  UNL     1      25.775  -2.831  30.383  1.00  0.00     0.038 C 
HETATM   15  N2  UNL     1      25.029  -1.896  30.075  1.00  0.00    -0.310 N 
ATOM     16  H2  UNL     1      24.520  -2.108  29.217  1.00  0.00     0.186 HD
BRANCH  15  17
HETATM   17  N3  UNL     1      24.688  -0.671  30.542  1.00  0.00    -0.345 N 
ATOM     18  H32 UNL     1      25.287  -0.436  31.333  1.00  0.00     0.176 HD
ATOM     19  H31 UNL     1      24.018   0.069  30.332  1.00  0.00     0.176 HD
ENDBRANCH  15  17
BRANCH  14  20
HETATM   20  C4  UNL     1      26.633  -2.880  31.530  1.00  0.00    -0.037 C 
HETATM   21  C5  UNL     1      27.961  -2.968  31.500  1.00  0.00    -0.018 C 
HETATM   22  C6  UNL     1      28.637  -3.004  32.845  1.00  0.00     0.028 C 
HETATM   23  C7  UNL     1      28.169  -1.759  33.569  1.00  0.00     0.004 C 
HETATM   24  C8  UNL     1      26.694  -1.893  33.819  1.00  0.00     0.005 C 
HETATM   25  C9  UNL     1      25.986  -2.831  32.902  1.00  0.00     0.040 C 
ENDBRANCH  14  20
ENDBRANCH   1  14
TORSDOF 6
ENDMDL
MODEL 4
REMARK VINA RESULT: -6.925943203      1.443      5.138
REMARK  6 active torsions:
REMARK  status: ('A' for Active; 'I' for Inactive)
REMARK    1  A    between atoms: C1_4  and  C2_5 
REMARK    2  A    between atoms: C1_4  and  N4_18 
REMARK    3  A    between atoms: C2_5  and  C3_6 
REMARK    4  A    between atoms: C3_6  and  C4_12 
REMARK    5  A    between atoms: N2_7  and  N3_9 
REMARK    6  A    between atoms: N4_18  and  C10_20 
ROOT
HETATM    1  C2  UNL     1      26.830  -5.492  29.790  1.00  0.00     0.134 C 
ENDROOT
BRANCH   1   2
HETATM    2  C1  UNL     1      25.856  -4.593  30.471  1.00  0.00     0.076 C 
HETATM    3  N1  UNL     1      24.659  -4.526  30.042  1.00  0.00    -0.389 N 
ATOM      4  H12 UNL     1      24.367  -5.078  29.236  1.00  0.00     0.157 HD
ATOM      5  H11 UNL     1      23.992  -3.910  30.509  1.00  0.00     0.157 HD
BRANCH   2   6
HETATM    6  N4  UNL     1      26.259  -3.829  31.585  1.00  0.00    -0.375 N 
ATOM      7  H4  UNL     1      26.020  -4.219  32.497  1.00  0.00     0.161 HD
BRANCH   6   8
HETATM    8  C10 UNL     1      26.954  -2.585  31.609  1.00  0.00     0.082 C 
HETATM    9  C11 UNL     1      28.457  -2.868  31.824  1.00  0.00     0.025 C 
HETATM   10  C12 UNL     1      28.664  -3.439  33.189  1.00  0.00     0.002 C 
HETATM   11  C13 UNL     1      28.201  -2.460  34.220  1.00  0.00     0.000 C 
HETATM   12  C14 UNL     1      26.763  -2.022  34.040  1.00  0.00     0.002 C 
HETATM   13  C15 UNL     1      26.488  -1.587  32.622  1.00  0.00     0.025 C 
ENDBRANCH   6   8
ENDBRANCH   2   6
ENDBRANCH   1   2
BRANCH   1  14
HETATM   14  C3  UNL     1      27.179  -6.683  30.652  1.00  0.00     0.038 C 
HETATM   15  N2  UNL     1      26.296  -7.535  30.798  1.00  0.00    -0.310 N 
ATOM     16  H2  UNL     1      25.452  -7.271  30.289  1.00  0.00     0.186 HD
BRANCH  15  17
HETATM   17  N3  UNL     1      26.118  -8.716  31.436  1.00  0.00    -0.345 N 
ATOM     18  H32 UNL     1      25.630  -9.362  30.814  1.00  0.00     0.176 HD
ATOM     19  H31 UNL     1      26.329  -9.137  32.341  1.00  0.00     0.176 HD
ENDBRANCH  15  17
BRANCH  14  20
HETATM   20  C4  UNL     1      28.494  -6.730  31.218  1.00  0.00    -0.037 C 
HETATM   21  C5  UNL     1      28.822  -7.316  32.368  1.00  0.00    -0.018 C 
HETATM   22  C6  UNL     1      30.276  -7.226  32.748  1.00  0.00     0.028 C 
HETATM   23  C7  UNL     1      31.040  -7.811  31.577  1.00  0.00     0.004 C 
HETATM   24  C8  UNL     1      30.841  -6.906  30.395  1.00  0.00     0.005 C 
HETATM   25  C9  UNL     1      29.619  -6.055  30.455  1.00  0.00     0.040 C 
ENDBRANCH  14  20
ENDBRANCH   1  14
TORSDOF 6
ENDMDL
MODEL 5
REMARK VINA RESULT: -6.741363517      2.223      3.218
REMARK  6 active torsions:
REMARK  status: ('A' for Active; 'I' for Inactive)
REMARK    1  A    between atoms: C1_4  and  C2_5 
REMARK    2  A    between atoms: C1_4  and  N4_18 
REMARK    3  A    between atoms: C2_5  and  C3_6 
REMARK    4  A    between atoms: C3_6  and  C4_12 
REMARK    5  A    between atoms: N2_7  and  N3_9 
REMARK    6  A    between atoms: N4_18  and  C10_20 
ROOT
HETATM    1  C2  UNL     1      27.277  -3.668  30.381  1.00  0.00     0.134 C 
ENDROOT
BRANCH   1   2
HETATM    2  C1  UNL     1      28.211  -3.821  31.532  1.00  0.00     0.076 C 
HETATM    3  N1  UNL     1      28.432  -2.827  32.296  1.00  0.00    -0.389 N 
ATOM      4  H12 UNL     1      27.978  -1.931  32.122  1.00  0.00     0.157 HD
ATOM      5  H11 UNL     1      29.072  -2.932  33.084  1.00  0.00     0.157 HD
BRANCH   2   6
HETATM    6  N4  UNL     1      28.839  -5.060  31.772  1.00  0.00    -0.375 N 
ATOM      7  H4  UNL     1      29.487  -5.080  32.560  1.00  0.00     0.161 HD
BRANCH   6   8
HETATM    8  C10 UNL     1      28.692  -6.287  31.063  1.00  0.00     0.082 C 
HETATM    9  C11 UNL     1      28.917  -7.453  32.050  1.00  0.00     0.025 C 
HETATM   10  C12 UNL     1      30.340  -7.452  32.503  1.00  0.00     0.002 C 
HETATM   11  C13 UNL     1      31.244  -7.630  31.325  1.00  0.00     0.000 C 
HETATM   12  C14 UNL     1      31.033  -6.601  30.236  1.00  0.00     0.002 C 
HETATM   13  C15 UNL     1      29.575  -6.471  29.869  1.00  0.00     0.025 C 
ENDBRANCH   6   8
ENDBRANCH   2   6
ENDBRANCH   1   2
BRANCH   1  14
HETATM   14  C3  UNL     1      25.908  -3.219  30.836  1.00  0.00     0.038 C 
HETATM   15  N2  UNL     1      25.209  -4.068  31.400  1.00  0.00    -0.310 N 
ATOM     16  H2  UNL     1      25.702  -4.959  31.461  1.00  0.00     0.186 HD
BRANCH  15  17
HETATM   17  N3  UNL     1      23.981  -4.163  31.962  1.00  0.00    -0.345 N 
ATOM     18  H32 UNL     1      23.397  -4.773  31.388  1.00  0.00     0.176 HD
ATOM     19  H31 UNL     1      23.482  -3.808  32.778  1.00  0.00     0.176 HD
ENDBRANCH  15  17
BRANCH  14  20
HETATM   20  C4  UNL     1      25.537  -1.858  30.583  1.00  0.00    -0.037 C 
HETATM   21  C5  UNL     1      25.479  -0.890  31.495  1.00  0.00    -0.018 C 
HETATM   22  C6  UNL     1      25.060   0.461  30.977  1.00  0.00     0.028 C 
HETATM   23  C7  UNL     1      26.033   0.790  29.864  1.00  0.00     0.004 C 
HETATM   24  C8  UNL     1      25.813  -0.192  28.749  1.00  0.00     0.005 C 
HETATM   25  C9  UNL     1      25.174  -1.475  29.160  1.00  0.00     0.040 C 
ENDBRANCH  14  20
ENDBRANCH   1  14
TORSDOF 6
ENDMDL
