MODEL 1
REMARK VINA RESULT: -7.060635397      0.000      0.000
REMARK  4 active torsions:
REMARK  status: ('A' for Active; 'I' for Inactive)
REMARK    1  A    between atoms: C6_9  and  C8_11 
REMARK    2  A    between atoms: C8_11  and  N2_12 
REMARK       I    between atoms: N2_12  and  C9_14 
REMARK    3  A    between atoms: C9_14  and  C10_16 
REMARK    4  A    between atoms: C10_16  and  C12_18 
ROOT
HETATM    1  C1  UNL     1      28.481  -2.419  33.059  1.00  0.00     0.032 C 
HETATM    2  C2  UNL     1      27.290  -2.391  32.127  1.00  0.00     0.078 C 
HETATM    3  C3  UNL     1      26.211  -3.259  32.736  1.00  0.00     0.076 C 
HETATM    4  C4  UNL     1      25.084  -3.321  31.774  1.00  0.00    -0.016 C 
HETATM    5  N1  UNL     1      23.964  -3.759  32.162  1.00  0.00    -0.405 N 
ATOM      6  H11 UNL     1      23.189  -3.801  31.501  1.00  0.00     0.155 HD
ATOM      7  H12 UNL     1      23.832  -4.069  33.125  1.00  0.00     0.155 HD
HETATM    8  C5  UNL     1      25.274  -2.877  30.397  1.00  0.00     0.083 C 
HETATM    9  C6  UNL     1      26.676  -3.073  29.883  1.00  0.00     0.043 C 
HETATM   10  C7  UNL     1      26.868  -2.036  28.764  1.00  0.00     0.040 C 
HETATM   11  N3  UNL     1      27.695  -2.936  30.872  1.00  0.00    -0.407 N 
ATOM     12  H3  UNL     1      28.661  -3.213  30.691  1.00  0.00     0.154 HD
ENDROOT
BRANCH   9  13
HETATM   13  C8  UNL     1      26.852  -4.416  29.209  1.00  0.00     0.153 C 
BRANCH  13  14
HETATM   14  N2  UNL     1      28.028  -5.031  29.778  1.00  0.00    -0.358 N 
HETATM   15  C9  UNL     1      28.456  -6.339  29.432  1.00  0.00     0.221 C 
HETATM   16  O1  UNL     1      27.750  -6.985  28.580  1.00  0.00    -0.273 OA
ATOM     17  H2  UNL     1      28.576  -4.503  30.457  1.00  0.00     0.162 HD
BRANCH  15  18
HETATM   18  C10 UNL     1      29.643  -6.974  29.990  1.00  0.00     0.077 C 
HETATM   19  C11 UNL     1      30.894  -6.330  29.389  1.00  0.00     0.020 C 
BRANCH  18  20
HETATM   20  C12 UNL     1      29.776  -6.853  31.500  1.00  0.00    -0.010 C 
HETATM   21  C13 UNL     1      31.128  -7.496  31.835  1.00  0.00     0.010 C 
HETATM   22  C14 UNL     1      28.742  -7.642  32.233  1.00  0.00     0.010 C 
ENDBRANCH  18  20
ENDBRANCH  15  18
ENDBRANCH  13  14
ENDBRANCH   9  13
TORSDOF 4
ENDMDL
MODEL 2
REMARK VINA RESULT: -7.057356585      1.089      1.836
REMARK  4 active torsions:
REMARK  status: ('A' for Active; 'I' for Inactive)
REMARK    1  A    between atoms: C6_9  and  C8_11 
REMARK    2  A    between atoms: C8_11  and  N2_12 
REMARK       I    between atoms: N2_12  and  C9_14 
REMARK    3  A    between atoms: C9_14  and  C10_16 
REMARK    4  A    between atoms: C10_16  and  C12_18 
ROOT
HETATM    1  C1  UNL     1      28.195  -2.042  32.883  1.00  0.00     0.032 C 
HETATM    2  C2  UNL     1      27.115  -2.391  31.882  1.00  0.00     0.078 C 
HETATM    3  C3  UNL     1      26.018  -3.119  32.629  1.00  0.00     0.076 C 
HETATM    4  C4  UNL     1      25.008  -3.558  31.635  1.00  0.00    -0.016 C 
HETATM    5  N1  UNL     1      23.875  -3.947  32.036  1.00  0.00    -0.405 N 
ATOM      6  H11 UNL     1      23.181  -4.249  31.353  1.00  0.00     0.155 HD
ATOM      7  H12 UNL     1      23.652  -3.962  33.031  1.00  0.00     0.155 HD
HETATM    8  C5  UNL     1      25.328  -3.537  30.211  1.00  0.00     0.083 C 
HETATM    9  C6  UNL     1      26.786  -3.766  29.912  1.00  0.00     0.043 C 
HETATM   10  C7  UNL     1      27.051  -3.103  28.551  1.00  0.00     0.040 C 
HETATM   11  N3  UNL     1      27.682  -3.256  30.899  1.00  0.00    -0.407 N 
ATOM     12  H3  UNL     1      28.674  -3.496  30.901  1.00  0.00     0.154 HD
ENDROOT
BRANCH   9  13
HETATM   13  C8  UNL     1      27.101  -5.231  29.705  1.00  0.00     0.153 C 
BRANCH  13  14
HETATM   14  N2  UNL     1      28.538  -5.372  29.750  1.00  0.00    -0.358 N 
HETATM   15  C9  UNL     1      29.187  -6.414  30.463  1.00  0.00     0.221 C 
HETATM   16  O1  UNL     1      28.446  -7.251  31.090  1.00  0.00    -0.273 OA
ATOM     17  H2  UNL     1      29.112  -4.695  29.247  1.00  0.00     0.162 HD
BRANCH  15  18
HETATM   18  C10 UNL     1      30.634  -6.577  30.515  1.00  0.00     0.077 C 
HETATM   19  C11 UNL     1      31.003  -7.467  31.703  1.00  0.00     0.020 C 
BRANCH  18  20
HETATM   20  C12 UNL     1      31.243  -7.227  29.281  1.00  0.00    -0.010 C 
HETATM   21  C13 UNL     1      32.526  -7.905  29.779  1.00  0.00     0.010 C 
HETATM   22  C14 UNL     1      31.665  -6.228  28.255  1.00  0.00     0.010 C 
ENDBRANCH  18  20
ENDBRANCH  15  18
ENDBRANCH  13  14
ENDBRANCH   9  13
TORSDOF 4
ENDMDL
MODEL 3
REMARK VINA RESULT: -6.927640462      1.751      2.759
REMARK  4 active torsions:
REMARK  status: ('A' for Active; 'I' for Inactive)
REMARK    1  A    between atoms: C6_9  and  C8_11 
REMARK    2  A    between atoms: C8_11  and  N2_12 
REMARK       I    between atoms: N2_12  and  C9_14 
REMARK    3  A    between atoms: C9_14  and  C10_16 
REMARK    4  A    between atoms: C10_16  and  C12_18 
ROOT
HETATM    1  C1  UNL     1      27.155  -2.384  28.475  1.00  0.00     0.032 C 
HETATM    2  C2  UNL     1      26.158  -2.777  29.543  1.00  0.00     0.078 C 
HETATM    3  C3  UNL     1      26.733  -2.360  30.880  1.00  0.00     0.076 C 
HETATM    4  C4  UNL     1      25.811  -2.839  31.938  1.00  0.00    -0.016 C 
HETATM    5  N1  UNL     1      25.930  -2.387  33.111  1.00  0.00    -0.405 N 
ATOM      6  H11 UNL     1      25.296  -2.716  33.839  1.00  0.00     0.155 HD
ATOM      7  H12 UNL     1      26.651  -1.701  33.335  1.00  0.00     0.155 HD
HETATM    8  C5  UNL     1      24.779  -3.821  31.618  1.00  0.00     0.083 C 
HETATM    9  C6  UNL     1      25.162  -4.765  30.509  1.00  0.00     0.043 C 
HETATM   10  C7  UNL     1      23.842  -5.252  29.890  1.00  0.00     0.040 C 
HETATM   11  N3  UNL     1      26.004  -4.195  29.508  1.00  0.00    -0.407 N 
ATOM     12  H3  UNL     1      26.470  -4.770  28.805  1.00  0.00     0.154 HD
ENDROOT
BRANCH   9  13
HETATM   13  C8  UNL     1      25.835  -6.015  31.032  1.00  0.00     0.153 C 
BRANCH  13  14
HETATM   14  N2  UNL     1      27.261  -5.791  30.976  1.00  0.00    -0.358 N 
HETATM   15  C9  UNL     1      28.206  -6.721  31.482  1.00  0.00     0.221 C 
HETATM   16  O1  UNL     1      27.752  -7.797  32.010  1.00  0.00    -0.273 OA
ATOM     17  H2  UNL     1      27.604  -4.927  30.556  1.00  0.00     0.162 HD
BRANCH  15  18
HETATM   18  C10 UNL     1      29.648  -6.516  31.429  1.00  0.00     0.077 C 
HETATM   19  C11 UNL     1      30.294  -7.123  32.676  1.00  0.00     0.020 C 
BRANCH  18  20
HETATM   20  C12 UNL     1      30.335  -7.155  30.231  1.00  0.00    -0.010 C 
HETATM   21  C13 UNL     1      31.829  -7.158  30.582  1.00  0.00     0.010 C 
HETATM   22  C14 UNL     1      30.196  -6.340  28.987  1.00  0.00     0.010 C 
ENDBRANCH  18  20
ENDBRANCH  15  18
ENDBRANCH  13  14
ENDBRANCH   9  13
TORSDOF 4
ENDMDL
MODEL 4
REMARK VINA RESULT: -6.905140672      1.483      2.472
REMARK  4 active torsions:
REMARK  status: ('A' for Active; 'I' for Inactive)
REMARK    1  A    between atoms: C6_9  and  C8_11 
REMARK    2  A    between atoms: C8_11  and  N2_12 
REMARK       I    between atoms: N2_12  and  C9_14 
REMARK    3  A    between atoms: C9_14  and  C10_16 
REMARK    4  A    between atoms: C10_16  and  C12_18 
ROOT
HETATM    1  C1  UNL     1      24.925   0.203  30.917  1.00  0.00     0.032 C 
HETATM    2  C2  UNL     1      25.429  -1.093  31.513  1.00  0.00     0.078 C 
HETATM    3  C3  UNL     1      26.932  -0.983  31.644  1.00  0.00     0.076 C 
HETATM    4  C4  UNL     1      27.442  -2.289  32.127  1.00  0.00    -0.016 C 
HETATM    5  N1  UNL     1      28.623  -2.367  32.568  1.00  0.00    -0.405 N 
ATOM      6  H11 UNL     1      28.973  -3.265  32.900  1.00  0.00     0.155 HD
ATOM      7  H12 UNL     1      29.224  -1.544  32.594  1.00  0.00     0.155 HD
HETATM    8  C5  UNL     1      26.581  -3.468  32.090  1.00  0.00     0.083 C 
HETATM    9  C6  UNL     1      25.576  -3.451  30.968  1.00  0.00     0.043 C 
HETATM   10  C7  UNL     1      24.412  -4.344  31.425  1.00  0.00     0.040 C 
HETATM   11  N3  UNL     1      25.101  -2.152  30.615  1.00  0.00    -0.407 N 
ATOM     12  H3  UNL     1      24.557  -1.990  29.767  1.00  0.00     0.154 HD
ENDROOT
BRANCH   9  13
HETATM   13  C8  UNL     1      26.110  -4.112  29.716  1.00  0.00     0.153 C 
BRANCH  13  14
HETATM   14  N2  UNL     1      26.937  -5.220  30.134  1.00  0.00    -0.358 N 
HETATM   15  C9  UNL     1      28.132  -5.585  29.462  1.00  0.00     0.221 C 
HETATM   16  O1  UNL     1      28.471  -4.890  28.441  1.00  0.00    -0.273 OA
ATOM     17  H2  UNL     1      26.649  -5.765  30.947  1.00  0.00     0.162 HD
BRANCH  15  18
HETATM   18  C10 UNL     1      28.982  -6.695  29.873  1.00  0.00     0.077 C 
HETATM   19  C11 UNL     1      30.300  -6.641  29.097  1.00  0.00     0.020 C 
BRANCH  18  20
HETATM   20  C12 UNL     1      29.348  -6.701  31.349  1.00  0.00    -0.010 C 
HETATM   21  C13 UNL     1      30.797  -7.202  31.400  1.00  0.00     0.010 C 
HETATM   22  C14 UNL     1      28.538  -7.677  32.138  1.00  0.00     0.010 C 
ENDBRANCH  18  20
ENDBRANCH  15  18
ENDBRANCH  13  14
ENDBRANCH   9  13
TORSDOF 4
ENDMDL
MODEL 5
REMARK VINA RESULT: -6.845437343      1.809      2.627
REMARK  4 active torsions:
REMARK  status: ('A' for Active; 'I' for Inactive)
REMARK    1  A    between atoms: C6_9  and  C8_11 
REMARK    2  A    between atoms: C8_11  and  N2_12 
REMARK       I    between atoms: N2_12  and  C9_14 
REMARK    3  A    between atoms: C9_14  and  C10_16 
REMARK    4  A    between atoms: C10_16  and  C12_18 
ROOT
HETATM    1  C1  UNL     1      27.342  -2.055  27.541  1.00  0.00     0.032 C 
HETATM    2  C2  UNL     1      26.297  -2.347  28.596  1.00  0.00     0.078 C 
HETATM    3  C3  UNL     1      26.325  -1.210  29.594  1.00  0.00     0.076 C 
HETATM    4  C4  UNL     1      25.379  -1.544  30.687  1.00  0.00    -0.016 C 
HETATM    5  N1  UNL     1      25.026  -0.641  31.495  1.00  0.00    -0.405 N 
ATOM      6  H11 UNL     1      24.375  -0.870  32.246  1.00  0.00     0.155 HD
ATOM      7  H12 UNL     1      25.384   0.310  31.404  1.00  0.00     0.155 HD
HETATM    8  C5  UNL     1      24.866  -2.905  30.818  1.00  0.00     0.083 C 
HETATM    9  C6  UNL     1      25.824  -3.964  30.339  1.00  0.00     0.043 C 
HETATM   10  C7  UNL     1      24.960  -5.174  29.949  1.00  0.00     0.040 C 
HETATM   11  N3  UNL     1      26.651  -3.567  29.246  1.00  0.00    -0.407 N 
ATOM     12  H3  UNL     1      27.451  -4.125  28.947  1.00  0.00     0.154 HD
ENDROOT
BRANCH   9  13
HETATM   13  C8  UNL     1      26.721  -4.464  31.450  1.00  0.00     0.153 C 
BRANCH  13  14
HETATM   14  N2  UNL     1      27.891  -5.041  30.831  1.00  0.00    -0.358 N 
HETATM   15  C9  UNL     1      28.219  -6.418  30.940  1.00  0.00     0.221 C 
HETATM   16  O1  UNL     1      27.432  -7.160  31.627  1.00  0.00    -0.273 OA
ATOM     17  H2  UNL     1      28.508  -4.434  30.291  1.00  0.00     0.162 HD
BRANCH  15  18
HETATM   18  C10 UNL     1      29.391  -7.020  30.318  1.00  0.00     0.077 C 
HETATM   19  C11 UNL     1      29.668  -6.329  28.981  1.00  0.00     0.020 C 
BRANCH  18  20
HETATM   20  C12 UNL     1      30.670  -6.911  31.134  1.00  0.00    -0.010 C 
HETATM   21  C13 UNL     1      31.797  -7.292  30.166  1.00  0.00     0.010 C 
HETATM   22  C14 UNL     1      30.723  -7.899  32.252  1.00  0.00     0.010 C 
ENDBRANCH  18  20
ENDBRANCH  15  18
ENDBRANCH  13  14
ENDBRANCH   9  13
TORSDOF 4
ENDMDL
