MODEL 1
REMARK VINA RESULT: -7.685970920      0.000      0.000
REMARK  9 active torsions:
REMARK  status: ('A' for Active; 'I' for Inactive)
REMARK    1  A    between atoms: N1_1  and  C1_5 
REMARK    2  A    between atoms: C1_5  and  C2_6 
REMARK    3  A    between atoms: C2_6  and  O1_7 
REMARK    4  A    between atoms: O1_7  and  C3_8 
REMARK    5  A    between atoms: C6_17  and  C7_18 
REMARK    6  A    between atoms: C10_27  and  N8_28 
REMARK    7  A    between atoms: N8_28  and  C11_30 
REMARK    8  A    between atoms: C11_30  and  C12_31 
REMARK    9  A    between atoms: C12_31  and  O2_32 
ROOT
HETATM    1  C3  UNL     1     -24.086 -19.774 -22.609  1.00  0.00     0.229 A 
HETATM    2  N2  UNL     1     -23.131 -20.703 -22.733  1.00  0.00    -0.307 N 
ATOM      3  H2  UNL     1     -22.387 -20.563 -23.415  1.00  0.00     0.171 HD
HETATM    4  C4  UNL     1     -23.129 -21.805 -21.988  1.00  0.00     0.125 A 
HETATM    5  N3  UNL     1     -22.130 -22.717 -22.142  1.00  0.00    -0.338 N 
ATOM      6  H3  UNL     1     -21.379 -22.593 -22.820  1.00  0.00     0.168 HD
HETATM    7  C5  UNL     1     -22.204 -23.780 -21.345  1.00  0.00     0.182 A 
HETATM    8  N4  UNL     1     -23.150 -23.980 -20.462  1.00  0.00    -0.348 N 
ATOM      9  H4  UNL     1     -23.106 -24.832 -19.905  1.00  0.00     0.167 HD
HETATM   10  C6  UNL     1     -24.207 -23.116 -20.231  1.00  0.00     0.097 A 
HETATM   11  C9  UNL     1     -24.209 -22.011 -20.997  1.00  0.00     0.082 A 
HETATM   12  C10 UNL     1     -25.195 -21.016 -20.894  1.00  0.00     0.120 A 
HETATM   13  N9  UNL     1     -25.055 -19.983 -21.704  1.00  0.00    -0.307 N 
ATOM     14  H9  UNL     1     -25.768 -19.256 -21.634  1.00  0.00     0.171 HD
ENDROOT
BRANCH   1  15
HETATM   15  O1  UNL     1     -24.102 -18.633 -23.369  1.00  0.00    -0.278 OA
BRANCH  15  16
HETATM   16  C2  UNL     1     -24.150 -17.309 -23.014  1.00  0.00     0.281 A 
HETATM   17  C13 UNL     1     -23.440 -16.352 -23.989  1.00  0.00     0.306 A 
HETATM   18  N10 UNL     1     -24.864 -16.470 -23.988  1.00  0.00    -0.034 N 
ATOM     19 2H10 UNL     1     -25.540 -16.685 -24.720  1.00  0.00     0.281 HD
ATOM     20 1H10 UNL     1     -25.615 -15.786 -23.892  1.00  0.00     0.281 HD
BRANCH  16  21
HETATM   21  C1  UNL     1     -24.224 -16.830 -21.580  1.00  0.00     0.300 C 
BRANCH  21  22
HETATM   22  N1  UNL     1     -25.513 -16.566 -21.083  1.00  0.00    -0.075 N 
ATOM     23  H13 UNL     1     -26.035 -16.005 -21.757  1.00  0.00     0.274 HD
ATOM     24  H12 UNL     1     -26.069 -17.422 -21.089  1.00  0.00     0.274 HD
ATOM     25  H11 UNL     1     -25.558 -16.131 -20.162  1.00  0.00     0.274 HD
ENDBRANCH  21  22
ENDBRANCH  16  21
ENDBRANCH  15  16
ENDBRANCH   1  15
BRANCH  12  26
HETATM   26  N8  UNL     1     -26.145 -21.126 -20.088  1.00  0.00    -0.373 N 
ATOM     27  H8  UNL     1     -25.893 -21.176 -19.100  1.00  0.00     0.161 HD
BRANCH  26  28
HETATM   28  C11 UNL     1     -27.528 -21.191 -20.383  1.00  0.00     0.147 C 
BRANCH  28  29
HETATM   29  C12 UNL     1     -27.888 -22.134 -21.471  1.00  0.00     0.183 C 
BRANCH  29  30
HETATM   30  O2  UNL     1     -28.571 -23.238 -20.858  1.00  0.00    -0.399 OA
ATOM     31  H2  UNL     1     -28.965 -23.743 -21.560  1.00  0.00     0.209 HD
ENDBRANCH  29  30
ENDBRANCH  28  29
ENDBRANCH  26  28
ENDBRANCH  12  26
BRANCH  10  32
HETATM   32  C7  UNL     1     -25.159 -23.457 -19.215  1.00  0.00     0.149 A 
HETATM   33  N5  UNL     1     -25.504 -23.233 -18.013  1.00  0.00    -0.335 N 
HETATM   34  C8  UNL     1     -26.553 -23.923 -17.562  1.00  0.00     0.199 A 
ATOM     35  H5  UNL     1     -25.007 -22.562 -17.426  1.00  0.00     0.168 HD
HETATM   36  N6  UNL     1     -26.930 -24.681 -18.591  1.00  0.00    -0.294 N 
HETATM   37  N7  UNL     1     -26.117 -24.421 -19.581  1.00  0.00    -0.283 N 
ATOM     38  H6  UNL     1     -27.708 -25.341 -18.605  1.00  0.00     0.187 HD
ATOM     39  H7  UNL     1     -26.170 -24.859 -20.501  1.00  0.00     0.188 HD
ENDBRANCH  10  32
TORSDOF 9
ENDMDL
MODEL 2
REMARK VINA RESULT: -7.553238474      2.209      3.932
REMARK  9 active torsions:
REMARK  status: ('A' for Active; 'I' for Inactive)
REMARK    1  A    between atoms: N1_1  and  C1_5 
REMARK    2  A    between atoms: C1_5  and  C2_6 
REMARK    3  A    between atoms: C2_6  and  O1_7 
REMARK    4  A    between atoms: O1_7  and  C3_8 
REMARK    5  A    between atoms: C6_17  and  C7_18 
REMARK    6  A    between atoms: C10_27  and  N8_28 
REMARK    7  A    between atoms: N8_28  and  C11_30 
REMARK    8  A    between atoms: C11_30  and  C12_31 
REMARK    9  A    between atoms: C12_31  and  O2_32 
ROOT
HETATM    1  C3  UNL     1     -24.179 -18.941 -21.243  1.00  0.00     0.229 A 
HETATM    2  N2  UNL     1     -25.333 -19.241 -20.635  1.00  0.00    -0.307 N 
ATOM      3  H2  UNL     1     -25.867 -18.495 -20.188  1.00  0.00     0.171 HD
HETATM    4  C4  UNL     1     -25.801 -20.484 -20.598  1.00  0.00     0.125 A 
HETATM    5  N3  UNL     1     -26.985 -20.738 -19.978  1.00  0.00    -0.338 N 
ATOM      6  H3  UNL     1     -27.532 -20.006 -19.525  1.00  0.00     0.168 HD
HETATM    7  C5  UNL     1     -27.380 -22.009 -20.004  1.00  0.00     0.182 A 
HETATM    8  N4  UNL     1     -26.710 -22.981 -20.572  1.00  0.00    -0.348 N 
ATOM      9  H4  UNL     1     -27.109 -23.918 -20.529  1.00  0.00     0.167 HD
HETATM   10  C6  UNL     1     -25.499 -22.827 -21.225  1.00  0.00     0.097 A 
HETATM   11  C9  UNL     1     -25.027 -21.568 -21.245  1.00  0.00     0.082 A 
HETATM   12  C10 UNL     1     -23.820 -21.219 -21.874  1.00  0.00     0.120 A 
HETATM   13  N9  UNL     1     -23.495 -19.940 -21.822  1.00  0.00    -0.307 N 
ATOM     14  H9  UNL     1     -22.619 -19.680 -22.277  1.00  0.00     0.171 HD
ENDROOT
BRANCH   1  15
HETATM   15  O1  UNL     1     -23.683 -17.664 -21.289  1.00  0.00    -0.278 OA
BRANCH  15  16
HETATM   16  C2  UNL     1     -24.310 -16.455 -21.454  1.00  0.00     0.281 A 
HETATM   17  C13 UNL     1     -23.816 -15.630 -22.656  1.00  0.00     0.306 A 
HETATM   18  N10 UNL     1     -25.049 -16.350 -22.721  1.00  0.00    -0.034 N 
ATOM     19 2H10 UNL     1     -25.408 -17.049 -23.371  1.00  0.00     0.281 HD
ATOM     20 1H10 UNL     1     -26.004 -16.068 -22.943  1.00  0.00     0.281 HD
BRANCH  16  21
HETATM   21  C1  UNL     1     -24.882 -15.647 -20.309  1.00  0.00     0.300 C 
BRANCH  21  22
HETATM   22  N1  UNL     1     -24.234 -15.790 -19.069  1.00  0.00    -0.075 N 
ATOM     23  H13 UNL     1     -23.411 -16.384 -19.175  1.00  0.00     0.274 HD
ATOM     24  H12 UNL     1     -23.791 -14.910 -18.806  1.00  0.00     0.274 HD
ATOM     25  H11 UNL     1     -24.810 -16.131 -18.299  1.00  0.00     0.274 HD
ENDBRANCH  21  22
ENDBRANCH  16  21
ENDBRANCH  15  16
ENDBRANCH   1  15
BRANCH  12  26
HETATM   26  N8  UNL     1     -23.107 -22.082 -22.431  1.00  0.00    -0.373 N 
ATOM     27  H8  UNL     1     -23.603 -22.827 -22.922  1.00  0.00     0.161 HD
BRANCH  26  28
HETATM   28  C11 UNL     1     -21.693 -22.148 -22.462  1.00  0.00     0.147 C 
BRANCH  28  29
HETATM   29  C12 UNL     1     -21.135 -23.523 -22.441  1.00  0.00     0.183 C 
BRANCH  29  30
HETATM   30  O2  UNL     1     -21.403 -24.063 -21.138  1.00  0.00    -0.399 OA
ATOM     31  H2  UNL     1     -21.074 -23.435 -20.506  1.00  0.00     0.209 HD
ENDBRANCH  29  30
ENDBRANCH  28  29
ENDBRANCH  26  28
ENDBRANCH  12  26
BRANCH  10  32
HETATM   32  C7  UNL     1     -24.892 -23.981 -21.818  1.00  0.00     0.149 A 
HETATM   33  N5  UNL     1     -24.704 -24.594 -22.915  1.00  0.00    -0.335 N 
HETATM   34  C8  UNL     1     -24.018 -25.737 -22.841  1.00  0.00     0.199 A 
ATOM     35  H5  UNL     1     -25.056 -24.233 -23.802  1.00  0.00     0.168 HD
HETATM   36  N6  UNL     1     -23.729 -25.879 -21.548  1.00  0.00    -0.294 N 
HETATM   37  N7  UNL     1     -24.238 -24.849 -20.924  1.00  0.00    -0.283 N 
ATOM     38  H6  UNL     1     -23.209 -26.647 -21.124  1.00  0.00     0.187 HD
ATOM     39  H7  UNL     1     -24.170 -24.694 -19.918  1.00  0.00     0.188 HD
ENDBRANCH  10  32
TORSDOF 9
ENDMDL
MODEL 3
REMARK VINA RESULT: -7.348283543      1.370      1.773
REMARK  9 active torsions:
REMARK  status: ('A' for Active; 'I' for Inactive)
REMARK    1  A    between atoms: N1_1  and  C1_5 
REMARK    2  A    between atoms: C1_5  and  C2_6 
REMARK    3  A    between atoms: C2_6  and  O1_7 
REMARK    4  A    between atoms: O1_7  and  C3_8 
REMARK    5  A    between atoms: C6_17  and  C7_18 
REMARK    6  A    between atoms: C10_27  and  N8_28 
REMARK    7  A    between atoms: N8_28  and  C11_30 
REMARK    8  A    between atoms: C11_30  and  C12_31 
REMARK    9  A    between atoms: C12_31  and  O2_32 
ROOT
HETATM    1  C3  UNL     1     -24.154 -19.915 -22.832  1.00  0.00     0.229 A 
HETATM    2  N2  UNL     1     -23.175 -20.823 -22.914  1.00  0.00    -0.307 N 
ATOM      3  H2  UNL     1     -22.443 -20.702 -23.613  1.00  0.00     0.171 HD
HETATM    4  C4  UNL     1     -23.132 -21.879 -22.107  1.00  0.00     0.125 A 
HETATM    5  N3  UNL     1     -22.109 -22.770 -22.221  1.00  0.00    -0.338 N 
ATOM      6  H3  UNL     1     -21.370 -22.665 -22.915  1.00  0.00     0.168 HD
HETATM    7  C5  UNL     1     -22.143 -23.787 -21.363  1.00  0.00     0.182 A 
HETATM    8  N4  UNL     1     -23.074 -23.961 -20.458  1.00  0.00    -0.348 N 
ATOM      9  H4  UNL     1     -22.998 -24.779 -19.854  1.00  0.00     0.167 HD
HETATM   10  C6  UNL     1     -24.152 -23.115 -20.263  1.00  0.00     0.097 A 
HETATM   11  C9  UNL     1     -24.194 -22.058 -21.092  1.00  0.00     0.082 A 
HETATM   12  C10 UNL     1     -25.208 -21.086 -21.033  1.00  0.00     0.120 A 
HETATM   13  N9  UNL     1     -25.107 -20.098 -21.903  1.00  0.00    -0.307 N 
ATOM     14  H9  UNL     1     -25.839 -19.389 -21.866  1.00  0.00     0.171 HD
ENDROOT
BRANCH   1  15
HETATM   15  O1  UNL     1     -24.212 -18.821 -23.656  1.00  0.00    -0.278 OA
BRANCH  15  16
HETATM   16  C2  UNL     1     -24.324 -18.719 -25.019  1.00  0.00     0.281 A 
HETATM   17  C13 UNL     1     -24.312 -17.279 -25.563  1.00  0.00     0.306 A 
HETATM   18  N10 UNL     1     -23.150 -18.105 -25.656  1.00  0.00    -0.034 N 
ATOM     19 2H10 UNL     1     -22.185 -17.979 -25.350  1.00  0.00     0.281 HD
ATOM     20 1H10 UNL     1     -22.563 -18.388 -26.441  1.00  0.00     0.281 HD
BRANCH  16  21
HETATM   21  C1  UNL     1     -25.065 -19.725 -25.874  1.00  0.00     0.300 C 
BRANCH  21  22
HETATM   22  N1  UNL     1     -26.400 -19.980 -25.509  1.00  0.00    -0.075 N 
ATOM     23  H13 UNL     1     -26.617 -19.502 -24.634  1.00  0.00     0.274 HD
ATOM     24  H12 UNL     1     -27.032 -19.493 -26.145  1.00  0.00     0.274 HD
ATOM     25  H11 UNL     1     -26.666 -20.962 -25.443  1.00  0.00     0.274 HD
ENDBRANCH  21  22
ENDBRANCH  16  21
ENDBRANCH  15  16
ENDBRANCH   1  15
BRANCH  12  26
HETATM   26  N8  UNL     1     -26.144 -21.176 -20.210  1.00  0.00    -0.373 N 
ATOM     27  H8  UNL     1     -25.876 -21.215 -19.226  1.00  0.00     0.161 HD
BRANCH  26  28
HETATM   28  C11 UNL     1     -27.533 -21.230 -20.480  1.00  0.00     0.147 C 
BRANCH  28  29
HETATM   29  C12 UNL     1     -27.930 -22.235 -21.498  1.00  0.00     0.183 C 
BRANCH  29  30
HETATM   30  O2  UNL     1     -28.569 -23.312 -20.794  1.00  0.00    -0.399 OA
ATOM     31  H2  UNL     1     -28.066 -24.097 -20.975  1.00  0.00     0.209 HD
ENDBRANCH  29  30
ENDBRANCH  28  29
ENDBRANCH  26  28
ENDBRANCH  12  26
BRANCH  10  32
HETATM   32  C7  UNL     1     -25.082 -23.424 -19.217  1.00  0.00     0.149 A 
HETATM   33  N5  UNL     1     -25.400 -23.162 -18.015  1.00  0.00    -0.335 N 
HETATM   34  C8  UNL     1     -26.440 -23.837 -17.521  1.00  0.00     0.199 A 
ATOM     35  H5  UNL     1     -24.889 -22.475 -17.460  1.00  0.00     0.168 HD
HETATM   36  N6  UNL     1     -26.841 -24.624 -18.518  1.00  0.00    -0.294 N 
HETATM   37  N7  UNL     1     -26.049 -24.396 -19.532  1.00  0.00    -0.283 N 
ATOM     38  H6  UNL     1     -27.620 -25.283 -18.494  1.00  0.00     0.187 HD
ATOM     39  H7  UNL     1     -26.123 -24.862 -20.437  1.00  0.00     0.188 HD
ENDBRANCH  10  32
TORSDOF 9
ENDMDL
MODEL 4
REMARK VINA RESULT: -7.334055281      2.263      4.173
REMARK  9 active torsions:
REMARK  status: ('A' for Active; 'I' for Inactive)
REMARK    1  A    between atoms: N1_1  and  C1_5 
REMARK    2  A    between atoms: C1_5  and  C2_6 
REMARK    3  A    between atoms: C2_6  and  O1_7 
REMARK    4  A    between atoms: O1_7  and  C3_8 
REMARK    5  A    between atoms: C6_17  and  C7_18 
REMARK    6  A    between atoms: C10_27  and  N8_28 
REMARK    7  A    between atoms: N8_28  and  C11_30 
REMARK    8  A    between atoms: C11_30  and  C12_31 
REMARK    9  A    between atoms: C12_31  and  O2_32 
ROOT
HETATM    1  C3  UNL     1     -24.429 -19.266 -20.488  1.00  0.00     0.229 A 
HETATM    2  N2  UNL     1     -25.556 -19.710 -19.919  1.00  0.00    -0.307 N 
ATOM      3  H2  UNL     1     -26.094 -19.080 -19.325  1.00  0.00     0.171 HD
HETATM    4  C4  UNL     1     -25.991 -20.952 -20.108  1.00  0.00     0.125 A 
HETATM    5  N3  UNL     1     -27.149 -21.354 -19.518  1.00  0.00    -0.338 N 
ATOM      6  H3  UNL     1     -27.700 -20.739 -18.921  1.00  0.00     0.168 HD
HETATM    7  C5  UNL     1     -27.512 -22.609 -19.776  1.00  0.00     0.182 A 
HETATM    8  N4  UNL     1     -26.836 -23.434 -20.535  1.00  0.00    -0.348 N 
ATOM      9  H4  UNL     1     -27.210 -24.374 -20.661  1.00  0.00     0.167 HD
HETATM   10  C6  UNL     1     -25.650 -23.122 -21.177  1.00  0.00     0.097 A 
HETATM   11  C9  UNL     1     -25.211 -21.869 -20.969  1.00  0.00     0.082 A 
HETATM   12  C10 UNL     1     -24.033 -21.371 -21.550  1.00  0.00     0.120 A 
HETATM   13  N9  UNL     1     -23.738 -20.115 -21.264  1.00  0.00    -0.307 N 
ATOM     14  H9  UNL     1     -22.884 -19.747 -21.683  1.00  0.00     0.171 HD
ENDROOT
BRANCH   1  15
HETATM   15  O1  UNL     1     -23.967 -17.988 -20.302  1.00  0.00    -0.278 OA
BRANCH  15  16
HETATM   16  C2  UNL     1     -24.253 -16.818 -20.958  1.00  0.00     0.281 A 
HETATM   17  C13 UNL     1     -25.368 -15.973 -20.316  1.00  0.00     0.306 A 
HETATM   18  N10 UNL     1     -23.994 -15.618 -20.148  1.00  0.00    -0.034 N 
ATOM     19 2H10 UNL     1     -23.418 -15.453 -19.322  1.00  0.00     0.281 HD
ATOM     20 1H10 UNL     1     -23.473 -14.760 -20.331  1.00  0.00     0.281 HD
BRANCH  16  21
HETATM   21  C1  UNL     1     -24.082 -16.633 -22.450  1.00  0.00     0.300 C 
BRANCH  21  22
HETATM   22  N1  UNL     1     -22.786 -16.298 -22.886  1.00  0.00    -0.075 N 
ATOM     23  H13 UNL     1     -22.118 -16.991 -22.549  1.00  0.00     0.274 HD
ATOM     24  H12 UNL     1     -22.710 -16.444 -23.892  1.00  0.00     0.274 HD
ATOM     25  H11 UNL     1     -22.463 -15.360 -22.647  1.00  0.00     0.274 HD
ENDBRANCH  21  22
ENDBRANCH  16  21
ENDBRANCH  15  16
ENDBRANCH   1  15
BRANCH  12  26
HETATM   26  N8  UNL     1     -23.315 -22.090 -22.279  1.00  0.00    -0.373 N 
ATOM     27  H8  UNL     1     -23.806 -22.753 -22.879  1.00  0.00     0.161 HD
BRANCH  26  28
HETATM   28  C11 UNL     1     -21.902 -22.094 -22.371  1.00  0.00     0.147 C 
BRANCH  28  29
HETATM   29  C12 UNL     1     -21.285 -23.443 -22.404  1.00  0.00     0.183 C 
BRANCH  29  30
HETATM   30  O2  UNL     1     -21.580 -24.068 -21.146  1.00  0.00    -0.399 OA
ATOM     31  H2  UNL     1     -22.515 -23.979 -21.005  1.00  0.00     0.209 HD
ENDBRANCH  29  30
ENDBRANCH  28  29
ENDBRANCH  26  28
ENDBRANCH  12  26
BRANCH  10  32
HETATM   32  C7  UNL     1     -25.032 -24.124 -21.995  1.00  0.00     0.149 A 
HETATM   33  N5  UNL     1     -24.876 -24.521 -23.192  1.00  0.00    -0.335 N 
HETATM   34  C8  UNL     1     -24.149 -25.628 -23.354  1.00  0.00     0.199 A 
ATOM     35  H5  UNL     1     -25.283 -24.022 -23.982  1.00  0.00     0.168 HD
HETATM   36  N6  UNL     1     -23.793 -25.988 -22.121  1.00  0.00    -0.294 N 
HETATM   37  N7  UNL     1     -24.307 -25.110 -21.301  1.00  0.00    -0.283 N 
ATOM     38  H6  UNL     1     -23.227 -26.797 -21.866  1.00  0.00     0.187 HD
ATOM     39  H7  UNL     1     -24.196 -25.136 -20.287  1.00  0.00     0.188 HD
ENDBRANCH  10  32
TORSDOF 9
ENDMDL
MODEL 5
REMARK VINA RESULT: -7.165590770      2.208      3.987
REMARK  9 active torsions:
REMARK  status: ('A' for Active; 'I' for Inactive)
REMARK    1  A    between atoms: N1_1  and  C1_5 
REMARK    2  A    between atoms: C1_5  and  C2_6 
REMARK    3  A    between atoms: C2_6  and  O1_7 
REMARK    4  A    between atoms: O1_7  and  C3_8 
REMARK    5  A    between atoms: C6_17  and  C7_18 
REMARK    6  A    between atoms: C10_27  and  N8_28 
REMARK    7  A    between atoms: N8_28  and  C11_30 
REMARK    8  A    between atoms: C11_30  and  C12_31 
REMARK    9  A    between atoms: C12_31  and  O2_32 
ROOT
HETATM    1  C3  UNL     1     -24.099 -19.048 -21.613  1.00  0.00     0.229 A 
HETATM    2  N2  UNL     1     -25.234 -19.274 -20.940  1.00  0.00    -0.307 N 
ATOM      3  H2  UNL     1     -25.757 -18.482 -20.567  1.00  0.00     0.171 HD
HETATM    4  C4  UNL     1     -25.696 -20.506 -20.745  1.00  0.00     0.125 A 
HETATM    5  N3  UNL     1     -26.860 -20.686 -20.064  1.00  0.00    -0.338 N 
ATOM      6  H3  UNL     1     -27.396 -19.906 -19.683  1.00  0.00     0.168 HD
HETATM    7  C5  UNL     1     -27.250 -21.951 -19.930  1.00  0.00     0.182 A 
HETATM    8  N4  UNL     1     -26.594 -22.982 -20.401  1.00  0.00    -0.348 N 
ATOM      9  H4  UNL     1     -26.988 -23.908 -20.237  1.00  0.00     0.167 HD
HETATM   10  C6  UNL     1     -25.404 -22.905 -21.104  1.00  0.00     0.097 A 
HETATM   11  C9  UNL     1     -24.938 -21.657 -21.285  1.00  0.00     0.082 A 
HETATM   12  C10 UNL     1     -23.751 -21.383 -21.986  1.00  0.00     0.120 A 
HETATM   13  N9  UNL     1     -23.429 -20.107 -22.093  1.00  0.00    -0.307 N 
ATOM     14  H9  UNL     1     -22.569 -19.902 -22.601  1.00  0.00     0.171 HD
ENDROOT
BRANCH   1  15
HETATM   15  O1  UNL     1     -23.610 -17.784 -21.822  1.00  0.00    -0.278 OA
BRANCH  15  16
HETATM   16  C2  UNL     1     -23.710 -16.941 -22.899  1.00  0.00     0.281 A 
HETATM   17  C13 UNL     1     -23.848 -15.450 -22.543  1.00  0.00     0.306 A 
HETATM   18  N10 UNL     1     -22.600 -15.982 -22.993  1.00  0.00    -0.034 N 
ATOM     19 2H10 UNL     1     -21.661 -15.971 -22.596  1.00  0.00     0.281 HD
ATOM     20 1H10 UNL     1     -21.973 -15.723 -23.755  1.00  0.00     0.281 HD
BRANCH  16  21
HETATM   21  C1  UNL     1     -24.321 -17.346 -24.224  1.00  0.00     0.300 C 
BRANCH  21  22
HETATM   22  N1  UNL     1     -23.494 -18.097 -25.080  1.00  0.00    -0.075 N 
ATOM     23  H13 UNL     1     -23.280 -17.554 -25.917  1.00  0.00     0.274 HD
ATOM     24  H12 UNL     1     -22.562 -18.183 -24.674  1.00  0.00     0.274 HD
ATOM     25  H11 UNL     1     -23.843 -19.018 -25.344  1.00  0.00     0.274 HD
ENDBRANCH  21  22
ENDBRANCH  16  21
ENDBRANCH  15  16
ENDBRANCH   1  15
BRANCH  12  26
HETATM   26  N8  UNL     1     -23.052 -22.305 -22.460  1.00  0.00    -0.373 N 
ATOM     27  H8  UNL     1     -23.559 -23.111 -22.827  1.00  0.00     0.161 HD
BRANCH  26  28
HETATM   28  C11 UNL     1     -21.640 -22.363 -22.549  1.00  0.00     0.147 C 
BRANCH  28  29
HETATM   29  C12 UNL     1     -21.066 -23.727 -22.440  1.00  0.00     0.183 C 
BRANCH  29  30
HETATM   30  O2  UNL     1     -21.301 -24.174 -21.096  1.00  0.00    -0.399 OA
ATOM     31  H2  UNL     1     -20.512 -24.619 -20.811  1.00  0.00     0.209 HD
ENDBRANCH  29  30
ENDBRANCH  28  29
ENDBRANCH  26  28
ENDBRANCH  12  26
BRANCH  10  32
HETATM   32  C7  UNL     1     -24.810 -24.121 -21.577  1.00  0.00     0.149 A 
HETATM   33  N5  UNL     1     -24.623 -24.839 -22.608  1.00  0.00    -0.335 N 
HETATM   34  C8  UNL     1     -23.957 -25.980 -22.417  1.00  0.00     0.199 A 
ATOM     35  H5  UNL     1     -24.963 -24.560 -23.528  1.00  0.00     0.168 HD
HETATM   36  N6  UNL     1     -23.681 -26.000 -21.114  1.00  0.00    -0.294 N 
HETATM   37  N7  UNL     1     -24.178 -24.908 -20.597  1.00  0.00    -0.283 N 
ATOM     38  H6  UNL     1     -23.176 -26.732 -20.612  1.00  0.00     0.187 HD
ATOM     39  H7  UNL     1     -24.116 -24.657 -19.610  1.00  0.00     0.188 HD
ENDBRANCH  10  32
TORSDOF 9
ENDMDL
