MODEL 1
REMARK VINA RESULT: -8.414291300      0.000      0.000
REMARK  8 active torsions:
REMARK  status: ('A' for Active; 'I' for Inactive)
REMARK    1  A    between atoms: N1_1  and  C1_4 
REMARK    2  A    between atoms: C2_10  and  C3_11 
REMARK    3  A    between atoms: C3_11  and  C4_12 
REMARK    4  A    between atoms: N5_16  and  C6_18 
REMARK    5  A    between atoms: C6_18  and  C7_19 
REMARK    6  A    between atoms: C7_19  and  N6_20 
REMARK    7  A    between atoms: C7_19  and  C8_24 
REMARK    8  A    between atoms: C8_24  and  C9_25 
ROOT
HETATM    1  C4  UNL     1     -23.805 -16.898 -22.296  1.00  0.00     0.089 A 
HETATM    2  N4  UNL     1     -24.022 -18.205 -22.131  1.00  0.00    -0.332 N 
ATOM      3  H4  UNL     1     -24.014 -18.805 -22.955  1.00  0.00     0.168 HD
HETATM    4  C5  UNL     1     -24.253 -18.777 -20.920  1.00  0.00     0.105 A 
HETATM    5  N5  UNL     1     -24.459 -20.022 -20.787  1.00  0.00    -0.374 N 
ATOM      6  H5  UNL     1     -24.450 -20.613 -21.618  1.00  0.00     0.161 HD
HETATM    7  C11 UNL     1     -24.259 -17.951 -19.828  1.00  0.00     0.093 A 
HETATM    8  C12 UNL     1     -24.032 -16.582 -19.989  1.00  0.00     0.121 A 
HETATM    9  N10 UNL     1     -24.042 -15.738 -18.829  1.00  0.00    -0.083 NA
HETATM   10  N11 UNL     1     -23.812 -16.100 -21.220  1.00  0.00    -0.334 N 
ATOM     11  H11 UNL     1     -23.645 -15.101 -21.341  1.00  0.00     0.168 HD
ENDROOT
BRANCH   5  12
HETATM   12  C6  UNL     1     -24.703 -20.627 -19.515  1.00  0.00     0.154 C 
BRANCH  12  13
HETATM   13  C7  UNL     1     -25.525 -21.886 -19.614  1.00  0.00     0.206 C 
BRANCH  13  14
HETATM   14  N6  UNL     1     -26.878 -21.648 -19.121  1.00  0.00    -0.073 N 
ATOM     15  H63 UNL     1     -26.888 -20.993 -18.338  1.00  0.00     0.274 HD
ATOM     16  H62 UNL     1     -27.433 -21.104 -19.780  1.00  0.00     0.274 HD
ATOM     17  H61 UNL     1     -27.330 -22.532 -18.883  1.00  0.00     0.274 HD
ENDBRANCH  13  14
BRANCH  13  18
HETATM   18  C8  UNL     1     -24.851 -22.996 -18.891  1.00  0.00     0.094 C 
BRANCH  18  19
HETATM   19  C9  UNL     1     -24.268 -24.023 -19.777  1.00  0.00     0.046 A 
HETATM   20  C10 UNL     1     -23.316 -23.842 -20.781  1.00  0.00     0.135 A 
HETATM   21  N7  UNL     1     -23.084 -25.035 -21.351  1.00  0.00    -0.296 N 
HETATM   22  N8  UNL     1     -23.846 -25.932 -20.747  1.00  0.00    -0.243 N 
ATOM     23  H7  UNL     1     -22.435 -25.217 -22.116  1.00  0.00     0.187 HD
HETATM   24  N9  UNL     1     -24.552 -25.347 -19.813  1.00  0.00    -0.289 N 
ATOM     25  H8  UNL     1     -23.878 -26.926 -20.974  1.00  0.00     0.208 HD
ATOM     26  H9  UNL     1     -25.218 -25.820 -19.202  1.00  0.00     0.188 HD
ENDBRANCH  18  19
ENDBRANCH  13  18
ENDBRANCH  12  13
ENDBRANCH   5  12
BRANCH   1  27
HETATM   27  C3  UNL     1     -23.563 -16.393 -23.668  1.00  0.00     0.139 C 
BRANCH  27  28
HETATM   28  C2  UNL     1     -24.748 -15.776 -24.272  1.00  0.00     0.086 A 
HETATM   29  C1  UNL     1     -24.936 -14.458 -24.686  1.00  0.00     0.146 A 
HETATM   30  N2  UNL     1     -26.177 -14.392 -25.165  1.00  0.00    -0.224 N 
HETATM   31  O1  UNL     1     -26.709 -15.558 -25.058  1.00  0.00    -0.155 OA
ATOM     32  H2  UNL     1     -26.627 -13.561 -25.550  1.00  0.00     0.198 HD
HETATM   33  N3  UNL     1     -25.900 -16.420 -24.531  1.00  0.00    -0.242 N 
ATOM     34  H3  UNL     1     -26.098 -17.403 -24.347  1.00  0.00     0.196 HD
BRANCH  29  35
HETATM   35  N1  UNL     1     -24.063 -13.535 -24.604  1.00  0.00    -0.382 N 
ATOM     36  H12 UNL     1     -24.267 -12.536 -24.598  1.00  0.00     0.157 HD
ATOM     37  H11 UNL     1     -23.049 -13.619 -24.531  1.00  0.00     0.157 HD
ENDBRANCH  29  35
ENDBRANCH  27  28
ENDBRANCH   1  27
TORSDOF 8
ENDMDL
MODEL 2
REMARK VINA RESULT: -8.358850113      2.474      3.229
REMARK  8 active torsions:
REMARK  status: ('A' for Active; 'I' for Inactive)
REMARK    1  A    between atoms: N1_1  and  C1_4 
REMARK    2  A    between atoms: C2_10  and  C3_11 
REMARK    3  A    between atoms: C3_11  and  C4_12 
REMARK    4  A    between atoms: N5_16  and  C6_18 
REMARK    5  A    between atoms: C6_18  and  C7_19 
REMARK    6  A    between atoms: C7_19  and  N6_20 
REMARK    7  A    between atoms: C7_19  and  C8_24 
REMARK    8  A    between atoms: C8_24  and  C9_25 
ROOT
HETATM    1  C4  UNL     1     -24.370 -19.895 -22.993  1.00  0.00     0.089 A 
HETATM    2  N4  UNL     1     -25.295 -20.768 -22.584  1.00  0.00    -0.332 N 
ATOM      3  H4  UNL     1     -25.777 -21.327 -23.287  1.00  0.00     0.168 HD
HETATM    4  C5  UNL     1     -25.626 -20.948 -21.279  1.00  0.00     0.105 A 
HETATM    5  N5  UNL     1     -26.509 -21.782 -20.913  1.00  0.00    -0.374 N 
ATOM      6  H5  UNL     1     -26.986 -22.337 -21.625  1.00  0.00     0.161 HD
HETATM    7  C11 UNL     1     -24.965 -20.185 -20.353  1.00  0.00     0.093 A 
HETATM    8  C12 UNL     1     -23.996 -19.270 -20.770  1.00  0.00     0.121 A 
HETATM    9  N10 UNL     1     -23.318 -18.483 -19.780  1.00  0.00    -0.083 NA
HETATM   10  N11 UNL     1     -23.730 -19.154 -22.078  1.00  0.00    -0.334 N 
ATOM     11  H11 UNL     1     -23.022 -18.487 -22.385  1.00  0.00     0.168 HD
ENDROOT
BRANCH   5  12
HETATM   12  C6  UNL     1     -26.861 -21.975 -19.541  1.00  0.00     0.154 C 
BRANCH  12  13
HETATM   13  C7  UNL     1     -26.661 -23.396 -19.080  1.00  0.00     0.206 C 
BRANCH  13  14
HETATM   14  N6  UNL     1     -27.590 -23.715 -18.001  1.00  0.00    -0.073 N 
ATOM     15  H63 UNL     1     -27.504 -23.065 -17.220  1.00  0.00     0.274 HD
ATOM     16  H62 UNL     1     -28.556 -23.515 -18.259  1.00  0.00     0.274 HD
ATOM     17  H61 UNL     1     -27.470 -24.684 -17.704  1.00  0.00     0.274 HD
ENDBRANCH  13  14
BRANCH  13  18
HETATM   18  C8  UNL     1     -25.244 -23.609 -18.683  1.00  0.00     0.094 C 
BRANCH  18  19
HETATM   19  C9  UNL     1     -24.458 -24.391 -19.657  1.00  0.00     0.046 A 
HETATM   20  C10 UNL     1     -23.417 -23.942 -20.470  1.00  0.00     0.135 A 
HETATM   21  N7  UNL     1     -22.998 -24.975 -21.217  1.00  0.00    -0.296 N 
HETATM   22  N8  UNL     1     -23.732 -26.031 -20.901  1.00  0.00    -0.243 N 
ATOM     23  H7  UNL     1     -22.247 -24.951 -21.906  1.00  0.00     0.187 HD
HETATM   24  N9  UNL     1     -24.599 -25.700 -19.980  1.00  0.00    -0.289 N 
ATOM     25  H8  UNL     1     -23.635 -26.959 -21.313  1.00  0.00     0.208 HD
ATOM     26  H9  UNL     1     -25.282 -26.334 -19.566  1.00  0.00     0.188 HD
ENDBRANCH  18  19
ENDBRANCH  13  18
ENDBRANCH  12  13
ENDBRANCH   5  12
BRANCH   1  27
HETATM   27  C3  UNL     1     -24.096 -19.789 -24.445  1.00  0.00     0.139 C 
BRANCH  27  28
HETATM   28  C2  UNL     1     -25.264 -19.365 -25.223  1.00  0.00     0.086 A 
HETATM   29  C1  UNL     1     -26.159 -20.142 -25.955  1.00  0.00     0.146 A 
HETATM   30  N2  UNL     1     -27.043 -19.295 -26.482  1.00  0.00    -0.224 N 
HETATM   31  O1  UNL     1     -26.725 -18.105 -26.112  1.00  0.00    -0.155 OA
ATOM     32  H2  UNL     1     -27.833 -19.547 -27.076  1.00  0.00     0.198 HD
HETATM   33  N3  UNL     1     -25.672 -18.091 -25.360  1.00  0.00    -0.242 N 
ATOM     34  H3  UNL     1     -25.233 -17.267 -24.948  1.00  0.00     0.196 HD
BRANCH  29  35
HETATM   35  N1  UNL     1     -26.104 -21.409 -26.069  1.00  0.00    -0.382 N 
ATOM     36  H12 UNL     1     -26.341 -21.931 -26.913  1.00  0.00     0.157 HD
ATOM     37  H11 UNL     1     -25.827 -22.101 -25.373  1.00  0.00     0.157 HD
ENDBRANCH  29  35
ENDBRANCH  27  28
ENDBRANCH   1  27
TORSDOF 8
ENDMDL
MODEL 3
REMARK VINA RESULT: -8.325505622      1.604      2.467
REMARK  8 active torsions:
REMARK  status: ('A' for Active; 'I' for Inactive)
REMARK    1  A    between atoms: N1_1  and  C1_4 
REMARK    2  A    between atoms: C2_10  and  C3_11 
REMARK    3  A    between atoms: C3_11  and  C4_12 
REMARK    4  A    between atoms: N5_16  and  C6_18 
REMARK    5  A    between atoms: C6_18  and  C7_19 
REMARK    6  A    between atoms: C7_19  and  N6_20 
REMARK    7  A    between atoms: C7_19  and  C8_24 
REMARK    8  A    between atoms: C8_24  and  C9_25 
ROOT
HETATM    1  C4  UNL     1     -23.719 -16.501 -22.305  1.00  0.00     0.089 A 
HETATM    2  N4  UNL     1     -23.910 -17.821 -22.235  1.00  0.00    -0.332 N 
ATOM      3  H4  UNL     1     -23.883 -18.361 -23.100  1.00  0.00     0.168 HD
HETATM    4  C5  UNL     1     -24.138 -18.481 -21.070  1.00  0.00     0.105 A 
HETATM    5  N5  UNL     1     -24.317 -19.737 -21.026  1.00  0.00    -0.374 N 
ATOM      6  H5  UNL     1     -24.289 -20.267 -21.897  1.00  0.00     0.161 HD
HETATM    7  C11 UNL     1     -24.169 -17.735 -19.922  1.00  0.00     0.093 A 
HETATM    8  C12 UNL     1     -23.970 -16.354 -19.984  1.00  0.00     0.121 A 
HETATM    9  N10 UNL     1     -24.007 -15.595 -18.768  1.00  0.00    -0.083 NA
HETATM   10  N11 UNL     1     -23.751 -15.781 -21.176  1.00  0.00    -0.334 N 
ATOM     11  H11 UNL     1     -23.606 -14.773 -21.224  1.00  0.00     0.168 HD
ENDROOT
BRANCH   5  12
HETATM   12  C6  UNL     1     -24.557 -20.436 -19.802  1.00  0.00     0.154 C 
BRANCH  12  13
HETATM   13  C7  UNL     1     -24.762 -21.915 -20.004  1.00  0.00     0.206 C 
BRANCH  13  14
HETATM   14  N6  UNL     1     -23.828 -22.425 -21.002  1.00  0.00    -0.073 N 
ATOM     15  H63 UNL     1     -22.858 -22.282 -20.723  1.00  0.00     0.274 HD
ATOM     16  H62 UNL     1     -23.827 -23.444 -21.036  1.00  0.00     0.274 HD
ATOM     17  H61 UNL     1     -24.026 -22.016 -21.916  1.00  0.00     0.274 HD
ENDBRANCH  13  14
BRANCH  13  18
HETATM   18  C8  UNL     1     -26.177 -22.191 -20.365  1.00  0.00     0.094 C 
BRANCH  18  19
HETATM   19  C9  UNL     1     -26.927 -22.936 -19.334  1.00  0.00     0.046 A 
HETATM   20  C10 UNL     1     -28.254 -23.362 -19.386  1.00  0.00     0.135 A 
HETATM   21  N7  UNL     1     -28.535 -23.984 -18.231  1.00  0.00    -0.296 N 
HETATM   22  N8  UNL     1     -27.447 -23.958 -17.478  1.00  0.00    -0.243 N 
ATOM     23  H7  UNL     1     -29.430 -24.402 -17.977  1.00  0.00     0.187 HD
HETATM   24  N9  UNL     1     -26.488 -23.341 -18.118  1.00  0.00    -0.289 N 
ATOM     25  H8  UNL     1     -27.369 -24.357 -16.542  1.00  0.00     0.208 HD
ATOM     26  H9  UNL     1     -25.547 -23.188 -17.755  1.00  0.00     0.188 HD
ENDBRANCH  18  19
ENDBRANCH  13  18
ENDBRANCH  12  13
ENDBRANCH   5  12
BRANCH   1  27
HETATM   27  C3  UNL     1     -23.478 -15.895 -23.636  1.00  0.00     0.139 C 
BRANCH  27  28
HETATM   28  C2  UNL     1     -24.691 -15.801 -24.454  1.00  0.00     0.086 A 
HETATM   29  C1  UNL     1     -24.812 -15.519 -25.814  1.00  0.00     0.146 A 
HETATM   30  N2  UNL     1     -26.116 -15.545 -26.085  1.00  0.00    -0.224 N 
HETATM   31  O1  UNL     1     -26.745 -15.818 -24.997  1.00  0.00    -0.155 OA
ATOM     32  H2  UNL     1     -26.541 -15.378 -26.997  1.00  0.00     0.198 HD
HETATM   33  N3  UNL     1     -25.942 -15.980 -23.994  1.00  0.00    -0.242 N 
ATOM     34  H3  UNL     1     -26.209 -16.201 -23.035  1.00  0.00     0.196 HD
BRANCH  29  35
HETATM   35  N1  UNL     1     -23.839 -15.288 -26.602  1.00  0.00    -0.382 N 
ATOM     36  H12 UNL     1     -23.925 -15.114 -27.603  1.00  0.00     0.157 HD
ATOM     37  H11 UNL     1     -22.843 -15.236 -26.388  1.00  0.00     0.157 HD
ENDBRANCH  29  35
ENDBRANCH  27  28
ENDBRANCH   1  27
TORSDOF 8
ENDMDL
MODEL 4
REMARK VINA RESULT: -8.253979083      1.765      2.211
REMARK  8 active torsions:
REMARK  status: ('A' for Active; 'I' for Inactive)
REMARK    1  A    between atoms: N1_1  and  C1_4 
REMARK    2  A    between atoms: C2_10  and  C3_11 
REMARK    3  A    between atoms: C3_11  and  C4_12 
REMARK    4  A    between atoms: N5_16  and  C6_18 
REMARK    5  A    between atoms: C6_18  and  C7_19 
REMARK    6  A    between atoms: C7_19  and  N6_20 
REMARK    7  A    between atoms: C7_19  and  C8_24 
REMARK    8  A    between atoms: C8_24  and  C9_25 
ROOT
HETATM    1  C4  UNL     1     -24.200 -19.619 -22.753  1.00  0.00     0.089 A 
HETATM    2  N4  UNL     1     -25.123 -20.509 -22.379  1.00  0.00    -0.332 N 
ATOM      3  H4  UNL     1     -25.600 -21.045 -23.104  1.00  0.00     0.168 HD
HETATM    4  C5  UNL     1     -25.457 -20.737 -21.083  1.00  0.00     0.105 A 
HETATM    5  N5  UNL     1     -26.339 -21.587 -20.750  1.00  0.00    -0.374 N 
ATOM      6  H5  UNL     1     -26.811 -22.117 -21.482  1.00  0.00     0.161 HD
HETATM    7  C11 UNL     1     -24.802 -20.006 -20.128  1.00  0.00     0.093 A 
HETATM    8  C12 UNL     1     -23.835 -19.073 -20.508  1.00  0.00     0.121 A 
HETATM    9  N10 UNL     1     -23.163 -18.319 -19.489  1.00  0.00    -0.083 NA
HETATM   10  N11 UNL     1     -23.565 -18.909 -21.810  1.00  0.00    -0.334 N 
ATOM     11  H11 UNL     1     -22.859 -18.228 -22.091  1.00  0.00     0.168 HD
ENDROOT
BRANCH   5  12
HETATM   12  C6  UNL     1     -26.694 -21.831 -19.387  1.00  0.00     0.154 C 
BRANCH  12  13
HETATM   13  C7  UNL     1     -26.486 -23.265 -18.975  1.00  0.00     0.206 C 
BRANCH  13  14
HETATM   14  N6  UNL     1     -27.354 -23.603 -17.852  1.00  0.00    -0.073 N 
ATOM     15  H63 UNL     1     -28.014 -22.852 -17.643  1.00  0.00     0.274 HD
ATOM     16  H62 UNL     1     -28.025 -24.331 -18.095  1.00  0.00     0.274 HD
ATOM     17  H61 UNL     1     -26.797 -23.858 -17.036  1.00  0.00     0.274 HD
ENDBRANCH  13  14
BRANCH  13  18
HETATM   18  C8  UNL     1     -25.051 -23.506 -18.668  1.00  0.00     0.094 C 
BRANCH  18  19
HETATM   19  C9  UNL     1     -24.356 -24.345 -19.664  1.00  0.00     0.046 A 
HETATM   20  C10 UNL     1     -23.330 -23.966 -20.530  1.00  0.00     0.135 A 
HETATM   21  N7  UNL     1     -23.005 -25.032 -21.278  1.00  0.00    -0.296 N 
HETATM   22  N8  UNL     1     -23.780 -26.040 -20.912  1.00  0.00    -0.243 N 
ATOM     23  H7  UNL     1     -22.287 -25.060 -22.001  1.00  0.00     0.187 HD
HETATM   24  N9  UNL     1     -24.584 -25.648 -19.958  1.00  0.00    -0.289 N 
ATOM     25  H8  UNL     1     -23.754 -26.979 -21.312  1.00  0.00     0.208 HD
ATOM     26  H9  UNL     1     -25.281 -26.237 -19.502  1.00  0.00     0.188 HD
ENDBRANCH  18  19
ENDBRANCH  13  18
ENDBRANCH  12  13
ENDBRANCH   5  12
BRANCH   1  27
HETATM   27  C3  UNL     1     -23.922 -19.460 -24.200  1.00  0.00     0.139 C 
BRANCH  27  28
HETATM   28  C2  UNL     1     -24.764 -18.446 -24.842  1.00  0.00     0.086 A 
HETATM   29  C1  UNL     1     -24.564 -17.070 -24.934  1.00  0.00     0.146 A 
HETATM   30  N2  UNL     1     -25.606 -16.586 -25.608  1.00  0.00    -0.224 N 
HETATM   31  O1  UNL     1     -26.380 -17.570 -25.906  1.00  0.00    -0.155 OA
ATOM     32  H2  UNL     1     -25.763 -15.607 -25.846  1.00  0.00     0.198 HD
HETATM   33  N3  UNL     1     -25.924 -18.701 -25.472  1.00  0.00    -0.242 N 
ATOM     34  H3  UNL     1     -26.363 -19.615 -25.586  1.00  0.00     0.196 HD
BRANCH  29  35
HETATM   35  N1  UNL     1     -23.566 -16.443 -24.453  1.00  0.00    -0.382 N 
ATOM     36  H12 UNL     1     -23.357 -16.350 -23.459  1.00  0.00     0.157 HD
ATOM     37  H11 UNL     1     -22.827 -15.942 -24.948  1.00  0.00     0.157 HD
ENDBRANCH  29  35
ENDBRANCH  27  28
ENDBRANCH   1  27
TORSDOF 8
ENDMDL
MODEL 5
REMARK VINA RESULT: -8.191588690      2.604      4.330
REMARK  8 active torsions:
REMARK  status: ('A' for Active; 'I' for Inactive)
REMARK    1  A    between atoms: N1_1  and  C1_4 
REMARK    2  A    between atoms: C2_10  and  C3_11 
REMARK    3  A    between atoms: C3_11  and  C4_12 
REMARK    4  A    between atoms: N5_16  and  C6_18 
REMARK    5  A    between atoms: C6_18  and  C7_19 
REMARK    6  A    between atoms: C7_19  and  N6_20 
REMARK    7  A    between atoms: C7_19  and  C8_24 
REMARK    8  A    between atoms: C8_24  and  C9_25 
ROOT
HETATM    1  C4  UNL     1     -25.033 -20.138 -22.594  1.00  0.00     0.089 A 
HETATM    2  N4  UNL     1     -25.518 -20.442 -21.388  1.00  0.00    -0.332 N 
ATOM      3  H4  UNL     1     -25.292 -19.828 -20.606  1.00  0.00     0.168 HD
HETATM    4  C5  UNL     1     -26.297 -21.529 -21.149  1.00  0.00     0.105 A 
HETATM    5  N5  UNL     1     -26.747 -21.799 -19.994  1.00  0.00    -0.374 N 
ATOM      6  H5  UNL     1     -26.514 -21.179 -19.219  1.00  0.00     0.161 HD
HETATM    7  C11 UNL     1     -26.588 -22.339 -22.214  1.00  0.00     0.093 A 
HETATM    8  C12 UNL     1     -26.086 -22.029 -23.481  1.00  0.00     0.121 A 
HETATM    9  N10 UNL     1     -26.404 -22.894 -24.580  1.00  0.00    -0.083 NA
HETATM   10  N11 UNL     1     -25.323 -20.938 -23.630  1.00  0.00    -0.334 N 
ATOM     11  H11 UNL     1     -24.955 -20.709 -24.553  1.00  0.00     0.168 HD
ENDROOT
BRANCH   5  12
HETATM   12  C6  UNL     1     -27.568 -22.942 -19.738  1.00  0.00     0.154 C 
BRANCH  12  13
HETATM   13  C7  UNL     1     -26.900 -23.953 -18.843  1.00  0.00     0.206 C 
BRANCH  13  14
HETATM   14  N6  UNL     1     -27.571 -24.007 -17.548  1.00  0.00    -0.073 N 
ATOM     15  H63 UNL     1     -27.725 -23.076 -17.161  1.00  0.00     0.274 HD
ATOM     16  H62 UNL     1     -28.544 -24.298 -17.635  1.00  0.00     0.274 HD
ATOM     17  H61 UNL     1     -27.052 -24.605 -16.904  1.00  0.00     0.274 HD
ENDBRANCH  13  14
BRANCH  13  18
HETATM   18  C8  UNL     1     -25.452 -23.644 -18.713  1.00  0.00     0.094 C 
BRANCH  18  19
HETATM   19  C9  UNL     1     -24.587 -24.425 -19.619  1.00  0.00     0.046 A 
HETATM   20  C10 UNL     1     -23.514 -23.964 -20.382  1.00  0.00     0.135 A 
HETATM   21  N7  UNL     1     -23.021 -25.002 -21.075  1.00  0.00    -0.296 N 
HETATM   22  N8  UNL     1     -23.739 -26.072 -20.773  1.00  0.00    -0.243 N 
ATOM     23  H7  UNL     1     -22.232 -24.972 -21.720  1.00  0.00     0.187 HD
HETATM   24  N9  UNL     1     -24.669 -25.746 -19.913  1.00  0.00    -0.289 N 
ATOM     25  H8  UNL     1     -23.591 -27.007 -21.153  1.00  0.00     0.208 HD
ATOM     26  H9  UNL     1     -25.355 -26.390 -19.521  1.00  0.00     0.188 HD
ENDBRANCH  18  19
ENDBRANCH  13  18
ENDBRANCH  12  13
ENDBRANCH   5  12
BRANCH   1  27
HETATM   27  C3  UNL     1     -24.194 -18.924 -22.729  1.00  0.00     0.139 C 
BRANCH  27  28
HETATM   28  C2  UNL     1     -23.923 -18.265 -21.448  1.00  0.00     0.086 A 
HETATM   29  C1  UNL     1     -24.422 -17.059 -20.959  1.00  0.00     0.146 A 
HETATM   30  N2  UNL     1     -23.879 -16.892 -19.755  1.00  0.00    -0.224 N 
HETATM   31  O1  UNL     1     -23.114 -17.899 -19.518  1.00  0.00    -0.155 OA
ATOM     32  H2  UNL     1     -24.041 -16.103 -19.129  1.00  0.00     0.198 HD
HETATM   33  N3  UNL     1     -23.105 -18.747 -20.496  1.00  0.00    -0.242 N 
ATOM     34  H3  UNL     1     -22.575 -19.618 -20.537  1.00  0.00     0.196 HD
BRANCH  29  35
HETATM   35  N1  UNL     1     -25.236 -16.300 -21.578  1.00  0.00    -0.382 N 
ATOM     36  H12 UNL     1     -26.233 -16.481 -21.693  1.00  0.00     0.157 HD
ATOM     37  H11 UNL     1     -25.050 -15.415 -22.051  1.00  0.00     0.157 HD
ENDBRANCH  29  35
ENDBRANCH  27  28
ENDBRANCH   1  27
TORSDOF 8
ENDMDL
