MODEL 1
REMARK VINA RESULT: -8.550028916      0.000      0.000
REMARK  7 active torsions:
REMARK  status: ('A' for Active; 'I' for Inactive)
REMARK    1  A    between atoms: N1_1  and  C1_4 
REMARK    2  A    between atoms: N4_9  and  C2_10 
REMARK    3  A    between atoms: C2_10  and  C3_11 
REMARK    4  A    between atoms: C3_11  and  N5_12 
REMARK    5  A    between atoms: N5_12  and  C4_15 
REMARK    6  A    between atoms: C4_15  and  C5_16 
REMARK    7  A    between atoms: C8_23  and  N8_24 
ROOT
HETATM    1  C5  UNL     1     -23.428 -23.857 -21.608  1.00  0.00    -0.016 A 
HETATM    2  C6  UNL     1     -22.005 -23.902 -21.505  1.00  0.00     0.098 A 
HETATM    3  N6  UNL     1     -21.273 -24.639 -22.341  1.00  0.00    -0.350 N 
ATOM      4  H6  UNL     1     -20.257 -24.657 -22.244  1.00  0.00     0.166 HD
HETATM    5  C7  UNL     1     -21.860 -25.356 -23.308  1.00  0.00     0.135 A 
HETATM    6  N7  UNL     1     -20.975 -26.045 -24.049  1.00  0.00    -0.176 N 
ATOM      7  H7  UNL     1     -20.014 -25.702 -24.044  1.00  0.00     0.186 HD
HETATM    8  C8  UNL     1     -21.220 -27.140 -24.799  1.00  0.00     0.680 C 
HETATM    9  N9  UNL     1     -22.313 -27.437 -25.526  1.00  0.00    -0.153 N 
ATOM     10  H9  UNL     1     -22.192 -28.108 -26.284  1.00  0.00     0.187 HD
HETATM   11  C9  UNL     1     -23.555 -26.934 -25.349  1.00  0.00     0.310 C 
HETATM   12  O1  UNL     1     -24.424 -27.346 -26.168  1.00  0.00    -0.263 OA
HETATM   13  C10 UNL     1     -23.994 -26.038 -24.388  1.00  0.00     0.253 C 
HETATM   14  O2  UNL     1     -25.217 -25.825 -24.354  1.00  0.00    -0.281 OA
HETATM   15  C11 UNL     1     -23.239 -25.337 -23.445  1.00  0.00     0.065 A 
HETATM   16  C12 UNL     1     -24.050 -24.572 -22.579  1.00  0.00     0.029 A 
ENDROOT
BRANCH   1  17
HETATM   17  C4  UNL     1     -24.047 -23.035 -20.562  1.00  0.00     0.272 C 
BRANCH  17  18
HETATM   18  N5  UNL     1     -24.097 -21.622 -20.891  1.00  0.00    -0.070 N 
ATOM     19  H52 UNL     1     -23.544 -21.413 -21.722  1.00  0.00     0.277 HD
ATOM     20  H51 UNL     1     -23.580 -21.063 -20.212  1.00  0.00     0.277 HD
BRANCH  18  21
HETATM   21  C3  UNL     1     -25.442 -21.160 -21.031  1.00  0.00     0.256 C 
BRANCH  21  22
HETATM   22  C2  UNL     1     -26.038 -20.694 -19.739  1.00  0.00     0.199 C 
BRANCH  22  23
HETATM   23  N4  UNL     1     -26.744 -21.881 -19.186  1.00  0.00    -0.203 N 
HETATM   24  N3  UNL     1     -26.605 -22.522 -18.056  1.00  0.00    -0.211 N 
HETATM   25  N2  UNL     1     -27.480 -23.568 -18.050  1.00  0.00    -0.115 N 
ATOM     26  H3  UNL     1     -25.956 -22.282 -17.307  1.00  0.00     0.210 HD
HETATM   27  C1  UNL     1     -28.163 -23.577 -19.203  1.00  0.00     0.707 A 
ATOM     28  H2  UNL     1     -27.596 -24.238 -17.290  1.00  0.00     0.207 HD
HETATM   29  N10 UNL     1     -27.696 -22.535 -19.877  1.00  0.00    -0.113 N 
ATOM     30  H10 UNL     1     -28.019 -22.261 -20.804  1.00  0.00     0.207 HD
BRANCH  27  31
HETATM   31  N1  UNL     1     -29.084 -24.430 -19.561  1.00  0.00    -0.232 N 
ATOM     32  H12 UNL     1     -28.975 -25.410 -19.824  1.00  0.00     0.174 HD
ATOM     33  H11 UNL     1     -30.085 -24.252 -19.643  1.00  0.00     0.174 HD
ENDBRANCH  27  31
ENDBRANCH  22  23
ENDBRANCH  21  22
ENDBRANCH  18  21
ENDBRANCH  17  18
ENDBRANCH   1  17
BRANCH   8  34
HETATM   34  N8  UNL     1     -20.269 -28.016 -24.823  1.00  0.00    -0.234 N 
ATOM     35  H82 UNL     1     -20.257 -28.683 -24.052  1.00  0.00     0.174 HD
ATOM     36  H81 UNL     1     -19.632 -27.946 -25.617  1.00  0.00     0.174 HD
ENDBRANCH   8  34
TORSDOF 7
ENDMDL
MODEL 2
REMARK VINA RESULT: -8.440689004      2.055      3.554
REMARK  7 active torsions:
REMARK  status: ('A' for Active; 'I' for Inactive)
REMARK    1  A    between atoms: N1_1  and  C1_4 
REMARK    2  A    between atoms: N4_9  and  C2_10 
REMARK    3  A    between atoms: C2_10  and  C3_11 
REMARK    4  A    between atoms: C3_11  and  N5_12 
REMARK    5  A    between atoms: N5_12  and  C4_15 
REMARK    6  A    between atoms: C4_15  and  C5_16 
REMARK    7  A    between atoms: C8_23  and  N8_24 
ROOT
HETATM    1  C5  UNL     1     -23.521 -23.850 -21.541  1.00  0.00    -0.016 A 
HETATM    2  C6  UNL     1     -22.103 -23.906 -21.388  1.00  0.00     0.098 A 
HETATM    3  N6  UNL     1     -21.348 -24.642 -22.204  1.00  0.00    -0.350 N 
ATOM      4  H6  UNL     1     -20.336 -24.668 -22.072  1.00  0.00     0.166 HD
HETATM    5  C7  UNL     1     -21.906 -25.346 -23.198  1.00  0.00     0.135 A 
HETATM    6  N7  UNL     1     -21.001 -26.036 -23.913  1.00  0.00    -0.176 N 
ATOM      7  H7  UNL     1     -20.038 -25.701 -23.872  1.00  0.00     0.186 HD
HETATM    8  C8  UNL     1     -21.227 -27.123 -24.681  1.00  0.00     0.680 C 
HETATM    9  N9  UNL     1     -22.296 -27.406 -25.448  1.00  0.00    -0.153 N 
ATOM     10  H9  UNL     1     -22.154 -28.071 -26.207  1.00  0.00     0.187 HD
HETATM   11  C9  UNL     1     -23.540 -26.894 -25.310  1.00  0.00     0.310 C 
HETATM   12  O1  UNL     1     -24.383 -27.293 -26.162  1.00  0.00    -0.263 OA
HETATM   13  C10 UNL     1     -24.005 -26.003 -24.358  1.00  0.00     0.253 C 
HETATM   14  O2  UNL     1     -25.228 -25.781 -24.365  1.00  0.00    -0.281 OA
HETATM   15  C11 UNL     1     -23.280 -25.316 -23.382  1.00  0.00     0.065 A 
HETATM   16  C12 UNL     1     -24.114 -24.552 -22.540  1.00  0.00     0.029 A 
ENDROOT
BRANCH   1  17
HETATM   17  C4  UNL     1     -24.171 -23.032 -20.510  1.00  0.00     0.272 C 
BRANCH  17  18
HETATM   18  N5  UNL     1     -25.527 -22.640 -20.851  1.00  0.00    -0.070 N 
ATOM     19  H52 UNL     1     -26.193 -22.951 -20.144  1.00  0.00     0.277 HD
ATOM     20  H51 UNL     1     -25.879 -23.174 -21.646  1.00  0.00     0.277 HD
BRANCH  18  21
HETATM   21  C3  UNL     1     -25.628 -21.233 -21.081  1.00  0.00     0.256 C 
BRANCH  21  22
HETATM   22  C2  UNL     1     -24.953 -20.418 -20.023  1.00  0.00     0.199 C 
BRANCH  22  23
HETATM   23  N4  UNL     1     -24.460 -19.203 -20.726  1.00  0.00    -0.203 N 
HETATM   24  N3  UNL     1     -23.386 -18.993 -21.441  1.00  0.00    -0.211 N 
HETATM   25  N2  UNL     1     -23.388 -17.688 -21.838  1.00  0.00    -0.115 N 
ATOM     26  H3  UNL     1     -22.671 -19.684 -21.664  1.00  0.00     0.210 HD
HETATM   27  C1  UNL     1     -24.479 -17.081 -21.350  1.00  0.00     0.707 A 
ATOM     28  H2  UNL     1     -22.673 -17.244 -22.414  1.00  0.00     0.207 HD
HETATM   29  N10 UNL     1     -25.117 -18.030 -20.677  1.00  0.00    -0.113 N 
ATOM     30  H10 UNL     1     -25.998 -17.888 -20.184  1.00  0.00     0.207 HD
BRANCH  27  31
HETATM   31  N1  UNL     1     -24.821 -15.833 -21.515  1.00  0.00    -0.232 N 
ATOM     32  H12 UNL     1     -24.396 -14.998 -21.110  1.00  0.00     0.174 HD
ATOM     33  H11 UNL     1     -25.588 -15.478 -22.087  1.00  0.00     0.174 HD
ENDBRANCH  27  31
ENDBRANCH  22  23
ENDBRANCH  21  22
ENDBRANCH  18  21
ENDBRANCH  17  18
ENDBRANCH   1  17
BRANCH   8  34
HETATM   34  N8  UNL     1     -20.282 -28.006 -24.679  1.00  0.00    -0.234 N 
ATOM     35  H82 UNL     1     -19.653 -27.989 -25.481  1.00  0.00     0.174 HD
ATOM     36  H81 UNL     1     -20.267 -28.626 -23.868  1.00  0.00     0.174 HD
ENDBRANCH   8  34
TORSDOF 7
ENDMDL
MODEL 3
REMARK VINA RESULT: -8.148108017      2.786      7.345
REMARK  7 active torsions:
REMARK  status: ('A' for Active; 'I' for Inactive)
REMARK    1  A    between atoms: N1_1  and  C1_4 
REMARK    2  A    between atoms: N4_9  and  C2_10 
REMARK    3  A    between atoms: C2_10  and  C3_11 
REMARK    4  A    between atoms: C3_11  and  N5_12 
REMARK    5  A    between atoms: N5_12  and  C4_15 
REMARK    6  A    between atoms: C4_15  and  C5_16 
REMARK    7  A    between atoms: C8_23  and  N8_24 
ROOT
HETATM    1  C5  UNL     1     -24.586 -21.679 -22.010  1.00  0.00    -0.016 A 
HETATM    2  C6  UNL     1     -25.818 -21.655 -22.732  1.00  0.00     0.098 A 
HETATM    3  N6  UNL     1     -26.951 -22.094 -22.183  1.00  0.00    -0.350 N 
ATOM      4  H6  UNL     1     -27.817 -22.070 -22.722  1.00  0.00     0.166 HD
HETATM    5  C7  UNL     1     -26.960 -22.568 -20.930  1.00  0.00     0.135 A 
HETATM    6  N7  UNL     1     -28.181 -22.976 -20.542  1.00  0.00    -0.176 N 
ATOM      7  H7  UNL     1     -28.974 -22.584 -21.051  1.00  0.00     0.186 HD
HETATM    8  C8  UNL     1     -28.472 -23.847 -19.554  1.00  0.00     0.680 C 
HETATM    9  N9  UNL     1     -27.857 -24.014 -18.369  1.00  0.00    -0.153 N 
ATOM     10  H9  UNL     1     -28.401 -24.451 -17.625  1.00  0.00     0.187 HD
HETATM   11  C9  UNL     1     -26.588 -23.659 -18.067  1.00  0.00     0.310 C 
HETATM   12  O1  UNL     1     -26.231 -23.897 -16.878  1.00  0.00    -0.263 OA
HETATM   13  C10 UNL     1     -25.636 -23.080 -18.889  1.00  0.00     0.253 C 
HETATM   14  O2  UNL     1     -24.495 -22.965 -18.411  1.00  0.00    -0.281 OA
HETATM   15  C11 UNL     1     -25.787 -22.605 -20.194  1.00  0.00     0.065 A 
HETATM   16  C12 UNL     1     -24.567 -22.151 -20.738  1.00  0.00     0.029 A 
ENDROOT
BRANCH   1  17
HETATM   17  C4  UNL     1     -23.451 -21.205 -22.810  1.00  0.00     0.272 C 
BRANCH  17  18
HETATM   18  N5  UNL     1     -22.160 -21.501 -22.214  1.00  0.00    -0.070 N 
ATOM     19  H52 UNL     1     -22.238 -21.638 -21.206  1.00  0.00     0.277 HD
ATOM     20  H51 UNL     1     -21.553 -20.682 -22.216  1.00  0.00     0.277 HD
BRANCH  18  21
HETATM   21  C3  UNL     1     -21.531 -22.619 -22.844  1.00  0.00     0.256 C 
BRANCH  21  22
HETATM   22  C2  UNL     1     -21.627 -23.876 -22.037  1.00  0.00     0.199 C 
BRANCH  22  23
HETATM   23  N4  UNL     1     -21.819 -24.963 -23.035  1.00  0.00    -0.203 N 
HETATM   24  N3  UNL     1     -22.898 -25.559 -23.468  1.00  0.00    -0.211 N 
HETATM   25  N2  UNL     1     -22.524 -26.516 -24.366  1.00  0.00    -0.115 N 
ATOM     26  H3  UNL     1     -23.854 -25.346 -23.185  1.00  0.00     0.210 HD
HETATM   27  C1  UNL     1     -21.189 -26.515 -24.480  1.00  0.00     0.707 A 
ATOM     28  H2  UNL     1     -23.160 -27.134 -24.870  1.00  0.00     0.207 HD
HETATM   29  N10 UNL     1     -20.784 -25.555 -23.659  1.00  0.00    -0.113 N 
ATOM     30  H10 UNL     1     -19.808 -25.297 -23.518  1.00  0.00     0.207 HD
BRANCH  27  31
HETATM   31  N1  UNL     1     -20.467 -27.292 -25.240  1.00  0.00    -0.232 N 
ATOM     32  H12 UNL     1     -20.628 -28.269 -25.485  1.00  0.00     0.174 HD
ATOM     33  H11 UNL     1     -19.603 -27.045 -25.722  1.00  0.00     0.174 HD
ENDBRANCH  27  31
ENDBRANCH  22  23
ENDBRANCH  21  22
ENDBRANCH  18  21
ENDBRANCH  17  18
ENDBRANCH   1  17
BRANCH   8  34
HETATM   34  N8  UNL     1     -29.483 -24.621 -19.780  1.00  0.00    -0.234 N 
ATOM     35  H82 UNL     1     -29.539 -25.020 -20.717  1.00  0.00     0.174 HD
ATOM     36  H81 UNL     1     -30.117 -24.752 -18.991  1.00  0.00     0.174 HD
ENDBRANCH   8  34
TORSDOF 7
ENDMDL
MODEL 4
REMARK VINA RESULT: -8.120474205      3.382      6.613
REMARK  7 active torsions:
REMARK  status: ('A' for Active; 'I' for Inactive)
REMARK    1  A    between atoms: N1_1  and  C1_4 
REMARK    2  A    between atoms: N4_9  and  C2_10 
REMARK    3  A    between atoms: C2_10  and  C3_11 
REMARK    4  A    between atoms: C3_11  and  N5_12 
REMARK    5  A    between atoms: N5_12  and  C4_15 
REMARK    6  A    between atoms: C4_15  and  C5_16 
REMARK    7  A    between atoms: C8_23  and  N8_24 
ROOT
HETATM    1  C5  UNL     1     -24.751 -21.507 -22.035  1.00  0.00    -0.016 A 
HETATM    2  C6  UNL     1     -26.018 -21.579 -22.688  1.00  0.00     0.098 A 
HETATM    3  N6  UNL     1     -27.088 -22.078 -22.069  1.00  0.00    -0.350 N 
ATOM      4  H6  UNL     1     -27.982 -22.122 -22.559  1.00  0.00     0.166 HD
HETATM    5  C7  UNL     1     -27.000 -22.522 -20.808  1.00  0.00     0.135 A 
HETATM    6  N7  UNL     1     -28.168 -22.999 -20.346  1.00  0.00    -0.176 N 
ATOM      7  H7  UNL     1     -29.012 -22.672 -20.818  1.00  0.00     0.186 HD
HETATM    8  C8  UNL     1     -28.348 -23.865 -19.327  1.00  0.00     0.680 C 
HETATM    9  N9  UNL     1     -27.659 -23.964 -18.174  1.00  0.00    -0.153 N 
ATOM     10  H9  UNL     1     -28.133 -24.418 -17.393  1.00  0.00     0.187 HD
HETATM   11  C9  UNL     1     -26.403 -23.520 -17.949  1.00  0.00     0.310 C 
HETATM   12  O1  UNL     1     -25.968 -23.707 -16.778  1.00  0.00    -0.263 OA
HETATM   13  C10 UNL     1     -25.536 -22.900 -18.834  1.00  0.00     0.253 C 
HETATM   14  O2  UNL     1     -24.381 -22.700 -18.422  1.00  0.00    -0.281 OA
HETATM   15  C11 UNL     1     -25.788 -22.466 -20.137  1.00  0.00     0.065 A 
HETATM   16  C12 UNL     1     -24.632 -21.947 -20.757  1.00  0.00     0.029 A 
ENDROOT
BRANCH   1  17
HETATM   17  C4  UNL     1     -23.693 -20.979 -22.905  1.00  0.00     0.272 C 
BRANCH  17  18
HETATM   18  N5  UNL     1     -22.355 -21.198 -22.387  1.00  0.00    -0.070 N 
ATOM     19  H52 UNL     1     -22.361 -21.304 -21.372  1.00  0.00     0.277 HD
ATOM     20  H51 UNL     1     -21.787 -20.353 -22.454  1.00  0.00     0.277 HD
BRANCH  18  21
HETATM   21  C3  UNL     1     -21.717 -22.307 -23.022  1.00  0.00     0.256 C 
BRANCH  21  22
HETATM   22  C2  UNL     1     -21.235 -23.340 -22.052  1.00  0.00     0.199 C 
BRANCH  22  23
HETATM   23  N4  UNL     1     -22.370 -24.291 -21.902  1.00  0.00    -0.203 N 
HETATM   24  N3  UNL     1     -23.144 -24.860 -22.787  1.00  0.00    -0.211 N 
HETATM   25  N2  UNL     1     -24.056 -25.627 -22.123  1.00  0.00    -0.115 N 
ATOM     26  H3  UNL     1     -23.079 -24.750 -23.799  1.00  0.00     0.210 HD
HETATM   27  C1  UNL     1     -23.844 -25.521 -20.805  1.00  0.00     0.707 A 
ATOM     28  H2  UNL     1     -24.783 -26.192 -22.561  1.00  0.00     0.207 HD
HETATM   29  N10 UNL     1     -22.807 -24.702 -20.698  1.00  0.00    -0.113 N 
ATOM     30  H10 UNL     1     -22.391 -24.418 -19.811  1.00  0.00     0.207 HD
BRANCH  27  31
HETATM   31  N1  UNL     1     -24.518 -26.107 -19.853  1.00  0.00    -0.232 N 
ATOM     32  H12 UNL     1     -25.011 -27.000 -19.880  1.00  0.00     0.174 HD
ATOM     33  H11 UNL     1     -24.669 -25.759 -18.906  1.00  0.00     0.174 HD
ENDBRANCH  27  31
ENDBRANCH  22  23
ENDBRANCH  21  22
ENDBRANCH  18  21
ENDBRANCH  17  18
ENDBRANCH   1  17
BRANCH   8  34
HETATM   34  N8  UNL     1     -29.316 -24.708 -19.482  1.00  0.00    -0.234 N 
ATOM     35  H82 UNL     1     -29.750 -24.724 -20.404  1.00  0.00     0.174 HD
ATOM     36  H81 UNL     1     -29.540 -25.270 -18.660  1.00  0.00     0.174 HD
ENDBRANCH   8  34
TORSDOF 7
ENDMDL
MODEL 5
REMARK VINA RESULT: -8.087386320      4.061      6.246
REMARK  7 active torsions:
REMARK  status: ('A' for Active; 'I' for Inactive)
REMARK    1  A    between atoms: N1_1  and  C1_4 
REMARK    2  A    between atoms: N4_9  and  C2_10 
REMARK    3  A    between atoms: C2_10  and  C3_11 
REMARK    4  A    between atoms: C3_11  and  N5_12 
REMARK    5  A    between atoms: N5_12  and  C4_15 
REMARK    6  A    between atoms: C4_15  and  C5_16 
REMARK    7  A    between atoms: C8_23  and  N8_24 
ROOT
HETATM    1  C5  UNL     1     -27.277 -22.442 -20.927  1.00  0.00    -0.016 A 
HETATM    2  C6  UNL     1     -26.973 -22.984 -22.212  1.00  0.00     0.098 A 
HETATM    3  N6  UNL     1     -26.064 -22.417 -23.005  1.00  0.00    -0.350 N 
ATOM      4  H6  UNL     1     -25.868 -22.822 -23.921  1.00  0.00     0.166 HD
HETATM    5  C7  UNL     1     -25.405 -21.320 -22.609  1.00  0.00     0.135 A 
HETATM    6  N7  UNL     1     -24.536 -20.878 -23.535  1.00  0.00    -0.176 N 
ATOM      7  H7  UNL     1     -24.222 -21.560 -24.226  1.00  0.00     0.186 HD
HETATM    8  C8  UNL     1     -24.034 -19.631 -23.650  1.00  0.00     0.680 C 
HETATM    9  N9  UNL     1     -23.695 -18.766 -22.676  1.00  0.00    -0.153 N 
ATOM     10  H9  UNL     1     -23.025 -18.036 -22.922  1.00  0.00     0.187 HD
HETATM   11  C9  UNL     1     -24.154 -18.768 -21.404  1.00  0.00     0.310 C 
HETATM   12  O1  UNL     1     -23.678 -17.867 -20.659  1.00  0.00    -0.263 OA
HETATM   13  C10 UNL     1     -25.077 -19.621 -20.823  1.00  0.00     0.253 C 
HETATM   14  O2  UNL     1     -25.433 -19.339 -19.667  1.00  0.00    -0.281 OA
HETATM   15  C11 UNL     1     -25.668 -20.764 -21.367  1.00  0.00     0.065 A 
HETATM   16  C12 UNL     1     -26.624 -21.332 -20.499  1.00  0.00     0.029 A 
ENDROOT
BRANCH   1  17
HETATM   17  C4  UNL     1     -28.343 -23.179 -20.238  1.00  0.00     0.272 C 
BRANCH  17  18
HETATM   18  N5  UNL     1     -28.241 -23.123 -18.790  1.00  0.00    -0.070 N 
ATOM     19  H52 UNL     1     -29.163 -23.114 -18.352  1.00  0.00     0.277 HD
ATOM     20  H51 UNL     1     -27.908 -22.212 -18.475  1.00  0.00     0.277 HD
BRANCH  18  21
HETATM   21  C3  UNL     1     -27.430 -24.182 -18.277  1.00  0.00     0.256 C 
BRANCH  21  22
HETATM   22  C2  UNL     1     -26.141 -23.699 -17.690  1.00  0.00     0.199 C 
BRANCH  22  23
HETATM   23  N4  UNL     1     -25.117 -23.956 -18.738  1.00  0.00    -0.203 N 
HETATM   24  N3  UNL     1     -24.177 -23.196 -19.235  1.00  0.00    -0.211 N 
HETATM   25  N2  UNL     1     -23.525 -23.903 -20.202  1.00  0.00    -0.115 N 
ATOM     26  H3  UNL     1     -23.966 -22.240 -18.948  1.00  0.00     0.210 HD
HETATM   27  C1  UNL     1     -24.081 -25.117 -20.310  1.00  0.00     0.707 A 
ATOM     28  H2  UNL     1     -22.740 -23.561 -20.756  1.00  0.00     0.207 HD
HETATM   29  N10 UNL     1     -25.048 -25.124 -19.403  1.00  0.00    -0.113 N 
ATOM     30  H10 UNL     1     -25.665 -25.918 -19.229  1.00  0.00     0.207 HD
BRANCH  27  31
HETATM   31  N1  UNL     1     -23.730 -26.070 -21.130  1.00  0.00    -0.232 N 
ATOM     32  H12 UNL     1     -23.253 -25.990 -22.029  1.00  0.00     0.174 HD
ATOM     33  H11 UNL     1     -23.880 -27.071 -21.006  1.00  0.00     0.174 HD
ENDBRANCH  27  31
ENDBRANCH  22  23
ENDBRANCH  21  22
ENDBRANCH  18  21
ENDBRANCH  17  18
ENDBRANCH   1  17
BRANCH   8  34
HETATM   34  N8  UNL     1     -23.851 -19.219 -24.862  1.00  0.00    -0.234 N 
ATOM     35  H82 UNL     1     -24.254 -19.800 -25.596  1.00  0.00     0.174 HD
ATOM     36  H81 UNL     1     -23.323 -18.350 -24.952  1.00  0.00     0.174 HD
ENDBRANCH   8  34
TORSDOF 7
ENDMDL
