MODEL 1
REMARK VINA RESULT: -7.218357588      0.000      0.000
REMARK  5 active torsions:
REMARK  status: ('A' for Active; 'I' for Inactive)
REMARK    1  A    between atoms: C2_2  and  N1_3 
REMARK    2  A    between atoms: N2_6  and  C5_7 
REMARK    3  A    between atoms: C5_7  and  C6_8 
REMARK    4  A    between atoms: C6_8  and  C7_9 
REMARK    5  A    between atoms: C7_9  and  C8_10 
REMARK       I    between atoms: C8_10  and  N3_12 
ROOT
HETATM    1  C8  UNL     1      17.364 -11.970  19.354  1.00  0.00     0.219 C 
HETATM    2  O1  UNL     1      17.563 -11.963  18.099  1.00  0.00    -0.273 OA
HETATM    3  N3  UNL     1      16.038 -12.028  19.838  1.00  0.00    -0.352 N 
HETATM    4  C9  UNL     1      14.927 -12.078  18.919  1.00  0.00     0.128 C 
HETATM    5  C10 UNL     1      13.813 -11.161  19.287  1.00  0.00     0.051 C 
HETATM    6  C11 UNL     1      13.581 -11.043  20.763  1.00  0.00     0.034 C 
HETATM    7  C12 UNL     1      12.650  -9.879  21.028  1.00  0.00     0.038 C 
HETATM    8  C13 UNL     1      12.111 -10.281  22.409  1.00  0.00     0.075 C 
HETATM    9  C14 UNL     1      12.043 -11.764  22.223  1.00  0.00     0.089 C 
HETATM   10  N4  UNL     1      11.186 -12.627  22.956  1.00  0.00    -0.088 NA
HETATM   11  N5  UNL     1      12.862 -12.136  21.315  1.00  0.00    -0.372 N 
ATOM     12  H5  UNL     1      12.984 -13.105  21.021  1.00  0.00     0.161 HD
HETATM   13  C15 UNL     1      14.852 -10.871  21.554  1.00  0.00     0.051 C 
HETATM   14  C16 UNL     1      15.784 -12.037  21.244  1.00  0.00     0.128 C 
ENDROOT
BRANCH   1  15
HETATM   15  C7  UNL     1      18.544 -11.917  20.253  1.00  0.00     0.105 C 
BRANCH  15  16
HETATM   16  C6  UNL     1      19.333 -13.172  20.106  1.00  0.00     0.037 C 
BRANCH  16  17
HETATM   17  C5  UNL     1      18.728 -14.316  20.891  1.00  0.00     0.238 C 
BRANCH  17  18
HETATM   18  N2  UNL     1      19.341 -14.460  22.175  1.00  0.00    -0.062 N 
HETATM   19  C4  UNL     1      20.603 -13.732  22.144  1.00  0.00     0.265 C 
HETATM   20  C3  UNL     1      21.235 -13.722  23.498  1.00  0.00     0.265 C 
HETATM   21  N1  UNL     1      20.592 -14.715  24.342  1.00  0.00    -0.063 N 
HETATM   22  C18 UNL     1      20.616 -15.966  23.606  1.00  0.00     0.265 C 
HETATM   23  C20 UNL     1      19.207 -14.371  24.568  1.00  0.00     0.265 C 
HETATM   24  C17 UNL     1      19.624 -15.867  22.474  1.00  0.00     0.265 C 
HETATM   25  C19 UNL     1      18.560 -13.948  23.260  1.00  0.00     0.265 C 
BRANCH  21  26
HETATM   26  C2  UNL     1      21.256 -14.806  25.610  1.00  0.00     0.233 C 
HETATM   27  C1  UNL     1      21.214 -13.511  26.394  1.00  0.00     0.035 C 
ENDBRANCH  21  26
ENDBRANCH  17  18
ENDBRANCH  16  17
ENDBRANCH  15  16
ENDBRANCH   1  15
TORSDOF 5
ENDMDL
MODEL 2
REMARK VINA RESULT: -7.123610980      0.124      1.115
REMARK  5 active torsions:
REMARK  status: ('A' for Active; 'I' for Inactive)
REMARK    1  A    between atoms: C2_2  and  N1_3 
REMARK    2  A    between atoms: N2_6  and  C5_7 
REMARK    3  A    between atoms: C5_7  and  C6_8 
REMARK    4  A    between atoms: C6_8  and  C7_9 
REMARK    5  A    between atoms: C7_9  and  C8_10 
REMARK       I    between atoms: C8_10  and  N3_12 
ROOT
HETATM    1  C8  UNL     1      17.379 -11.977  19.342  1.00  0.00     0.219 C 
HETATM    2  O1  UNL     1      17.582 -11.968  18.088  1.00  0.00    -0.273 OA
HETATM    3  N3  UNL     1      16.050 -12.030  19.821  1.00  0.00    -0.352 N 
HETATM    4  C9  UNL     1      14.943 -12.071  18.898  1.00  0.00     0.128 C 
HETATM    5  C10 UNL     1      13.832 -11.150  19.264  1.00  0.00     0.051 C 
HETATM    6  C11 UNL     1      13.595 -11.034  20.740  1.00  0.00     0.034 C 
HETATM    7  C12 UNL     1      12.669  -9.866  21.004  1.00  0.00     0.038 C 
HETATM    8  C13 UNL     1      12.123 -10.269  22.383  1.00  0.00     0.075 C 
HETATM    9  C14 UNL     1      12.048 -11.751  22.192  1.00  0.00     0.089 C 
HETATM   10  N4  UNL     1      11.184 -12.611  22.919  1.00  0.00    -0.088 NA
HETATM   11  N5  UNL     1      12.868 -12.125  21.286  1.00  0.00    -0.372 N 
ATOM     12  H5  UNL     1      12.986 -13.094  20.990  1.00  0.00     0.161 HD
HETATM   13  C15 UNL     1      14.864 -10.871  21.535  1.00  0.00     0.051 C 
HETATM   14  C16 UNL     1      15.791 -12.041  21.226  1.00  0.00     0.128 C 
ENDROOT
BRANCH   1  15
HETATM   15  C7  UNL     1      18.555 -11.933  20.246  1.00  0.00     0.105 C 
BRANCH  15  16
HETATM   16  C6  UNL     1      19.349 -13.182  20.083  1.00  0.00     0.037 C 
BRANCH  16  17
HETATM   17  C5  UNL     1      18.791 -14.320  20.912  1.00  0.00     0.238 C 
BRANCH  17  18
HETATM   18  N2  UNL     1      19.478 -14.452  22.160  1.00  0.00    -0.062 N 
HETATM   19  C4  UNL     1      19.786 -15.865  22.344  1.00  0.00     0.265 C 
HETATM   20  C3  UNL     1      20.628 -16.062  23.562  1.00  0.00     0.265 C 
HETATM   21  N1  UNL     1      20.596 -14.858  24.376  1.00  0.00    -0.063 N 
HETATM   22  C18 UNL     1      19.197 -14.530  24.579  1.00  0.00     0.265 C 
HETATM   23  C20 UNL     1      21.203 -13.752  23.671  1.00  0.00     0.265 C 
HETATM   24  C17 UNL     1      18.639 -14.011  23.277  1.00  0.00     0.265 C 
HETATM   25  C19 UNL     1      20.703 -13.716  22.236  1.00  0.00     0.265 C 
BRANCH  21  26
HETATM   26  C2  UNL     1      21.302 -15.062  25.607  1.00  0.00     0.233 C 
HETATM   27  C1  UNL     1      21.451 -13.794  26.421  1.00  0.00     0.035 C 
ENDBRANCH  21  26
ENDBRANCH  17  18
ENDBRANCH  16  17
ENDBRANCH  15  16
ENDBRANCH   1  15
TORSDOF 5
ENDMDL
MODEL 3
REMARK VINA RESULT: -7.121041107      0.105      1.154
REMARK  5 active torsions:
REMARK  status: ('A' for Active; 'I' for Inactive)
REMARK    1  A    between atoms: C2_2  and  N1_3 
REMARK    2  A    between atoms: N2_6  and  C5_7 
REMARK    3  A    between atoms: C5_7  and  C6_8 
REMARK    4  A    between atoms: C6_8  and  C7_9 
REMARK    5  A    between atoms: C7_9  and  C8_10 
REMARK       I    between atoms: C8_10  and  N3_12 
ROOT
HETATM    1  C8  UNL     1      17.363 -11.964  19.358  1.00  0.00     0.219 C 
HETATM    2  O1  UNL     1      17.566 -11.953  18.103  1.00  0.00    -0.273 OA
HETATM    3  N3  UNL     1      16.036 -12.023  19.838  1.00  0.00    -0.352 N 
HETATM    4  C9  UNL     1      14.927 -12.068  18.915  1.00  0.00     0.128 C 
HETATM    5  C10 UNL     1      13.813 -11.152  19.284  1.00  0.00     0.051 C 
HETATM    6  C11 UNL     1      13.577 -11.038  20.760  1.00  0.00     0.034 C 
HETATM    7  C12 UNL     1      12.646  -9.874  21.026  1.00  0.00     0.038 C 
HETATM    8  C13 UNL     1      12.103 -10.280  22.404  1.00  0.00     0.075 C 
HETATM    9  C14 UNL     1      12.034 -11.762  22.213  1.00  0.00     0.089 C 
HETATM   10  N4  UNL     1      11.174 -12.627  22.940  1.00  0.00    -0.088 NA
HETATM   11  N5  UNL     1      12.855 -12.133  21.306  1.00  0.00    -0.372 N 
ATOM     12  H5  UNL     1      12.977 -13.101  21.009  1.00  0.00     0.161 HD
HETATM   13  C15 UNL     1      14.846 -10.871  21.554  1.00  0.00     0.051 C 
HETATM   14  C16 UNL     1      15.777 -12.036  21.243  1.00  0.00     0.128 C 
ENDROOT
BRANCH   1  15
HETATM   15  C7  UNL     1      18.541 -11.916  20.260  1.00  0.00     0.105 C 
BRANCH  15  16
HETATM   16  C6  UNL     1      19.320 -13.177  20.121  1.00  0.00     0.037 C 
BRANCH  16  17
HETATM   17  C5  UNL     1      18.708 -14.312  20.914  1.00  0.00     0.238 C 
BRANCH  17  18
HETATM   18  N2  UNL     1      19.413 -14.548  22.135  1.00  0.00    -0.062 N 
HETATM   19  C4  UNL     1      18.553 -14.118  23.230  1.00  0.00     0.265 C 
HETATM   20  C3  UNL     1      19.169 -14.464  24.547  1.00  0.00     0.265 C 
HETATM   21  N1  UNL     1      20.569 -14.801  24.355  1.00  0.00    -0.063 N 
HETATM   22  C18 UNL     1      21.163 -13.706  23.608  1.00  0.00     0.265 C 
HETATM   23  C20 UNL     1      20.699 -15.995  23.551  1.00  0.00     0.265 C 
HETATM   24  C17 UNL     1      20.655 -13.772  22.190  1.00  0.00     0.265 C 
HETATM   25  C19 UNL     1      19.763 -15.918  22.357  1.00  0.00     0.265 C 
BRANCH  21  26
HETATM   26  C2  UNL     1      21.213 -15.024  25.617  1.00  0.00     0.233 C 
HETATM   27  C1  UNL     1      21.428 -13.750  26.405  1.00  0.00     0.035 C 
ENDBRANCH  21  26
ENDBRANCH  17  18
ENDBRANCH  16  17
ENDBRANCH  15  16
ENDBRANCH   1  15
TORSDOF 5
ENDMDL
MODEL 4
REMARK VINA RESULT: -6.849578075      1.509      2.266
REMARK  5 active torsions:
REMARK  status: ('A' for Active; 'I' for Inactive)
REMARK    1  A    between atoms: C2_2  and  N1_3 
REMARK    2  A    between atoms: N2_6  and  C5_7 
REMARK    3  A    between atoms: C5_7  and  C6_8 
REMARK    4  A    between atoms: C6_8  and  C7_9 
REMARK    5  A    between atoms: C7_9  and  C8_10 
REMARK       I    between atoms: C8_10  and  N3_12 
ROOT
HETATM    1  C8  UNL     1      18.412 -12.224  19.338  1.00  0.00     0.219 C 
HETATM    2  O1  UNL     1      18.757 -12.158  18.117  1.00  0.00    -0.273 OA
HETATM    3  N3  UNL     1      17.043 -12.377  19.655  1.00  0.00    -0.352 N 
HETATM    4  C9  UNL     1      16.055 -12.455  18.607  1.00  0.00     0.128 C 
HETATM    5  C10 UNL     1      14.851 -11.618  18.866  1.00  0.00     0.051 C 
HETATM    6  C11 UNL     1      14.437 -11.570  20.306  1.00  0.00     0.034 C 
HETATM    7  C12 UNL     1      13.412 -10.472  20.492  1.00  0.00     0.038 C 
HETATM    8  C13 UNL     1      12.738 -10.957  21.785  1.00  0.00     0.075 C 
HETATM    9  C14 UNL     1      12.784 -12.433  21.546  1.00  0.00     0.089 C 
HETATM   10  N4  UNL     1      11.901 -13.370  22.143  1.00  0.00    -0.088 NA
HETATM   11  N5  UNL     1      13.726 -12.723  20.733  1.00  0.00    -0.372 N 
ATOM     12  H5  UNL     1      13.942 -13.671  20.426  1.00  0.00     0.161 HD
HETATM   13  C15 UNL     1      15.593 -11.356  21.250  1.00  0.00     0.051 C 
HETATM   14  C16 UNL     1      16.624 -12.453  21.019  1.00  0.00     0.128 C 
ENDROOT
BRANCH   1  15
HETATM   15  C7  UNL     1      19.470 -12.138  20.374  1.00  0.00     0.105 C 
BRANCH  15  16
HETATM   16  C6  UNL     1      20.050 -13.491  20.600  1.00  0.00     0.037 C 
BRANCH  16  17
HETATM   17  C5  UNL     1      20.507 -13.680  22.031  1.00  0.00     0.238 C 
BRANCH  17  18
HETATM   18  N2  UNL     1      19.694 -14.629  22.726  1.00  0.00    -0.062 N 
HETATM   19  C4  UNL     1      18.901 -13.897  23.704  1.00  0.00     0.265 C 
HETATM   20  C3  UNL     1      17.924 -14.807  24.373  1.00  0.00     0.265 C 
HETATM   21  N1  UNL     1      18.286 -16.189  24.108  1.00  0.00    -0.063 N 
HETATM   22  C18 UNL     1      19.684 -16.330  24.470  1.00  0.00     0.265 C 
HETATM   23  C20 UNL     1      18.172 -16.483  22.697  1.00  0.00     0.265 C 
HETATM   24  C17 UNL     1      20.516 -15.612  23.437  1.00  0.00     0.265 C 
HETATM   25  C19 UNL     1      18.796 -15.361  21.884  1.00  0.00     0.265 C 
BRANCH  21  26
HETATM   26  C2  UNL     1      17.432 -17.084  24.833  1.00  0.00     0.233 C 
HETATM   27  C1  UNL     1      16.259 -17.578  24.013  1.00  0.00     0.035 C 
ENDBRANCH  21  26
ENDBRANCH  17  18
ENDBRANCH  16  17
ENDBRANCH  15  16
ENDBRANCH   1  15
TORSDOF 5
ENDMDL
MODEL 5
REMARK VINA RESULT: -6.787821557      1.519      2.156
REMARK  5 active torsions:
REMARK  status: ('A' for Active; 'I' for Inactive)
REMARK    1  A    between atoms: C2_2  and  N1_3 
REMARK    2  A    between atoms: N2_6  and  C5_7 
REMARK    3  A    between atoms: C5_7  and  C6_8 
REMARK    4  A    between atoms: C6_8  and  C7_9 
REMARK    5  A    between atoms: C7_9  and  C8_10 
REMARK       I    between atoms: C8_10  and  N3_12 
ROOT
HETATM    1  C8  UNL     1      18.433 -12.282  19.484  1.00  0.00     0.219 C 
HETATM    2  O1  UNL     1      18.831 -12.228  18.278  1.00  0.00    -0.273 OA
HETATM    3  N3  UNL     1      17.050 -12.405  19.745  1.00  0.00    -0.352 N 
HETATM    4  C9  UNL     1      16.104 -12.465  18.657  1.00  0.00     0.128 C 
HETATM    5  C10 UNL     1      14.909 -11.602  18.863  1.00  0.00     0.051 C 
HETATM    6  C11 UNL     1      14.437 -11.539  20.285  1.00  0.00     0.034 C 
HETATM    7  C12 UNL     1      13.429 -10.420  20.425  1.00  0.00     0.038 C 
HETATM    8  C13 UNL     1      12.692 -10.885  21.690  1.00  0.00     0.075 C 
HETATM    9  C14 UNL     1      12.716 -12.362  21.458  1.00  0.00     0.089 C 
HETATM   10  N4  UNL     1      11.789 -13.279  22.020  1.00  0.00    -0.088 NA
HETATM   11  N5  UNL     1      13.685 -12.675  20.685  1.00  0.00    -0.372 N 
ATOM     12  H5  UNL     1      13.892 -13.630  20.390  1.00  0.00     0.161 HD
HETATM   13  C15 UNL     1      15.557 -11.347  21.275  1.00  0.00     0.051 C 
HETATM   14  C16 UNL     1      16.574 -12.467  21.090  1.00  0.00     0.128 C 
ENDROOT
BRANCH   1  15
HETATM   15  C7  UNL     1      19.450 -12.215  20.563  1.00  0.00     0.105 C 
BRANCH  15  16
HETATM   16  C6  UNL     1      20.016 -13.574  20.792  1.00  0.00     0.037 C 
BRANCH  16  17
HETATM   17  C5  UNL     1      20.560 -13.731  22.196  1.00  0.00     0.238 C 
BRANCH  17  18
HETATM   18  N2  UNL     1      19.738 -14.592  22.989  1.00  0.00    -0.062 N 
HETATM   19  C4  UNL     1      20.618 -15.528  23.678  1.00  0.00     0.265 C 
HETATM   20  C3  UNL     1      19.840 -16.370  24.635  1.00  0.00     0.265 C 
HETATM   21  N1  UNL     1      18.421 -16.249  24.347  1.00  0.00    -0.063 N 
HETATM   22  C18 UNL     1      18.258 -16.526  22.932  1.00  0.00     0.265 C 
HETATM   23  C20 UNL     1      17.968 -14.896  24.579  1.00  0.00     0.265 C 
HETATM   24  C17 UNL     1      18.808 -15.357  22.154  1.00  0.00     0.265 C 
HETATM   25  C19 UNL     1      18.956 -13.910  23.976  1.00  0.00     0.265 C 
BRANCH  21  26
HETATM   26  C2  UNL     1      17.659 -17.136  25.177  1.00  0.00     0.233 C 
HETATM   27  C1  UNL     1      16.481 -17.756  24.456  1.00  0.00     0.035 C 
ENDBRANCH  21  26
ENDBRANCH  17  18
ENDBRANCH  16  17
ENDBRANCH  15  16
ENDBRANCH   1  15
TORSDOF 5
ENDMDL
