MODEL 1
REMARK VINA RESULT: -5.692025985      0.000      0.000
REMARK  11 active torsions:
REMARK  status: ('A' for Active; 'I' for Inactive)
REMARK    1  A    between atoms: C3_3  and  C4_4 
REMARK    2  A    between atoms: C4_4  and  N1_5 
REMARK    3  A    between atoms: N1_5  and  C5_6 
REMARK    4  A    between atoms: C5_6  and  C6_7 
REMARK    5  A    between atoms: C6_7  and  N2_8 
REMARK    6  A    between atoms: N2_8  and  C7_9 
REMARK    7  A    between atoms: C7_9  and  C8_10 
REMARK    8  A    between atoms: C8_10  and  O1_11 
REMARK    9  A    between atoms: C15_20  and  C16_21 
REMARK   10  A    between atoms: C17_22  and  C18_23 
REMARK   11  A    between atoms: C18_23  and  N3_24 
ROOT
HETATM    1  C1  UNL     1      20.741 -12.943  26.185  1.00  0.00     0.112 C 
HETATM    2  C2  UNL     1      20.507 -13.391  24.813  1.00  0.00    -0.109 C 
HETATM    3  C3  UNL     1      20.295 -13.755  23.660  1.00  0.00    -0.077 C 
ENDROOT
BRANCH   3   4
HETATM    4  C4  UNL     1      20.063 -14.168  22.279  1.00  0.00     0.358 C 
BRANCH   4   5
HETATM    5  N1  UNL     1      18.679 -13.978  21.935  1.00  0.00     0.025 N 
HETATM    6  C13 UNL     1      17.756 -14.102  23.014  1.00  0.00     0.273 C 
HETATM    7  C14 UNL     1      17.639 -15.613  23.130  1.00  0.00     0.098 C 
HETATM    8  C15 UNL     1      17.739 -15.958  21.666  1.00  0.00     0.087 C 
HETATM    9  N4  UNL     1      18.327 -15.006  21.062  1.00  0.00    -0.212 N 
ATOM     10  H4  UNL     1      18.517 -14.995  20.060  1.00  0.00     0.194 HD
BRANCH   5  11
HETATM   11  C5  UNL     1      18.457 -12.747  21.195  1.00  0.00     0.294 C 
BRANCH  11  12
HETATM   12  C6  UNL     1      17.081 -12.254  21.449  1.00  0.00     0.268 C 
BRANCH  12  13
HETATM   13  N2  UNL     1      16.246 -12.281  20.241  1.00  0.00    -0.059 N 
HETATM   14  C9  UNL     1      15.491 -11.029  20.256  1.00  0.00     0.263 C 
HETATM   15  C10 UNL     1      14.541 -11.004  21.438  1.00  0.00     0.195 C 
HETATM   16  O2  UNL     1      13.613 -12.044  21.199  1.00  0.00    -0.388 OA
HETATM   17  C11 UNL     1      14.298 -13.225  21.339  1.00  0.00     0.195 C 
HETATM   18  C12 UNL     1      15.400 -13.428  20.344  1.00  0.00     0.263 C 
BRANCH  13  19
HETATM   19  C7  UNL     1      17.101 -12.254  19.105  1.00  0.00     0.263 C 
BRANCH  19  20
HETATM   20  C8  UNL     1      16.383 -12.163  17.782  1.00  0.00     0.192 C 
BRANCH  20  21
HETATM   21  O1  UNL     1      16.791 -11.130  16.987  1.00  0.00    -0.399 OA
ATOM     22  H1  UNL     1      16.359 -11.089  16.142  1.00  0.00     0.209 HD
ENDBRANCH  20  21
ENDBRANCH  19  20
ENDBRANCH  13  19
ENDBRANCH  12  13
ENDBRANCH  11  12
ENDBRANCH   5  11
BRANCH   8  23
HETATM   23  C16 UNL     1      17.243 -17.177  21.062  1.00  0.00    -0.050 C 
HETATM   24  C17 UNL     1      16.833 -18.208  20.574  1.00  0.00    -0.072 C 
BRANCH  24  25
HETATM   25  C18 UNL     1      16.348 -19.465  20.006  1.00  0.00     0.329 C 
BRANCH  25  26
HETATM   26  N3  UNL     1      14.994 -19.276  19.561  1.00  0.00    -0.069 N 
HETATM   27  C19 UNL     1      14.187 -18.892  20.689  1.00  0.00     0.272 C 
HETATM   28  C20 UNL     1      14.964 -18.256  18.531  1.00  0.00     0.272 C 
HETATM   29  C21 UNL     1      14.479 -20.498  18.942  1.00  0.00     0.272 C 
ENDBRANCH  25  26
ENDBRANCH  24  25
ENDBRANCH   8  23
ENDBRANCH   4   5
ENDBRANCH   3   4
TORSDOF 11
ENDMDL
MODEL 2
REMARK VINA RESULT: -5.623315269      4.093      7.147
REMARK  11 active torsions:
REMARK  status: ('A' for Active; 'I' for Inactive)
REMARK    1  A    between atoms: C3_3  and  C4_4 
REMARK    2  A    between atoms: C4_4  and  N1_5 
REMARK    3  A    between atoms: N1_5  and  C5_6 
REMARK    4  A    between atoms: C5_6  and  C6_7 
REMARK    5  A    between atoms: C6_7  and  N2_8 
REMARK    6  A    between atoms: N2_8  and  C7_9 
REMARK    7  A    between atoms: C7_9  and  C8_10 
REMARK    8  A    between atoms: C8_10  and  O1_11 
REMARK    9  A    between atoms: C15_20  and  C16_21 
REMARK   10  A    between atoms: C17_22  and  C18_23 
REMARK   11  A    between atoms: C18_23  and  N3_24 
ROOT
HETATM    1  C1  UNL     1      20.280 -12.196  19.005  1.00  0.00     0.112 C 
HETATM    2  C2  UNL     1      20.076 -13.308  19.932  1.00  0.00    -0.109 C 
HETATM    3  C3  UNL     1      19.896 -14.252  20.695  1.00  0.00    -0.077 C 
ENDROOT
BRANCH   3   4
HETATM    4  C4  UNL     1      19.712 -15.383  21.600  1.00  0.00     0.358 C 
BRANCH   4   5
HETATM    5  N1  UNL     1      19.020 -14.956  22.787  1.00  0.00     0.025 N 
HETATM    6  C13 UNL     1      18.221 -15.952  23.422  1.00  0.00     0.273 C 
HETATM    7  C14 UNL     1      16.977 -15.933  22.549  1.00  0.00     0.098 C 
HETATM    8  C15 UNL     1      16.938 -14.456  22.248  1.00  0.00     0.087 C 
HETATM    9  N4  UNL     1      18.106 -13.978  22.402  1.00  0.00    -0.212 N 
ATOM     10  H4  UNL     1      18.345 -12.997  22.259  1.00  0.00     0.194 HD
BRANCH   5  11
HETATM   11  C5  UNL     1      19.904 -14.308  23.741  1.00  0.00     0.294 C 
BRANCH  11  12
HETATM   12  C6  UNL     1      20.448 -15.317  24.682  1.00  0.00     0.268 C 
BRANCH  12  13
HETATM   13  N2  UNL     1      21.886 -15.141  24.921  1.00  0.00    -0.059 N 
HETATM   14  C9  UNL     1      22.554 -16.055  23.997  1.00  0.00     0.263 C 
HETATM   15  C10 UNL     1      22.229 -17.493  24.355  1.00  0.00     0.195 C 
HETATM   16  O2  UNL     1      22.801 -17.704  25.631  1.00  0.00    -0.388 OA
HETATM   17  C11 UNL     1      22.068 -16.958  26.520  1.00  0.00     0.195 C 
HETATM   18  C12 UNL     1      22.125 -15.479  26.289  1.00  0.00     0.263 C 
BRANCH  13  19
HETATM   19  C7  UNL     1      22.242 -13.816  24.549  1.00  0.00     0.263 C 
BRANCH  19  20
HETATM   20  C8  UNL     1      23.470 -13.719  23.679  1.00  0.00     0.192 C 
BRANCH  20  21
HETATM   21  O1  UNL     1      24.426 -12.860  24.144  1.00  0.00    -0.399 OA
ATOM     22  H1  UNL     1      24.417 -12.003  23.734  1.00  0.00     0.209 HD
ENDBRANCH  20  21
ENDBRANCH  19  20
ENDBRANCH  13  19
ENDBRANCH  12  13
ENDBRANCH  11  12
ENDBRANCH   5  11
BRANCH   8  23
HETATM   23  C16 UNL     1      15.756 -13.718  21.853  1.00  0.00    -0.050 C 
HETATM   24  C17 UNL     1      14.777 -13.093  21.505  1.00  0.00    -0.072 C 
BRANCH  24  25
HETATM   25  C18 UNL     1      13.611 -12.330  21.065  1.00  0.00     0.329 C 
BRANCH  25  26
HETATM   26  N3  UNL     1      14.064 -11.150  20.380  1.00  0.00    -0.069 N 
HETATM   27  C19 UNL     1      13.209 -10.050  20.744  1.00  0.00     0.272 C 
HETATM   28  C20 UNL     1      15.441 -10.881  20.745  1.00  0.00     0.272 C 
HETATM   29  C21 UNL     1      14.057 -11.360  18.932  1.00  0.00     0.272 C 
ENDBRANCH  25  26
ENDBRANCH  24  25
ENDBRANCH   8  23
ENDBRANCH   4   5
ENDBRANCH   3   4
TORSDOF 11
ENDMDL
MODEL 3
REMARK VINA RESULT: -5.594277764      1.355      2.456
REMARK  11 active torsions:
REMARK  status: ('A' for Active; 'I' for Inactive)
REMARK    1  A    between atoms: C3_3  and  C4_4 
REMARK    2  A    between atoms: C4_4  and  N1_5 
REMARK    3  A    between atoms: N1_5  and  C5_6 
REMARK    4  A    between atoms: C5_6  and  C6_7 
REMARK    5  A    between atoms: C6_7  and  N2_8 
REMARK    6  A    between atoms: N2_8  and  C7_9 
REMARK    7  A    between atoms: C7_9  and  C8_10 
REMARK    8  A    between atoms: C8_10  and  O1_11 
REMARK    9  A    between atoms: C15_20  and  C16_21 
REMARK   10  A    between atoms: C17_22  and  C18_23 
REMARK   11  A    between atoms: C18_23  and  N3_24 
ROOT
HETATM    1  C1  UNL     1      20.543 -13.012  25.497  1.00  0.00     0.112 C 
HETATM    2  C2  UNL     1      19.971 -13.553  24.265  1.00  0.00    -0.109 C 
HETATM    3  C3  UNL     1      19.492 -13.990  23.223  1.00  0.00    -0.077 C 
ENDROOT
BRANCH   3   4
HETATM    4  C4  UNL     1      18.951 -14.520  21.975  1.00  0.00     0.358 C 
BRANCH   4   5
HETATM    5  N1  UNL     1      17.558 -14.841  22.140  1.00  0.00     0.025 N 
HETATM    6  C13 UNL     1      17.262 -15.774  23.177  1.00  0.00     0.273 C 
HETATM    7  C14 UNL     1      17.604 -17.089  22.495  1.00  0.00     0.098 C 
HETATM    8  C15 UNL     1      17.144 -16.745  21.102  1.00  0.00     0.087 C 
HETATM    9  N4  UNL     1      17.142 -15.480  20.975  1.00  0.00    -0.212 N 
ATOM     10  H4  UNL     1      16.868 -14.992  20.122  1.00  0.00     0.194 HD
BRANCH   5  11
HETATM   11  C5  UNL     1      16.726 -13.654  22.252  1.00  0.00     0.294 C 
BRANCH  11  12
HETATM   12  C6  UNL     1      15.913 -13.498  21.020  1.00  0.00     0.268 C 
BRANCH  12  13
HETATM   13  N2  UNL     1      15.789 -12.094  20.607  1.00  0.00    -0.059 N 
HETATM   14  C9  UNL     1      15.192 -12.127  19.273  1.00  0.00     0.263 C 
HETATM   15  C10 UNL     1      16.141 -12.785  18.291  1.00  0.00     0.195 C 
HETATM   16  O2  UNL     1      17.266 -11.930  18.219  1.00  0.00    -0.388 OA
HETATM   17  C11 UNL     1      17.909 -12.023  19.428  1.00  0.00     0.195 C 
HETATM   18  C12 UNL     1      17.108 -11.544  20.599  1.00  0.00     0.263 C 
BRANCH  13  19
HETATM   19  C7  UNL     1      14.865 -11.452  21.476  1.00  0.00     0.263 C 
BRANCH  19  20
HETATM   20  C8  UNL     1      14.033 -10.378  20.822  1.00  0.00     0.192 C 
BRANCH  20  21
HETATM   21  O1  UNL     1      14.637  -9.153  20.762  1.00  0.00    -0.399 OA
ATOM     22  H1  UNL     1      15.443  -9.087  21.261  1.00  0.00     0.209 HD
ENDBRANCH  20  21
ENDBRANCH  19  20
ENDBRANCH  13  19
ENDBRANCH  12  13
ENDBRANCH  11  12
ENDBRANCH   5  11
BRANCH   8  23
HETATM   23  C16 UNL     1      16.769 -17.708  20.088  1.00  0.00    -0.050 C 
HETATM   24  C17 UNL     1      16.446 -18.499  19.228  1.00  0.00    -0.072 C 
BRANCH  24  25
HETATM   25  C18 UNL     1      16.044 -19.434  18.178  1.00  0.00     0.329 C 
BRANCH  25  26
HETATM   26  N3  UNL     1      14.783 -19.005  17.638  1.00  0.00    -0.069 N 
HETATM   27  C19 UNL     1      13.800 -19.025  18.690  1.00  0.00     0.272 C 
HETATM   28  C20 UNL     1      14.925 -17.672  17.086  1.00  0.00     0.272 C 
HETATM   29  C21 UNL     1      14.377 -19.867  16.528  1.00  0.00     0.272 C 
ENDBRANCH  25  26
ENDBRANCH  24  25
ENDBRANCH   8  23
ENDBRANCH   4   5
ENDBRANCH   3   4
TORSDOF 11
ENDMDL
MODEL 4
REMARK VINA RESULT: -5.588263306      2.987      6.133
REMARK  11 active torsions:
REMARK  status: ('A' for Active; 'I' for Inactive)
REMARK    1  A    between atoms: C3_3  and  C4_4 
REMARK    2  A    between atoms: C4_4  and  N1_5 
REMARK    3  A    between atoms: N1_5  and  C5_6 
REMARK    4  A    between atoms: C5_6  and  C6_7 
REMARK    5  A    between atoms: C6_7  and  N2_8 
REMARK    6  A    between atoms: N2_8  and  C7_9 
REMARK    7  A    between atoms: C7_9  and  C8_10 
REMARK    8  A    between atoms: C8_10  and  O1_11 
REMARK    9  A    between atoms: C15_20  and  C16_21 
REMARK   10  A    between atoms: C17_22  and  C18_23 
REMARK   11  A    between atoms: C18_23  and  N3_24 
ROOT
HETATM    1  C1  UNL     1      16.302 -11.654  16.868  1.00  0.00     0.112 C 
HETATM    2  C2  UNL     1      16.285 -12.616  17.970  1.00  0.00    -0.109 C 
HETATM    3  C3  UNL     1      16.281 -13.435  18.883  1.00  0.00    -0.077 C 
ENDROOT
BRANCH   3   4
HETATM    4  C4  UNL     1      16.299 -14.394  19.984  1.00  0.00     0.358 C 
BRANCH   4   5
HETATM    5  N1  UNL     1      16.196 -13.703  21.241  1.00  0.00     0.025 N 
HETATM    6  C13 UNL     1      17.019 -12.546  21.374  1.00  0.00     0.273 C 
HETATM    7  C14 UNL     1      18.364 -13.177  21.698  1.00  0.00     0.098 C 
HETATM    8  C15 UNL     1      17.873 -14.333  22.533  1.00  0.00     0.087 C 
HETATM    9  N4  UNL     1      16.662 -14.570  22.227  1.00  0.00    -0.212 N 
ATOM     10  H4  UNL     1      16.099 -15.307  22.653  1.00  0.00     0.194 HD
BRANCH   5  11
HETATM   11  C5  UNL     1      14.819 -13.409  21.601  1.00  0.00     0.294 C 
BRANCH  11  12
HETATM   12  C6  UNL     1      14.680 -11.963  21.902  1.00  0.00     0.268 C 
BRANCH  12  13
HETATM   13  N2  UNL     1      13.295 -11.494  21.765  1.00  0.00    -0.059 N 
HETATM   14  C9  UNL     1      12.952 -11.681  20.357  1.00  0.00     0.263 C 
HETATM   15  C10 UNL     1      13.803 -10.776  19.487  1.00  0.00     0.195 C 
HETATM   16  O2  UNL     1      13.428  -9.457  19.832  1.00  0.00    -0.388 OA
HETATM   17  C11 UNL     1      13.890  -9.236  21.105  1.00  0.00     0.195 C 
HETATM   18  C12 UNL     1      13.281 -10.118  22.151  1.00  0.00     0.263 C 
BRANCH  13  19
HETATM   19  C7  UNL     1      12.455 -12.351  22.530  1.00  0.00     0.263 C 
BRANCH  19  20
HETATM   20  C8  UNL     1      11.428 -11.634  23.369  1.00  0.00     0.192 C 
BRANCH  20  21
HETATM   21  O1  UNL     1      10.265 -12.328  23.554  1.00  0.00    -0.399 OA
ATOM     22  H1  UNL     1      10.130 -12.638  24.442  1.00  0.00     0.209 HD
ENDBRANCH  20  21
ENDBRANCH  19  20
ENDBRANCH  13  19
ENDBRANCH  12  13
ENDBRANCH  11  12
ENDBRANCH   5  11
BRANCH   8  23
HETATM   23  C16 UNL     1      18.663 -15.044  23.515  1.00  0.00    -0.050 C 
HETATM   24  C17 UNL     1      19.313 -15.656  24.336  1.00  0.00    -0.072 C 
BRANCH  24  25
HETATM   25  C18 UNL     1      20.078 -16.414  25.324  1.00  0.00     0.329 C 
BRANCH  25  26
HETATM   26  N3  UNL     1      21.437 -15.946  25.311  1.00  0.00    -0.069 N 
HETATM   27  C19 UNL     1      21.977 -16.134  23.990  1.00  0.00     0.272 C 
HETATM   28  C20 UNL     1      21.468 -14.547  25.690  1.00  0.00     0.272 C 
HETATM   29  C21 UNL     1      22.238 -16.658  26.308  1.00  0.00     0.272 C 
ENDBRANCH  25  26
ENDBRANCH  24  25
ENDBRANCH   8  23
ENDBRANCH   4   5
ENDBRANCH   3   4
TORSDOF 11
ENDMDL
MODEL 5
REMARK VINA RESULT: -5.578889144      2.359      5.992
REMARK  11 active torsions:
REMARK  status: ('A' for Active; 'I' for Inactive)
REMARK    1  A    between atoms: C3_3  and  C4_4 
REMARK    2  A    between atoms: C4_4  and  N1_5 
REMARK    3  A    between atoms: N1_5  and  C5_6 
REMARK    4  A    between atoms: C5_6  and  C6_7 
REMARK    5  A    between atoms: C6_7  and  N2_8 
REMARK    6  A    between atoms: N2_8  and  C7_9 
REMARK    7  A    between atoms: C7_9  and  C8_10 
REMARK    8  A    between atoms: C8_10  and  O1_11 
REMARK    9  A    between atoms: C15_20  and  C16_21 
REMARK   10  A    between atoms: C17_22  and  C18_23 
REMARK   11  A    between atoms: C18_23  and  N3_24 
ROOT
HETATM    1  C1  UNL     1      15.177 -18.363  21.956  1.00  0.00     0.112 C 
HETATM    2  C2  UNL     1      15.607 -17.083  21.396  1.00  0.00    -0.109 C 
HETATM    3  C3  UNL     1      15.968 -16.016  20.909  1.00  0.00    -0.077 C 
ENDROOT
BRANCH   3   4
HETATM    4  C4  UNL     1      16.368 -14.737  20.330  1.00  0.00     0.358 C 
BRANCH   4   5
HETATM    5  N1  UNL     1      16.298 -13.701  21.326  1.00  0.00     0.025 N 
HETATM    6  C13 UNL     1      16.954 -12.482  20.990  1.00  0.00     0.273 C 
HETATM    7  C14 UNL     1      18.402 -12.834  21.292  1.00  0.00     0.098 C 
HETATM    8  C15 UNL     1      18.172 -13.715  22.494  1.00  0.00     0.087 C 
HETATM    9  N4  UNL     1      16.982 -14.162  22.449  1.00  0.00    -0.212 N 
ATOM     10  H4  UNL     1      16.578 -14.783  23.150  1.00  0.00     0.194 HD
BRANCH   5  11
HETATM   11  C5  UNL     1      14.937 -13.456  21.775  1.00  0.00     0.294 C 
BRANCH  11  12
HETATM   12  C6  UNL     1      14.723 -11.998  21.944  1.00  0.00     0.268 C 
BRANCH  12  13
HETATM   13  N2  UNL     1      13.335 -11.601  21.676  1.00  0.00    -0.059 N 
HETATM   14  C9  UNL     1      13.088 -11.949  20.278  1.00  0.00     0.263 C 
HETATM   15  C10 UNL     1      13.962 -11.108  19.367  1.00  0.00     0.195 C 
HETATM   16  O2  UNL     1      13.522  -9.775  19.545  1.00  0.00    -0.388 OA
HETATM   17  C11 UNL     1      13.895  -9.404  20.813  1.00  0.00     0.195 C 
HETATM   18  C12 UNL     1      13.251 -10.194  21.910  1.00  0.00     0.263 C 
BRANCH  13  19
HETATM   19  C7  UNL     1      12.477 -12.405  22.476  1.00  0.00     0.263 C 
BRANCH  19  20
HETATM   20  C8  UNL     1      11.475 -11.630  23.294  1.00  0.00     0.192 C 
BRANCH  20  21
HETATM   21  O1  UNL     1      10.426 -12.374  23.756  1.00  0.00    -0.399 OA
ATOM     22  H1  UNL     1       9.859 -11.917  24.367  1.00  0.00     0.209 HD
ENDBRANCH  20  21
ENDBRANCH  19  20
ENDBRANCH  13  19
ENDBRANCH  12  13
ENDBRANCH  11  12
ENDBRANCH   5  11
BRANCH   8  23
HETATM   23  C16 UNL     1      19.153 -13.995  23.520  1.00  0.00    -0.050 C 
HETATM   24  C17 UNL     1      19.963 -14.245  24.388  1.00  0.00    -0.072 C 
BRANCH  24  25
HETATM   25  C18 UNL     1      20.921 -14.563  25.444  1.00  0.00     0.329 C 
BRANCH  25  26
HETATM   26  N3  UNL     1      21.353 -15.924  25.279  1.00  0.00    -0.069 N 
HETATM   27  C19 UNL     1      20.190 -16.765  25.167  1.00  0.00     0.272 C 
HETATM   28  C20 UNL     1      22.184 -16.026  24.096  1.00  0.00     0.272 C 
HETATM   29  C21 UNL     1      22.191 -16.340  26.405  1.00  0.00     0.272 C 
ENDBRANCH  25  26
ENDBRANCH  24  25
ENDBRANCH   8  23
ENDBRANCH   4   5
ENDBRANCH   3   4
TORSDOF 11
ENDMDL
