MODEL 1
REMARK VINA RESULT: -6.957841615      0.000      0.000
REMARK  6 active torsions:
REMARK  status: ('A' for Active; 'I' for Inactive)
REMARK    1  A    between atoms: C2_2  and  C3_3 
REMARK    2  A    between atoms: C3_3  and  C4_4 
REMARK    3  A    between atoms: C4_4  and  C5_5 
REMARK    4  A    between atoms: C13_18  and  N4_19 
REMARK       I    between atoms: N4_19  and  C14_21 
REMARK    5  A    between atoms: C14_21  and  C15_23 
REMARK    6  A    between atoms: C15_23  and  N5_24 
ROOT
HETATM    1  C5  UNL     1      17.527 -15.262  23.267  1.00  0.00     0.038 C 
HETATM    2  C6  UNL     1      18.371 -16.375  22.785  1.00  0.00     0.278 C 
HETATM    3  N1  UNL     1      17.562 -17.585  22.593  1.00  0.00     0.082 N 
HETATM    4  C7  UNL     1      17.467 -18.134  23.934  1.00  0.00     0.309 C 
HETATM    5  C8  UNL     1      18.510 -18.490  21.943  1.00  0.00     0.309 C 
HETATM    6  N2  UNL     1      16.370 -17.413  21.953  1.00  0.00     0.115 N 
HETATM    7  C9  UNL     1      15.269 -18.124  22.653  1.00  0.00     0.302 C 
HETATM    8  C10 UNL     1      14.365 -18.596  21.499  1.00  0.00     0.264 C 
HETATM    9  N3  UNL     1      15.451 -19.200  20.715  1.00  0.00    -0.047 N 
ATOM     10  H31 UNL     1      15.191 -19.638  19.831  1.00  0.00     0.279 HD
ATOM     11  H32 UNL     1      15.869 -20.053  21.088  1.00  0.00     0.279 HD
HETATM   12  C11 UNL     1      16.297 -18.045  20.639  1.00  0.00     0.502 C 
HETATM   13  C12 UNL     1      15.848 -16.096  21.770  1.00  0.00     0.300 C 
HETATM   14  C13 UNL     1      16.746 -14.918  22.012  1.00  0.00     0.118 C 
ENDROOT
BRANCH  14  15
HETATM   15  N4  UNL     1      15.976 -13.737  22.191  1.00  0.00    -0.353 N 
HETATM   16  C14 UNL     1      15.920 -12.649  21.276  1.00  0.00     0.244 C 
HETATM   17  O1  UNL     1      16.619 -12.780  20.239  1.00  0.00    -0.272 OA
ATOM     18  H4  UNL     1      15.420 -13.663  23.043  1.00  0.00     0.163 HD
BRANCH  16  19
HETATM   19  C15 UNL     1      15.124 -11.446  21.475  1.00  0.00     0.339 C 
BRANCH  19  20
HETATM   20  N5  UNL     1      13.899 -11.396  20.748  1.00  0.00    -0.063 N 
HETATM   21  C16 UNL     1      14.158 -11.586  19.332  1.00  0.00     0.273 C 
HETATM   22  C17 UNL     1      13.213 -10.124  20.887  1.00  0.00     0.237 C 
HETATM   23  C18 UNL     1      12.160 -10.332  21.954  1.00  0.00     0.029 C 
HETATM   24  C19 UNL     1      12.251 -11.787  22.350  1.00  0.00     0.029 C 
HETATM   25  C20 UNL     1      12.932 -12.402  21.145  1.00  0.00     0.237 C 
ENDBRANCH  19  20
ENDBRANCH  16  19
ENDBRANCH  14  15
BRANCH   1  26
HETATM   26  C4  UNL     1      18.074 -14.134  23.999  1.00  0.00     0.008 C 
BRANCH  26  27
HETATM   27  C3  UNL     1      19.070 -14.264  25.061  1.00  0.00     0.000 C 
BRANCH  27  28
HETATM   28  C2  UNL     1      20.226 -13.324  24.946  1.00  0.00    -0.005 C 
HETATM   29  C1  UNL     1      20.758 -12.951  26.317  1.00  0.00     0.005 C 
ENDBRANCH  27  28
ENDBRANCH  26  27
ENDBRANCH   1  26
TORSDOF 6
ENDMDL
MODEL 2
REMARK VINA RESULT: -6.816842182      1.629      2.139
REMARK  6 active torsions:
REMARK  status: ('A' for Active; 'I' for Inactive)
REMARK    1  A    between atoms: C2_2  and  C3_3 
REMARK    2  A    between atoms: C3_3  and  C4_4 
REMARK    3  A    between atoms: C4_4  and  C5_5 
REMARK    4  A    between atoms: C13_18  and  N4_19 
REMARK       I    between atoms: N4_19  and  C14_21 
REMARK    5  A    between atoms: C14_21  and  C15_23 
REMARK    6  A    between atoms: C15_23  and  N5_24 
ROOT
HETATM    1  C5  UNL     1      18.080 -15.143  22.112  1.00  0.00     0.038 C 
HETATM    2  C6  UNL     1      18.581 -16.353  21.429  1.00  0.00     0.278 C 
HETATM    3  N1  UNL     1      17.968 -17.557  22.006  1.00  0.00     0.082 N 
HETATM    4  C7  UNL     1      18.770 -17.798  23.192  1.00  0.00     0.309 C 
HETATM    5  C8  UNL     1      18.426 -18.604  21.091  1.00  0.00     0.309 C 
HETATM    6  N2  UNL     1      16.622 -17.500  22.219  1.00  0.00     0.115 N 
HETATM    7  C9  UNL     1      16.263 -18.016  23.565  1.00  0.00     0.302 C 
HETATM    8  C10 UNL     1      14.907 -18.707  23.328  1.00  0.00     0.264 C 
HETATM    9  N3  UNL     1      15.356 -19.492  22.170  1.00  0.00    -0.047 N 
ATOM     10  H31 UNL     1      14.667 -20.105  21.735  1.00  0.00     0.279 HD
ATOM     11  H32 UNL     1      16.010 -20.253  22.356  1.00  0.00     0.279 HD
HETATM   12  C11 UNL     1      15.843 -18.401  21.376  1.00  0.00     0.502 C 
HETATM   13  C12 UNL     1      15.948 -16.242  22.156  1.00  0.00     0.300 C 
HETATM   14  C13 UNL     1      16.665 -15.062  21.570  1.00  0.00     0.118 C 
ENDROOT
BRANCH  14  15
HETATM   15  N4  UNL     1      16.030 -13.853  21.962  1.00  0.00    -0.353 N 
HETATM   16  C14 UNL     1      15.616 -12.820  21.075  1.00  0.00     0.244 C 
HETATM   17  O1  UNL     1      15.846 -13.029  19.858  1.00  0.00    -0.272 OA
ATOM     18  H4  UNL     1      15.857 -13.714  22.958  1.00  0.00     0.163 HD
BRANCH  16  19
HETATM   19  C15 UNL     1      14.965 -11.586  21.495  1.00  0.00     0.339 C 
BRANCH  19  20
HETATM   20  N5  UNL     1      13.674 -11.355  20.937  1.00  0.00    -0.063 N 
HETATM   21  C16 UNL     1      13.788 -11.133  19.508  1.00  0.00     0.273 C 
HETATM   22  C17 UNL     1      13.019 -10.187  21.498  1.00  0.00     0.237 C 
HETATM   23  C18 UNL     1      12.076 -10.708  22.562  1.00  0.00     0.029 C 
HETATM   24  C19 UNL     1      12.191 -12.213  22.519  1.00  0.00     0.029 C 
HETATM   25  C20 UNL     1      12.741 -12.450  21.128  1.00  0.00     0.237 C 
ENDBRANCH  19  20
ENDBRANCH  16  19
ENDBRANCH  14  15
BRANCH   1  26
HETATM   26  C4  UNL     1      18.823 -13.895  22.125  1.00  0.00     0.008 C 
BRANCH  26  27
HETATM   27  C3  UNL     1      19.803 -13.527  21.106  1.00  0.00     0.000 C 
BRANCH  27  28
HETATM   28  C2  UNL     1      19.344 -12.464  20.161  1.00  0.00    -0.005 C 
HETATM   29  C1  UNL     1      20.266 -12.375  18.959  1.00  0.00     0.005 C 
ENDBRANCH  27  28
ENDBRANCH  26  27
ENDBRANCH   1  26
TORSDOF 6
ENDMDL
MODEL 3
REMARK VINA RESULT: -6.661108857      1.605      1.999
REMARK  6 active torsions:
REMARK  status: ('A' for Active; 'I' for Inactive)
REMARK    1  A    between atoms: C2_2  and  C3_3 
REMARK    2  A    between atoms: C3_3  and  C4_4 
REMARK    3  A    between atoms: C4_4  and  C5_5 
REMARK    4  A    between atoms: C13_18  and  N4_19 
REMARK       I    between atoms: N4_19  and  C14_21 
REMARK    5  A    between atoms: C14_21  and  C15_23 
REMARK    6  A    between atoms: C15_23  and  N5_24 
ROOT
HETATM    1  C5  UNL     1      18.652 -15.350  24.298  1.00  0.00     0.038 C 
HETATM    2  C6  UNL     1      19.346 -16.654  24.311  1.00  0.00     0.278 C 
HETATM    3  N1  UNL     1      18.375 -17.750  24.419  1.00  0.00     0.082 N 
HETATM    4  C7  UNL     1      18.091 -17.798  25.842  1.00  0.00     0.309 C 
HETATM    5  C8  UNL     1      19.218 -18.929  24.220  1.00  0.00     0.309 C 
HETATM    6  N2  UNL     1      17.278 -17.660  23.613  1.00  0.00     0.115 N 
HETATM    7  C9  UNL     1      16.029 -17.953  24.361  1.00  0.00     0.302 C 
HETATM    8  C10 UNL     1      15.154 -18.673  23.317  1.00  0.00     0.264 C 
HETATM    9  N3  UNL     1      16.190 -19.634  22.912  1.00  0.00    -0.047 N 
ATOM     10  H31 UNL     1      15.934 -20.308  22.191  1.00  0.00     0.279 HD
ATOM     11  H32 UNL     1      16.438 -20.355  23.590  1.00  0.00     0.279 HD
HETATM   12  C11 UNL     1      17.210 -18.684  22.576  1.00  0.00     0.502 C 
HETATM   13  C12 UNL     1      16.985 -16.428  22.952  1.00  0.00     0.300 C 
HETATM   14  C13 UNL     1      18.035 -15.357  22.912  1.00  0.00     0.118 C 
ENDROOT
BRANCH  14  15
HETATM   15  N4  UNL     1      17.448 -14.100  22.602  1.00  0.00    -0.353 N 
HETATM   16  C14 UNL     1      17.769 -13.303  21.468  1.00  0.00     0.244 C 
HETATM   17  O1  UNL     1      18.644 -13.781  20.703  1.00  0.00    -0.272 OA
ATOM     18  H4  UNL     1      16.741 -13.741  23.243  1.00  0.00     0.163 HD
BRANCH  16  19
HETATM   19  C15 UNL     1      17.156 -12.017  21.165  1.00  0.00     0.339 C 
BRANCH  19  20
HETATM   20  N5  UNL     1      16.049 -12.063  20.269  1.00  0.00    -0.063 N 
HETATM   21  C16 UNL     1      16.524 -12.051  18.897  1.00  0.00     0.273 C 
HETATM   22  C17 UNL     1      15.156 -10.929  20.419  1.00  0.00     0.237 C 
HETATM   23  C18 UNL     1      14.015 -11.408  21.290  1.00  0.00     0.029 C 
HETATM   24  C19 UNL     1      14.283 -12.869  21.561  1.00  0.00     0.029 C 
HETATM   25  C20 UNL     1      15.211 -13.238  20.421  1.00  0.00     0.237 C 
ENDBRANCH  19  20
ENDBRANCH  16  19
ENDBRANCH  14  15
BRANCH   1  26
HETATM   26  C4  UNL     1      19.310 -14.116  24.690  1.00  0.00     0.008 C 
BRANCH  26  27
HETATM   27  C3  UNL     1      20.657 -13.746  24.259  1.00  0.00     0.000 C 
BRANCH  27  28
HETATM   28  C2  UNL     1      21.565 -13.316  25.366  1.00  0.00    -0.005 C 
HETATM   29  C1  UNL     1      20.768 -12.906  26.590  1.00  0.00     0.005 C 
ENDBRANCH  27  28
ENDBRANCH  26  27
ENDBRANCH   1  26
TORSDOF 6
ENDMDL
MODEL 4
REMARK VINA RESULT: -6.452410898      0.950      1.186
REMARK  6 active torsions:
REMARK  status: ('A' for Active; 'I' for Inactive)
REMARK    1  A    between atoms: C2_2  and  C3_3 
REMARK    2  A    between atoms: C3_3  and  C4_4 
REMARK    3  A    between atoms: C4_4  and  C5_5 
REMARK    4  A    between atoms: C13_18  and  N4_19 
REMARK       I    between atoms: N4_19  and  C14_21 
REMARK    5  A    between atoms: C14_21  and  C15_23 
REMARK    6  A    between atoms: C15_23  and  N5_24 
ROOT
HETATM    1  C5  UNL     1      17.534 -15.376  22.744  1.00  0.00     0.038 C 
HETATM    2  C6  UNL     1      18.222 -16.555  22.179  1.00  0.00     0.278 C 
HETATM    3  N1  UNL     1      17.406 -17.761  22.364  1.00  0.00     0.082 N 
HETATM    4  C7  UNL     1      17.698 -18.150  23.732  1.00  0.00     0.309 C 
HETATM    5  C8  UNL     1      18.145 -18.755  21.584  1.00  0.00     0.309 C 
HETATM    6  N2  UNL     1      16.080 -17.638  22.067  1.00  0.00     0.115 N 
HETATM    7  C9  UNL     1      15.229 -18.240  23.125  1.00  0.00     0.302 C 
HETATM    8  C10 UNL     1      14.042 -18.823  22.333  1.00  0.00     0.264 C 
HETATM    9  N3  UNL     1      14.872 -19.536  21.352  1.00  0.00    -0.047 N 
ATOM     10  H31 UNL     1      14.380 -20.067  20.634  1.00  0.00     0.279 HD
ATOM     11  H32 UNL     1      15.387 -20.349  21.690  1.00  0.00     0.279 HD
HETATM   12  C11 UNL     1      15.650 -18.416  20.909  1.00  0.00     0.502 C 
HETATM   13  C12 UNL     1      15.513 -16.340  21.885  1.00  0.00     0.300 C 
HETATM   14  C13 UNL     1      16.429 -15.162  21.727  1.00  0.00     0.118 C 
ENDROOT
BRANCH  14  15
HETATM   15  N4  UNL     1      15.726 -13.952  21.975  1.00  0.00    -0.353 N 
HETATM   16  C14 UNL     1      15.822 -12.773  21.185  1.00  0.00     0.244 C 
HETATM   17  O1  UNL     1      16.598 -12.845  20.200  1.00  0.00    -0.272 OA
ATOM     18  H4  UNL     1      15.104 -13.927  22.783  1.00  0.00     0.163 HD
BRANCH  16  19
HETATM   19  C15 UNL     1      15.093 -11.541  21.454  1.00  0.00     0.339 C 
BRANCH  19  20
HETATM   20  N5  UNL     1      13.855 -11.399  20.762  1.00  0.00    -0.063 N 
HETATM   21  C16 UNL     1      14.065 -11.571  19.336  1.00  0.00     0.273 C 
HETATM   22  C17 UNL     1      13.252 -10.092  20.948  1.00  0.00     0.237 C 
HETATM   23  C18 UNL     1      12.216 -10.261  22.038  1.00  0.00     0.029 C 
HETATM   24  C19 UNL     1      12.228 -11.728  22.400  1.00  0.00     0.029 C 
HETATM   25  C20 UNL     1      12.839 -12.355  21.163  1.00  0.00     0.237 C 
ENDBRANCH  19  20
ENDBRANCH  16  19
ENDBRANCH  14  15
BRANCH   1  26
HETATM   26  C4  UNL     1      18.251 -14.183  23.158  1.00  0.00     0.008 C 
BRANCH  26  27
HETATM   27  C3  UNL     1      19.588 -14.206  23.749  1.00  0.00     0.000 C 
BRANCH  27  28
HETATM   28  C2  UNL     1      20.682 -13.775  22.826  1.00  0.00    -0.005 C 
HETATM   29  C1  UNL     1      20.130 -13.448  21.452  1.00  0.00     0.005 C 
ENDBRANCH  27  28
ENDBRANCH  26  27
ENDBRANCH   1  26
TORSDOF 6
ENDMDL
MODEL 5
REMARK VINA RESULT: -6.322529410      1.923      2.770
REMARK  6 active torsions:
REMARK  status: ('A' for Active; 'I' for Inactive)
REMARK    1  A    between atoms: C2_2  and  C3_3 
REMARK    2  A    between atoms: C3_3  and  C4_4 
REMARK    3  A    between atoms: C4_4  and  C5_5 
REMARK    4  A    between atoms: C13_18  and  N4_19 
REMARK       I    between atoms: N4_19  and  C14_21 
REMARK    5  A    between atoms: C14_21  and  C15_23 
REMARK    6  A    between atoms: C15_23  and  N5_24 
ROOT
HETATM    1  C5  UNL     1      18.539 -15.564  24.628  1.00  0.00     0.038 C 
HETATM    2  C6  UNL     1      19.426 -16.745  24.647  1.00  0.00     0.278 C 
HETATM    3  N1  UNL     1      18.639 -17.974  24.805  1.00  0.00     0.082 N 
HETATM    4  C7  UNL     1      18.401 -18.032  26.236  1.00  0.00     0.309 C 
HETATM    5  C8  UNL     1      19.650 -19.014  24.606  1.00  0.00     0.309 C 
HETATM    6  N2  UNL     1      17.523 -18.074  24.027  1.00  0.00     0.115 N 
HETATM    7  C9  UNL     1      16.352 -18.538  24.815  1.00  0.00     0.302 C 
HETATM    8  C10 UNL     1      15.575 -19.410  23.810  1.00  0.00     0.264 C 
HETATM    9  N3  UNL     1      16.737 -20.208  23.396  1.00  0.00    -0.047 N 
ATOM     10  H31 UNL     1      16.572 -20.932  22.697  1.00  0.00     0.279 HD
ATOM     11  H32 UNL     1      17.110 -20.866  24.081  1.00  0.00     0.279 HD
HETATM   12  C11 UNL     1      17.590 -19.121  23.013  1.00  0.00     0.502 C 
HETATM   13  C12 UNL     1      17.027 -16.918  23.350  1.00  0.00     0.300 C 
HETATM   14  C13 UNL     1      17.897 -15.699  23.260  1.00  0.00     0.118 C 
ENDROOT
BRANCH  14  15
HETATM   15  N4  UNL     1      17.116 -14.556  22.941  1.00  0.00    -0.353 N 
HETATM   16  C14 UNL     1      17.430 -13.604  21.931  1.00  0.00     0.244 C 
HETATM   17  O1  UNL     1      18.489 -13.826  21.292  1.00  0.00    -0.272 OA
ATOM     18  H4  UNL     1      16.262 -14.406  23.478  1.00  0.00     0.163 HD
BRANCH  16  19
HETATM   19  C15 UNL     1      16.616 -12.438  21.617  1.00  0.00     0.339 C 
BRANCH  19  20
HETATM   20  N5  UNL     1      15.503 -12.682  20.760  1.00  0.00    -0.063 N 
HETATM   21  C16 UNL     1      14.313 -12.922  21.555  1.00  0.00     0.273 C 
HETATM   22  C17 UNL     1      15.690 -13.845  19.912  1.00  0.00     0.237 C 
HETATM   23  C18 UNL     1      16.152 -13.315  18.572  1.00  0.00     0.029 C 
HETATM   24  C19 UNL     1      16.151 -11.810  18.697  1.00  0.00     0.029 C 
HETATM   25  C20 UNL     1      15.201 -11.588  19.855  1.00  0.00     0.237 C 
ENDBRANCH  19  20
ENDBRANCH  16  19
ENDBRANCH  14  15
BRANCH   1  26
HETATM   26  C4  UNL     1      19.008 -14.235  24.977  1.00  0.00     0.008 C 
BRANCH  26  27
HETATM   27  C3  UNL     1      20.190 -13.612  24.384  1.00  0.00     0.000 C 
BRANCH  27  28
HETATM   28  C2  UNL     1      21.308 -13.365  25.346  1.00  0.00    -0.005 C 
HETATM   29  C1  UNL     1      20.773 -12.892  26.684  1.00  0.00     0.005 C 
ENDBRANCH  27  28
ENDBRANCH  26  27
ENDBRANCH   1  26
TORSDOF 6
ENDMDL
