MODEL 1
REMARK VINA RESULT: -7.051442977      0.000      0.000
REMARK  8 active torsions:
REMARK  status: ('A' for Active; 'I' for Inactive)
REMARK    1  A    between atoms: C4_6  and  C5_7 
REMARK    2  A    between atoms: C5_7  and  C6_8 
REMARK    3  A    between atoms: C6_8  and  C7_9 
REMARK    4  A    between atoms: C7_9  and  C8_10 
REMARK    5  A    between atoms: C8_10  and  C9_11 
REMARK    6  A    between atoms: N3_15  and  C11_16 
REMARK    7  A    between atoms: C16_21  and  C17_22 
REMARK    8  A    between atoms: N5_27  and  O1_28 
ROOT
HETATM    1  C1  UNL     1      16.829 -15.784  20.543  1.00  0.00     0.065 C 
HETATM    2  C2  UNL     1      16.436 -14.591  20.958  1.00  0.00     0.119 A 
HETATM    3  N1  UNL     1      15.478 -13.776  20.293  1.00  0.00    -0.327 N 
ATOM      4  H1  UNL     1      14.991 -14.019  19.430  1.00  0.00     0.169 HD
HETATM    5  C3  UNL     1      15.309 -12.569  21.023  1.00  0.00     0.117 A 
HETATM    6  C4  UNL     1      14.491 -11.550  20.712  1.00  0.00     0.023 C 
HETATM    7  N2  UNL     1      16.177 -12.673  22.133  1.00  0.00    -0.277 N 
ATOM      8  H2  UNL     1      16.278 -11.952  22.848  1.00  0.00     0.189 HD
HETATM    9  N3  UNL     1      16.875 -13.875  22.133  1.00  0.00    -0.241 N 
ENDROOT
BRANCH   9  10
HETATM   10  C11 UNL     1      17.814 -14.415  23.067  1.00  0.00     0.071 A 
HETATM   11  C12 UNL     1      19.089 -14.171  23.250  1.00  0.00     0.043 A 
HETATM   12  C13 UNL     1      19.926 -13.306  22.588  1.00  0.00    -0.044 A 
HETATM   13  C20 UNL     1      19.621 -14.945  24.296  1.00  0.00     0.146 A 
HETATM   14  C14 UNL     1      19.408 -12.454  21.467  1.00  0.00     0.049 C 
HETATM   15  C15 UNL     1      21.225 -13.232  22.965  1.00  0.00     0.037 A 
HETATM   16  C16 UNL     1      21.766 -14.009  24.017  1.00  0.00     0.036 A 
HETATM   17  N4  UNL     1      20.948 -14.847  24.657  1.00  0.00    -0.317 N 
HETATM   18  C19 UNL     1      21.350 -15.586  25.625  1.00  0.00     0.130 C 
HETATM   19  N5  UNL     1      18.682 -15.672  24.770  1.00  0.00    -0.237 N 
HETATM   20  C21 UNL     1      17.432 -15.451  24.087  1.00  0.00     0.218 A 
BRANCH  16  21
HETATM   21  C17 UNL     1      23.029 -13.816  24.248  1.00  0.00    -0.001 C 
HETATM   22  C18 UNL     1      24.091 -12.973  23.719  1.00  0.00     0.038 C 
ENDBRANCH  16  21
BRANCH  19  23
HETATM   23  O1  UNL     1      18.693 -16.602  25.803  1.00  0.00    -0.285 OA
ATOM     24  H1  UNL     1      18.229 -17.424  25.899  1.00  0.00     0.245 HD
ENDBRANCH  19  23
ENDBRANCH   9  10
BRANCH   6  25
HETATM   25  C5  UNL     1      14.389 -10.344  21.535  1.00  0.00     0.031 C 
BRANCH  25  26
HETATM   26  C6  UNL     1      13.400  -9.394  20.914  1.00  0.00     0.004 C 
BRANCH  26  27
HETATM   27  C7  UNL     1      12.089  -9.473  21.626  1.00  0.00     0.000 C 
BRANCH  27  28
HETATM   28  C8  UNL     1      12.208  -9.077  23.089  1.00  0.00    -0.000 C 
BRANCH  28  29
HETATM   29  C9  UNL     1      11.326  -9.914  23.984  1.00  0.00    -0.005 C 
HETATM   30  C10 UNL     1      11.308 -11.321  23.374  1.00  0.00     0.005 C 
ENDBRANCH  28  29
ENDBRANCH  27  28
ENDBRANCH  26  27
ENDBRANCH  25  26
ENDBRANCH   6  25
TORSDOF 8
ENDMDL
MODEL 2
REMARK VINA RESULT: -7.015200481      2.091      3.496
REMARK  8 active torsions:
REMARK  status: ('A' for Active; 'I' for Inactive)
REMARK    1  A    between atoms: C4_6  and  C5_7 
REMARK    2  A    between atoms: C5_7  and  C6_8 
REMARK    3  A    between atoms: C6_8  and  C7_9 
REMARK    4  A    between atoms: C7_9  and  C8_10 
REMARK    5  A    between atoms: C8_10  and  C9_11 
REMARK    6  A    between atoms: N3_15  and  C11_16 
REMARK    7  A    between atoms: C16_21  and  C17_22 
REMARK    8  A    between atoms: N5_27  and  O1_28 
ROOT
HETATM    1  C1  UNL     1      18.994 -11.522  20.270  1.00  0.00     0.065 C 
HETATM    2  C2  UNL     1      17.786 -11.716  20.775  1.00  0.00     0.119 A 
HETATM    3  N1  UNL     1      16.626 -10.977  20.412  1.00  0.00    -0.327 N 
ATOM      4  H1  UNL     1      16.596 -10.222  19.727  1.00  0.00     0.169 HD
HETATM    5  C3  UNL     1      15.517 -11.459  21.156  1.00  0.00     0.117 A 
HETATM    6  C4  UNL     1      14.251 -11.014  21.092  1.00  0.00     0.023 C 
HETATM    7  N2  UNL     1      16.027 -12.496  21.969  1.00  0.00    -0.277 N 
ATOM      8  H2  UNL     1      15.463 -13.040  22.621  1.00  0.00     0.189 HD
HETATM    9  N3  UNL     1      17.390 -12.685  21.771  1.00  0.00    -0.241 N 
ENDROOT
BRANCH   9  10
HETATM   10  C11 UNL     1      18.299 -13.632  22.339  1.00  0.00     0.071 A 
HETATM   11  C12 UNL     1      18.426 -14.925  22.157  1.00  0.00     0.043 A 
HETATM   12  C13 UNL     1      17.712 -15.776  21.350  1.00  0.00    -0.044 A 
HETATM   13  C20 UNL     1      19.467 -15.459  22.934  1.00  0.00     0.146 A 
HETATM   14  C14 UNL     1      16.593 -15.256  20.496  1.00  0.00     0.049 C 
HETATM   15  C15 UNL     1      18.035 -17.091  21.334  1.00  0.00     0.037 A 
HETATM   16  C16 UNL     1      19.083 -17.635  22.115  1.00  0.00     0.036 A 
HETATM   17  N4  UNL     1      19.773 -16.803  22.897  1.00  0.00    -0.317 N 
HETATM   18  C19 UNL     1      20.742 -17.206  23.635  1.00  0.00     0.130 C 
HETATM   19  N5  UNL     1      19.995 -14.505  23.602  1.00  0.00    -0.237 N 
HETATM   20  C21 UNL     1      19.356 -13.241  23.332  1.00  0.00     0.218 A 
BRANCH  16  21
HETATM   21  C17 UNL     1      19.259 -18.914  21.982  1.00  0.00    -0.001 C 
HETATM   22  C18 UNL     1      19.640 -19.831  20.918  1.00  0.00     0.038 C 
ENDBRANCH  16  21
BRANCH  19  23
HETATM   23  O1  UNL     1      21.048 -14.511  24.509  1.00  0.00    -0.285 OA
ATOM     24  H1  UNL     1      21.972 -14.332  24.383  1.00  0.00     0.245 HD
ENDBRANCH  19  23
ENDBRANCH   9  10
BRANCH   6  25
HETATM   25  C5  UNL     1      13.175 -11.581  21.905  1.00  0.00     0.031 C 
BRANCH  25  26
HETATM   26  C6  UNL     1      12.084 -10.558  22.080  1.00  0.00     0.004 C 
BRANCH  26  27
HETATM   27  C7  UNL     1      11.357 -10.793  23.364  1.00  0.00     0.000 C 
BRANCH  27  28
HETATM   28  C8  UNL     1      11.267  -9.531  24.209  1.00  0.00    -0.000 C 
BRANCH  28  29
HETATM   29  C9  UNL     1      12.183  -8.439  23.710  1.00  0.00    -0.005 C 
HETATM   30  C10 UNL     1      11.892  -7.208  24.576  1.00  0.00     0.005 C 
ENDBRANCH  28  29
ENDBRANCH  27  28
ENDBRANCH  26  27
ENDBRANCH  25  26
ENDBRANCH   6  25
TORSDOF 8
ENDMDL
MODEL 3
REMARK VINA RESULT: -6.955424376      2.520      3.509
REMARK  8 active torsions:
REMARK  status: ('A' for Active; 'I' for Inactive)
REMARK    1  A    between atoms: C4_6  and  C5_7 
REMARK    2  A    between atoms: C5_7  and  C6_8 
REMARK    3  A    between atoms: C6_8  and  C7_9 
REMARK    4  A    between atoms: C7_9  and  C8_10 
REMARK    5  A    between atoms: C8_10  and  C9_11 
REMARK    6  A    between atoms: N3_15  and  C11_16 
REMARK    7  A    between atoms: C16_21  and  C17_22 
REMARK    8  A    between atoms: N5_27  and  O1_28 
ROOT
HETATM    1  C1  UNL     1      18.659 -12.609  21.088  1.00  0.00     0.065 C 
HETATM    2  C2  UNL     1      17.357 -12.662  21.318  1.00  0.00     0.119 A 
HETATM    3  N1  UNL     1      16.466 -11.559  21.199  1.00  0.00    -0.327 N 
ATOM      4  H1  UNL     1      16.730 -10.612  20.924  1.00  0.00     0.169 HD
HETATM    5  C3  UNL     1      15.152 -11.986  21.523  1.00  0.00     0.117 A 
HETATM    6  C4  UNL     1      14.039 -11.233  21.527  1.00  0.00     0.023 C 
HETATM    7  N2  UNL     1      15.266 -13.359  21.838  1.00  0.00    -0.277 N 
ATOM      8  H2  UNL     1      14.482 -13.950  22.113  1.00  0.00     0.189 HD
HETATM    9  N3  UNL     1      16.578 -13.807  21.727  1.00  0.00    -0.241 N 
ENDROOT
BRANCH   9  10
HETATM   10  C11 UNL     1      17.144 -15.108  21.907  1.00  0.00     0.071 A 
HETATM   11  C12 UNL     1      17.742 -15.656  22.937  1.00  0.00     0.043 A 
HETATM   12  C13 UNL     1      18.012 -15.137  24.179  1.00  0.00    -0.044 A 
HETATM   13  C20 UNL     1      18.145 -16.974  22.663  1.00  0.00     0.146 A 
HETATM   14  C14 UNL     1      17.599 -13.736  24.525  1.00  0.00     0.049 C 
HETATM   15  C15 UNL     1      18.653 -15.910  25.089  1.00  0.00     0.037 A 
HETATM   16  C16 UNL     1      19.061 -17.237  24.818  1.00  0.00     0.036 A 
HETATM   17  N4  UNL     1      18.796 -17.737  23.609  1.00  0.00    -0.317 N 
HETATM   18  C19 UNL     1      19.124 -18.931  23.278  1.00  0.00     0.130 C 
HETATM   19  N5  UNL     1      17.799 -17.255  21.464  1.00  0.00    -0.237 N 
HETATM   20  C21 UNL     1      17.130 -16.150  20.824  1.00  0.00     0.218 A 
BRANCH  16  21
HETATM   21  C17 UNL     1      19.664 -17.836  25.800  1.00  0.00    -0.001 C 
HETATM   22  C18 UNL     1      19.280 -18.618  26.966  1.00  0.00     0.038 C 
ENDBRANCH  16  21
BRANCH  19  23
HETATM   23  O1  UNL     1      17.968 -18.420  20.725  1.00  0.00    -0.285 OA
ATOM     24  H1  UNL     1      18.726 -18.751  20.259  1.00  0.00     0.245 HD
ENDBRANCH  19  23
ENDBRANCH   9  10
BRANCH   6  25
HETATM   25  C5  UNL     1      12.725 -11.773  21.878  1.00  0.00     0.031 C 
BRANCH  25  26
HETATM   26  C6  UNL     1      11.791 -10.641  22.216  1.00  0.00     0.004 C 
BRANCH  26  27
HETATM   27  C7  UNL     1      11.293 -10.783  23.618  1.00  0.00     0.000 C 
BRANCH  27  28
HETATM   28  C8  UNL     1      11.251  -9.450  24.347  1.00  0.00    -0.000 C 
BRANCH  28  29
HETATM   29  C9  UNL     1      12.134  -8.411  23.697  1.00  0.00    -0.005 C 
HETATM   30  C10 UNL     1      11.990  -7.139  24.541  1.00  0.00     0.005 C 
ENDBRANCH  28  29
ENDBRANCH  27  28
ENDBRANCH  26  27
ENDBRANCH  25  26
ENDBRANCH   6  25
TORSDOF 8
ENDMDL
MODEL 4
REMARK VINA RESULT: -6.948771451      1.923      3.269
REMARK  8 active torsions:
REMARK  status: ('A' for Active; 'I' for Inactive)
REMARK    1  A    between atoms: C4_6  and  C5_7 
REMARK    2  A    between atoms: C5_7  and  C6_8 
REMARK    3  A    between atoms: C6_8  and  C7_9 
REMARK    4  A    between atoms: C7_9  and  C8_10 
REMARK    5  A    between atoms: C8_10  and  C9_11 
REMARK    6  A    between atoms: N3_15  and  C11_16 
REMARK    7  A    between atoms: C16_21  and  C17_22 
REMARK    8  A    between atoms: N5_27  and  O1_28 
ROOT
HETATM    1  C1  UNL     1      19.973 -12.430  20.000  1.00  0.00     0.065 C 
HETATM    2  C2  UNL     1      18.754 -12.214  20.466  1.00  0.00     0.119 A 
HETATM    3  N1  UNL     1      17.756 -11.445  19.805  1.00  0.00    -0.327 N 
ATOM      4  H1  UNL     1      17.869 -10.979  18.904  1.00  0.00     0.169 HD
HETATM    5  C3  UNL     1      16.579 -11.429  20.599  1.00  0.00     0.117 A 
HETATM    6  C4  UNL     1      15.423 -10.808  20.311  1.00  0.00     0.023 C 
HETATM    7  N2  UNL     1      16.884 -12.198  21.744  1.00  0.00    -0.277 N 
ATOM      8  H2  UNL     1      16.230 -12.372  22.507  1.00  0.00     0.189 HD
HETATM    9  N3  UNL     1      18.184 -12.690  21.705  1.00  0.00    -0.241 N 
ENDROOT
BRANCH   9  10
HETATM   10  C11 UNL     1      18.896 -13.535  22.614  1.00  0.00     0.071 A 
HETATM   11  C12 UNL     1      18.894 -14.837  22.767  1.00  0.00     0.043 A 
HETATM   12  C13 UNL     1      18.195 -15.803  22.086  1.00  0.00    -0.044 A 
HETATM   13  C20 UNL     1      19.758 -15.240  23.799  1.00  0.00     0.146 A 
HETATM   14  C14 UNL     1      17.263 -15.427  20.971  1.00  0.00     0.049 C 
HETATM   15  C15 UNL     1      18.363 -17.102  22.433  1.00  0.00     0.037 A 
HETATM   16  C16 UNL     1      19.231 -17.514  23.472  1.00  0.00     0.036 A 
HETATM   17  N4  UNL     1      19.907 -16.571  24.130  1.00  0.00    -0.317 N 
HETATM   18  C19 UNL     1      20.719 -16.852  25.082  1.00  0.00     0.130 C 
HETATM   19  N5  UNL     1      20.302 -14.195  24.294  1.00  0.00    -0.237 N 
HETATM   20  C21 UNL     1      19.856 -12.993  23.636  1.00  0.00     0.218 A 
BRANCH  16  21
HETATM   21  C17 UNL     1      19.272 -18.796  23.676  1.00  0.00    -0.001 C 
HETATM   22  C18 UNL     1      18.316 -19.886  23.796  1.00  0.00     0.038 C 
ENDBRANCH  16  21
BRANCH  19  23
HETATM   23  O1  UNL     1      21.223 -14.058  25.326  1.00  0.00    -0.285 OA
ATOM     24  H1  UNL     1      22.107 -13.712  25.324  1.00  0.00     0.245 HD
ENDBRANCH  19  23
ENDBRANCH   9  10
BRANCH   6  25
HETATM   25  C5  UNL     1      14.263 -10.854  21.201  1.00  0.00     0.031 C 
BRANCH  25  26
HETATM   26  C6  UNL     1      13.686  -9.471  21.346  1.00  0.00     0.004 C 
BRANCH  26  27
HETATM   27  C7  UNL     1      12.288  -9.546  21.868  1.00  0.00     0.000 C 
BRANCH  27  28
HETATM   28  C8  UNL     1      11.924 -10.949  22.327  1.00  0.00    -0.000 C 
BRANCH  28  29
HETATM   29  C9  UNL     1      11.255 -10.955  23.681  1.00  0.00    -0.005 C 
HETATM   30  C10 UNL     1      11.270  -9.504  24.173  1.00  0.00     0.005 C 
ENDBRANCH  28  29
ENDBRANCH  27  28
ENDBRANCH  26  27
ENDBRANCH  25  26
ENDBRANCH   6  25
TORSDOF 8
ENDMDL
MODEL 5
REMARK VINA RESULT: -6.920772270      2.182      3.296
REMARK  8 active torsions:
REMARK  status: ('A' for Active; 'I' for Inactive)
REMARK    1  A    between atoms: C4_6  and  C5_7 
REMARK    2  A    between atoms: C5_7  and  C6_8 
REMARK    3  A    between atoms: C6_8  and  C7_9 
REMARK    4  A    between atoms: C7_9  and  C8_10 
REMARK    5  A    between atoms: C8_10  and  C9_11 
REMARK    6  A    between atoms: N3_15  and  C11_16 
REMARK    7  A    between atoms: C16_21  and  C17_22 
REMARK    8  A    between atoms: N5_27  and  O1_28 
ROOT
HETATM    1  C1  UNL     1      19.981 -12.030  19.734  1.00  0.00     0.065 C 
HETATM    2  C2  UNL     1      18.810 -12.057  20.349  1.00  0.00     0.119 A 
HETATM    3  N1  UNL     1      17.626 -11.431  19.867  1.00  0.00    -0.327 N 
ATOM      4  H1  UNL     1      17.550 -10.897  19.001  1.00  0.00     0.169 HD
HETATM    5  C3  UNL     1      16.569 -11.668  20.785  1.00  0.00     0.117 A 
HETATM    6  C4  UNL     1      15.301 -11.238  20.679  1.00  0.00     0.023 C 
HETATM    7  N2  UNL     1      17.134 -12.444  21.822  1.00  0.00    -0.277 N 
ATOM      8  H2  UNL     1      16.615 -12.775  22.635  1.00  0.00     0.189 HD
HETATM    9  N3  UNL     1      18.482 -12.701  21.599  1.00  0.00    -0.241 N 
ENDROOT
BRANCH   9  10
HETATM   10  C11 UNL     1      19.428 -13.466  22.351  1.00  0.00     0.071 A 
HETATM   11  C12 UNL     1      19.568 -14.761  22.502  1.00  0.00     0.043 A 
HETATM   12  C13 UNL     1      18.834 -15.795  21.974  1.00  0.00    -0.044 A 
HETATM   13  C20 UNL     1      20.649 -15.071  23.345  1.00  0.00     0.146 A 
HETATM   14  C14 UNL     1      17.673 -15.518  21.066  1.00  0.00     0.049 C 
HETATM   15  C15 UNL     1      19.178 -17.068  22.284  1.00  0.00     0.037 A 
HETATM   16  C16 UNL     1      20.265 -17.387  23.131  1.00  0.00     0.036 A 
HETATM   17  N4  UNL     1      20.975 -16.378  23.641  1.00  0.00    -0.317 N 
HETATM   18  C19 UNL     1      21.979 -16.573  24.415  1.00  0.00     0.130 C 
HETATM   19  N5  UNL     1      21.189 -13.975  23.720  1.00  0.00    -0.237 N 
HETATM   20  C21 UNL     1      20.520 -12.827  23.162  1.00  0.00     0.218 A 
BRANCH  16  21
HETATM   21  C17 UNL     1      20.456 -18.657  23.325  1.00  0.00    -0.001 C 
HETATM   22  C18 UNL     1      19.715 -19.769  23.901  1.00  0.00     0.038 C 
ENDBRANCH  16  21
BRANCH  19  23
HETATM   23  O1  UNL     1      22.279 -13.743  24.551  1.00  0.00    -0.285 OA
ATOM     24  H1  UNL     1      22.396 -13.118  25.256  1.00  0.00     0.245 HD
ENDBRANCH  19  23
ENDBRANCH   9  10
BRANCH   6  25
HETATM   25  C5  UNL     1      14.281 -11.539  21.685  1.00  0.00     0.031 C 
BRANCH  25  26
HETATM   26  C6  UNL     1      12.945 -11.030  21.214  1.00  0.00     0.004 C 
BRANCH  26  27
HETATM   27  C7  UNL     1      12.072 -10.710  22.384  1.00  0.00     0.000 C 
BRANCH  27  28
HETATM   28  C8  UNL     1      12.187  -9.252  22.801  1.00  0.00    -0.000 C 
BRANCH  28  29
HETATM   29  C9  UNL     1      11.481  -8.970  24.106  1.00  0.00    -0.005 C 
HETATM   30  C10 UNL     1      11.880  -7.547  24.510  1.00  0.00     0.005 C 
ENDBRANCH  28  29
ENDBRANCH  27  28
ENDBRANCH  26  27
ENDBRANCH  25  26
ENDBRANCH   6  25
TORSDOF 8
ENDMDL
