MODEL 1
REMARK VINA RESULT: -6.868478327      0.000      0.000
REMARK  6 active torsions:
REMARK  status: ('A' for Active; 'I' for Inactive)
REMARK    1  A    between atoms: C2_2  and  O1_3 
REMARK    2  A    between atoms: O1_3  and  C3_4 
REMARK    3  A    between atoms: C3_4  and  C4_5 
REMARK    4  A    between atoms: C4_5  and  N1_6 
REMARK    5  A    between atoms: N2_9  and  C7_10 
REMARK    6  A    between atoms: C7_10  and  C8_11 
REMARK       I    between atoms: C8_11  and  N3_13 
ROOT
HETATM    1  N1  UNL     1      19.802 -15.952  22.379  1.00  0.00    -0.061 N 
HETATM    2  C5  UNL     1      18.416 -16.388  22.275  1.00  0.00     0.265 C 
HETATM    3  C6  UNL     1      17.559 -15.202  22.656  1.00  0.00     0.266 C 
HETATM    4  N2  UNL     1      18.032 -13.963  22.142  1.00  0.00    -0.055 N 
HETATM    5  C10 UNL     1      18.905 -14.147  20.967  1.00  0.00     0.266 C 
HETATM    6  C11 UNL     1      20.020 -15.096  21.237  1.00  0.00     0.265 C 
HETATM    7  C12 UNL     1      18.795 -13.172  23.042  1.00  0.00     0.249 C 
HETATM    8  C13 UNL     1      19.880 -13.872  23.779  1.00  0.00     0.009 C 
HETATM    9  C14 UNL     1      21.256 -13.299  23.500  1.00  0.00     0.013 C 
HETATM   10  C15 UNL     1      21.705 -12.560  24.716  1.00  0.00     0.005 C 
HETATM   11  C16 UNL     1      20.948 -13.197  25.859  1.00  0.00    -0.018 C 
HETATM   12  C17 UNL     1      20.810 -12.133  26.930  1.00  0.00     0.010 C 
HETATM   13  C18 UNL     1      19.622 -13.586  25.271  1.00  0.00     0.017 C 
HETATM   14  C19 UNL     1      19.967 -15.339  23.651  1.00  0.00     0.248 C 
ENDROOT
BRANCH   4  15
HETATM   15  C7  UNL     1      16.929 -13.161  21.634  1.00  0.00     0.340 C 
BRANCH  15  16
HETATM   16  C8  UNL     1      16.348 -13.637  20.389  1.00  0.00     0.249 C 
HETATM   17  O2  UNL     1      15.838 -14.777  20.213  1.00  0.00    -0.271 OA
HETATM   18  N3  UNL     1      16.327 -12.797  19.264  1.00  0.00    -0.302 N 
HETATM   19  C9  UNL     1      16.680 -11.607  19.125  1.00  0.00     0.203 C 
ATOM     20  H3  UNL     1      15.962 -13.232  18.416  1.00  0.00     0.171 HD
HETATM   21  N4  UNL     1      17.216 -10.798  20.156  1.00  0.00    -0.066 NA
HETATM   22  N5  UNL     1      16.552 -10.967  17.837  1.00  0.00    -0.066 NA
ENDBRANCH  15  16
ENDBRANCH   4  15
BRANCH   1  23
HETATM   23  C4  UNL     1      20.754 -17.020  22.272  1.00  0.00     0.263 C 
BRANCH  23  24
HETATM   24  C3  UNL     1      21.774 -17.159  23.316  1.00  0.00     0.195 C 
BRANCH  24  25
HETATM   25  O1  UNL     1      23.022 -16.635  23.022  1.00  0.00    -0.390 OA
BRANCH  25  26
HETATM   26  C2  UNL     1      23.660 -16.100  24.113  1.00  0.00     0.163 C 
HETATM   27  C1  UNL     1      22.967 -16.351  25.418  1.00  0.00     0.033 C 
ENDBRANCH  25  26
ENDBRANCH  24  25
ENDBRANCH  23  24
ENDBRANCH   1  23
TORSDOF 6
ENDMDL
MODEL 2
REMARK VINA RESULT: -6.829026650      1.148      1.226
REMARK  6 active torsions:
REMARK  status: ('A' for Active; 'I' for Inactive)
REMARK    1  A    between atoms: C2_2  and  O1_3 
REMARK    2  A    between atoms: O1_3  and  C3_4 
REMARK    3  A    between atoms: C3_4  and  C4_5 
REMARK    4  A    between atoms: C4_5  and  N1_6 
REMARK    5  A    between atoms: N2_9  and  C7_10 
REMARK    6  A    between atoms: C7_10  and  C8_11 
REMARK       I    between atoms: C8_11  and  N3_13 
ROOT
HETATM    1  N1  UNL     1      19.414 -15.224  21.774  1.00  0.00    -0.061 N 
HETATM    2  C5  UNL     1      17.983 -15.299  21.514  1.00  0.00     0.265 C 
HETATM    3  C6  UNL     1      17.385 -13.999  22.005  1.00  0.00     0.266 C 
HETATM    4  N2  UNL     1      18.177 -12.855  21.710  1.00  0.00    -0.055 N 
HETATM    5  C10 UNL     1      19.098 -13.094  20.583  1.00  0.00     0.266 C 
HETATM    6  C11 UNL     1      19.935 -14.309  20.787  1.00  0.00     0.265 C 
HETATM    7  C12 UNL     1      19.006 -12.389  22.765  1.00  0.00     0.249 C 
HETATM    8  C13 UNL     1      19.823 -13.416  23.465  1.00  0.00     0.009 C 
HETATM    9  C14 UNL     1      21.315 -13.159  23.366  1.00  0.00     0.013 C 
HETATM   10  C15 UNL     1      21.796 -12.707  24.704  1.00  0.00     0.005 C 
HETATM   11  C16 UNL     1      20.803 -13.283  25.688  1.00  0.00    -0.018 C 
HETATM   12  C17 UNL     1      20.805 -12.360  26.891  1.00  0.00     0.010 C 
HETATM   13  C18 UNL     1      19.489 -13.266  24.961  1.00  0.00     0.017 C 
HETATM   14  C19 UNL     1      19.586 -14.833  23.130  1.00  0.00     0.248 C 
ENDROOT
BRANCH   4  15
HETATM   15  C7  UNL     1      17.342 -11.755  21.250  1.00  0.00     0.340 C 
BRANCH  15  16
HETATM   16  C8  UNL     1      15.931 -12.075  21.106  1.00  0.00     0.249 C 
HETATM   17  O2  UNL     1      15.177 -12.471  22.035  1.00  0.00    -0.271 OA
HETATM   18  N3  UNL     1      15.313 -11.947  19.851  1.00  0.00    -0.302 N 
HETATM   19  C9  UNL     1      15.752 -11.521  18.763  1.00  0.00     0.203 C 
ATOM     20  H3  UNL     1      14.340 -12.254  19.826  1.00  0.00     0.171 HD
HETATM   21  N4  UNL     1      17.068 -11.042  18.554  1.00  0.00    -0.066 NA
HETATM   22  N5  UNL     1      14.891 -11.497  17.603  1.00  0.00    -0.066 NA
ENDBRANCH  15  16
ENDBRANCH   4  15
BRANCH   1  23
HETATM   23  C4  UNL     1      20.103 -16.466  21.578  1.00  0.00     0.263 C 
BRANCH  23  24
HETATM   24  C3  UNL     1      20.920 -16.998  22.674  1.00  0.00     0.195 C 
BRANCH  24  25
HETATM   25  O1  UNL     1      22.291 -16.862  22.533  1.00  0.00    -0.390 OA
BRANCH  25  26
HETATM   26  C2  UNL     1      22.927 -16.514  23.698  1.00  0.00     0.163 C 
HETATM   27  C1  UNL     1      22.117 -16.746  24.937  1.00  0.00     0.033 C 
ENDBRANCH  25  26
ENDBRANCH  24  25
ENDBRANCH  23  24
ENDBRANCH   1  23
TORSDOF 6
ENDMDL
MODEL 3
REMARK VINA RESULT: -6.815680867      2.935      6.303
REMARK  6 active torsions:
REMARK  status: ('A' for Active; 'I' for Inactive)
REMARK    1  A    between atoms: C2_2  and  O1_3 
REMARK    2  A    between atoms: O1_3  and  C3_4 
REMARK    3  A    between atoms: C3_4  and  C4_5 
REMARK    4  A    between atoms: C4_5  and  N1_6 
REMARK    5  A    between atoms: N2_9  and  C7_10 
REMARK    6  A    between atoms: C7_10  and  C8_11 
REMARK       I    between atoms: C8_11  and  N3_13 
ROOT
HETATM    1  N1  UNL     1      17.592 -15.532  22.876  1.00  0.00    -0.061 N 
HETATM    2  C5  UNL     1      18.476 -16.552  23.425  1.00  0.00     0.265 C 
HETATM    3  C6  UNL     1      19.815 -15.886  23.654  1.00  0.00     0.266 C 
HETATM    4  N2  UNL     1      19.718 -14.567  24.179  1.00  0.00    -0.055 N 
HETATM    5  C10 UNL     1      18.428 -14.333  24.856  1.00  0.00     0.266 C 
HETATM    6  C11 UNL     1      17.267 -14.671  23.988  1.00  0.00     0.265 C 
HETATM    7  C12 UNL     1      19.827 -13.516  23.230  1.00  0.00     0.249 C 
HETATM    8  C13 UNL     1      18.996 -13.645  22.003  1.00  0.00     0.009 C 
HETATM    9  C14 UNL     1      18.007 -12.509  21.830  1.00  0.00     0.013 C 
HETATM   10  C15 UNL     1      18.485 -11.646  20.710  1.00  0.00     0.005 C 
HETATM   11  C16 UNL     1      19.332 -12.559  19.852  1.00  0.00    -0.018 C 
HETATM   12  C17 UNL     1      20.348 -11.674  19.157  1.00  0.00     0.010 C 
HETATM   13  C18 UNL     1      19.975 -13.509  20.821  1.00  0.00     0.017 C 
HETATM   14  C19 UNL     1      18.270 -14.911  21.791  1.00  0.00     0.248 C 
ENDROOT
BRANCH   4  15
HETATM   15  C7  UNL     1      20.705 -14.356  25.227  1.00  0.00     0.340 C 
BRANCH  15  16
HETATM   16  C8  UNL     1      21.310 -13.034  25.241  1.00  0.00     0.249 C 
HETATM   17  O2  UNL     1      20.808 -12.011  25.781  1.00  0.00    -0.271 OA
HETATM   18  N3  UNL     1      22.553 -12.830  24.620  1.00  0.00    -0.302 N 
HETATM   19  C9  UNL     1      23.332 -13.634  24.067  1.00  0.00     0.203 C 
ATOM     20  H3  UNL     1      22.872 -11.861  24.620  1.00  0.00     0.171 HD
HETATM   21  N4  UNL     1      23.104 -15.026  23.944  1.00  0.00    -0.066 NA
HETATM   22  N5  UNL     1      24.569 -13.155  23.495  1.00  0.00    -0.066 NA
ENDBRANCH  15  16
ENDBRANCH   4  15
BRANCH   1  23
HETATM   23  C4  UNL     1      16.347 -16.049  22.386  1.00  0.00     0.263 C 
BRANCH  23  24
HETATM   24  C3  UNL     1      15.634 -17.046  23.191  1.00  0.00     0.195 C 
BRANCH  24  25
HETATM   25  O1  UNL     1      14.309 -17.266  22.854  1.00  0.00    -0.390 OA
BRANCH  25  26
HETATM   26  C2  UNL     1      14.095 -17.328  21.500  1.00  0.00     0.163 C 
HETATM   27  C1  UNL     1      12.707 -17.741  21.112  1.00  0.00     0.033 C 
ENDBRANCH  25  26
ENDBRANCH  24  25
ENDBRANCH  23  24
ENDBRANCH   1  23
TORSDOF 6
ENDMDL
MODEL 4
REMARK VINA RESULT: -6.746932335      2.224      4.369
REMARK  6 active torsions:
REMARK  status: ('A' for Active; 'I' for Inactive)
REMARK    1  A    between atoms: C2_2  and  O1_3 
REMARK    2  A    between atoms: O1_3  and  C3_4 
REMARK    3  A    between atoms: C3_4  and  C4_5 
REMARK    4  A    between atoms: C4_5  and  N1_6 
REMARK    5  A    between atoms: N2_9  and  C7_10 
REMARK    6  A    between atoms: C7_10  and  C8_11 
REMARK       I    between atoms: C8_11  and  N3_13 
ROOT
HETATM    1  N1  UNL     1      19.279 -13.490  21.913  1.00  0.00    -0.061 N 
HETATM    2  C5  UNL     1      19.247 -12.748  20.660  1.00  0.00     0.265 C 
HETATM    3  C6  UNL     1      17.930 -13.078  19.994  1.00  0.00     0.266 C 
HETATM    4  N2  UNL     1      16.831 -13.142  20.895  1.00  0.00    -0.055 N 
HETATM    5  C10 UNL     1      17.088 -12.390  22.138  1.00  0.00     0.266 C 
HETATM    6  C11 UNL     1      18.364 -12.799  22.790  1.00  0.00     0.265 C 
HETATM    7  C12 UNL     1      16.462 -14.444  21.327  1.00  0.00     0.249 C 
HETATM    8  C13 UNL     1      17.567 -15.321  21.797  1.00  0.00     0.009 C 
HETATM    9  C14 UNL     1      17.408 -15.758  23.241  1.00  0.00     0.013 C 
HETATM   10  C15 UNL     1      17.040 -17.205  23.248  1.00  0.00     0.005 C 
HETATM   11  C16 UNL     1      17.585 -17.750  21.948  1.00  0.00    -0.018 C 
HETATM   12  C17 UNL     1      16.710 -18.931  21.577  1.00  0.00     0.010 C 
HETATM   13  C18 UNL     1      17.452 -16.616  20.971  1.00  0.00     0.017 C 
HETATM   14  C19 UNL     1      18.951 -14.843  21.621  1.00  0.00     0.248 C 
ENDROOT
BRANCH   4  15
HETATM   15  C7  UNL     1      15.661 -12.488  20.328  1.00  0.00     0.340 C 
BRANCH  15  16
HETATM   16  C8  UNL     1      15.825 -11.070  20.053  1.00  0.00     0.249 C 
HETATM   17  O2  UNL     1      16.641 -10.580  19.225  1.00  0.00    -0.271 OA
HETATM   18  N3  UNL     1      15.034 -10.131  20.735  1.00  0.00    -0.302 N 
HETATM   19  C9  UNL     1      14.101 -10.287  21.551  1.00  0.00     0.203 C 
ATOM     20  H3  UNL     1      15.259  -9.158  20.529  1.00  0.00     0.171 HD
HETATM   21  N4  UNL     1      13.612 -11.541  21.990  1.00  0.00    -0.066 NA
HETATM   22  N5  UNL     1      13.444  -9.132  22.116  1.00  0.00    -0.066 NA
ENDBRANCH  15  16
ENDBRANCH   4  15
BRANCH   1  23
HETATM   23  C4  UNL     1      20.556 -13.471  22.564  1.00  0.00     0.263 C 
BRANCH  23  24
HETATM   24  C3  UNL     1      20.796 -14.407  23.668  1.00  0.00     0.195 C 
BRANCH  24  25
HETATM   25  O1  UNL     1      21.680 -13.981  24.646  1.00  0.00    -0.390 OA
BRANCH  25  26
HETATM   26  C2  UNL     1      21.618 -12.631  24.887  1.00  0.00     0.163 C 
HETATM   27  C1  UNL     1      20.805 -12.256  26.089  1.00  0.00     0.033 C 
ENDBRANCH  25  26
ENDBRANCH  24  25
ENDBRANCH  23  24
ENDBRANCH   1  23
TORSDOF 6
ENDMDL
MODEL 5
REMARK VINA RESULT: -6.740607379      3.211      5.343
REMARK  6 active torsions:
REMARK  status: ('A' for Active; 'I' for Inactive)
REMARK    1  A    between atoms: C2_2  and  O1_3 
REMARK    2  A    between atoms: O1_3  and  C3_4 
REMARK    3  A    between atoms: C3_4  and  C4_5 
REMARK    4  A    between atoms: C4_5  and  N1_6 
REMARK    5  A    between atoms: N2_9  and  C7_10 
REMARK    6  A    between atoms: C7_10  and  C8_11 
REMARK       I    between atoms: C8_11  and  N3_13 
ROOT
HETATM    1  N1  UNL     1      17.710 -12.000  19.938  1.00  0.00    -0.061 N 
HETATM    2  C5  UNL     1      16.898 -11.746  18.756  1.00  0.00     0.265 C 
HETATM    3  C6  UNL     1      15.481 -12.139  19.112  1.00  0.00     0.266 C 
HETATM    4  N2  UNL     1      15.092 -11.759  20.426  1.00  0.00    -0.055 N 
HETATM    5  C10 UNL     1      15.916 -10.653  20.950  1.00  0.00     0.266 C 
HETATM    6  C11 UNL     1      17.373 -10.947  20.866  1.00  0.00     0.265 C 
HETATM    7  C12 UNL     1      15.179 -12.776  21.413  1.00  0.00     0.249 C 
HETATM    8  C13 UNL     1      16.448 -13.551  21.454  1.00  0.00     0.009 C 
HETATM    9  C14 UNL     1      17.177 -13.433  22.779  1.00  0.00     0.013 C 
HETATM   10  C15 UNL     1      17.043 -14.734  23.498  1.00  0.00     0.005 C 
HETATM   11  C16 UNL     1      16.821 -15.758  22.408  1.00  0.00    -0.018 C 
HETATM   12  C17 UNL     1      16.029 -16.888  23.035  1.00  0.00     0.010 C 
HETATM   13  C18 UNL     1      16.037 -15.032  21.353  1.00  0.00     0.017 C 
HETATM   14  C19 UNL     1      17.431 -13.323  20.377  1.00  0.00     0.248 C 
ENDROOT
BRANCH   4  15
HETATM   15  C7  UNL     1      13.741 -11.219  20.428  1.00  0.00     0.340 C 
BRANCH  15  16
HETATM   16  C8  UNL     1      13.629  -9.850  20.907  1.00  0.00     0.249 C 
HETATM   17  O2  UNL     1      14.169  -8.846  20.369  1.00  0.00    -0.271 OA
HETATM   18  N3  UNL     1      12.868  -9.573  22.054  1.00  0.00    -0.302 N 
HETATM   19  C9  UNL     1      12.163 -10.318  22.766  1.00  0.00     0.203 C 
ATOM     20  H3  UNL     1      12.897  -8.599  22.357  1.00  0.00     0.171 HD
HETATM   21  N4  UNL     1      11.971 -11.703  22.546  1.00  0.00    -0.066 NA
HETATM   22  N5  UNL     1      11.474  -9.770  23.912  1.00  0.00    -0.066 NA
ENDBRANCH  15  16
ENDBRANCH   4  15
BRANCH   1  23
HETATM   23  C4  UNL     1      19.121 -11.897  19.703  1.00  0.00     0.263 C 
BRANCH  23  24
HETATM   24  C3  UNL     1      20.001 -12.941  20.237  1.00  0.00     0.195 C 
BRANCH  24  25
HETATM   25  O1  UNL     1      20.722 -12.609  21.372  1.00  0.00    -0.390 OA
BRANCH  25  26
HETATM   26  C2  UNL     1      20.580 -13.515  22.393  1.00  0.00     0.163 C 
HETATM   27  C1  UNL     1      21.058 -13.023  23.726  1.00  0.00     0.033 C 
ENDBRANCH  25  26
ENDBRANCH  24  25
ENDBRANCH  23  24
ENDBRANCH   1  23
TORSDOF 6
ENDMDL
