MODEL 1
REMARK VINA RESULT: -6.488790277      0.000      0.000
REMARK  5 active torsions:
REMARK  status: ('A' for Active; 'I' for Inactive)
REMARK    1  A    between atoms: C2_2  and  C3_3 
REMARK    2  A    between atoms: C3_3  and  C4_4 
REMARK    3  A    between atoms: C4_4  and  C5_5 
REMARK    4  A    between atoms: C5_5  and  C6_6 
REMARK    5  A    between atoms: C6_6  and  N1_7 
REMARK       I    between atoms: N4_18  and  C15_19 
REMARK       I    between atoms: C15_19  and  N5_20 
REMARK       I    between atoms: C16_22  and  N7_24 
ROOT
HETATM    1  N1  UNL     1      18.496 -14.279  22.338  1.00  0.00     0.033 N 
HETATM    2  C7  UNL     1      18.172 -14.976  21.074  1.00  0.00     0.293 C 
HETATM    3  C8  UNL     1      17.172 -16.044  21.192  1.00  0.00     0.267 C 
HETATM    4  N2  UNL     1      16.986 -16.540  22.539  1.00  0.00    -0.065 N 
HETATM    5  C9  UNL     1      15.864 -17.460  22.516  1.00  0.00     0.272 C 
HETATM    6  C10 UNL     1      16.668 -15.476  23.446  1.00  0.00     0.267 C 
HETATM    7  C11 UNL     1      17.214 -14.140  23.007  1.00  0.00     0.293 C 
HETATM    8  C12 UNL     1      18.150 -17.302  22.876  1.00  0.00     0.279 C 
HETATM    9  C13 UNL     1      19.401 -16.566  23.125  1.00  0.00     0.266 C 
HETATM   10  C14 UNL     1      20.475 -16.865  22.168  1.00  0.00     0.089 C 
HETATM   11  N3  UNL     1      21.331 -17.120  21.419  1.00  0.00    -0.195 NA
HETATM   12  N4  UNL     1      19.267 -15.112  23.159  1.00  0.00    -0.018 N 
HETATM   13  C15 UNL     1      20.058 -14.571  24.203  1.00  0.00     0.717 C 
HETATM   14  N5  UNL     1      21.282 -15.167  24.569  1.00  0.00    -0.161 N 
ATOM     15  H5  UNL     1      21.204 -15.986  25.170  1.00  0.00     0.187 HD
HETATM   16  C16 UNL     1      22.463 -14.835  24.262  1.00  0.00     0.202 C 
HETATM   17  N6  UNL     1      23.578 -15.598  24.754  1.00  0.00    -0.063 NA
HETATM   18  N7  UNL     1      22.770 -13.735  23.443  1.00  0.00    -0.368 N 
ATOM     19  H7  UNL     1      22.317 -13.650  22.533  1.00  0.00     0.161 HD
HETATM   20  C17 UNL     1      23.710 -12.723  23.857  1.00  0.00     0.148 C 
HETATM   21  N8  UNL     1      19.668 -13.539  24.847  1.00  0.00    -0.124 N 
ATOM     22  H8  UNL     1      18.775 -13.120  24.587  1.00  0.00     0.197 HD
HETATM   23  C18 UNL     1      20.394 -12.951  25.887  1.00  0.00     0.196 C 
HETATM   24  N9  UNL     1      20.983 -12.459  26.755  1.00  0.00    -0.171 NA
ENDROOT
BRANCH   1  25
HETATM   25  C6  UNL     1      19.083 -13.057  21.947  1.00  0.00     0.266 C 
BRANCH  25  26
HETATM   26  C5  UNL     1      19.975 -13.127  20.737  1.00  0.00     0.030 C 
BRANCH  26  27
HETATM   27  C4  UNL     1      19.713 -11.993  19.773  1.00  0.00     0.002 C 
BRANCH  27  28
HETATM   28  C3  UNL     1      18.376 -11.356  20.087  1.00  0.00    -0.000 C 
BRANCH  28  29
HETATM   29  C2  UNL     1      17.332 -11.699  19.067  1.00  0.00    -0.005 C 
HETATM   30  C1  UNL     1      16.092 -12.298  19.674  1.00  0.00     0.005 C 
ENDBRANCH  28  29
ENDBRANCH  27  28
ENDBRANCH  26  27
ENDBRANCH  25  26
ENDBRANCH   1  25
TORSDOF 5
ENDMDL
MODEL 2
REMARK VINA RESULT: -5.886141229      1.286      1.667
REMARK  5 active torsions:
REMARK  status: ('A' for Active; 'I' for Inactive)
REMARK    1  A    between atoms: C2_2  and  C3_3 
REMARK    2  A    between atoms: C3_3  and  C4_4 
REMARK    3  A    between atoms: C4_4  and  C5_5 
REMARK    4  A    between atoms: C5_5  and  C6_6 
REMARK    5  A    between atoms: C6_6  and  N1_7 
REMARK       I    between atoms: N4_18  and  C15_19 
REMARK       I    between atoms: C15_19  and  N5_20 
REMARK       I    between atoms: C16_22  and  N7_24 
ROOT
HETATM    1  N1  UNL     1      18.448 -15.648  22.614  1.00  0.00     0.033 N 
HETATM    2  C7  UNL     1      18.201 -16.730  21.636  1.00  0.00     0.293 C 
HETATM    3  C8  UNL     1      17.210 -17.730  22.052  1.00  0.00     0.267 C 
HETATM    4  N2  UNL     1      16.958 -17.762  23.476  1.00  0.00    -0.065 N 
HETATM    5  C9  UNL     1      15.852 -18.672  23.706  1.00  0.00     0.272 C 
HETATM    6  C10 UNL     1      16.578 -16.469  23.968  1.00  0.00     0.267 C 
HETATM    7  C11 UNL     1      17.130 -15.336  23.139  1.00  0.00     0.293 C 
HETATM    8  C12 UNL     1      18.113 -18.336  24.099  1.00  0.00     0.279 C 
HETATM    9  C13 UNL     1      19.339 -17.522  24.150  1.00  0.00     0.266 C 
HETATM   10  C14 UNL     1      20.466 -18.086  23.396  1.00  0.00     0.089 C 
HETATM   11  N3  UNL     1      21.365 -18.547  22.814  1.00  0.00    -0.195 NA
HETATM   12  N4  UNL     1      19.184 -16.142  23.698  1.00  0.00    -0.018 N 
HETATM   13  C15 UNL     1      19.911 -15.265  24.542  1.00  0.00     0.717 C 
HETATM   14  N5  UNL     1      21.122 -15.671  25.139  1.00  0.00    -0.161 N 
ATOM     15  H5  UNL     1      21.021 -16.250  25.972  1.00  0.00     0.187 HD
HETATM   16  C16 UNL     1      22.312 -15.423  24.795  1.00  0.00     0.202 C 
HETATM   17  N6  UNL     1      23.410 -15.948  25.562  1.00  0.00    -0.063 NA
HETATM   18  N7  UNL     1      22.649 -14.644  23.675  1.00  0.00    -0.368 N 
ATOM     19  H7  UNL     1      22.244 -14.876  22.768  1.00  0.00     0.161 HD
HETATM   20  C17 UNL     1      23.551 -13.524  23.777  1.00  0.00     0.148 C 
HETATM   21  N8  UNL     1      19.473 -14.091  24.791  1.00  0.00    -0.124 N 
ATOM     22  H8  UNL     1      18.591 -13.807  24.366  1.00  0.00     0.197 HD
HETATM   23  C18 UNL     1      20.135 -13.173  25.612  1.00  0.00     0.196 C 
HETATM   24  N9  UNL     1      20.670 -12.406  26.296  1.00  0.00    -0.171 NA
ENDROOT
BRANCH   1  25
HETATM   25  C6  UNL     1      19.039 -14.605  21.870  1.00  0.00     0.266 C 
BRANCH  25  26
HETATM   26  C5  UNL     1      18.077 -13.682  21.174  1.00  0.00     0.030 C 
BRANCH  26  27
HETATM   27  C4  UNL     1      18.294 -12.237  21.563  1.00  0.00     0.002 C 
BRANCH  27  28
HETATM   28  C3  UNL     1      18.696 -11.436  20.344  1.00  0.00    -0.000 C 
BRANCH  28  29
HETATM   29  C2  UNL     1      20.117 -11.694  19.942  1.00  0.00    -0.005 C 
HETATM   30  C1  UNL     1      20.313 -11.703  18.450  1.00  0.00     0.005 C 
ENDBRANCH  28  29
ENDBRANCH  27  28
ENDBRANCH  26  27
ENDBRANCH  25  26
ENDBRANCH   1  25
TORSDOF 5
ENDMDL
MODEL 3
REMARK VINA RESULT: -5.864924919      2.863      6.483
REMARK  5 active torsions:
REMARK  status: ('A' for Active; 'I' for Inactive)
REMARK    1  A    between atoms: C2_2  and  C3_3 
REMARK    2  A    between atoms: C3_3  and  C4_4 
REMARK    3  A    between atoms: C4_4  and  C5_5 
REMARK    4  A    between atoms: C5_5  and  C6_6 
REMARK    5  A    between atoms: C6_6  and  N1_7 
REMARK       I    between atoms: N4_18  and  C15_19 
REMARK       I    between atoms: C15_19  and  N5_20 
REMARK       I    between atoms: C16_22  and  N7_24 
ROOT
HETATM    1  N1  UNL     1      16.708 -14.074  21.719  1.00  0.00     0.033 N 
HETATM    2  C7  UNL     1      17.100 -13.561  23.049  1.00  0.00     0.293 C 
HETATM    3  C8  UNL     1      18.545 -13.532  23.303  1.00  0.00     0.267 C 
HETATM    4  N2  UNL     1      19.320 -14.388  22.431  1.00  0.00    -0.065 N 
HETATM    5  C9  UNL     1      20.723 -14.125  22.693  1.00  0.00     0.272 C 
HETATM    6  C10 UNL     1      19.064 -14.093  21.051  1.00  0.00     0.267 C 
HETATM    7  C11 UNL     1      17.694 -13.509  20.814  1.00  0.00     0.293 C 
HETATM    8  C12 UNL     1      19.063 -15.741  22.824  1.00  0.00     0.279 C 
HETATM    9  C13 UNL     1      17.741 -16.306  22.505  1.00  0.00     0.266 C 
HETATM   10  C14 UNL     1      16.941 -16.666  23.683  1.00  0.00     0.089 C 
HETATM   11  N3  UNL     1      16.318 -16.969  24.621  1.00  0.00    -0.195 NA
HETATM   12  N4  UNL     1      16.893 -15.462  21.669  1.00  0.00    -0.018 N 
HETATM   13  C15 UNL     1      16.216 -16.250  20.704  1.00  0.00     0.717 C 
HETATM   14  N5  UNL     1      15.813 -17.568  20.998  1.00  0.00    -0.161 N 
ATOM     15  H5  UNL     1      16.548 -18.272  20.930  1.00  0.00     0.187 HD
HETATM   16  C16 UNL     1      14.677 -18.007  21.333  1.00  0.00     0.202 C 
HETATM   17  N6  UNL     1      14.491 -19.410  21.589  1.00  0.00    -0.063 NA
HETATM   18  N7  UNL     1      13.542 -17.190  21.479  1.00  0.00    -0.368 N 
ATOM     19  H7  UNL     1      13.598 -16.363  22.074  1.00  0.00     0.161 HD
HETATM   20  C17 UNL     1      12.302 -17.491  20.808  1.00  0.00     0.148 C 
HETATM   21  N8  UNL     1      15.971 -15.784  19.540  1.00  0.00    -0.124 N 
ATOM     22  H8  UNL     1      16.276 -14.834  19.328  1.00  0.00     0.197 HD
HETATM   23  C18 UNL     1      15.309 -16.502  18.539  1.00  0.00     0.196 C 
HETATM   24  N9  UNL     1      14.768 -17.089  17.700  1.00  0.00    -0.171 NA
ENDROOT
BRANCH   1  25
HETATM   25  C6  UNL     1      15.393 -13.604  21.513  1.00  0.00     0.266 C 
BRANCH  25  26
HETATM   26  C5  UNL     1      15.239 -12.107  21.492  1.00  0.00     0.030 C 
BRANCH  26  27
HETATM   27  C4  UNL     1      13.805 -11.681  21.716  1.00  0.00     0.002 C 
BRANCH  27  28
HETATM   28  C3  UNL     1      13.666 -10.200  21.440  1.00  0.00    -0.000 C 
BRANCH  28  29
HETATM   29  C2  UNL     1      12.278  -9.702  21.711  1.00  0.00    -0.005 C 
HETATM   30  C1  UNL     1      11.781 -10.068  23.083  1.00  0.00     0.005 C 
ENDBRANCH  28  29
ENDBRANCH  27  28
ENDBRANCH  26  27
ENDBRANCH  25  26
ENDBRANCH   1  25
TORSDOF 5
ENDMDL
MODEL 4
REMARK VINA RESULT: -5.860839744      1.884      4.953
REMARK  5 active torsions:
REMARK  status: ('A' for Active; 'I' for Inactive)
REMARK    1  A    between atoms: C2_2  and  C3_3 
REMARK    2  A    between atoms: C3_3  and  C4_4 
REMARK    3  A    between atoms: C4_4  and  C5_5 
REMARK    4  A    between atoms: C5_5  and  C6_6 
REMARK    5  A    between atoms: C6_6  and  N1_7 
REMARK       I    between atoms: N4_18  and  C15_19 
REMARK       I    between atoms: C15_19  and  N5_20 
REMARK       I    between atoms: C16_22  and  N7_24 
ROOT
HETATM    1  N1  UNL     1      19.524 -14.612  22.811  1.00  0.00     0.033 N 
HETATM    2  C7  UNL     1      18.707 -13.918  23.830  1.00  0.00     0.293 C 
HETATM    3  C8  UNL     1      19.471 -13.269  24.903  1.00  0.00     0.267 C 
HETATM    4  N2  UNL     1      20.825 -13.757  25.049  1.00  0.00    -0.065 N 
HETATM    5  C9  UNL     1      21.492 -12.914  26.023  1.00  0.00     0.272 C 
HETATM    6  C10 UNL     1      21.548 -13.664  23.814  1.00  0.00     0.267 C 
HETATM    7  C11 UNL     1      20.656 -13.727  22.599  1.00  0.00     0.293 C 
HETATM    8  C12 UNL     1      20.745 -15.071  25.612  1.00  0.00     0.279 C 
HETATM    9  C13 UNL     1      20.253 -16.157  24.747  1.00  0.00     0.266 C 
HETATM   10  C14 UNL     1      18.996 -16.765  25.202  1.00  0.00     0.089 C 
HETATM   11  N3  UNL     1      18.009 -17.259  25.578  1.00  0.00    -0.195 NA
HETATM   12  N4  UNL     1      20.056 -15.792  23.347  1.00  0.00    -0.018 N 
HETATM   13  C15 UNL     1      20.503 -16.837  22.500  1.00  0.00     0.717 C 
HETATM   14  N5  UNL     1      20.388 -18.186  22.891  1.00  0.00    -0.161 N 
ATOM     15  H5  UNL     1      21.109 -18.515  23.532  1.00  0.00     0.187 HD
HETATM   16  C16 UNL     1      19.524 -19.049  22.564  1.00  0.00     0.202 C 
HETATM   17  N6  UNL     1      19.601 -20.385  23.091  1.00  0.00    -0.063 NA
HETATM   18  N7  UNL     1      18.454 -18.782  21.691  1.00  0.00    -0.368 N 
ATOM     19  H7  UNL     1      17.849 -17.982  21.876  1.00  0.00     0.161 HD
HETATM   20  C17 UNL     1      18.192 -19.611  20.541  1.00  0.00     0.148 C 
HETATM   21  N8  UNL     1      21.035 -16.574  21.368  1.00  0.00    -0.124 N 
ATOM     22  H8  UNL     1      21.127 -15.596  21.096  1.00  0.00     0.197 HD
HETATM   23  C18 UNL     1      21.498 -17.552  20.482  1.00  0.00     0.196 C 
HETATM   24  N9  UNL     1      21.891 -18.352  19.742  1.00  0.00    -0.171 NA
ENDROOT
BRANCH   1  25
HETATM   25  C6  UNL     1      18.677 -14.752  21.691  1.00  0.00     0.266 C 
BRANCH  25  26
HETATM   26  C5  UNL     1      17.359 -14.033  21.784  1.00  0.00     0.030 C 
BRANCH  26  27
HETATM   27  C4  UNL     1      17.118 -13.135  20.591  1.00  0.00     0.002 C 
BRANCH  27  28
HETATM   28  C3  UNL     1      18.032 -11.931  20.667  1.00  0.00    -0.000 C 
BRANCH  28  29
HETATM   29  C2  UNL     1      18.800 -11.722  19.397  1.00  0.00    -0.005 C 
HETATM   30  C1  UNL     1      20.291 -11.752  19.601  1.00  0.00     0.005 C 
ENDBRANCH  28  29
ENDBRANCH  27  28
ENDBRANCH  26  27
ENDBRANCH  25  26
ENDBRANCH   1  25
TORSDOF 5
ENDMDL
MODEL 5
REMARK VINA RESULT: -5.807444497      2.811      5.532
REMARK  5 active torsions:
REMARK  status: ('A' for Active; 'I' for Inactive)
REMARK    1  A    between atoms: C2_2  and  C3_3 
REMARK    2  A    between atoms: C3_3  and  C4_4 
REMARK    3  A    between atoms: C4_4  and  C5_5 
REMARK    4  A    between atoms: C5_5  and  C6_6 
REMARK    5  A    between atoms: C6_6  and  N1_7 
REMARK       I    between atoms: N4_18  and  C15_19 
REMARK       I    between atoms: C15_19  and  N5_20 
REMARK       I    between atoms: C16_22  and  N7_24 
ROOT
HETATM    1  N1  UNL     1      16.592 -16.127  21.583  1.00  0.00     0.033 N 
HETATM    2  C7  UNL     1      17.622 -17.184  21.489  1.00  0.00     0.293 C 
HETATM    3  C8  UNL     1      18.068 -17.734  22.775  1.00  0.00     0.267 C 
HETATM    4  N2  UNL     1      17.779 -16.891  23.915  1.00  0.00    -0.065 N 
HETATM    5  C9  UNL     1      18.127 -17.636  25.111  1.00  0.00     0.272 C 
HETATM    6  C10 UNL     1      16.383 -16.568  23.984  1.00  0.00     0.267 C 
HETATM    7  C11 UNL     1      15.704 -16.587  22.637  1.00  0.00     0.293 C 
HETATM    8  C12 UNL     1      18.663 -15.766  23.847  1.00  0.00     0.279 C 
HETATM    9  C13 UNL     1      18.406 -14.757  22.806  1.00  0.00     0.266 C 
HETATM   10  C14 UNL     1      19.480 -14.633  21.811  1.00  0.00     0.089 C 
HETATM   11  N3  UNL     1      20.344 -14.523  21.036  1.00  0.00    -0.195 NA
HETATM   12  N4  UNL     1      17.166 -14.941  22.058  1.00  0.00    -0.018 N 
HETATM   13  C15 UNL     1      16.533 -13.691  21.843  1.00  0.00     0.717 C 
HETATM   14  N5  UNL     1      17.290 -12.517  21.657  1.00  0.00    -0.161 N 
ATOM     15  H5  UNL     1      17.647 -12.091  22.512  1.00  0.00     0.187 HD
HETATM   16  C16 UNL     1      17.592 -11.914  20.589  1.00  0.00     0.202 C 
HETATM   17  N6  UNL     1      18.386 -10.716  20.635  1.00  0.00    -0.063 NA
HETATM   18  N7  UNL     1      17.192 -12.350  19.313  1.00  0.00    -0.368 N 
ATOM     19  H7  UNL     1      17.380 -13.313  19.035  1.00  0.00     0.161 HD
HETATM   20  C17 UNL     1      16.523 -11.469  18.389  1.00  0.00     0.148 C 
HETATM   21  N8  UNL     1      15.258 -13.602  21.828  1.00  0.00    -0.124 N 
ATOM     22  H8  UNL     1      14.715 -14.452  21.976  1.00  0.00     0.197 HD
HETATM   23  C18 UNL     1      14.566 -12.405  21.622  1.00  0.00     0.196 C 
HETATM   24  N9  UNL     1      13.980 -11.419  21.460  1.00  0.00    -0.171 NA
ENDROOT
BRANCH   1  25
HETATM   25  C6  UNL     1      15.997 -16.075  20.304  1.00  0.00     0.266 C 
BRANCH  25  26
HETATM   26  C5  UNL     1      15.269 -17.321  19.879  1.00  0.00     0.030 C 
BRANCH  26  27
HETATM   27  C4  UNL     1      15.006 -17.344  18.390  1.00  0.00     0.002 C 
BRANCH  27  28
HETATM   28  C3  UNL     1      13.562 -17.720  18.135  1.00  0.00    -0.000 C 
BRANCH  28  29
HETATM   29  C2  UNL     1      12.836 -18.068  19.399  1.00  0.00    -0.005 C 
HETATM   30  C1  UNL     1      11.340 -18.068  19.236  1.00  0.00     0.005 C 
ENDBRANCH  28  29
ENDBRANCH  27  28
ENDBRANCH  26  27
ENDBRANCH  25  26
ENDBRANCH   1  25
TORSDOF 5
ENDMDL
