MODEL 1
REMARK VINA RESULT: -5.915066828      0.000      0.000
REMARK  0 active torsions:
REMARK  status: ('A' for Active; 'I' for Inactive)
ROOT
HETATM    1  C1  UNL     1       3.597   7.319  11.929  1.00  0.00     0.090 C 
HETATM    2  C2  UNL     1       3.692   8.810  12.042  1.00  0.00     0.095 A 
HETATM    3  N1  UNL     1       4.623   9.564  11.569  1.00  0.00    -0.350 N 
ATOM      4  H1  UNL     1       5.428   9.220  11.046  1.00  0.00     0.163 HD
HETATM    5  C3  UNL     1       4.387  10.943  11.869  1.00  0.00     0.136 A 
HETATM    6  C4  UNL     1       4.308  11.807  10.628  1.00  0.00     0.066 C 
HETATM    7  C5  UNL     1       5.503  11.430  12.764  1.00  0.00     0.066 C 
HETATM    8  N2  UNL     1       3.149  10.953  12.613  1.00  0.00    -0.199 N 
HETATM    9  N3  UNL     1       2.225  11.785  13.263  1.00  0.00    -0.270 N 
ATOM     10  H3  UNL     1       2.299  12.800  13.333  1.00  0.00     0.190 HD
HETATM   11  C6  UNL     1       1.267  11.075  13.758  1.00  0.00     0.138 A 
HETATM   12  N4  UNL     1       0.137  11.545  14.490  1.00  0.00    -0.083 NA
HETATM   13  C7  UNL     1       1.489   9.637  13.461  1.00  0.00     0.106 A 
HETATM   14  C8  UNL     1       1.621   8.907  14.760  1.00  0.00     0.048 C 
HETATM   15  C9  UNL     1       0.417   9.073  12.568  1.00  0.00     0.048 C 
HETATM   16  N5  UNL     1       2.739   9.622  12.708  1.00  0.00    -0.246 N 
ENDROOT
TORSDOF 0
ENDMDL
MODEL 2
REMARK VINA RESULT: -5.324788687      1.264      3.165
REMARK  0 active torsions:
REMARK  status: ('A' for Active; 'I' for Inactive)
ROOT
HETATM    1  C1  UNL     1       1.443  12.699  14.347  1.00  0.00     0.090 C 
HETATM    2  C2  UNL     1       2.395  11.932  13.481  1.00  0.00     0.095 A 
HETATM    3  N1  UNL     1       3.440  12.390  12.884  1.00  0.00    -0.350 N 
ATOM      4  H1  UNL     1       3.749  13.361  12.936  1.00  0.00     0.163 HD
HETATM    5  C3  UNL     1       4.112  11.370  12.140  1.00  0.00     0.136 A 
HETATM    6  C4  UNL     1       5.552  11.184  12.569  1.00  0.00     0.066 C 
HETATM    7  C5  UNL     1       4.055  11.736  10.676  1.00  0.00     0.066 C 
HETATM    8  N2  UNL     1       3.327  10.176  12.357  1.00  0.00    -0.199 N 
HETATM    9  N3  UNL     1       3.233   8.811  12.048  1.00  0.00    -0.270 N 
ATOM     10  H3  UNL     1       3.887   8.298  11.457  1.00  0.00     0.190 HD
HETATM   11  C6  UNL     1       2.197   8.301  12.624  1.00  0.00     0.138 A 
HETATM   12  N4  UNL     1       1.755   6.946  12.559  1.00  0.00    -0.083 NA
HETATM   13  C7  UNL     1       1.480   9.341  13.403  1.00  0.00     0.106 A 
HETATM   14  C8  UNL     1       0.100   9.479  12.840  1.00  0.00     0.048 C 
HETATM   15  C9  UNL     1       1.492   9.050  14.880  1.00  0.00     0.048 C 
HETATM   16  N5  UNL     1       2.270  10.549  13.189  1.00  0.00    -0.246 N 
ENDROOT
TORSDOF 0
ENDMDL
MODEL 3
REMARK VINA RESULT: -5.170880438      1.817      4.297
REMARK  0 active torsions:
REMARK  status: ('A' for Active; 'I' for Inactive)
ROOT
HETATM    1  C1  UNL     1       1.293   5.490  13.412  1.00  0.00     0.090 C 
HETATM    2  C2  UNL     1       1.296   6.986  13.333  1.00  0.00     0.095 A 
HETATM    3  N1  UNL     1       0.341   7.781  13.673  1.00  0.00    -0.350 N 
ATOM      4  H1  UNL     1      -0.556   7.471  14.049  1.00  0.00     0.163 HD
HETATM    5  C3  UNL     1       0.694   9.150  13.460  1.00  0.00     0.136 A 
HETATM    6  C4  UNL     1       0.615   9.980  14.725  1.00  0.00     0.066 C 
HETATM    7  C5  UNL     1      -0.234   9.721  12.413  1.00  0.00     0.066 C 
HETATM    8  N2  UNL     1       2.036   9.108  12.926  1.00  0.00    -0.199 N 
HETATM    9  N3  UNL     1       3.096   9.900  12.461  1.00  0.00    -0.270 N 
ATOM     10  H3  UNL     1       3.087  10.919  12.412  1.00  0.00     0.190 HD
HETATM   11  C6  UNL     1       4.083   9.149  12.105  1.00  0.00     0.138 A 
HETATM   12  N4  UNL     1       5.340   9.571  11.579  1.00  0.00    -0.083 NA
HETATM   13  C7  UNL     1       3.741   7.720  12.315  1.00  0.00     0.106 A 
HETATM   14  C8  UNL     1       3.784   7.029  10.989  1.00  0.00     0.048 C 
HETATM   15  C9  UNL     1       4.623   7.075  13.351  1.00  0.00     0.048 C 
HETATM   16  N5  UNL     1       2.386   7.758  12.856  1.00  0.00    -0.246 N 
ENDROOT
TORSDOF 0
ENDMDL
MODEL 4
REMARK VINA RESULT: -5.052957149      1.848      3.001
REMARK  0 active torsions:
REMARK  status: ('A' for Active; 'I' for Inactive)
ROOT
HETATM    1  C1  UNL     1       0.313   6.203  13.752  1.00  0.00     0.090 C 
HETATM    2  C2  UNL     1       1.551   6.845  13.204  1.00  0.00     0.095 A 
HETATM    3  N1  UNL     1       2.621   6.248  12.807  1.00  0.00    -0.350 N 
ATOM      4  H1  UNL     1       2.751   5.236  12.820  1.00  0.00     0.163 HD
HETATM    5  C3  UNL     1       3.604   7.179  12.345  1.00  0.00     0.136 A 
HETATM    6  C4  UNL     1       4.020   6.930  10.911  1.00  0.00     0.066 C 
HETATM    7  C5  UNL     1       4.808   7.087  13.254  1.00  0.00     0.066 C 
HETATM    8  N2  UNL     1       2.989   8.477  12.510  1.00  0.00    -0.199 N 
HETATM    9  N3  UNL     1       3.189   9.854  12.338  1.00  0.00    -0.270 N 
ATOM     10  H3  UNL     1       4.037  10.281  11.963  1.00  0.00     0.190 HD
HETATM   11  C6  UNL     1       2.141  10.502  12.723  1.00  0.00     0.138 A 
HETATM   12  N4  UNL     1       1.948  11.915  12.709  1.00  0.00    -0.083 NA
HETATM   13  C7  UNL     1       1.105   9.556  13.209  1.00  0.00     0.106 A 
HETATM   14  C8  UNL     1       0.834   9.859  14.649  1.00  0.00     0.048 C 
HETATM   15  C9  UNL     1      -0.133   9.586  12.352  1.00  0.00     0.048 C 
HETATM   16  N5  UNL     1       1.720   8.244  13.043  1.00  0.00    -0.246 N 
ENDROOT
TORSDOF 0
ENDMDL
MODEL 5
REMARK VINA RESULT: -4.955614318      1.120      3.724
REMARK  0 active torsions:
REMARK  status: ('A' for Active; 'I' for Inactive)
ROOT
HETATM    1  C1  UNL     1       3.809   7.759  11.125  1.00  0.00     0.090 C 
HETATM    2  C2  UNL     1       2.925   8.565  12.027  1.00  0.00     0.095 A 
HETATM    3  N1  UNL     1       1.852   8.166  12.617  1.00  0.00    -0.350 N 
ATOM      4  H1  UNL     1       1.470   7.223  12.535  1.00  0.00     0.163 HD
HETATM    5  C3  UNL     1       1.263   9.207  13.401  1.00  0.00     0.136 A 
HETATM    6  C4  UNL     1       1.121   8.832  14.861  1.00  0.00     0.066 C 
HETATM    7  C5  UNL     1      -0.093   9.530  12.819  1.00  0.00     0.066 C 
HETATM    8  N2  UNL     1       2.136  10.345  13.220  1.00  0.00    -0.199 N 
HETATM    9  N3  UNL     1       2.334  11.687  13.574  1.00  0.00    -0.270 N 
ATOM     10  H3  UNL     1       1.726  12.226  14.190  1.00  0.00     0.190 HD
HETATM   11  C6  UNL     1       3.402  12.138  13.006  1.00  0.00     0.138 A 
HETATM   12  N4  UNL     1       3.945  13.453  13.114  1.00  0.00    -0.083 NA
HETATM   13  C7  UNL     1       4.033  11.075  12.184  1.00  0.00     0.106 A 
HETATM   14  C8  UNL     1       4.050  11.535  10.760  1.00  0.00     0.048 C 
HETATM   15  C9  UNL     1       5.393  10.693  12.702  1.00  0.00     0.048 C 
HETATM   16  N5  UNL     1       3.156   9.923  12.365  1.00  0.00    -0.246 N 
ENDROOT
TORSDOF 0
ENDMDL
