MODEL 1
REMARK VINA RESULT: -6.419479519      0.000      0.000
REMARK  0 active torsions:
REMARK  status: ('A' for Active; 'I' for Inactive)
ROOT
HETATM    1  N1  UNL     1       3.538  14.069  14.223  1.00  0.00    -0.075 NA
HETATM    2  C1  UNL     1       3.423  12.876  13.436  1.00  0.00     0.156 C 
HETATM    3  N2  UNL     1       2.479  12.037  13.390  1.00  0.00    -0.362 N 
ATOM      4  H2  UNL     1       1.652  12.170  13.973  1.00  0.00     0.162 HD
HETATM    5  C2  UNL     1       2.563  10.913  12.535  1.00  0.00     0.140 C 
HETATM    6  C3  UNL     1       1.864   9.759  13.225  1.00  0.00     0.032 C 
HETATM    7  C4  UNL     1       1.826   8.520  12.394  1.00  0.00     0.002 C 
HETATM    8  C5  UNL     1       2.598   7.435  13.109  1.00  0.00     0.002 C 
HETATM    9  C6  UNL     1       4.074   7.615  13.049  1.00  0.00     0.020 C 
HETATM   10  C7  UNL     1       4.572   8.254  11.784  1.00  0.00     0.120 C 
HETATM   11  N3  UNL     1       4.753   9.664  11.930  1.00  0.00    -0.386 N 
ATOM     12  H3  UNL     1       5.713   9.969  11.775  1.00  0.00     0.159 HD
HETATM   13  C8  UNL     1       3.970  10.601  12.210  1.00  0.00     0.072 C 
HETATM   14  S1  UNL     1       4.673  12.282  12.288  1.00  0.00    -0.042 SA
ENDROOT
TORSDOF 0
ENDMDL
MODEL 2
REMARK VINA RESULT: -6.184032280      2.212      4.719
REMARK  0 active torsions:
REMARK  status: ('A' for Active; 'I' for Inactive)
ROOT
HETATM    1  N1  UNL     1       3.916   6.032  13.767  1.00  0.00    -0.075 NA
HETATM    2  C1  UNL     1       3.609   7.293  13.157  1.00  0.00     0.156 C 
HETATM    3  N2  UNL     1       4.327   8.013  12.406  1.00  0.00    -0.362 N 
ATOM      4  H2  UNL     1       5.269   7.709  12.161  1.00  0.00     0.162 HD
HETATM    5  C2  UNL     1       3.829   9.238  11.902  1.00  0.00     0.140 C 
HETATM    6  C3  UNL     1       4.994  10.203  11.814  1.00  0.00     0.032 C 
HETATM    7  C4  UNL     1       4.614  11.524  11.233  1.00  0.00     0.002 C 
HETATM    8  C5  UNL     1       4.842  12.594  12.277  1.00  0.00     0.002 C 
HETATM    9  C6  UNL     1       3.818  12.600  13.357  1.00  0.00     0.020 C 
HETATM   10  C7  UNL     1       2.442  12.191  12.914  1.00  0.00     0.120 C 
HETATM   11  N3  UNL     1       2.190  10.806  13.157  1.00  0.00    -0.386 N 
ATOM     12  H3  UNL     1       1.405  10.640  13.786  1.00  0.00     0.159 HD
HETATM   13  C8  UNL     1       2.738   9.755  12.754  1.00  0.00     0.072 C 
HETATM   14  S1  UNL     1       2.053   8.173  13.350  1.00  0.00    -0.042 SA
ENDROOT
TORSDOF 0
ENDMDL
MODEL 3
REMARK VINA RESULT: -6.147643688      1.404      1.528
REMARK  0 active torsions:
REMARK  status: ('A' for Active; 'I' for Inactive)
ROOT
HETATM    1  N1  UNL     1       2.201  13.254  15.144  1.00  0.00    -0.075 NA
HETATM    2  C1  UNL     1       2.048  12.123  14.276  1.00  0.00     0.156 C 
HETATM    3  N2  UNL     1       1.315  11.102  14.413  1.00  0.00    -0.362 N 
ATOM      4  H2  UNL     1       0.724  11.010  15.239  1.00  0.00     0.162 HD
HETATM    5  C2  UNL     1       1.311  10.087  13.428  1.00  0.00     0.140 C 
HETATM    6  C3  UNL     1       1.110   8.763  14.136  1.00  0.00     0.032 C 
HETATM    7  C4  UNL     1       1.022   7.607  13.196  1.00  0.00     0.002 C 
HETATM    8  C5  UNL     1       2.175   6.670  13.474  1.00  0.00     0.002 C 
HETATM    9  C6  UNL     1       3.485   7.173  12.978  1.00  0.00     0.020 C 
HETATM   10  C7  UNL     1       3.402   7.992  11.721  1.00  0.00     0.120 C 
HETATM   11  N3  UNL     1       3.359   9.394  11.998  1.00  0.00    -0.386 N 
ATOM     12  H3  UNL     1       4.138   9.912  11.592  1.00  0.00     0.159 HD
HETATM   13  C8  UNL     1       2.559  10.114  12.637  1.00  0.00     0.072 C 
HETATM   14  S1  UNL     1       2.925  11.899  12.722  1.00  0.00    -0.042 SA
ENDROOT
TORSDOF 0
ENDMDL
MODEL 4
REMARK VINA RESULT: -6.031258166      1.220      1.315
REMARK  0 active torsions:
REMARK  status: ('A' for Active; 'I' for Inactive)
ROOT
HETATM    1  N1  UNL     1       4.597  13.313  12.976  1.00  0.00    -0.075 NA
HETATM    2  C1  UNL     1       4.031  12.072  12.534  1.00  0.00     0.156 C 
HETATM    3  N2  UNL     1       2.852  11.637  12.670  1.00  0.00    -0.362 N 
ATOM      4  H2  UNL     1       2.156  12.202  13.157  1.00  0.00     0.162 HD
HETATM    5  C2  UNL     1       2.494  10.370  12.153  1.00  0.00     0.140 C 
HETATM    6  C3  UNL     1       1.473   9.763  13.093  1.00  0.00     0.032 C 
HETATM    7  C4  UNL     1       0.961   8.442  12.625  1.00  0.00     0.002 C 
HETATM    8  C5  UNL     1       1.341   7.389  13.640  1.00  0.00     0.002 C 
HETATM    9  C6  UNL     1       2.782   7.018  13.602  1.00  0.00     0.020 C 
HETATM   10  C7  UNL     1       3.406   7.078  12.237  1.00  0.00     0.120 C 
HETATM   11  N3  UNL     1       4.074   8.320  12.008  1.00  0.00    -0.386 N 
ATOM     12  H3  UNL     1       5.072   8.216  11.822  1.00  0.00     0.159 HD
HETATM   13  C8  UNL     1       3.684   9.510  11.990  1.00  0.00     0.072 C 
HETATM   14  S1  UNL     1       4.933  10.794  11.647  1.00  0.00    -0.042 SA
ENDROOT
TORSDOF 0
ENDMDL
MODEL 5
REMARK VINA RESULT: -5.677106123      1.759      2.340
REMARK  0 active torsions:
REMARK  status: ('A' for Active; 'I' for Inactive)
ROOT
HETATM    1  N1  UNL     1       6.522  12.645  12.292  1.00  0.00    -0.075 NA
HETATM    2  C1  UNL     1       5.291  11.921  12.169  1.00  0.00     0.156 C 
HETATM    3  N2  UNL     1       4.145  12.209  12.617  1.00  0.00    -0.362 N 
ATOM      4  H2  UNL     1       4.011  13.067  13.153  1.00  0.00     0.162 HD
HETATM    5  C2  UNL     1       3.047  11.349  12.381  1.00  0.00     0.140 C 
HETATM    6  C3  UNL     1       2.146  11.411  13.597  1.00  0.00     0.032 C 
HETATM    7  C4  UNL     1       0.909  10.590  13.448  1.00  0.00     0.002 C 
HETATM    8  C5  UNL     1       0.918   9.507  14.502  1.00  0.00     0.002 C 
HETATM    9  C6  UNL     1       1.872   8.402  14.212  1.00  0.00     0.020 C 
HETATM   10  C7  UNL     1       2.052   8.102  12.751  1.00  0.00     0.120 C 
HETATM   11  N3  UNL     1       3.192   8.767  12.204  1.00  0.00    -0.386 N 
ATOM     12  H3  UNL     1       3.892   8.128  11.826  1.00  0.00     0.159 HD
HETATM   13  C8  UNL     1       3.506   9.974  12.095  1.00  0.00     0.072 C 
HETATM   14  S1  UNL     1       5.107  10.353  11.307  1.00  0.00    -0.042 SA
ENDROOT
TORSDOF 0
ENDMDL
