MODEL 1
REMARK VINA RESULT: -4.143597321      0.000      0.000
REMARK  0 active torsions:
REMARK  status: ('A' for Active; 'I' for Inactive)
ROOT
HETATM    1  C1  UNL     1       3.763  11.385  11.773  1.00  0.00     0.037 C 
HETATM    2  C2  UNL     1       3.899   9.901  11.898  1.00  0.00     0.173 C 
HETATM    3  O1  UNL     1       2.735   9.203  11.614  1.00  0.00    -0.338 OA
HETATM    4  C3  UNL     1       1.998   9.090  12.751  1.00  0.00     0.328 C 
HETATM    5  N1  UNL     1       2.374   8.033  13.636  1.00  0.00    -0.022 N 
ATOM      6  H11 UNL     1       2.245   8.282  14.617  1.00  0.00     0.282 HD
ATOM      7  H12 UNL     1       3.383   7.885  13.659  1.00  0.00     0.282 HD
HETATM    8  C4  UNL     1       1.653   6.841  13.271  1.00  0.00     0.248 C 
HETATM    9  C5  UNL     1       0.179   7.168  13.333  1.00  0.00     0.107 C 
HETATM   10  S1  UNL     1       0.224   8.756  12.406  1.00  0.00    -0.089 SA
HETATM   11  S2  UNL     1       2.026  10.653  13.672  1.00  0.00    -0.090 SA
HETATM   12  C6  UNL     1       2.551  11.938  12.472  1.00  0.00     0.082 C 
ENDROOT
TORSDOF 0
ENDMDL
MODEL 2
REMARK VINA RESULT: -3.891950890      1.756      2.101
REMARK  0 active torsions:
REMARK  status: ('A' for Active; 'I' for Inactive)
ROOT
HETATM    1  C1  UNL     1       3.659  11.600  12.424  1.00  0.00     0.037 C 
HETATM    2  C2  UNL     1       2.278  11.168  12.803  1.00  0.00     0.173 C 
HETATM    3  O1  UNL     1       2.242  10.030  13.593  1.00  0.00    -0.338 OA
HETATM    4  C3  UNL     1       2.213   8.933  12.789  1.00  0.00     0.328 C 
HETATM    5  N1  UNL     1       0.930   8.573  12.272  1.00  0.00    -0.022 N 
ATOM      6  H11 UNL     1       0.985   8.183  11.331  1.00  0.00     0.282 HD
ATOM      7  H12 UNL     1       0.356   9.387  12.055  1.00  0.00     0.282 HD
HETATM    8  C4  UNL     1       0.288   7.680  13.201  1.00  0.00     0.248 C 
HETATM    9  C5  UNL     1       1.203   6.492  13.394  1.00  0.00     0.107 C 
HETATM   10  S1  UNL     1       2.774   7.413  13.656  1.00  0.00    -0.089 SA
HETATM   11  S2  UNL     1       3.358   9.148  11.398  1.00  0.00    -0.090 SA
HETATM   12  C6  UNL     1       4.515  10.481  11.897  1.00  0.00     0.082 C 
ENDROOT
TORSDOF 0
ENDMDL
MODEL 3
REMARK VINA RESULT: -3.842213915      1.713      4.097
REMARK  0 active torsions:
REMARK  status: ('A' for Active; 'I' for Inactive)
ROOT
HETATM    1  C1  UNL     1       0.478   6.830  13.011  1.00  0.00     0.037 C 
HETATM    2  C2  UNL     1       0.193   8.297  12.940  1.00  0.00     0.173 C 
HETATM    3  O1  UNL     1       1.047   8.995  12.102  1.00  0.00    -0.338 OA
HETATM    4  C3  UNL     1       2.142   9.385  12.808  1.00  0.00     0.328 C 
HETATM    5  N1  UNL     1       1.992  10.573  13.588  1.00  0.00    -0.022 N 
ATOM      6  H11 UNL     1       2.523  10.537  14.458  1.00  0.00     0.282 HD
ATOM      7  H12 UNL     1       1.060  10.657  13.993  1.00  0.00     0.282 HD
HETATM    8  C4  UNL     1       2.341  11.710  12.776  1.00  0.00     0.248 C 
HETATM    9  C5  UNL     1       3.755  11.498  12.286  1.00  0.00     0.107 C 
HETATM   10  S1  UNL     1       3.579   9.755  11.725  1.00  0.00    -0.089 SA
HETATM   11  S2  UNL     1       2.691   8.043  13.899  1.00  0.00    -0.090 SA
HETATM   12  C6  UNL     1       1.930   6.510  13.237  1.00  0.00     0.082 C 
ENDROOT
TORSDOF 0
ENDMDL
MODEL 4
REMARK VINA RESULT: -3.763083766      1.355      3.884
REMARK  0 active torsions:
REMARK  status: ('A' for Active; 'I' for Inactive)
ROOT
HETATM    1  C1  UNL     1       1.439   6.567  13.140  1.00  0.00     0.037 C 
HETATM    2  C2  UNL     1       2.599   7.452  12.808  1.00  0.00     0.173 C 
HETATM    3  O1  UNL     1       2.693   8.579  13.608  1.00  0.00    -0.338 OA
HETATM    4  C3  UNL     1       1.953   9.578  13.057  1.00  0.00     0.328 C 
HETATM    5  N1  UNL     1       2.583  10.314  12.006  1.00  0.00    -0.022 N 
ATOM      6  H11 UNL     1       1.921  10.612  11.289  1.00  0.00     0.282 HD
ATOM      7  H12 UNL     1       3.174   9.726  11.419  1.00  0.00     0.282 HD
HETATM    8  C4  UNL     1       3.306  11.419  12.581  1.00  0.00     0.248 C 
HETATM    9  C5  UNL     1       2.318  12.245  13.371  1.00  0.00     0.107 C 
HETATM   10  S1  UNL     1       1.499  10.871  14.281  1.00  0.00    -0.089 SA
HETATM   11  S2  UNL     1       0.379   8.921  12.440  1.00  0.00    -0.090 SA
HETATM   12  C6  UNL     1       0.139   7.309  13.282  1.00  0.00     0.082 C 
ENDROOT
TORSDOF 0
ENDMDL
MODEL 5
REMARK VINA RESULT: -3.679002218      2.000      2.519
REMARK  0 active torsions:
REMARK  status: ('A' for Active; 'I' for Inactive)
ROOT
HETATM    1  C1  UNL     1       1.546  11.780  14.289  1.00  0.00     0.037 C 
HETATM    2  C2  UNL     1       0.716  10.543  14.427  1.00  0.00     0.173 C 
HETATM    3  O1  UNL     1       1.457   9.388  14.620  1.00  0.00    -0.338 OA
HETATM    4  C3  UNL     1       1.785   8.863  13.409  1.00  0.00     0.328 C 
HETATM    5  N1  UNL     1       0.777   8.070  12.780  1.00  0.00    -0.022 N 
ATOM      6  H11 UNL     1       0.784   8.166  11.764  1.00  0.00     0.282 HD
ATOM      7  H12 UNL     1      -0.163   8.428  12.949  1.00  0.00     0.282 HD
HETATM    8  C4  UNL     1       0.928   6.702  13.205  1.00  0.00     0.248 C 
HETATM    9  C5  UNL     1       2.331   6.269  12.847  1.00  0.00     0.107 C 
HETATM   10  S1  UNL     1       3.231   7.733  13.503  1.00  0.00    -0.089 SA
HETATM   11  S2  UNL     1       2.277  10.186  12.269  1.00  0.00    -0.090 SA
HETATM   12  C6  UNL     1       2.686  11.633  13.319  1.00  0.00     0.082 C 
ENDROOT
TORSDOF 0
ENDMDL
