MODEL 1
REMARK VINA RESULT: -5.094502558      0.000      0.000
REMARK  1 active torsions:
REMARK  status: ('A' for Active; 'I' for Inactive)
REMARK    1  A    between atoms: C6_6  and  N1_7 
ROOT
HETATM    1  C1  UNL     1       1.613   6.440  13.629  1.00  0.00     0.018 C 
HETATM    2  C2  UNL     1       1.641   7.835  13.050  1.00  0.00    -0.013 C 
HETATM    3  C3  UNL     1       0.552   8.105  12.087  1.00  0.00     0.012 C 
HETATM    4  C4  UNL     1      -0.449   9.125  12.437  1.00  0.00     0.005 C 
HETATM    5  C5  UNL     1      -0.014  10.229  13.325  1.00  0.00     0.062 C 
HETATM    6  C6  UNL     1       1.487  10.164  13.562  1.00  0.00     0.208 C 
HETATM    7  C7  UNL     1       1.660   8.798  14.234  1.00  0.00     0.074 C 
HETATM    8  N2  UNL     1       2.231  10.284  12.368  1.00  0.00    -0.304 N 
ATOM      9  H2  UNL     1       2.216  11.200  11.918  1.00  0.00     0.182 HD
HETATM   10  N3  UNL     1       2.890   9.419  11.809  1.00  0.00    -0.328 N 
ATOM     11  H3  UNL     1       3.383   9.643  10.944  1.00  0.00     0.180 HD
HETATM   12  C8  UNL     1       2.981   8.101  12.349  1.00  0.00     0.053 A 
HETATM   13  C9  UNL     1       4.240   7.656  12.965  1.00  0.00     0.036 A 
HETATM   14  C10 UNL     1       3.726   7.033  11.707  1.00  0.00     0.036 A 
ENDROOT
BRANCH   6  15
HETATM   15  N1  UNL     1       1.847  11.150  14.562  1.00  0.00    -0.051 N 
ATOM     16  H13 UNL     1       1.037  11.662  14.912  1.00  0.00     0.277 HD
ATOM     17  H12 UNL     1       2.137  10.724  15.442  1.00  0.00     0.277 HD
ATOM     18  H11 UNL     1       2.560  11.767  14.175  1.00  0.00     0.277 HD
ENDBRANCH   6  15
TORSDOF 1
ENDMDL
MODEL 2
REMARK VINA RESULT: -5.072178963      2.111      3.976
REMARK  1 active torsions:
REMARK  status: ('A' for Active; 'I' for Inactive)
REMARK    1  A    between atoms: C6_6  and  N1_7 
ROOT
HETATM    1  C1  UNL     1       3.322  10.026  12.432  1.00  0.00     0.018 C 
HETATM    2  C2  UNL     1       2.837   8.600  12.536  1.00  0.00    -0.013 C 
HETATM    3  C3  UNL     1       2.726   7.908  11.234  1.00  0.00     0.012 C 
HETATM    4  C4  UNL     1       3.605   6.755  10.983  1.00  0.00     0.005 C 
HETATM    5  C5  UNL     1       4.043   5.964  12.158  1.00  0.00     0.062 C 
HETATM    6  C6  UNL     1       3.324   6.431  13.414  1.00  0.00     0.208 C 
HETATM    7  C7  UNL     1       3.763   7.895  13.524  1.00  0.00     0.074 C 
HETATM    8  N2  UNL     1       1.923   6.285  13.323  1.00  0.00    -0.304 N 
ATOM      9  H2  UNL     1       1.568   5.328  13.327  1.00  0.00     0.182 HD
HETATM   10  N3  UNL     1       1.084   7.171  13.241  1.00  0.00    -0.328 N 
ATOM     11  H3  UNL     1       0.096   6.924  13.182  1.00  0.00     0.180 HD
HETATM   12  C8  UNL     1       1.467   8.546  13.227  1.00  0.00     0.053 A 
HETATM   13  C9  UNL     1       1.197   9.384  14.406  1.00  0.00     0.036 A 
HETATM   14  C10 UNL     1       0.510   9.632  13.101  1.00  0.00     0.036 A 
ENDROOT
BRANCH   6  15
HETATM   15  N1  UNL     1       3.897   5.755  14.561  1.00  0.00    -0.051 N 
ATOM     16  H13 UNL     1       4.912   5.857  14.606  1.00  0.00     0.277 HD
ATOM     17  H12 UNL     1       3.669   6.218  15.440  1.00  0.00     0.277 HD
ATOM     18  H11 UNL     1       3.605   4.778  14.548  1.00  0.00     0.277 HD
ENDBRANCH   6  15
TORSDOF 1
ENDMDL
MODEL 3
REMARK VINA RESULT: -5.005884931      1.342      1.766
REMARK  1 active torsions:
REMARK  status: ('A' for Active; 'I' for Inactive)
REMARK    1  A    between atoms: C6_6  and  N1_7 
ROOT
HETATM    1  C1  UNL     1       3.989   6.604  14.051  1.00  0.00     0.018 C 
HETATM    2  C2  UNL     1       2.907   7.303  13.263  1.00  0.00    -0.013 C 
HETATM    3  C3  UNL     1       1.919   6.385  12.656  1.00  0.00     0.012 C 
HETATM    4  C4  UNL     1       0.525   6.457  13.121  1.00  0.00     0.005 C 
HETATM    5  C5  UNL     1       0.043   7.764  13.627  1.00  0.00     0.062 C 
HETATM    6  C6  UNL     1       1.086   8.846  13.392  1.00  0.00     0.208 C 
HETATM    7  C7  UNL     1       2.283   8.336  14.199  1.00  0.00     0.074 C 
HETATM    8  N2  UNL     1       1.385   9.023  12.023  1.00  0.00    -0.304 N 
ATOM      9  H2  UNL     1       0.647   9.435  11.451  1.00  0.00     0.182 HD
HETATM   10  N3  UNL     1       2.423   8.740  11.443  1.00  0.00    -0.328 N 
ATOM     11  H3  UNL     1       2.506   8.923  10.443  1.00  0.00     0.180 HD
HETATM   12  C8  UNL     1       3.521   8.157  12.145  1.00  0.00     0.053 A 
HETATM   13  C9  UNL     1       4.724   8.963  12.404  1.00  0.00     0.036 A 
HETATM   14  C10 UNL     1       4.762   7.776  11.495  1.00  0.00     0.036 A 
ENDROOT
BRANCH   6  15
HETATM   15  N1  UNL     1       0.653  10.065  14.046  1.00  0.00    -0.051 N 
ATOM     16  H13 UNL     1       1.390  10.486  14.612  1.00  0.00     0.277 HD
ATOM     17  H12 UNL     1       0.522  10.833  13.388  1.00  0.00     0.277 HD
ATOM     18  H11 UNL     1      -0.189   9.868  14.587  1.00  0.00     0.277 HD
ENDBRANCH   6  15
TORSDOF 1
ENDMDL
MODEL 4
REMARK VINA RESULT: -4.833131240      1.844      2.744
REMARK  1 active torsions:
REMARK  status: ('A' for Active; 'I' for Inactive)
REMARK    1  A    between atoms: C6_6  and  N1_7 
ROOT
HETATM    1  C1  UNL     1       3.587  10.035  11.546  1.00  0.00     0.018 C 
HETATM    2  C2  UNL     1       2.649   9.373  12.527  1.00  0.00    -0.013 C 
HETATM    3  C3  UNL     1       2.516  10.097  13.810  1.00  0.00     0.012 C 
HETATM    4  C4  UNL     1       1.203  10.666  14.154  1.00  0.00     0.005 C 
HETATM    5  C5  UNL     1       0.004   9.990  13.607  1.00  0.00     0.062 C 
HETATM    6  C6  UNL     1       0.391   8.693  12.912  1.00  0.00     0.208 C 
HETATM    7  C7  UNL     1       1.322   9.178  11.797  1.00  0.00     0.074 C 
HETATM    8  N2  UNL     1       1.014   7.775  13.786  1.00  0.00    -0.304 N 
ATOM      9  H2  UNL     1       0.418   7.359  14.502  1.00  0.00     0.182 HD
HETATM   10  N3  UNL     1       2.184   7.421  13.784  1.00  0.00    -0.328 N 
ATOM     11  H3  UNL     1       2.505   6.745  14.478  1.00  0.00     0.180 HD
HETATM   12  C8  UNL     1       3.108   7.940  12.828  1.00  0.00     0.053 A 
HETATM   13  C9  UNL     1       3.589   7.072  11.742  1.00  0.00     0.036 A 
HETATM   14  C10 UNL     1       4.513   7.572  12.805  1.00  0.00     0.036 A 
ENDROOT
BRANCH   6  15
HETATM   15  N1  UNL     1      -0.778   8.150  12.250  1.00  0.00    -0.051 N 
ATOM     16  H13 UNL     1      -0.539   7.622  11.410  1.00  0.00     0.277 HD
ATOM     17  H12 UNL     1      -1.207   7.389  12.778  1.00  0.00     0.277 HD
ATOM     18  H11 UNL     1      -1.432   8.908  12.059  1.00  0.00     0.277 HD
ENDBRANCH   6  15
TORSDOF 1
ENDMDL
MODEL 5
REMARK VINA RESULT: -4.805164652      1.747      2.758
REMARK  1 active torsions:
REMARK  status: ('A' for Active; 'I' for Inactive)
REMARK    1  A    between atoms: C6_6  and  N1_7 
ROOT
HETATM    1  C1  UNL     1       3.901   7.144  11.103  1.00  0.00     0.018 C 
HETATM    2  C2  UNL     1       3.307   8.012  12.187  1.00  0.00    -0.013 C 
HETATM    3  C3  UNL     1       4.141   9.180  12.544  1.00  0.00     0.012 C 
HETATM    4  C4  UNL     1       3.607  10.524  12.275  1.00  0.00     0.005 C 
HETATM    5  C5  UNL     1       2.134  10.688  12.293  1.00  0.00     0.062 C 
HETATM    6  C6  UNL     1       1.461   9.412  12.774  1.00  0.00     0.208 C 
HETATM    7  C7  UNL     1       1.901   8.387  11.724  1.00  0.00     0.074 C 
HETATM    8  N2  UNL     1       1.848   9.054  14.084  1.00  0.00    -0.304 N 
ATOM      9  H2  UNL     1       1.514   9.660  14.834  1.00  0.00     0.182 HD
HETATM   10  N3  UNL     1       2.537   8.104  14.425  1.00  0.00    -0.328 N 
ATOM     11  H3  UNL     1       2.742   7.961  15.414  1.00  0.00     0.180 HD
HETATM   12  C8  UNL     1       3.058   7.191  13.460  1.00  0.00     0.053 A 
HETATM   13  C9  UNL     1       2.497   5.834  13.369  1.00  0.00     0.036 A 
HETATM   14  C10 UNL     1       3.906   6.065  13.813  1.00  0.00     0.036 A 
ENDROOT
BRANCH   6  15
HETATM   15  N1  UNL     1       0.026   9.552  12.619  1.00  0.00    -0.051 N 
ATOM     16  H13 UNL     1      -0.299   9.238  11.705  1.00  0.00     0.277 HD
ATOM     17  H12 UNL     1      -0.494   8.887  13.192  1.00  0.00     0.277 HD
ATOM     18  H11 UNL     1      -0.234  10.519  12.814  1.00  0.00     0.277 HD
ENDBRANCH   6  15
TORSDOF 1
ENDMDL
