MODEL 1
REMARK VINA RESULT: -6.599477385      0.000      0.000
REMARK  6 active torsions:
REMARK  status: ('A' for Active; 'I' for Inactive)
REMARK    1  A    between atoms: N1_2  and  C2_5 
REMARK    2  A    between atoms: C2_5  and  C3_6 
REMARK    3  A    between atoms: C3_6  and  S1_7 
REMARK    4  A    between atoms: S1_7  and  C4_8 
REMARK    5  A    between atoms: C4_8  and  C5_9 
REMARK    6  A    between atoms: C5_9  and  N2_10 
ROOT
HETATM    1  N2  UNL     1      16.405 -12.014  20.651  1.00  0.00    -0.041 N 
HETATM    2  C6  UNL     1      16.611 -11.513  19.329  1.00  0.00     0.286 A 
HETATM    3  C7  UNL     1      17.675 -11.204  20.348  1.00  0.00     0.295 A 
HETATM    4  C8  UNL     1      18.752 -12.038  20.475  1.00  0.00    -0.069 C 
HETATM    5  C9  UNL     1      19.424 -12.829  20.675  1.00  0.00    -0.085 C 
HETATM    6  C10 UNL     1      20.025 -14.105  21.129  1.00  0.00     0.220 C 
HETATM    7  N3  UNL     1      18.780 -14.568  21.933  1.00  0.00    -0.336 N 
HETATM    8  C11 UNL     1      18.374 -13.708  22.963  1.00  0.00     0.227 C 
HETATM    9  O1  UNL     1      18.589 -13.053  24.005  1.00  0.00    -0.273 OA
HETATM   10  C12 UNL     1      16.938 -13.607  22.435  1.00  0.00     0.112 C 
HETATM   11  C13 UNL     1      16.759 -15.111  22.828  1.00  0.00     0.041 C 
HETATM   12  C14 UNL     1      17.817 -15.635  21.801  1.00  0.00     0.090 C 
HETATM   13  C15 UNL     1      16.913 -15.682  20.599  1.00  0.00     0.043 C 
HETATM   14  C16 UNL     1      15.879 -14.521  20.565  1.00  0.00     0.092 C 
HETATM   15 BR1  UNL     1      15.310 -14.397  18.744  1.00  0.00    -0.089 Br
HETATM   16  C17 UNL     1      16.772 -13.350  21.015  1.00  0.00     0.219 C 
ENDROOT
BRANCH   1  17
HETATM   17  C5  UNL     1      15.599 -11.315  21.602  1.00  0.00     0.249 C 
BRANCH  17  18
HETATM   18  C4  UNL     1      14.100 -11.345  21.301  1.00  0.00     0.102 C 
BRANCH  18  19
HETATM   19  S1  UNL     1      13.584  -9.617  21.276  1.00  0.00    -0.166 SA
BRANCH  19  20
HETATM   20  C3  UNL     1      12.014  -9.303  22.019  1.00  0.00     0.101 C 
BRANCH  20  21
HETATM   21  C2  UNL     1      11.647 -10.022  23.255  1.00  0.00     0.242 C 
BRANCH  21  22
HETATM   22  N1  UNL     1      10.849  -9.345  24.224  1.00  0.00    -0.078 N 
HETATM   23  C1  UNL     1      11.517  -8.044  24.514  1.00  0.00     0.267 C 
ATOM     24  H12 UNL     1      10.679  -9.902  25.061  1.00  0.00     0.276 HD
ATOM     25  H11 UNL     1       9.876  -9.239  23.937  1.00  0.00     0.276 HD
ENDBRANCH  21  22
ENDBRANCH  20  21
ENDBRANCH  19  20
ENDBRANCH  18  19
ENDBRANCH  17  18
ENDBRANCH   1  17
TORSDOF 6
ENDMDL
MODEL 2
REMARK VINA RESULT: -6.563374624      2.309      3.284
REMARK  6 active torsions:
REMARK  status: ('A' for Active; 'I' for Inactive)
REMARK    1  A    between atoms: N1_2  and  C2_5 
REMARK    2  A    between atoms: C2_5  and  C3_6 
REMARK    3  A    between atoms: C3_6  and  S1_7 
REMARK    4  A    between atoms: S1_7  and  C4_8 
REMARK    5  A    between atoms: C4_8  and  C5_9 
REMARK    6  A    between atoms: C5_9  and  N2_10 
ROOT
HETATM    1  N2  UNL     1      15.394 -11.982  20.941  1.00  0.00    -0.041 N 
HETATM    2  C6  UNL     1      16.738 -11.499  20.964  1.00  0.00     0.286 A 
HETATM    3  C7  UNL     1      16.378 -12.557  21.973  1.00  0.00     0.295 A 
HETATM    4  C8  UNL     1      16.586 -13.875  21.674  1.00  0.00    -0.069 C 
HETATM    5  C9  UNL     1      16.560 -14.862  21.297  1.00  0.00    -0.085 C 
HETATM    6  C10 UNL     1      16.186 -16.098  20.570  1.00  0.00     0.220 C 
HETATM    7  N3  UNL     1      14.841 -15.542  20.029  1.00  0.00    -0.336 N 
HETATM    8  C11 UNL     1      13.922 -15.132  21.006  1.00  0.00     0.227 C 
HETATM    9  O1  UNL     1      13.231 -15.335  22.027  1.00  0.00    -0.273 OA
HETATM   10  C12 UNL     1      13.767 -13.732  20.402  1.00  0.00     0.112 C 
HETATM   11  C13 UNL     1      13.057 -14.411  19.183  1.00  0.00     0.041 C 
HETATM   12  C14 UNL     1      14.326 -15.203  18.725  1.00  0.00     0.090 C 
HETATM   13  C15 UNL     1      14.967 -14.097  17.931  1.00  0.00     0.043 C 
HETATM   14  C16 UNL     1      14.759 -12.691  18.562  1.00  0.00     0.092 C 
HETATM   15 BR1  UNL     1      16.123 -11.585  17.808  1.00  0.00    -0.089 Br
HETATM   16  C17 UNL     1      14.985 -13.024  20.048  1.00  0.00     0.219 C 
ENDROOT
BRANCH   1  17
HETATM   17  C5  UNL     1      14.337 -11.293  21.611  1.00  0.00     0.249 C 
BRANCH  17  18
HETATM   18  C4  UNL     1      14.174  -9.831  21.194  1.00  0.00     0.102 C 
BRANCH  18  19
HETATM   19  S1  UNL     1      12.420  -9.467  21.404  1.00  0.00    -0.166 SA
BRANCH  19  20
HETATM   20  C3  UNL     1      11.725 -10.030  22.925  1.00  0.00     0.101 C 
BRANCH  20  21
HETATM   21  C2  UNL     1      11.506  -9.063  24.019  1.00  0.00     0.242 C 
BRANCH  21  22
HETATM   22  N1  UNL     1      12.424  -7.982  24.165  1.00  0.00    -0.078 N 
HETATM   23  C1  UNL     1      11.704  -6.886  24.877  1.00  0.00     0.267 C 
ATOM     24  H12 UNL     1      12.833  -7.683  23.280  1.00  0.00     0.276 HD
ATOM     25  H11 UNL     1      13.293  -8.255  24.625  1.00  0.00     0.276 HD
ENDBRANCH  21  22
ENDBRANCH  20  21
ENDBRANCH  19  20
ENDBRANCH  18  19
ENDBRANCH  17  18
ENDBRANCH   1  17
TORSDOF 6
ENDMDL
MODEL 3
REMARK VINA RESULT: -6.251294686      1.331      1.812
REMARK  6 active torsions:
REMARK  status: ('A' for Active; 'I' for Inactive)
REMARK    1  A    between atoms: N1_2  and  C2_5 
REMARK    2  A    between atoms: C2_5  and  C3_6 
REMARK    3  A    between atoms: C3_6  and  S1_7 
REMARK    4  A    between atoms: S1_7  and  C4_8 
REMARK    5  A    between atoms: C4_8  and  C5_9 
REMARK    6  A    between atoms: C5_9  and  N2_10 
ROOT
HETATM    1  N2  UNL     1      16.149 -11.749  20.270  1.00  0.00    -0.041 N 
HETATM    2  C6  UNL     1      16.699 -11.143  19.099  1.00  0.00     0.286 A 
HETATM    3  C7  UNL     1      17.527 -11.073  20.354  1.00  0.00     0.295 A 
HETATM    4  C8  UNL     1      18.461 -12.041  20.602  1.00  0.00    -0.069 C 
HETATM    5  C9  UNL     1      18.991 -12.924  20.839  1.00  0.00    -0.085 C 
HETATM    6  C10 UNL     1      19.347 -14.305  21.246  1.00  0.00     0.220 C 
HETATM    7  N3  UNL     1      17.913 -14.692  21.697  1.00  0.00    -0.336 N 
HETATM    8  C11 UNL     1      17.366 -13.900  22.716  1.00  0.00     0.227 C 
HETATM    9  O1  UNL     1      17.400 -13.386  23.855  1.00  0.00    -0.273 OA
HETATM   10  C12 UNL     1      16.106 -13.570  21.908  1.00  0.00     0.112 C 
HETATM   11  C13 UNL     1      15.698 -15.074  22.058  1.00  0.00     0.041 C 
HETATM   12  C14 UNL     1      16.907 -15.614  21.225  1.00  0.00     0.090 C 
HETATM   13  C15 UNL     1      16.301 -15.426  19.861  1.00  0.00     0.043 C 
HETATM   14  C16 UNL     1      15.419 -14.150  19.754  1.00  0.00     0.092 C 
HETATM   15 BR1  UNL     1      15.295 -13.771  17.884  1.00  0.00    -0.089 Br
HETATM   16  C17 UNL     1      16.294 -13.150  20.530  1.00  0.00     0.219 C 
ENDROOT
BRANCH   1  17
HETATM   17  C5  UNL     1      15.219 -11.058  21.106  1.00  0.00     0.249 C 
BRANCH  17  18
HETATM   18  C4  UNL     1      14.010 -10.486  20.365  1.00  0.00     0.102 C 
BRANCH  18  19
HETATM   19  S1  UNL     1      13.189  -9.407  21.554  1.00  0.00    -0.166 SA
BRANCH  19  20
HETATM   20  C3  UNL     1      12.079 -10.226  22.654  1.00  0.00     0.101 C 
BRANCH  20  21
HETATM   21  C2  UNL     1      11.484 -11.515  22.248  1.00  0.00     0.242 C 
BRANCH  21  22
HETATM   22  N1  UNL     1      12.155 -12.719  22.611  1.00  0.00    -0.078 N 
HETATM   23  C1  UNL     1      12.293 -13.537  21.372  1.00  0.00     0.267 C 
ATOM     24  H12 UNL     1      11.694 -13.220  23.371  1.00  0.00     0.276 HD
ATOM     25  H11 UNL     1      13.044 -12.555  23.083  1.00  0.00     0.276 HD
ENDBRANCH  21  22
ENDBRANCH  20  21
ENDBRANCH  19  20
ENDBRANCH  18  19
ENDBRANCH  17  18
ENDBRANCH   1  17
TORSDOF 6
ENDMDL
MODEL 4
REMARK VINA RESULT: -6.029674579      3.443      5.270
REMARK  6 active torsions:
REMARK  status: ('A' for Active; 'I' for Inactive)
REMARK    1  A    between atoms: N1_2  and  C2_5 
REMARK    2  A    between atoms: C2_5  and  C3_6 
REMARK    3  A    between atoms: C3_6  and  S1_7 
REMARK    4  A    between atoms: S1_7  and  C4_8 
REMARK    5  A    between atoms: C4_8  and  C5_9 
REMARK    6  A    between atoms: C5_9  and  N2_10 
ROOT
HETATM    1  N2  UNL     1      19.690 -14.005  22.521  1.00  0.00    -0.041 N 
HETATM    2  C6  UNL     1      18.857 -15.139  22.272  1.00  0.00     0.286 A 
HETATM    3  C7  UNL     1      20.332 -15.310  22.024  1.00  0.00     0.295 A 
HETATM    4  C8  UNL     1      21.132 -15.798  23.020  1.00  0.00    -0.069 C 
HETATM    5  C9  UNL     1      21.716 -15.958  23.886  1.00  0.00    -0.085 C 
HETATM    6  C10 UNL     1      22.432 -15.783  25.172  1.00  0.00     0.220 C 
HETATM    7  N3  UNL     1      22.186 -14.253  25.263  1.00  0.00    -0.336 N 
HETATM    8  C11 UNL     1      22.694 -13.496  24.198  1.00  0.00     0.227 C 
HETATM    9  O1  UNL     1      23.623 -13.128  23.448  1.00  0.00    -0.273 OA
HETATM   10  C12 UNL     1      21.342 -12.837  23.903  1.00  0.00     0.112 C 
HETATM   11  C13 UNL     1      21.485 -12.087  25.270  1.00  0.00     0.041 C 
HETATM   12  C14 UNL     1      21.423 -13.391  26.133  1.00  0.00     0.090 C 
HETATM   13  C15 UNL     1      19.924 -13.516  26.184  1.00  0.00     0.043 C 
HETATM   14  C16 UNL     1      19.228 -13.078  24.865  1.00  0.00     0.092 C 
HETATM   15 BR1  UNL     1      17.498 -13.890  24.907  1.00  0.00    -0.089 Br
HETATM   16  C17 UNL     1      20.181 -13.708  23.834  1.00  0.00     0.219 C 
ENDROOT
BRANCH   1  17
HETATM   17  C5  UNL     1      19.869 -12.975  21.547  1.00  0.00     0.249 C 
BRANCH  17  18
HETATM   18  C4  UNL     1      18.735 -11.950  21.499  1.00  0.00     0.102 C 
BRANCH  18  19
HETATM   19  S1  UNL     1      18.430 -11.658  19.746  1.00  0.00    -0.166 SA
BRANCH  19  20
HETATM   20  C3  UNL     1      16.751 -11.298  19.338  1.00  0.00     0.101 C 
BRANCH  20  21
HETATM   21  C2  UNL     1      15.799 -10.980  20.420  1.00  0.00     0.242 C 
BRANCH  21  22
HETATM   22  N1  UNL     1      15.331  -9.639  20.542  1.00  0.00    -0.078 N 
HETATM   23  C1  UNL     1      14.038  -9.691  21.285  1.00  0.00     0.267 C 
ATOM     24  H12 UNL     1      15.257  -9.158  19.646  1.00  0.00     0.276 HD
ATOM     25  H11 UNL     1      16.013  -9.014  20.971  1.00  0.00     0.276 HD
ENDBRANCH  21  22
ENDBRANCH  20  21
ENDBRANCH  19  20
ENDBRANCH  18  19
ENDBRANCH  17  18
ENDBRANCH   1  17
TORSDOF 6
ENDMDL
MODEL 5
REMARK VINA RESULT: -6.013793594      4.071      5.900
REMARK  6 active torsions:
REMARK  status: ('A' for Active; 'I' for Inactive)
REMARK    1  A    between atoms: N1_2  and  C2_5 
REMARK    2  A    between atoms: C2_5  and  C3_6 
REMARK    3  A    between atoms: C3_6  and  S1_7 
REMARK    4  A    between atoms: S1_7  and  C4_8 
REMARK    5  A    between atoms: C4_8  and  C5_9 
REMARK    6  A    between atoms: C5_9  and  N2_10 
ROOT
HETATM    1  N2  UNL     1      14.407 -14.423  19.631  1.00  0.00    -0.041 N 
HETATM    2  C6  UNL     1      14.875 -15.508  18.826  1.00  0.00     0.286 A 
HETATM    3  C7  UNL     1      14.275 -14.333  18.102  1.00  0.00     0.295 A 
HETATM    4  C8  UNL     1      15.087 -13.323  17.664  1.00  0.00    -0.069 C 
HETATM    5  C9  UNL     1      15.727 -12.488  17.558  1.00  0.00    -0.085 C 
HETATM    6  C10 UNL     1      16.565 -11.295  17.823  1.00  0.00     0.220 C 
HETATM    7  N3  UNL     1      16.136 -11.149  19.308  1.00  0.00    -0.336 N 
HETATM    8  C11 UNL     1      14.763 -10.965  19.524  1.00  0.00     0.227 C 
HETATM    9  O1  UNL     1      13.685 -10.363  19.333  1.00  0.00    -0.273 OA
HETATM   10  C12 UNL     1      14.666 -12.146  20.497  1.00  0.00     0.112 C 
HETATM   11  C13 UNL     1      15.530 -11.306  21.496  1.00  0.00     0.041 C 
HETATM   12  C14 UNL     1      16.800 -11.293  20.581  1.00  0.00     0.090 C 
HETATM   13  C15 UNL     1      17.348 -12.632  20.993  1.00  0.00     0.043 C 
HETATM   14  C16 UNL     1      16.242 -13.690  21.263  1.00  0.00     0.092 C 
HETATM   15 BR1  UNL     1      17.114 -15.386  21.134  1.00  0.00    -0.089 Br
HETATM   16  C17 UNL     1      15.291 -13.393  20.090  1.00  0.00     0.219 C 
ENDROOT
BRANCH   1  17
HETATM   17  C5  UNL     1      13.110 -14.437  20.229  1.00  0.00     0.249 C 
BRANCH  17  18
HETATM   18  C4  UNL     1      12.923 -15.510  21.302  1.00  0.00     0.102 C 
BRANCH  18  19
HETATM   19  S1  UNL     1      11.572 -16.547  20.709  1.00  0.00    -0.166 SA
BRANCH  19  20
HETATM   20  C3  UNL     1      11.477 -16.707  18.955  1.00  0.00     0.101 C 
BRANCH  20  21
HETATM   21  C2  UNL     1      10.343 -16.094  18.236  1.00  0.00     0.242 C 
BRANCH  21  22
HETATM   22  N1  UNL     1       9.886 -16.709  17.034  1.00  0.00    -0.078 N 
HETATM   23  C1  UNL     1      10.680 -17.958  16.849  1.00  0.00     0.267 C 
ATOM     24  H12 UNL     1       9.926 -16.087  16.226  1.00  0.00     0.276 HD
ATOM     25  H11 UNL     1       8.879 -16.871  17.025  1.00  0.00     0.276 HD
ENDBRANCH  21  22
ENDBRANCH  20  21
ENDBRANCH  19  20
ENDBRANCH  18  19
ENDBRANCH  17  18
ENDBRANCH   1  17
TORSDOF 6
ENDMDL
