MODEL 1
REMARK VINA RESULT: -6.519235312      0.000      0.000
REMARK  8 active torsions:
REMARK  status: ('A' for Active; 'I' for Inactive)
REMARK    1  A    between atoms: C2_2  and  C3_3 
REMARK    2  A    between atoms: C3_3  and  C4_4 
REMARK    3  A    between atoms: C4_4  and  N1_5 
REMARK    4  A    between atoms: N2_8  and  C7_9 
REMARK    5  A    between atoms: C7_9  and  C8_10 
REMARK    6  A    between atoms: C8_10  and  N3_11 
REMARK    7  A    between atoms: C17_22  and  C18_23 
REMARK    8  A    between atoms: C18_23  and  O2_24 
ROOT
HETATM    1  N1  UNL     1      14.488 -11.338  20.217  1.00  0.00    -0.052 N 
HETATM    2  C5  UNL     1      14.046 -12.205  21.281  1.00  0.00     0.266 C 
HETATM    3  C6  UNL     1      15.104 -13.074  21.860  1.00  0.00     0.265 C 
HETATM    4  N2  UNL     1      16.411 -12.839  21.323  1.00  0.00    -0.062 N 
HETATM    5  C12 UNL     1      16.698 -11.419  21.309  1.00  0.00     0.265 C 
HETATM    6  C13 UNL     1      15.711 -10.605  20.585  1.00  0.00     0.266 C 
HETATM    7  C14 UNL     1      16.561 -13.464  20.058  1.00  0.00     0.245 C 
HETATM    8  C15 UNL     1      15.876 -12.899  18.905  1.00  0.00     0.053 A 
HETATM    9  C16 UNL     1      14.413 -13.410  18.731  1.00  0.00     0.051 A 
HETATM   10  C17 UNL     1      14.778 -11.999  18.986  1.00  0.00     0.156 A 
ENDROOT
BRANCH   4  11
HETATM   11  C7  UNL     1      17.429 -13.370  22.232  1.00  0.00     0.257 C 
BRANCH  11  12
HETATM   12  C8  UNL     1      18.726 -12.640  22.153  1.00  0.00     0.155 C 
BRANCH  12  13
HETATM   13  N3  UNL     1      19.441 -12.889  23.393  1.00  0.00    -0.336 N 
HETATM   14  C9  UNL     1      20.819 -12.847  23.814  1.00  0.00     0.223 C 
HETATM   15  O1  UNL     1      21.888 -13.063  23.227  1.00  0.00    -0.273 OA
HETATM   16  C10 UNL     1      20.331 -12.456  25.150  1.00  0.00     0.140 C 
HETATM   17  C11 UNL     1      19.120 -13.286  24.755  1.00  0.00     0.168 C 
HETATM   18 BR1  UNL     1      19.401 -15.171  25.014  1.00  0.00    -0.068 Br
ENDBRANCH  12  13
ENDBRANCH  11  12
ENDBRANCH   4  11
BRANCH   1  19
HETATM   19  C4  UNL     1      13.486 -10.298  20.090  1.00  0.00     0.238 C 
BRANCH  19  20
HETATM   20  C3  UNL     1      13.484  -9.329  21.231  1.00  0.00     0.028 C 
BRANCH  20  21
HETATM   21  C2  UNL     1      12.024  -9.155  21.654  1.00  0.00    -0.003 C 
HETATM   22  C1  UNL     1      11.966  -9.169  23.181  1.00  0.00     0.005 C 
ENDBRANCH  20  21
ENDBRANCH  19  20
ENDBRANCH   1  19
BRANCH  10  23
HETATM   23  C18 UNL     1      14.551 -11.082  17.769  1.00  0.00     0.203 C 
BRANCH  23  24
HETATM   24  O2  UNL     1      15.841 -10.756  17.284  1.00  0.00    -0.398 OA
ATOM     25  H2  UNL     1      15.858 -11.042  16.379  1.00  0.00     0.209 HD
ENDBRANCH  23  24
ENDBRANCH  10  23
TORSDOF 8
ENDMDL
MODEL 2
REMARK VINA RESULT: -6.458876697      3.073      6.575
REMARK  8 active torsions:
REMARK  status: ('A' for Active; 'I' for Inactive)
REMARK    1  A    between atoms: C2_2  and  C3_3 
REMARK    2  A    between atoms: C3_3  and  C4_4 
REMARK    3  A    between atoms: C4_4  and  N1_5 
REMARK    4  A    between atoms: N2_8  and  C7_9 
REMARK    5  A    between atoms: C7_9  and  C8_10 
REMARK    6  A    between atoms: C8_10  and  N3_11 
REMARK    7  A    between atoms: C17_22  and  C18_23 
REMARK    8  A    between atoms: C18_23  and  O2_24 
ROOT
HETATM    1  N1  UNL     1      19.453 -12.863  22.032  1.00  0.00    -0.052 N 
HETATM    2  C5  UNL     1      18.469 -12.711  23.075  1.00  0.00     0.266 C 
HETATM    3  C6  UNL     1      17.110 -13.202  22.729  1.00  0.00     0.265 C 
HETATM    4  N2  UNL     1      17.026 -13.831  21.444  1.00  0.00    -0.062 N 
HETATM    5  C12 UNL     1      18.103 -14.787  21.284  1.00  0.00     0.265 C 
HETATM    6  C13 UNL     1      19.448 -14.226  21.474  1.00  0.00     0.266 C 
HETATM    7  C14 UNL     1      16.962 -12.864  20.408  1.00  0.00     0.245 C 
HETATM    8  C15 UNL     1      18.159 -12.109  20.072  1.00  0.00     0.053 A 
HETATM    9  C16 UNL     1      18.362 -10.831  20.942  1.00  0.00     0.051 A 
HETATM   10  C17 UNL     1      19.292 -11.982  20.921  1.00  0.00     0.156 A 
ENDROOT
BRANCH   4  11
HETATM   11  C7  UNL     1      15.829 -14.672  21.375  1.00  0.00     0.257 C 
BRANCH  11  12
HETATM   12  C8  UNL     1      14.978 -14.388  20.185  1.00  0.00     0.155 C 
BRANCH  12  13
HETATM   13  N3  UNL     1      13.857 -13.580  20.635  1.00  0.00    -0.336 N 
HETATM   14  C9  UNL     1      12.426 -13.617  20.462  1.00  0.00     0.223 C 
HETATM   15  O1  UNL     1      11.697 -14.004  19.538  1.00  0.00    -0.273 OA
HETATM   16  C10 UNL     1      12.314 -13.022  21.807  1.00  0.00     0.140 C 
HETATM   17  C11 UNL     1      13.650 -12.390  21.444  1.00  0.00     0.168 C 
HETATM   18 BR1  UNL     1      13.450 -10.826  20.343  1.00  0.00    -0.068 Br
ENDBRANCH  12  13
ENDBRANCH  11  12
ENDBRANCH   4  11
BRANCH   1  19
HETATM   19  C4  UNL     1      20.750 -12.755  22.669  1.00  0.00     0.238 C 
BRANCH  19  20
HETATM   20  C3  UNL     1      20.794 -13.358  24.040  1.00  0.00     0.028 C 
BRANCH  20  21
HETATM   21  C2  UNL     1      21.671 -12.440  24.893  1.00  0.00    -0.003 C 
HETATM   22  C1  UNL     1      20.822 -11.913  26.049  1.00  0.00     0.005 C 
ENDBRANCH  20  21
ENDBRANCH  19  20
ENDBRANCH   1  19
BRANCH  10  23
HETATM   23  C18 UNL     1      20.634 -11.666  20.233  1.00  0.00     0.203 C 
BRANCH  23  24
HETATM   24  O2  UNL     1      20.349 -11.583  18.849  1.00  0.00    -0.398 OA
ATOM     25  H2  UNL     1      21.098 -11.153  18.455  1.00  0.00     0.209 HD
ENDBRANCH  23  24
ENDBRANCH  10  23
TORSDOF 8
ENDMDL
MODEL 3
REMARK VINA RESULT: -6.396671652      1.329      1.791
REMARK  8 active torsions:
REMARK  status: ('A' for Active; 'I' for Inactive)
REMARK    1  A    between atoms: C2_2  and  C3_3 
REMARK    2  A    between atoms: C3_3  and  C4_4 
REMARK    3  A    between atoms: C4_4  and  N1_5 
REMARK    4  A    between atoms: N2_8  and  C7_9 
REMARK    5  A    between atoms: C7_9  and  C8_10 
REMARK    6  A    between atoms: C8_10  and  N3_11 
REMARK    7  A    between atoms: C17_22  and  C18_23 
REMARK    8  A    between atoms: C18_23  and  O2_24 
ROOT
HETATM    1  N1  UNL     1      14.475 -12.432  20.524  1.00  0.00    -0.052 N 
HETATM    2  C5  UNL     1      14.848 -13.748  20.068  1.00  0.00     0.266 C 
HETATM    3  C6  UNL     1      16.286 -14.082  20.234  1.00  0.00     0.265 C 
HETATM    4  N2  UNL     1      17.047 -13.072  20.906  1.00  0.00    -0.062 N 
HETATM    5  C12 UNL     1      16.357 -12.640  22.104  1.00  0.00     0.265 C 
HETATM    6  C13 UNL     1      14.987 -12.160  21.877  1.00  0.00     0.266 C 
HETATM    7  C14 UNL     1      17.375 -12.011  20.022  1.00  0.00     0.245 C 
HETATM    8  C15 UNL     1      16.330 -11.089  19.606  1.00  0.00     0.053 A 
HETATM    9  C16 UNL     1      15.523 -11.573  18.362  1.00  0.00     0.051 A 
HETATM   10  C17 UNL     1      14.938 -11.359  19.704  1.00  0.00     0.156 A 
ENDROOT
BRANCH   4  11
HETATM   11  C7  UNL     1      18.288 -13.645  21.431  1.00  0.00     0.257 C 
BRANCH  11  12
HETATM   12  C8  UNL     1      19.321 -12.620  21.753  1.00  0.00     0.155 C 
BRANCH  12  13
HETATM   13  N3  UNL     1      19.788 -12.881  23.103  1.00  0.00    -0.336 N 
HETATM   14  C9  UNL     1      21.068 -12.886  23.767  1.00  0.00     0.223 C 
HETATM   15  O1  UNL     1      22.216 -13.149  23.384  1.00  0.00    -0.273 OA
HETATM   16  C10 UNL     1      20.362 -12.463  24.990  1.00  0.00     0.140 C 
HETATM   17  C11 UNL     1      19.210 -13.252  24.385  1.00  0.00     0.168 C 
HETATM   18 BR1  UNL     1      19.367 -15.143  24.699  1.00  0.00    -0.068 Br
ENDBRANCH  12  13
ENDBRANCH  11  12
ENDBRANCH   4  11
BRANCH   1  19
HETATM   19  C4  UNL     1      13.036 -12.447  20.694  1.00  0.00     0.238 C 
BRANCH  19  20
HETATM   20  C3  UNL     1      12.605 -12.442  22.128  1.00  0.00     0.028 C 
BRANCH  20  21
HETATM   21  C2  UNL     1      11.412 -11.489  22.222  1.00  0.00    -0.003 C 
HETATM   22  C1  UNL     1      11.908 -10.164  22.802  1.00  0.00     0.005 C 
ENDBRANCH  20  21
ENDBRANCH  19  20
ENDBRANCH   1  19
BRANCH  10  23
HETATM   23  C18 UNL     1      14.004 -10.134  19.772  1.00  0.00     0.203 C 
BRANCH  23  24
HETATM   24  O2  UNL     1      14.682  -9.175  20.562  1.00  0.00    -0.398 OA
ATOM     25  H2  UNL     1      14.580  -9.461  21.462  1.00  0.00     0.209 HD
ENDBRANCH  23  24
ENDBRANCH  10  23
TORSDOF 8
ENDMDL
MODEL 4
REMARK VINA RESULT: -6.361181847      2.761      7.142
REMARK  8 active torsions:
REMARK  status: ('A' for Active; 'I' for Inactive)
REMARK    1  A    between atoms: C2_2  and  C3_3 
REMARK    2  A    between atoms: C3_3  and  C4_4 
REMARK    3  A    between atoms: C4_4  and  N1_5 
REMARK    4  A    between atoms: N2_8  and  C7_9 
REMARK    5  A    between atoms: C7_9  and  C8_10 
REMARK    6  A    between atoms: C8_10  and  N3_11 
REMARK    7  A    between atoms: C17_22  and  C18_23 
REMARK    8  A    between atoms: C18_23  and  O2_24 
ROOT
HETATM    1  N1  UNL     1      19.541 -14.129  23.263  1.00  0.00    -0.052 N 
HETATM    2  C5  UNL     1      19.982 -13.292  22.175  1.00  0.00     0.266 C 
HETATM    3  C6  UNL     1      18.950 -13.012  21.144  1.00  0.00     0.265 C 
HETATM    4  N2  UNL     1      17.657 -13.548  21.451  1.00  0.00    -0.062 N 
HETATM    5  C12 UNL     1      17.292 -13.223  22.815  1.00  0.00     0.265 C 
HETATM    6  C13 UNL     1      18.263 -13.662  23.826  1.00  0.00     0.266 C 
HETATM    7  C14 UNL     1      17.600 -14.935  21.160  1.00  0.00     0.245 C 
HETATM    8  C15 UNL     1      18.304 -15.868  22.026  1.00  0.00     0.053 A 
HETATM    9  C16 UNL     1      19.800 -16.080  21.640  1.00  0.00     0.051 A 
HETATM   10  C17 UNL     1      19.344 -15.501  22.923  1.00  0.00     0.156 A 
ENDROOT
BRANCH   4  11
HETATM   11  C7  UNL     1      16.630 -12.861  20.664  1.00  0.00     0.257 C 
BRANCH  11  12
HETATM   12  C8  UNL     1      16.257 -11.529  21.219  1.00  0.00     0.155 C 
BRANCH  12  13
HETATM   13  N3  UNL     1      14.848 -11.319  20.936  1.00  0.00    -0.336 N 
HETATM   14  C9  UNL     1      14.043 -11.194  19.745  1.00  0.00     0.223 C 
HETATM   15  O1  UNL     1      14.274 -10.744  18.615  1.00  0.00    -0.273 OA
HETATM   16  C10 UNL     1      12.941 -11.812  20.505  1.00  0.00     0.140 C 
HETATM   17  C11 UNL     1      13.617 -11.142  21.691  1.00  0.00     0.168 C 
HETATM   18 BR1  UNL     1      13.158  -9.281  21.845  1.00  0.00    -0.068 Br
ENDBRANCH  12  13
ENDBRANCH  11  12
ENDBRANCH   4  11
BRANCH   1  19
HETATM   19  C4  UNL     1      20.487 -13.935  24.344  1.00  0.00     0.238 C 
BRANCH  19  20
HETATM   20  C3  UNL     1      21.647 -13.063  23.972  1.00  0.00     0.028 C 
BRANCH  20  21
HETATM   21  C2  UNL     1      22.067 -12.328  25.246  1.00  0.00    -0.003 C 
HETATM   22  C1  UNL     1      20.801 -11.948  26.014  1.00  0.00     0.005 C 
ENDBRANCH  20  21
ENDBRANCH  19  20
ENDBRANCH   1  19
BRANCH  10  23
HETATM   23  C18 UNL     1      19.574 -16.436  24.127  1.00  0.00     0.203 C 
BRANCH  23  24
HETATM   24  O2  UNL     1      18.380 -17.182  24.270  1.00  0.00    -0.398 OA
ATOM     25  H2  UNL     1      18.636 -18.010  24.659  1.00  0.00     0.209 HD
ENDBRANCH  23  24
ENDBRANCH  10  23
TORSDOF 8
ENDMDL
MODEL 5
REMARK VINA RESULT: -6.355778751      1.671      3.450
REMARK  8 active torsions:
REMARK  status: ('A' for Active; 'I' for Inactive)
REMARK    1  A    between atoms: C2_2  and  C3_3 
REMARK    2  A    between atoms: C3_3  and  C4_4 
REMARK    3  A    between atoms: C4_4  and  N1_5 
REMARK    4  A    between atoms: N2_8  and  C7_9 
REMARK    5  A    between atoms: C7_9  and  C8_10 
REMARK    6  A    between atoms: C8_10  and  N3_11 
REMARK    7  A    between atoms: C17_22  and  C18_23 
REMARK    8  A    between atoms: C18_23  and  O2_24 
ROOT
HETATM    1  N1  UNL     1      15.763 -11.913  19.056  1.00  0.00    -0.052 N 
HETATM    2  C5  UNL     1      17.143 -11.509  18.959  1.00  0.00     0.266 C 
HETATM    3  C6  UNL     1      18.020 -12.014  20.047  1.00  0.00     0.265 C 
HETATM    4  N2  UNL     1      17.364 -12.897  20.964  1.00  0.00    -0.062 N 
HETATM    5  C12 UNL     1      16.613 -13.902  20.241  1.00  0.00     0.265 C 
HETATM    6  C13 UNL     1      15.635 -13.362  19.286  1.00  0.00     0.266 C 
HETATM    7  C14 UNL     1      16.586 -12.169  21.902  1.00  0.00     0.245 C 
HETATM    8  C15 UNL     1      15.349 -11.545  21.460  1.00  0.00     0.053 A 
HETATM    9  C16 UNL     1      15.543 -10.120  20.857  1.00  0.00     0.051 A 
HETATM   10  C17 UNL     1      15.024 -11.281  20.101  1.00  0.00     0.156 A 
ENDROOT
BRANCH   4  11
HETATM   11  C7  UNL     1      18.356 -13.690  21.693  1.00  0.00     0.257 C 
BRANCH  11  12
HETATM   12  C8  UNL     1      19.686 -13.024  21.792  1.00  0.00     0.155 C 
BRANCH  12  13
HETATM   13  N3  UNL     1      20.088 -13.062  23.187  1.00  0.00    -0.336 N 
HETATM   14  C9  UNL     1      21.329 -12.907  23.906  1.00  0.00     0.223 C 
HETATM   15  O1  UNL     1      22.506 -13.166  23.623  1.00  0.00    -0.273 OA
HETATM   16  C10 UNL     1      20.538 -12.345  25.017  1.00  0.00     0.140 C 
HETATM   17  C11 UNL     1      19.456 -13.270  24.480  1.00  0.00     0.168 C 
HETATM   18 BR1  UNL     1      19.674 -15.084  25.079  1.00  0.00    -0.068 Br
ENDBRANCH  12  13
ENDBRANCH  11  12
ENDBRANCH   4  11
BRANCH   1  19
HETATM   19  C4  UNL     1      15.182 -11.718  17.743  1.00  0.00     0.238 C 
BRANCH  19  20
HETATM   20  C3  UNL     1      15.511 -12.814  16.776  1.00  0.00     0.028 C 
BRANCH  20  21
HETATM   21  C2  UNL     1      15.864 -12.136  15.451  1.00  0.00    -0.003 C 
HETATM   22  C1  UNL     1      15.423 -10.675  15.533  1.00  0.00     0.005 C 
ENDBRANCH  20  21
ENDBRANCH  19  20
ENDBRANCH   1  19
BRANCH  10  23
HETATM   23  C18 UNL     1      13.525 -11.166  19.764  1.00  0.00     0.203 C 
BRANCH  23  24
HETATM   24  O2  UNL     1      13.243  -9.779  19.725  1.00  0.00    -0.398 OA
ATOM     25  H2  UNL     1      12.651  -9.615  20.449  1.00  0.00     0.209 HD
ENDBRANCH  23  24
ENDBRANCH  10  23
TORSDOF 8
ENDMDL
