MODEL 1
REMARK VINA RESULT: -6.847373979      0.000      0.000
REMARK  7 active torsions:
REMARK  status: ('A' for Active; 'I' for Inactive)
REMARK    1  A    between atoms: C3_5  and  C4_6 
REMARK    2  A    between atoms: N2_8  and  C5_9 
REMARK    3  A    between atoms: C5_9  and  C6_10 
REMARK    4  A    between atoms: C6_10  and  N3_11 
REMARK    5  A    between atoms: C13_18  and  C14_19 
REMARK    6  A    between atoms: C14_19  and  C15_20 
REMARK    7  A    between atoms: C15_20  and  N4_21 
ROOT
HETATM    1  C1  UNL     1      14.571  -9.719  20.871  1.00  0.00     0.155 C 
HETATM    2  N1  UNL     1      15.312 -10.934  20.604  1.00  0.00    -0.333 N 
HETATM    3  C2  UNL     1      16.286 -11.140  19.614  1.00  0.00     0.244 C 
HETATM    4  O1  UNL     1      16.355 -10.600  18.453  1.00  0.00    -0.271 OA
HETATM    5  C3  UNL     1      17.246 -12.137  20.208  1.00  0.00     0.187 C 
HETATM    6  N2  UNL     1      16.505 -12.729  21.249  1.00  0.00    -0.356 N 
HETATM    7  C13 UNL     1      15.187 -12.234  21.296  1.00  0.00     0.190 C 
ENDROOT
BRANCH   6   8
HETATM    8  C5  UNL     1      16.765 -14.057  21.628  1.00  0.00     0.089 C 
BRANCH   8   9
HETATM    9  C6  UNL     1      18.244 -14.390  21.663  1.00  0.00     0.281 C 
BRANCH   9  10
HETATM   10  N3  UNL     1      18.775 -14.387  23.005  1.00  0.00    -0.067 N 
HETATM   11  C7  UNL     1      19.016 -15.740  23.469  1.00  0.00     0.272 C 
HETATM   12  C8  UNL     1      17.926 -13.739  23.971  1.00  0.00     0.237 C 
HETATM   13  C9  UNL     1      18.590 -13.883  25.331  1.00  0.00     0.028 C 
HETATM   14  C10 UNL     1      19.956 -13.261  25.385  1.00  0.00     0.003 C 
HETATM   15  C11 UNL     1      20.282 -12.719  24.008  1.00  0.00     0.028 C 
HETATM   16  C12 UNL     1      20.086 -13.748  22.934  1.00  0.00     0.237 C 
ENDBRANCH   9  10
ENDBRANCH   8   9
ENDBRANCH   6   8
BRANCH   5  17
HETATM   17  C4  UNL     1      18.361 -11.275  20.771  1.00  0.00     0.120 C 
HETATM   18 BR1  UNL     1      20.016 -11.560  19.824  1.00  0.00    -0.094 Br
ENDBRANCH   5  17
BRANCH   7  19
HETATM   19  C14 UNL     1      14.120 -12.938  20.545  1.00  0.00     0.066 C 
BRANCH  19  20
HETATM   20  C15 UNL     1      12.883 -13.332  21.250  1.00  0.00     0.125 C 
BRANCH  20  21
HETATM   21  N4  UNL     1      13.177 -14.666  21.836  1.00  0.00    -0.367 N 
HETATM   22  C16 UNL     1      12.709 -15.743  21.349  1.00  0.00     0.196 C 
HETATM   23  N5  UNL     1      13.061 -16.961  21.995  1.00  0.00    -0.067 NA
HETATM   24  N6  UNL     1      11.873 -15.718  20.213  1.00  0.00    -0.067 NA
ATOM     25  H4  UNL     1      13.776 -14.719  22.660  1.00  0.00     0.161 HD
ENDBRANCH  20  21
ENDBRANCH  19  20
ENDBRANCH   7  19
TORSDOF 7
ENDMDL
MODEL 2
REMARK VINA RESULT: -6.789721314      1.319      1.772
REMARK  7 active torsions:
REMARK  status: ('A' for Active; 'I' for Inactive)
REMARK    1  A    between atoms: C3_5  and  C4_6 
REMARK    2  A    between atoms: N2_8  and  C5_9 
REMARK    3  A    between atoms: C5_9  and  C6_10 
REMARK    4  A    between atoms: C6_10  and  N3_11 
REMARK    5  A    between atoms: C13_18  and  C14_19 
REMARK    6  A    between atoms: C14_19  and  C15_20 
REMARK    7  A    between atoms: C15_20  and  N4_21 
ROOT
HETATM    1  C1  UNL     1      14.760 -10.313  20.840  1.00  0.00     0.155 C 
HETATM    2  N1  UNL     1      15.742 -11.323  20.500  1.00  0.00    -0.333 N 
HETATM    3  C2  UNL     1      16.678 -11.285  19.456  1.00  0.00     0.244 C 
HETATM    4  O1  UNL     1      16.557 -10.726  18.309  1.00  0.00    -0.271 OA
HETATM    5  C3  UNL     1      17.872 -12.047  19.970  1.00  0.00     0.187 C 
HETATM    6  N2  UNL     1      17.345 -12.809  21.030  1.00  0.00    -0.356 N 
HETATM    7  C13 UNL     1      15.954 -12.628  21.161  1.00  0.00     0.190 C 
ENDROOT
BRANCH   6   8
HETATM    8  C5  UNL     1      17.920 -14.050  21.357  1.00  0.00     0.089 C 
BRANCH   8   9
HETATM    9  C6  UNL     1      17.900 -14.343  22.845  1.00  0.00     0.281 C 
BRANCH   9  10
HETATM   10  N3  UNL     1      19.214 -14.265  23.437  1.00  0.00    -0.067 N 
HETATM   11  C7  UNL     1      20.236 -14.653  22.483  1.00  0.00     0.272 C 
HETATM   12  C8  UNL     1      19.379 -15.086  24.609  1.00  0.00     0.237 C 
HETATM   13  C9  UNL     1      20.822 -14.945  25.065  1.00  0.00     0.028 C 
HETATM   14  C10 UNL     1      21.197 -13.531  25.400  1.00  0.00     0.003 C 
HETATM   15  C11 UNL     1      20.000 -12.645  25.116  1.00  0.00     0.028 C 
HETATM   16  C12 UNL     1      19.457 -12.856  23.733  1.00  0.00     0.237 C 
ENDBRANCH   9  10
ENDBRANCH   8   9
ENDBRANCH   6   8
BRANCH   5  17
HETATM   17  C4  UNL     1      18.793 -10.963  20.499  1.00  0.00     0.120 C 
HETATM   18 BR1  UNL     1      20.639 -11.358  20.110  1.00  0.00    -0.094 Br
ENDBRANCH   5  17
BRANCH   7  19
HETATM   19  C14 UNL     1      15.033 -13.545  20.446  1.00  0.00     0.066 C 
BRANCH  19  20
HETATM   20  C15 UNL     1      14.051 -14.330  21.222  1.00  0.00     0.125 C 
BRANCH  20  21
HETATM   21  N4  UNL     1      13.256 -13.324  21.975  1.00  0.00    -0.367 N 
HETATM   22  C16 UNL     1      12.190 -12.812  21.511  1.00  0.00     0.196 C 
HETATM   23  N5  UNL     1      11.513 -11.860  22.323  1.00  0.00    -0.067 NA
HETATM   24  N6  UNL     1      11.708 -13.179  20.237  1.00  0.00    -0.067 NA
ATOM     25  H4  UNL     1      13.579 -13.035  22.898  1.00  0.00     0.161 HD
ENDBRANCH  20  21
ENDBRANCH  19  20
ENDBRANCH   7  19
TORSDOF 7
ENDMDL
MODEL 3
REMARK VINA RESULT: -6.730515902      1.729      2.291
REMARK  7 active torsions:
REMARK  status: ('A' for Active; 'I' for Inactive)
REMARK    1  A    between atoms: C3_5  and  C4_6 
REMARK    2  A    between atoms: N2_8  and  C5_9 
REMARK    3  A    between atoms: C5_9  and  C6_10 
REMARK    4  A    between atoms: C6_10  and  N3_11 
REMARK    5  A    between atoms: C13_18  and  C14_19 
REMARK    6  A    between atoms: C14_19  and  C15_20 
REMARK    7  A    between atoms: C15_20  and  N4_21 
ROOT
HETATM    1  C1  UNL     1      14.727  -9.408  20.842  1.00  0.00     0.155 C 
HETATM    2  N1  UNL     1      15.393 -10.689  20.728  1.00  0.00    -0.333 N 
HETATM    3  C2  UNL     1      16.318 -11.087  19.751  1.00  0.00     0.244 C 
HETATM    4  O1  UNL     1      16.375 -10.719  18.524  1.00  0.00    -0.271 OA
HETATM    5  C3  UNL     1      17.244 -12.045  20.452  1.00  0.00     0.187 C 
HETATM    6  N2  UNL     1      16.510 -12.442  21.587  1.00  0.00    -0.356 N 
HETATM    7  C13 UNL     1      15.223 -11.871  21.601  1.00  0.00     0.190 C 
ENDROOT
BRANCH   6   8
HETATM    8  C5  UNL     1      16.712 -13.718  22.142  1.00  0.00     0.089 C 
BRANCH   8   9
HETATM    9  C6  UNL     1      18.102 -14.268  21.886  1.00  0.00     0.281 C 
BRANCH   9  10
HETATM   10  N3  UNL     1      18.924 -14.256  23.073  1.00  0.00    -0.067 N 
HETATM   11  C7  UNL     1      18.982 -15.575  23.675  1.00  0.00     0.272 C 
HETATM   12  C8  UNL     1      18.479 -13.334  24.086  1.00  0.00     0.237 C 
HETATM   13  C9  UNL     1      19.401 -13.493  25.284  1.00  0.00     0.028 C 
HETATM   14  C10 UNL     1      20.839 -13.209  24.960  1.00  0.00     0.003 C 
HETATM   15  C11 UNL     1      20.936 -12.898  23.479  1.00  0.00     0.028 C 
HETATM   16  C12 UNL     1      20.284 -13.955  22.637  1.00  0.00     0.237 C 
ENDBRANCH   9  10
ENDBRANCH   8   9
ENDBRANCH   6   8
BRANCH   5  17
HETATM   17  C4  UNL     1      18.423 -11.179  20.858  1.00  0.00     0.120 C 
HETATM   18 BR1  UNL     1      19.992 -11.597  19.818  1.00  0.00    -0.094 Br
ENDBRANCH   5  17
BRANCH   7  19
HETATM   19  C14 UNL     1      14.093 -12.609  20.986  1.00  0.00     0.066 C 
BRANCH  19  20
HETATM   20  C15 UNL     1      12.793 -11.928  20.818  1.00  0.00     0.125 C 
BRANCH  20  21
HETATM   21  N4  UNL     1      12.188 -11.905  22.176  1.00  0.00    -0.367 N 
HETATM   22  C16 UNL     1      11.662 -10.859  22.670  1.00  0.00     0.196 C 
HETATM   23  N5  UNL     1      11.113 -10.957  23.978  1.00  0.00    -0.067 NA
HETATM   24  N6  UNL     1      11.633  -9.652  21.939  1.00  0.00    -0.067 NA
ATOM     25  H4  UNL     1      12.195 -12.760  22.731  1.00  0.00     0.161 HD
ENDBRANCH  20  21
ENDBRANCH  19  20
ENDBRANCH   7  19
TORSDOF 7
ENDMDL
MODEL 4
REMARK VINA RESULT: -6.710367418      0.914      1.295
REMARK  7 active torsions:
REMARK  status: ('A' for Active; 'I' for Inactive)
REMARK    1  A    between atoms: C3_5  and  C4_6 
REMARK    2  A    between atoms: N2_8  and  C5_9 
REMARK    3  A    between atoms: C5_9  and  C6_10 
REMARK    4  A    between atoms: C6_10  and  N3_11 
REMARK    5  A    between atoms: C13_18  and  C14_19 
REMARK    6  A    between atoms: C14_19  and  C15_20 
REMARK    7  A    between atoms: C15_20  and  N4_21 
ROOT
HETATM    1  C1  UNL     1      14.626  -9.901  20.936  1.00  0.00     0.155 C 
HETATM    2  N1  UNL     1      15.487 -11.033  20.659  1.00  0.00    -0.333 N 
HETATM    3  C2  UNL     1      16.416 -11.163  19.616  1.00  0.00     0.244 C 
HETATM    4  O1  UNL     1      16.352 -10.664  18.437  1.00  0.00    -0.271 OA
HETATM    5  C3  UNL     1      17.521 -12.020  20.177  1.00  0.00     0.187 C 
HETATM    6  N2  UNL     1      16.919 -12.652  21.281  1.00  0.00    -0.356 N 
HETATM    7  C13 UNL     1      15.557 -12.311  21.399  1.00  0.00     0.190 C 
ENDROOT
BRANCH   6   8
HETATM    8  C5  UNL     1      17.354 -13.927  21.684  1.00  0.00     0.089 C 
BRANCH   8   9
HETATM    9  C6  UNL     1      17.551 -14.045  23.183  1.00  0.00     0.281 C 
BRANCH   9  10
HETATM   10  N3  UNL     1      18.943 -14.149  23.548  1.00  0.00    -0.067 N 
HETATM   11  C7  UNL     1      19.735 -14.636  22.434  1.00  0.00     0.272 C 
HETATM   12  C8  UNL     1      19.192 -15.015  24.671  1.00  0.00     0.237 C 
HETATM   13  C9  UNL     1      20.697 -15.069  24.880  1.00  0.00     0.028 C 
HETATM   14  C10 UNL     1      21.300 -13.722  25.156  1.00  0.00     0.003 C 
HETATM   15  C11 UNL     1      20.196 -12.686  25.081  1.00  0.00     0.028 C 
HETATM   16  C12 UNL     1      19.410 -12.790  23.807  1.00  0.00     0.237 C 
ENDBRANCH   9  10
ENDBRANCH   8   9
ENDBRANCH   6   8
BRANCH   5  17
HETATM   17  C4  UNL     1      18.560 -11.015  20.640  1.00  0.00     0.120 C 
HETATM   18 BR1  UNL     1      20.325 -11.502  20.040  1.00  0.00    -0.094 Br
ENDBRANCH   5  17
BRANCH   7  19
HETATM   19  C14 UNL     1      14.536 -13.161  20.740  1.00  0.00     0.066 C 
BRANCH  19  20
HETATM   20  C15 UNL     1      13.181 -13.244  21.324  1.00  0.00     0.125 C 
BRANCH  20  21
HETATM   21  N4  UNL     1      12.382 -14.027  20.346  1.00  0.00    -0.367 N 
HETATM   22  C16 UNL     1      12.095 -15.252  20.526  1.00  0.00     0.196 C 
HETATM   23  N5  UNL     1      11.323 -15.898  19.522  1.00  0.00    -0.067 NA
HETATM   24  N6  UNL     1      12.532 -15.934  21.681  1.00  0.00    -0.067 NA
ATOM     25  H4  UNL     1      12.053 -13.565  19.499  1.00  0.00     0.161 HD
ENDBRANCH  20  21
ENDBRANCH  19  20
ENDBRANCH   7  19
TORSDOF 7
ENDMDL
MODEL 5
REMARK VINA RESULT: -6.498682607      2.671      4.349
REMARK  7 active torsions:
REMARK  status: ('A' for Active; 'I' for Inactive)
REMARK    1  A    between atoms: C3_5  and  C4_6 
REMARK    2  A    between atoms: N2_8  and  C5_9 
REMARK    3  A    between atoms: C5_9  and  C6_10 
REMARK    4  A    between atoms: C6_10  and  N3_11 
REMARK    5  A    between atoms: C13_18  and  C14_19 
REMARK    6  A    between atoms: C14_19  and  C15_20 
REMARK    7  A    between atoms: C15_20  and  N4_21 
ROOT
HETATM    1  C1  UNL     1      12.623 -13.973  19.840  1.00  0.00     0.155 C 
HETATM    2  N1  UNL     1      13.844 -14.309  20.543  1.00  0.00    -0.333 N 
HETATM    3  C2  UNL     1      14.054 -15.380  21.425  1.00  0.00     0.244 C 
HETATM    4  O1  UNL     1      13.208 -15.926  22.217  1.00  0.00    -0.271 OA
HETATM    5  C3  UNL     1      15.500 -15.762  21.242  1.00  0.00     0.187 C 
HETATM    6  N2  UNL     1      16.069 -14.622  20.644  1.00  0.00    -0.356 N 
HETATM    7  C13 UNL     1      15.130 -13.580  20.509  1.00  0.00     0.190 C 
ENDROOT
BRANCH   6   8
HETATM    8  C5  UNL     1      17.423 -14.314  20.865  1.00  0.00     0.089 C 
BRANCH   8   9
HETATM    9  C6  UNL     1      17.922 -14.762  22.225  1.00  0.00     0.281 C 
BRANCH   9  10
HETATM   10  N3  UNL     1      18.707 -13.745  22.884  1.00  0.00    -0.067 N 
HETATM   11  C7  UNL     1      18.635 -12.488  22.163  1.00  0.00     0.272 C 
HETATM   12  C8  UNL     1      20.099 -14.084  23.032  1.00  0.00     0.237 C 
HETATM   13  C9  UNL     1      20.791 -12.892  23.674  1.00  0.00     0.028 C 
HETATM   14  C10 UNL     1      20.227 -12.540  25.020  1.00  0.00     0.003 C 
HETATM   15  C11 UNL     1      19.067 -13.474  25.304  1.00  0.00     0.028 C 
HETATM   16  C12 UNL     1      18.076 -13.502  24.178  1.00  0.00     0.237 C 
ENDBRANCH   9  10
ENDBRANCH   8   9
ENDBRANCH   6   8
BRANCH   5  17
HETATM   17  C4  UNL     1      15.449 -16.913  20.254  1.00  0.00     0.120 C 
HETATM   18 BR1  UNL     1      16.959 -18.091  20.469  1.00  0.00    -0.094 Br
ENDBRANCH   5  17
BRANCH   7  19
HETATM   19  C14 UNL     1      15.000 -12.575  21.591  1.00  0.00     0.066 C 
BRANCH  19  20
HETATM   20  C15 UNL     1      14.936 -11.141  21.239  1.00  0.00     0.125 C 
BRANCH  20  21
HETATM   21  N4  UNL     1      13.557 -10.714  21.594  1.00  0.00    -0.367 N 
HETATM   22  C16 UNL     1      13.137  -9.531  21.395  1.00  0.00     0.196 C 
HETATM   23  N5  UNL     1      11.798  -9.239  21.775  1.00  0.00    -0.067 NA
HETATM   24  N6  UNL     1      13.977  -8.555  20.821  1.00  0.00    -0.067 NA
ATOM     25  H4  UNL     1      12.925 -11.396  22.014  1.00  0.00     0.161 HD
ENDBRANCH  20  21
ENDBRANCH  19  20
ENDBRANCH   7  19
TORSDOF 7
ENDMDL
