MODEL 1
REMARK VINA RESULT: -7.330939607      0.000      0.000
REMARK  0 active torsions:
REMARK  status: ('A' for Active; 'I' for Inactive)
ROOT
HETATM    1  C1  UNL     1       2.203 -21.862  15.746  1.00  0.00     0.049 C 
HETATM    2  C2  UNL     1       2.339 -20.361  15.978  1.00  0.00    -0.045 A 
HETATM    3  C3  UNL     1       2.363 -19.910  17.269  1.00  0.00     0.059 A 
HETATM    4  S1  UNL     1       2.581 -18.239  17.135  1.00  0.00    -0.076 SA
HETATM    5  C4  UNL     1       2.639 -18.141  15.403  1.00  0.00     0.126 A 
HETATM    6  C5  UNL     1       2.481 -19.431  14.981  1.00  0.00    -0.000 A 
HETATM    7  C6  UNL     1       2.455 -19.640  13.510  1.00  0.00     0.015 C 
HETATM    8  C7  UNL     1       1.399 -20.593  13.000  1.00  0.00     0.017 C 
HETATM    9  C8  UNL     1       1.693 -20.616  11.508  1.00  0.00     0.005 C 
HETATM   10  C9  UNL     1       3.182 -20.563  11.453  1.00  0.00    -0.017 C 
HETATM   11  C10 UNL     1       3.683 -21.941  11.073  1.00  0.00     0.010 C 
HETATM   12  C11 UNL     1       3.673 -20.171  12.864  1.00  0.00     0.020 C 
HETATM   13  C12 UNL     1       2.119 -18.349  12.756  1.00  0.00     0.180 C 
HETATM   14  C13 UNL     1       0.677 -18.052  12.848  1.00  0.00     0.073 C 
HETATM   15  N1  UNL     1      -0.447 -17.802  12.912  1.00  0.00    -0.196 NA
HETATM   16  C14 UNL     1       2.831 -17.165  13.239  1.00  0.00     0.137 C 
HETATM   17  N2  UNL     1       3.420 -16.356  12.470  1.00  0.00    -0.382 N 
ATOM     18  H21 UNL     1       3.916 -15.531  12.807  1.00  0.00     0.158 HD
ATOM     19  H22 UNL     1       3.434 -16.480  11.457  1.00  0.00     0.158 HD
HETATM   20  O1  UNL     1       2.812 -17.000  14.590  1.00  0.00    -0.289 OA
ENDROOT
TORSDOF 0
ENDMDL
MODEL 2
REMARK VINA RESULT: -6.338144079      6.870      7.786
REMARK  0 active torsions:
REMARK  status: ('A' for Active; 'I' for Inactive)
ROOT
HETATM    1  C1  UNL     1      -5.853 -22.663  15.642  1.00  0.00     0.049 C 
HETATM    2  C2  UNL     1      -6.180 -21.174  15.630  1.00  0.00    -0.045 A 
HETATM    3  C3  UNL     1      -6.938 -20.674  16.653  1.00  0.00     0.059 A 
HETATM    4  S1  UNL     1      -7.040 -19.016  16.339  1.00  0.00    -0.076 SA
HETATM    5  C4  UNL     1      -6.097 -18.987  14.882  1.00  0.00     0.126 A 
HETATM    6  C5  UNL     1      -5.731 -20.289  14.685  1.00  0.00    -0.000 A 
HETATM    7  C6  UNL     1      -4.930 -20.566  13.465  1.00  0.00     0.015 C 
HETATM    8  C7  UNL     1      -5.328 -21.795  12.681  1.00  0.00     0.017 C 
HETATM    9  C8  UNL     1      -4.291 -21.806  11.568  1.00  0.00     0.005 C 
HETATM   10  C9  UNL     1      -3.050 -21.347  12.254  1.00  0.00    -0.017 C 
HETATM   11  C10 UNL     1      -2.147 -22.549  12.435  1.00  0.00     0.010 C 
HETATM   12  C11 UNL     1      -3.476 -20.769  13.621  1.00  0.00     0.020 C 
HETATM   13  C12 UNL     1      -5.079 -19.454  12.419  1.00  0.00     0.180 C 
HETATM   14  C13 UNL     1      -6.376 -19.563  11.724  1.00  0.00     0.073 C 
HETATM   15  N1  UNL     1      -7.386 -19.629  11.172  1.00  0.00    -0.196 NA
HETATM   16  C14 UNL     1      -4.999 -18.098  12.966  1.00  0.00     0.137 C 
HETATM   17  N2  UNL     1      -4.278 -17.195  12.458  1.00  0.00    -0.382 N 
ATOM     18  H21 UNL     1      -4.222 -16.250  12.838  1.00  0.00     0.158 HD
ATOM     19  H22 UNL     1      -3.704 -17.357  11.630  1.00  0.00     0.158 HD
HETATM   20  O1  UNL     1      -5.765 -17.882  14.070  1.00  0.00    -0.289 OA
ENDROOT
TORSDOF 0
ENDMDL
MODEL 3
REMARK VINA RESULT: -5.404907618      2.305      3.797
REMARK  0 active torsions:
REMARK  status: ('A' for Active; 'I' for Inactive)
ROOT
HETATM    1  C1  UNL     1       6.100 -18.426  11.182  1.00  0.00     0.049 C 
HETATM    2  C2  UNL     1       5.144 -17.420  11.815  1.00  0.00    -0.045 A 
HETATM    3  C3  UNL     1       5.576 -16.130  11.964  1.00  0.00     0.059 A 
HETATM    4  S1  UNL     1       4.255 -15.311  12.629  1.00  0.00    -0.076 SA
HETATM    5  C4  UNL     1       3.154 -16.651  12.708  1.00  0.00     0.126 A 
HETATM    6  C5  UNL     1       3.864 -17.707  12.209  1.00  0.00    -0.000 A 
HETATM    7  C6  UNL     1       3.163 -19.017  12.192  1.00  0.00     0.015 C 
HETATM    8  C7  UNL     1       3.979 -20.206  12.642  1.00  0.00     0.017 C 
HETATM    9  C8  UNL     1       2.999 -21.352  12.445  1.00  0.00     0.005 C 
HETATM   10  C9  UNL     1       2.283 -20.975  11.192  1.00  0.00    -0.017 C 
HETATM   11  C10 UNL     1       2.790 -21.870  10.081  1.00  0.00     0.010 C 
HETATM   12  C11 UNL     1       2.621 -19.497  10.904  1.00  0.00     0.020 C 
HETATM   13  C12 UNL     1       1.982 -19.045  13.170  1.00  0.00     0.180 C 
HETATM   14  C13 UNL     1       2.459 -19.196  14.558  1.00  0.00     0.073 C 
HETATM   15  N1  UNL     1       2.813 -19.310  15.650  1.00  0.00    -0.196 NA
HETATM   16  C14 UNL     1       1.141 -17.848  13.135  1.00  0.00     0.137 C 
HETATM   17  N2  UNL     1      -0.120 -17.896  13.073  1.00  0.00    -0.382 N 
ATOM     18  H21 UNL     1      -0.706 -17.062  13.048  1.00  0.00     0.158 HD
ATOM     19  H22 UNL     1      -0.630 -18.779  13.043  1.00  0.00     0.158 HD
HETATM   20  O1  UNL     1       1.822 -16.671  13.174  1.00  0.00    -0.289 OA
ENDROOT
TORSDOF 0
ENDMDL
MODEL 4
REMARK VINA RESULT: -5.359307507      6.583      8.736
REMARK  0 active torsions:
REMARK  status: ('A' for Active; 'I' for Inactive)
ROOT
HETATM    1  C1  UNL     1       6.152 -13.130   8.868  1.00  0.00     0.049 C 
HETATM    2  C2  UNL     1       7.477 -12.869   9.576  1.00  0.00    -0.045 A 
HETATM    3  C3  UNL     1       8.330 -11.953   9.025  1.00  0.00     0.059 A 
HETATM    4  S1  UNL     1       9.637 -11.888  10.095  1.00  0.00    -0.076 SA
HETATM    5  C4  UNL     1       9.064 -13.052  11.249  1.00  0.00     0.126 A 
HETATM    6  C5  UNL     1       7.857 -13.460  10.752  1.00  0.00    -0.000 A 
HETATM    7  C6  UNL     1       7.146 -14.502  11.537  1.00  0.00     0.015 C 
HETATM    8  C7  UNL     1       6.519 -15.617  10.733  1.00  0.00     0.017 C 
HETATM    9  C8  UNL     1       5.845 -16.444  11.817  1.00  0.00     0.005 C 
HETATM   10  C9  UNL     1       5.338 -15.412  12.767  1.00  0.00    -0.017 C 
HETATM   11  C10 UNL     1       3.837 -15.320  12.593  1.00  0.00     0.010 C 
HETATM   12  C11 UNL     1       6.018 -14.078  12.391  1.00  0.00     0.020 C 
HETATM   13  C12 UNL     1       8.098 -15.267  12.465  1.00  0.00     0.180 C 
HETATM   14  C13 UNL     1       8.902 -16.238  11.699  1.00  0.00     0.073 C 
HETATM   15  N1  UNL     1       9.543 -17.000  11.117  1.00  0.00    -0.196 NA
HETATM   16  C14 UNL     1       9.037 -14.418  13.198  1.00  0.00     0.137 C 
HETATM   17  N2  UNL     1       9.238 -14.529  14.440  1.00  0.00    -0.382 N 
ATOM     18  H21 UNL     1       9.893 -13.938  14.951  1.00  0.00     0.158 HD
ATOM     19  H22 UNL     1       8.754 -15.224  15.009  1.00  0.00     0.158 HD
HETATM   20  O1  UNL     1       9.683 -13.492  12.438  1.00  0.00    -0.289 OA
ENDROOT
TORSDOF 0
ENDMDL
MODEL 5
REMARK VINA RESULT: -5.357298793      5.335      6.935
REMARK  0 active torsions:
REMARK  status: ('A' for Active; 'I' for Inactive)
ROOT
HETATM    1  C1  UNL     1       4.341 -17.018  12.420  1.00  0.00     0.049 C 
HETATM    2  C2  UNL     1       4.287 -15.497  12.511  1.00  0.00    -0.045 A 
HETATM    3  C3  UNL     1       3.144 -14.923  12.997  1.00  0.00     0.059 A 
HETATM    4  S1  UNL     1       3.470 -13.264  13.007  1.00  0.00    -0.076 SA
HETATM    5  C4  UNL     1       5.087 -13.331  12.379  1.00  0.00     0.126 A 
HETATM    6  C5  UNL     1       5.321 -14.663  12.178  1.00  0.00    -0.000 A 
HETATM    7  C6  UNL     1       6.644 -15.014  11.600  1.00  0.00     0.015 C 
HETATM    8  C7  UNL     1       6.629 -16.061  10.511  1.00  0.00     0.017 C 
HETATM    9  C8  UNL     1       8.111 -16.215  10.204  1.00  0.00     0.005 C 
HETATM   10  C9  UNL     1       8.751 -16.094  11.546  1.00  0.00    -0.017 C 
HETATM   11  C10 UNL     1       9.201 -17.477  11.971  1.00  0.00     0.010 C 
HETATM   12  C11 UNL     1       7.679 -15.544  12.511  1.00  0.00     0.020 C 
HETATM   13  C12 UNL     1       7.294 -13.819  10.893  1.00  0.00     0.180 C 
HETATM   14  C13 UNL     1       6.662 -13.585   9.580  1.00  0.00     0.073 C 
HETATM   15  N1  UNL     1       6.178 -13.385   8.552  1.00  0.00    -0.196 NA
HETATM   16  C14 UNL     1       7.213 -12.561  11.636  1.00  0.00     0.137 C 
HETATM   17  N2  UNL     1       8.207 -11.802  11.811  1.00  0.00    -0.382 N 
ATOM     18  H21 UNL     1       8.151 -10.925  12.329  1.00  0.00     0.158 HD
ATOM     19  H22 UNL     1       9.132 -12.023  11.441  1.00  0.00     0.158 HD
HETATM   20  O1  UNL     1       5.979 -12.267  12.129  1.00  0.00    -0.289 OA
ENDROOT
TORSDOF 0
ENDMDL
