MODEL 1
REMARK VINA RESULT: -6.942402641      0.000      0.000
REMARK  1 active torsions:
REMARK  status: ('A' for Active; 'I' for Inactive)
REMARK    1  A    between atoms: N3_17  and  O1_19 
ROOT
HETATM    1  C1  UNL     1      -5.842 -21.360  10.607  1.00  0.00     0.030 C 
HETATM    2  C2  UNL     1      -5.680 -21.481  12.103  1.00  0.00     0.120 C 
HETATM    3  S1  UNL     1      -3.914 -21.642  12.471  1.00  0.00    -0.104 SA
HETATM    4  C3  UNL     1      -3.352 -19.997  12.881  1.00  0.00     0.060 C 
HETATM    5  N1  UNL     1      -2.163 -19.622  12.595  1.00  0.00    -0.396 N 
ATOM      6  H11 UNL     1      -1.842 -18.683  12.829  1.00  0.00     0.156 HD
ATOM      7  H12 UNL     1      -1.561 -20.301  12.129  1.00  0.00     0.156 HD
HETATM    8  C4  UNL     1      -4.242 -18.994  13.570  1.00  0.00     0.170 C 
HETATM    9  C5  UNL     1      -4.388 -17.823  12.749  1.00  0.00     0.072 C 
HETATM   10  N2  UNL     1      -4.489 -16.895  12.078  1.00  0.00    -0.196 NA
HETATM   11  C6  UNL     1      -5.552 -19.647  13.974  1.00  0.00     0.084 C 
HETATM   12  C7  UNL     1      -5.202 -20.708  14.996  1.00  0.00     0.025 C 
HETATM   13  C8  UNL     1      -5.681 -20.486  16.375  1.00  0.00     0.002 C 
HETATM   14  C9  UNL     1      -6.972 -19.810  16.580  1.00  0.00     0.006 C 
HETATM   15  C10 UNL     1      -7.620 -19.280  15.324  1.00  0.00     0.056 C 
HETATM   16  C11 UNL     1      -6.530 -18.700  14.520  1.00  0.00     0.027 C 
HETATM   17  N3  UNL     1      -6.534 -17.450  14.375  1.00  0.00    -0.276 N 
ATOM     18  H3  UNL     1      -5.782 -17.040  13.821  1.00  0.00     0.193 HD
HETATM   19  C12 UNL     1      -6.194 -20.288  12.786  1.00  0.00     0.156 C 
HETATM   20  O2  UNL     1      -7.215 -19.794  12.345  1.00  0.00    -0.295 OA
ENDROOT
BRANCH  17  21
HETATM   21  O1  UNL     1      -7.453 -16.606  14.893  1.00  0.00    -0.290 OA
ATOM     22  H1  UNL     1      -7.551 -15.690  14.661  1.00  0.00     0.244 HD
ENDBRANCH  17  21
TORSDOF 1
ENDMDL
MODEL 2
REMARK VINA RESULT: -6.414704890      7.008      8.796
REMARK  1 active torsions:
REMARK  status: ('A' for Active; 'I' for Inactive)
REMARK    1  A    between atoms: N3_17  and  O1_19 
ROOT
HETATM    1  C1  UNL     1       3.522 -18.554  16.333  1.00  0.00     0.030 C 
HETATM    2  C2  UNL     1       2.281 -18.476  15.477  1.00  0.00     0.120 C 
HETATM    3  S1  UNL     1       2.177 -16.809  14.779  1.00  0.00    -0.104 SA
HETATM    4  C3  UNL     1       2.891 -16.921  13.146  1.00  0.00     0.060 C 
HETATM    5  N1  UNL     1       3.526 -15.932  12.641  1.00  0.00    -0.396 N 
ATOM      6  H11 UNL     1       3.934 -15.995  11.709  1.00  0.00     0.156 HD
ATOM      7  H12 UNL     1       3.603 -15.089  13.211  1.00  0.00     0.156 HD
HETATM    8  C4  UNL     1       2.777 -18.167  12.305  1.00  0.00     0.170 C 
HETATM    9  C5  UNL     1       4.087 -18.666  11.988  1.00  0.00     0.072 C 
HETATM   10  N2  UNL     1       5.144 -19.046  11.744  1.00  0.00    -0.196 NA
HETATM   11  C6  UNL     1       1.866 -19.174  12.983  1.00  0.00     0.084 C 
HETATM   12  C7  UNL     1       0.491 -18.543  13.031  1.00  0.00     0.025 C 
HETATM   13  C8  UNL     1      -0.560 -19.176  12.210  1.00  0.00     0.002 C 
HETATM   14  C9  UNL     1      -0.541 -20.636  12.031  1.00  0.00     0.006 C 
HETATM   15  C10 UNL     1       0.667 -21.333  12.610  1.00  0.00     0.056 C 
HETATM   16  C11 UNL     1       1.820 -20.471  12.297  1.00  0.00     0.027 C 
HETATM   17  N3  UNL     1       2.659 -20.919  11.473  1.00  0.00    -0.276 N 
ATOM     18  H3  UNL     1       3.459 -20.328  11.250  1.00  0.00     0.193 HD
HETATM   19  C12 UNL     1       2.343 -19.443  14.374  1.00  0.00     0.156 C 
HETATM   20  O2  UNL     1       2.817 -20.535  14.621  1.00  0.00    -0.295 OA
ENDROOT
BRANCH  17  21
HETATM   21  O1  UNL     1       2.585 -22.121  10.859  1.00  0.00    -0.290 OA
ATOM     22  H1  UNL     1       2.145 -22.290  10.034  1.00  0.00     0.244 HD
ENDBRANCH  17  21
TORSDOF 1
ENDMDL
MODEL 3
REMARK VINA RESULT: -5.384663673     10.462     12.307
REMARK  1 active torsions:
REMARK  status: ('A' for Active; 'I' for Inactive)
REMARK    1  A    between atoms: N3_17  and  O1_19 
ROOT
HETATM    1  C1  UNL     1       7.619 -18.870   6.993  1.00  0.00     0.030 C 
HETATM    2  C2  UNL     1       6.942 -19.903   7.860  1.00  0.00     0.120 C 
HETATM    3  S1  UNL     1       8.224 -20.866   8.702  1.00  0.00    -0.104 SA
HETATM    4  C3  UNL     1       8.409 -20.121  10.315  1.00  0.00     0.060 C 
HETATM    5  N1  UNL     1       9.546 -20.104  10.900  1.00  0.00    -0.396 N 
ATOM      6  H11 UNL     1       9.652 -19.679  11.821  1.00  0.00     0.156 HD
ATOM      7  H12 UNL     1      10.330 -20.531  10.407  1.00  0.00     0.156 HD
HETATM    8  C4  UNL     1       7.250 -19.489  11.044  1.00  0.00     0.170 C 
HETATM    9  C5  UNL     1       7.533 -18.105  11.308  1.00  0.00     0.072 C 
HETATM   10  N2  UNL     1       7.781 -17.001  11.511  1.00  0.00    -0.196 NA
HETATM   11  C6  UNL     1       5.958 -19.735  10.287  1.00  0.00     0.084 C 
HETATM   12  C7  UNL     1       5.732 -21.232  10.302  1.00  0.00     0.025 C 
HETATM   13  C8  UNL     1       4.570 -21.720  11.071  1.00  0.00     0.002 C 
HETATM   14  C9  UNL     1       3.352 -20.895  11.122  1.00  0.00     0.006 C 
HETATM   15  C10 UNL     1       3.477 -19.536  10.476  1.00  0.00     0.056 C 
HETATM   16  C11 UNL     1       4.806 -19.028  10.856  1.00  0.00     0.027 C 
HETATM   17  N3  UNL     1       4.836 -18.037  11.632  1.00  0.00    -0.276 N 
ATOM     18  H3  UNL     1       5.753 -17.681  11.901  1.00  0.00     0.193 HD
HETATM   19  C12 UNL     1       6.094 -19.264   8.874  1.00  0.00     0.156 C 
HETATM   20  O2  UNL     1       5.463 -18.283   8.529  1.00  0.00    -0.295 OA
ENDROOT
BRANCH  17  21
HETATM   21  O1  UNL     1       3.752 -17.409  12.139  1.00  0.00    -0.290 OA
ATOM     22  H1  UNL     1       3.754 -16.835  12.896  1.00  0.00     0.244 HD
ENDBRANCH  17  21
TORSDOF 1
ENDMDL
MODEL 4
REMARK VINA RESULT: -5.364218645     11.314     12.863
REMARK  1 active torsions:
REMARK  status: ('A' for Active; 'I' for Inactive)
REMARK    1  A    between atoms: N3_17  and  O1_19 
ROOT
HETATM    1  C1  UNL     1       7.262 -17.553   7.415  1.00  0.00     0.030 C 
HETATM    2  C2  UNL     1       6.189 -17.711   8.465  1.00  0.00     0.120 C 
HETATM    3  S1  UNL     1       6.068 -19.467   8.893  1.00  0.00    -0.104 SA
HETATM    4  C3  UNL     1       7.065 -19.679  10.359  1.00  0.00     0.060 C 
HETATM    5  N1  UNL     1       7.693 -20.773  10.570  1.00  0.00    -0.396 N 
ATOM      6  H11 UNL     1       8.263 -20.894  11.407  1.00  0.00     0.156 HD
ATOM      7  H12 UNL     1       7.597 -21.507   9.868  1.00  0.00     0.156 HD
HETATM    8  C4  UNL     1       7.207 -18.594  11.396  1.00  0.00     0.170 C 
HETATM    9  C5  UNL     1       8.590 -18.228  11.537  1.00  0.00     0.072 C 
HETATM   10  N2  UNL     1       9.702 -17.954  11.636  1.00  0.00    -0.196 NA
HETATM   11  C6  UNL     1       6.280 -17.436  11.073  1.00  0.00     0.084 C 
HETATM   12  C7  UNL     1       4.869 -17.975  11.183  1.00  0.00     0.025 C 
HETATM   13  C8  UNL     1       4.037 -17.439  12.278  1.00  0.00     0.002 C 
HETATM   14  C9  UNL     1       4.211 -16.034  12.683  1.00  0.00     0.006 C 
HETATM   15  C10 UNL     1       5.352 -15.314  12.006  1.00  0.00     0.056 C 
HETATM   16  C11 UNL     1       6.465 -16.278  11.954  1.00  0.00     0.027 C 
HETATM   17  N3  UNL     1       7.471 -16.025  12.668  1.00  0.00    -0.276 N 
ATOM     18  H3  UNL     1       8.245 -16.688  12.638  1.00  0.00     0.193 HD
HETATM   19  C12 UNL     1       6.525 -16.956   9.679  1.00  0.00     0.156 C 
HETATM   20  O2  UNL     1       7.040 -15.864   9.526  1.00  0.00    -0.295 OA
ENDROOT
BRANCH  17  21
HETATM   21  O1  UNL     1       7.608 -14.946  13.470  1.00  0.00    -0.290 OA
ATOM     22  H1  UNL     1       7.648 -14.044  13.175  1.00  0.00     0.244 HD
ENDBRANCH  17  21
TORSDOF 1
ENDMDL
MODEL 5
REMARK VINA RESULT: -5.048313403     11.947     13.272
REMARK  1 active torsions:
REMARK  status: ('A' for Active; 'I' for Inactive)
REMARK    1  A    between atoms: N3_17  and  O1_19 
ROOT
HETATM    1  C1  UNL     1       7.050 -17.665   7.610  1.00  0.00     0.030 C 
HETATM    2  C2  UNL     1       6.126 -17.465   8.787  1.00  0.00     0.120 C 
HETATM    3  S1  UNL     1       6.033 -19.022   9.707  1.00  0.00    -0.104 SA
HETATM    4  C3  UNL     1       7.215 -18.871  11.037  1.00  0.00     0.060 C 
HETATM    5  N1  UNL     1       7.846 -19.895  11.470  1.00  0.00    -0.396 N 
ATOM      6  H11 UNL     1       8.522 -19.810  12.229  1.00  0.00     0.156 HD
ATOM      7  H12 UNL     1       7.643 -20.790  11.023  1.00  0.00     0.156 HD
HETATM    8  C4  UNL     1       7.515 -17.548  11.697  1.00  0.00     0.170 C 
HETATM    9  C5  UNL     1       8.911 -17.235  11.555  1.00  0.00     0.072 C 
HETATM   10  N2  UNL     1      10.031 -17.006  11.432  1.00  0.00    -0.196 NA
HETATM   11  C6  UNL     1       6.573 -16.478  11.176  1.00  0.00     0.084 C 
HETATM   12  C7  UNL     1       5.181 -16.886  11.609  1.00  0.00     0.025 C 
HETATM   13  C8  UNL     1       4.514 -16.020  12.602  1.00  0.00     0.002 C 
HETATM   14  C9  UNL     1       4.766 -14.570  12.566  1.00  0.00     0.006 C 
HETATM   15  C10 UNL     1       5.818 -14.132  11.576  1.00  0.00     0.056 C 
HETATM   16  C11 UNL     1       6.896 -15.132  11.662  1.00  0.00     0.027 C 
HETATM   17  N3  UNL     1       7.994 -14.746  12.143  1.00  0.00    -0.276 N 
ATOM     18  H3  UNL     1       8.745 -15.433  12.207  1.00  0.00     0.193 HD
HETATM   19  C12 UNL     1       6.637 -16.420   9.684  1.00  0.00     0.156 C 
HETATM   20  O2  UNL     1       7.145 -15.445   9.164  1.00  0.00    -0.295 OA
ENDROOT
BRANCH  17  21
HETATM   21  O1  UNL     1       8.258 -13.495  12.582  1.00  0.00    -0.290 OA
ATOM     22  H1  UNL     1       7.722 -13.004  13.194  1.00  0.00     0.244 HD
ENDBRANCH  17  21
TORSDOF 1
ENDMDL
