MODEL 1
REMARK VINA RESULT: -7.011100318      0.000      0.000
REMARK  3 active torsions:
REMARK  status: ('A' for Active; 'I' for Inactive)
REMARK    1  A    between atoms: C8_8  and  O1_9 
REMARK    2  A    between atoms: O1_9  and  O2_10 
REMARK    3  A    between atoms: C11_16  and  O5_17 
ROOT
HETATM    1  C1  UNL     1       0.027 -19.305  12.070  1.00  0.00     0.014 C 
HETATM    2  C2  UNL     1      -1.472 -19.521  12.116  1.00  0.00     0.006 C 
HETATM    3  C3  UNL     1      -1.617 -21.068  12.309  1.00  0.00     0.008 C 
HETATM    4  C4  UNL     1      -2.924 -21.166  12.909  1.00  0.00     0.005 C 
HETATM    5  C5  UNL     1      -3.980 -22.045  13.224  1.00  0.00    -0.010 C 
HETATM    6  C6  UNL     1      -5.129 -22.187  12.198  1.00  0.00     0.010 C 
HETATM    7  C7  UNL     1      -5.567 -20.873  11.617  1.00  0.00     0.075 C 
HETATM    8  C8  UNL     1      -5.811 -19.741  12.575  1.00  0.00     0.236 C 
HETATM    9  O3  UNL     1      -5.465 -18.503  12.109  1.00  0.00    -0.192 OA
HETATM   10  O4  UNL     1      -4.298 -18.044  12.100  1.00  0.00    -0.197 OA
HETATM   11  C9  UNL     1      -3.480 -18.198  13.186  1.00  0.00     0.110 C 
HETATM   12  C10 UNL     1      -2.103 -18.645  13.097  1.00  0.00     0.016 C 
HETATM   13  C11 UNL     1      -4.340 -18.757  14.340  1.00  0.00     0.187 C 
HETATM   14  C12 UNL     1      -5.230 -19.930  13.933  1.00  0.00     0.093 C 
HETATM   15  C13 UNL     1      -4.771 -21.286  14.330  1.00  0.00    -0.002 C 
HETATM   16  C14 UNL     1      -5.760 -22.172  14.980  1.00  0.00     0.011 C 
ENDROOT
BRANCH   8  17
HETATM   17  O1  UNL     1      -7.236 -19.659  12.658  1.00  0.00    -0.200 OA
BRANCH  17  18
HETATM   18  O2  UNL     1      -7.615 -19.273  13.834  1.00  0.00    -0.247 OA
ATOM     19  H2  UNL     1      -7.020 -19.585  14.506  1.00  0.00     0.253 HD
ENDBRANCH  17  18
ENDBRANCH   8  17
BRANCH  13  20
HETATM   20  O5  UNL     1      -5.186 -17.724  14.838  1.00  0.00    -0.388 OA
ATOM     21  H5  UNL     1      -4.653 -17.056  15.253  1.00  0.00     0.210 HD
ENDBRANCH  13  20
TORSDOF 3
ENDMDL
MODEL 2
REMARK VINA RESULT: -6.407931727      2.362      3.547
REMARK  3 active torsions:
REMARK  status: ('A' for Active; 'I' for Inactive)
REMARK    1  A    between atoms: C8_8  and  O1_9 
REMARK    2  A    between atoms: O1_9  and  O2_10 
REMARK    3  A    between atoms: C11_16  and  O5_17 
ROOT
HETATM    1  C1  UNL     1       0.103 -19.298  12.143  1.00  0.00     0.014 C 
HETATM    2  C2  UNL     1      -1.221 -19.711  12.751  1.00  0.00     0.006 C 
HETATM    3  C3  UNL     1      -2.094 -18.415  12.649  1.00  0.00     0.008 C 
HETATM    4  C4  UNL     1      -3.429 -18.960  12.674  1.00  0.00     0.005 C 
HETATM    5  C5  UNL     1      -4.792 -18.650  12.853  1.00  0.00    -0.010 C 
HETATM    6  C6  UNL     1      -5.382 -18.791  14.276  1.00  0.00     0.010 C 
HETATM    7  C7  UNL     1      -4.931 -20.038  14.982  1.00  0.00     0.075 C 
HETATM    8  C8  UNL     1      -5.005 -21.329  14.217  1.00  0.00     0.236 C 
HETATM    9  O3  UNL     1      -3.999 -22.216  14.480  1.00  0.00    -0.192 OA
HETATM   10  O4  UNL     1      -2.850 -22.161  13.980  1.00  0.00    -0.197 OA
HETATM   11  C9  UNL     1      -2.682 -21.898  12.647  1.00  0.00     0.110 C 
HETATM   12  C10 UNL     1      -1.730 -20.931  12.135  1.00  0.00     0.016 C 
HETATM   13  C11 UNL     1      -4.074 -21.954  11.983  1.00  0.00     0.187 C 
HETATM   14  C12 UNL     1      -5.150 -21.180  12.743  1.00  0.00     0.093 C 
HETATM   15  C13 UNL     1      -5.531 -19.853  12.194  1.00  0.00    -0.002 C 
HETATM   16  C14 UNL     1      -6.975 -19.572  12.042  1.00  0.00     0.011 C 
ENDROOT
BRANCH   8  17
HETATM   17  O1  UNL     1      -6.154 -21.988  14.759  1.00  0.00    -0.200 OA
BRANCH  17  18
HETATM   18  O2  UNL     1      -5.833 -23.115  15.306  1.00  0.00    -0.247 OA
ATOM     19  H2  UNL     1      -5.195 -22.991  15.999  1.00  0.00     0.253 HD
ENDBRANCH  17  18
ENDBRANCH   8  17
BRANCH  13  20
HETATM   20  O5  UNL     1      -4.498 -23.311  11.894  1.00  0.00    -0.388 OA
ATOM     21  H5  UNL     1      -5.349 -23.346  11.473  1.00  0.00     0.210 HD
ENDBRANCH  13  20
TORSDOF 3
ENDMDL
MODEL 3
REMARK VINA RESULT: -6.230044100      5.872      8.344
REMARK  3 active torsions:
REMARK  status: ('A' for Active; 'I' for Inactive)
REMARK    1  A    between atoms: C8_8  and  O1_9 
REMARK    2  A    between atoms: O1_9  and  O2_10 
REMARK    3  A    between atoms: C11_16  and  O5_17 
ROOT
HETATM    1  C1  UNL     1       6.432 -15.914  11.349  1.00  0.00     0.014 C 
HETATM    2  C2  UNL     1       5.487 -16.956  11.909  1.00  0.00     0.006 C 
HETATM    3  C3  UNL     1       4.392 -16.108  12.640  1.00  0.00     0.008 C 
HETATM    4  C4  UNL     1       3.273 -17.017  12.644  1.00  0.00     0.005 C 
HETATM    5  C5  UNL     1       2.010 -17.280  13.211  1.00  0.00    -0.010 C 
HETATM    6  C6  UNL     1       1.956 -18.199  14.454  1.00  0.00     0.010 C 
HETATM    7  C7  UNL     1       2.848 -19.402  14.339  1.00  0.00     0.075 C 
HETATM    8  C8  UNL     1       2.783 -20.189  13.061  1.00  0.00     0.236 C 
HETATM    9  O3  UNL     1       3.973 -20.718  12.645  1.00  0.00    -0.192 OA
HETATM   10  O4  UNL     1       4.862 -20.081  12.031  1.00  0.00    -0.197 OA
HETATM   11  C9  UNL     1       4.531 -19.236  11.005  1.00  0.00     0.110 C 
HETATM   12  C10 UNL     1       5.054 -17.890  10.875  1.00  0.00     0.016 C 
HETATM   13  C11 UNL     1       3.038 -19.458  10.684  1.00  0.00     0.187 C 
HETATM   14  C12 UNL     1       2.138 -19.483  11.919  1.00  0.00     0.093 C 
HETATM   15  C13 UNL     1       1.347 -18.256  12.193  1.00  0.00    -0.002 C 
HETATM   16  C14 UNL     1      -0.092 -18.429  12.482  1.00  0.00     0.011 C 
ENDROOT
BRANCH   8  17
HETATM   17  O1  UNL     1       2.026 -21.352  13.408  1.00  0.00    -0.200 OA
BRANCH  17  18
HETATM   18  O2  UNL     1       1.312 -21.761  12.409  1.00  0.00    -0.247 OA
ATOM     19  H2  UNL     1       0.430 -21.982  12.685  1.00  0.00     0.253 HD
ENDBRANCH  17  18
ENDBRANCH   8  17
BRANCH  13  20
HETATM   20  O5  UNL     1       2.883 -20.704  10.010  1.00  0.00    -0.388 OA
ATOM     21  H5  UNL     1       1.965 -20.834   9.800  1.00  0.00     0.210 HD
ENDBRANCH  13  20
TORSDOF 3
ENDMDL
MODEL 4
REMARK VINA RESULT: -6.221101915      6.570      8.012
REMARK  3 active torsions:
REMARK  status: ('A' for Active; 'I' for Inactive)
REMARK    1  A    between atoms: C8_8  and  O1_9 
REMARK    2  A    between atoms: O1_9  and  O2_10 
REMARK    3  A    between atoms: C11_16  and  O5_17 
ROOT
HETATM    1  C1  UNL     1       3.334 -14.727  13.679  1.00  0.00     0.014 C 
HETATM    2  C2  UNL     1       3.037 -16.076  13.059  1.00  0.00     0.006 C 
HETATM    3  C3  UNL     1       4.229 -16.298  12.069  1.00  0.00     0.008 C 
HETATM    4  C4  UNL     1       4.246 -17.735  11.951  1.00  0.00     0.005 C 
HETATM    5  C5  UNL     1       4.736 -18.819  11.194  1.00  0.00    -0.010 C 
HETATM    6  C6  UNL     1       3.844 -19.362  10.052  1.00  0.00     0.010 C 
HETATM    7  C7  UNL     1       2.397 -19.476  10.437  1.00  0.00     0.075 C 
HETATM    8  C8  UNL     1       2.082 -20.134  11.751  1.00  0.00     0.236 C 
HETATM    9  O3  UNL     1       1.012 -19.609  12.420  1.00  0.00    -0.192 OA
HETATM   10  O4  UNL     1       1.048 -18.569  13.121  1.00  0.00    -0.197 OA
HETATM   11  C9  UNL     1       2.085 -18.349  13.987  1.00  0.00     0.110 C 
HETATM   12  C10 UNL     1       2.796 -17.089  14.082  1.00  0.00     0.016 C 
HETATM   13  C11 UNL     1       2.917 -19.647  14.056  1.00  0.00     0.187 C 
HETATM   14  C12 UNL     1       3.233 -20.250  12.689  1.00  0.00     0.093 C 
HETATM   15  C13 UNL     1       4.605 -20.031  12.164  1.00  0.00    -0.002 C 
HETATM   16  C14 UNL     1       5.326 -21.211  11.640  1.00  0.00     0.011 C 
ENDROOT
BRANCH   8  17
HETATM   17  O1  UNL     1       1.615 -21.436  11.385  1.00  0.00    -0.200 OA
BRANCH  17  18
HETATM   18  O2  UNL     1       0.969 -21.992  12.358  1.00  0.00    -0.247 OA
ATOM     19  H2  UNL     1       0.439 -22.717  12.048  1.00  0.00     0.253 HD
ENDBRANCH  17  18
ENDBRANCH   8  17
BRANCH  13  20
HETATM   20  O5  UNL     1       2.200 -20.625  14.805  1.00  0.00    -0.388 OA
ATOM     21  H5  UNL     1       2.410 -21.490  14.473  1.00  0.00     0.210 HD
ENDBRANCH  13  20
TORSDOF 3
ENDMDL
MODEL 5
REMARK VINA RESULT: -6.182067278      2.570      4.844
REMARK  3 active torsions:
REMARK  status: ('A' for Active; 'I' for Inactive)
REMARK    1  A    between atoms: C8_8  and  O1_9 
REMARK    2  A    between atoms: O1_9  and  O2_10 
REMARK    3  A    between atoms: C11_16  and  O5_17 
ROOT
HETATM    1  C1  UNL     1      -8.302 -18.492  17.262  1.00  0.00     0.014 C 
HETATM    2  C2  UNL     1      -7.612 -18.981  16.006  1.00  0.00     0.006 C 
HETATM    3  C3  UNL     1      -7.122 -17.663  15.316  1.00  0.00     0.008 C 
HETATM    4  C4  UNL     1      -6.032 -18.147  14.505  1.00  0.00     0.005 C 
HETATM    5  C5  UNL     1      -5.172 -17.833  13.434  1.00  0.00    -0.010 C 
HETATM    6  C6  UNL     1      -5.598 -18.274  12.014  1.00  0.00     0.010 C 
HETATM    7  C7  UNL     1      -6.159 -19.667  11.973  1.00  0.00     0.075 C 
HETATM    8  C8  UNL     1      -5.388 -20.744  12.683  1.00  0.00     0.236 C 
HETATM    9  O3  UNL     1      -6.154 -21.706  13.280  1.00  0.00    -0.192 OA
HETATM   10  O4  UNL     1      -6.716 -21.583  14.394  1.00  0.00    -0.197 OA
HETATM   11  C9  UNL     1      -6.050 -21.027  15.453  1.00  0.00     0.110 C 
HETATM   12  C10 UNL     1      -6.619 -20.006  16.311  1.00  0.00     0.016 C 
HETATM   13  C11 UNL     1      -4.570 -20.872  15.041  1.00  0.00     0.187 C 
HETATM   14  C12 UNL     1      -4.376 -20.253  13.659  1.00  0.00     0.093 C 
HETATM   15  C13 UNL     1      -3.981 -18.821  13.619  1.00  0.00    -0.002 C 
HETATM   16  C14 UNL     1      -2.846 -18.456  12.744  1.00  0.00     0.011 C 
ENDROOT
BRANCH   8  17
HETATM   17  O1  UNL     1      -4.744 -21.463  11.628  1.00  0.00    -0.200 OA
BRANCH  17  18
HETATM   18  O2  UNL     1      -4.311 -22.611  12.041  1.00  0.00    -0.247 OA
ATOM     19  H2  UNL     1      -4.219 -22.623  12.986  1.00  0.00     0.253 HD
ENDBRANCH  17  18
ENDBRANCH   8  17
BRANCH  13  20
HETATM   20  O5  UNL     1      -3.949 -22.155  15.033  1.00  0.00    -0.388 OA
ATOM     21  H5  UNL     1      -3.041 -22.065  15.296  1.00  0.00     0.210 HD
ENDBRANCH  13  20
TORSDOF 3
ENDMDL
