MODEL 1
REMARK VINA RESULT: -7.086713366      0.000      0.000
REMARK  7 active torsions:
REMARK  status: ('A' for Active; 'I' for Inactive)
REMARK    1  A    between atoms: C3_3  and  O1_4 
REMARK    2  A    between atoms: O1_4  and  C4_5 
REMARK    3  A    between atoms: C7_8  and  C8_9 
REMARK    4  A    between atoms: C9_12  and  C10_13 
REMARK    5  A    between atoms: C10_13  and  C11_14 
REMARK    6  A    between atoms: C11_14  and  N2_15 
REMARK    7  A    between atoms: C17_23  and  O2_24 
ROOT
HETATM    1  C1  UNL     1      20.774 -12.345  26.536  1.00  0.00     0.014 C 
HETATM    2  C2  UNL     1      21.473 -12.684  25.604  1.00  0.00    -0.091 C 
HETATM    3  C3  UNL     1      22.293 -13.099  24.470  1.00  0.00     0.270 C 
ENDROOT
BRANCH   3   4
HETATM    4  O1  UNL     1      21.697 -14.200  23.797  1.00  0.00    -0.324 OA
BRANCH   4   5
HETATM    5  C4  UNL     1      20.452 -14.020  23.191  1.00  0.00     0.146 A 
HETATM    6  C5  UNL     1      20.287 -13.158  22.121  1.00  0.00     0.057 A 
HETATM    7  C6  UNL     1      19.027 -13.041  21.583  1.00  0.00     0.022 A 
HETATM    8  C7  UNL     1      17.913 -13.748  22.065  1.00  0.00     0.045 A 
HETATM    9  C17 UNL     1      18.168 -14.569  23.117  1.00  0.00     0.156 A 
HETATM   10  N4  UNL     1      19.415 -14.707  23.676  1.00  0.00    -0.312 N 
HETATM   11  C18 UNL     1      19.599 -15.606  24.798  1.00  0.00     0.160 C 
BRANCH   8  12
HETATM   12  C8  UNL     1      16.635 -13.469  21.432  1.00  0.00     0.082 A 
HETATM   13  N1  UNL     1      16.084 -12.204  21.436  1.00  0.00    -0.343 N 
HETATM   14  C9  UNL     1      14.952 -12.165  20.752  1.00  0.00     0.086 A 
ATOM     15  H1  UNL     1      16.497 -11.399  21.907  1.00  0.00     0.167 HD
HETATM   16  N3  UNL     1      14.731 -13.388  20.285  1.00  0.00    -0.333 N 
HETATM   17  C15 UNL     1      13.625 -13.864  19.480  1.00  0.00     0.158 C 
HETATM   18  C16 UNL     1      15.757 -14.199  20.693  1.00  0.00     0.111 A 
HETATM   19 BR1  UNL     1      15.904 -16.029  20.190  1.00  0.00    -0.029 Br
BRANCH  14  20
HETATM   20  C10 UNL     1      14.049 -10.980  20.520  1.00  0.00     0.104 C 
BRANCH  20  21
HETATM   21  C11 UNL     1      14.006 -10.127  21.769  1.00  0.00     0.243 C 
BRANCH  21  22
HETATM   22  N2  UNL     1      12.686  -9.710  22.116  1.00  0.00    -0.078 N 
HETATM   23  C12 UNL     1      11.797 -10.833  22.360  1.00  0.00     0.271 C 
HETATM   24  C13 UNL     1      12.667  -8.820  23.271  1.00  0.00     0.271 C 
HETATM   25  C14 UNL     1      12.139  -8.966  20.995  1.00  0.00     0.271 C 
ENDBRANCH  21  22
ENDBRANCH  20  21
ENDBRANCH  14  20
ENDBRANCH   8  12
BRANCH   9  26
HETATM   26  O2  UNL     1      17.171 -15.311  23.693  1.00  0.00    -0.345 OA
ATOM     27  H2  UNL     1      17.342 -15.859  24.451  1.00  0.00     0.219 HD
ENDBRANCH   9  26
ENDBRANCH   4   5
ENDBRANCH   3   4
TORSDOF 7
ENDMDL
MODEL 2
REMARK VINA RESULT: -7.010440972      2.498      7.359
REMARK  7 active torsions:
REMARK  status: ('A' for Active; 'I' for Inactive)
REMARK    1  A    between atoms: C3_3  and  O1_4 
REMARK    2  A    between atoms: O1_4  and  C4_5 
REMARK    3  A    between atoms: C7_8  and  C8_9 
REMARK    4  A    between atoms: C9_12  and  C10_13 
REMARK    5  A    between atoms: C10_13  and  C11_14 
REMARK    6  A    between atoms: C11_14  and  N2_15 
REMARK    7  A    between atoms: C17_23  and  O2_24 
ROOT
HETATM    1  C1  UNL     1      12.423  -7.107  24.681  1.00  0.00     0.014 C 
HETATM    2  C2  UNL     1      11.912  -8.130  24.277  1.00  0.00    -0.091 C 
HETATM    3  C3  UNL     1      11.316  -9.365  23.775  1.00  0.00     0.270 C 
ENDROOT
BRANCH   3   4
HETATM    4  O1  UNL     1      11.676  -9.579  22.418  1.00  0.00    -0.324 OA
BRANCH   4   5
HETATM    5  C4  UNL     1      12.592 -10.591  22.120  1.00  0.00     0.146 A 
HETATM    6  C5  UNL     1      12.311 -11.920  22.381  1.00  0.00     0.057 A 
HETATM    7  C6  UNL     1      13.269 -12.852  22.056  1.00  0.00     0.022 A 
HETATM    8  C7  UNL     1      14.504 -12.520  21.479  1.00  0.00     0.045 A 
HETATM    9  C17 UNL     1      14.696 -11.192  21.260  1.00  0.00     0.156 A 
HETATM   10  N4  UNL     1      13.758 -10.238  21.573  1.00  0.00    -0.312 N 
HETATM   11  C18 UNL     1      14.043  -8.842  21.305  1.00  0.00     0.160 C 
BRANCH   8  12
HETATM   12  C8  UNL     1      15.438 -13.611  21.251  1.00  0.00     0.082 A 
HETATM   13  N1  UNL     1      16.757 -13.531  21.649  1.00  0.00    -0.343 N 
HETATM   14  C9  UNL     1      17.407 -14.656  21.399  1.00  0.00     0.086 A 
ATOM     15  H1  UNL     1      17.178 -12.709  22.082  1.00  0.00     0.167 HD
HETATM   16  N3  UNL     1      16.545 -15.494  20.839  1.00  0.00    -0.333 N 
HETATM   17  C15 UNL     1      16.767 -16.851  20.380  1.00  0.00     0.158 C 
HETATM   18  C16 UNL     1      15.331 -14.867  20.743  1.00  0.00     0.111 A 
HETATM   19 BR1  UNL     1      13.766 -15.718  20.071  1.00  0.00    -0.029 Br
BRANCH  14  20
HETATM   20  C10 UNL     1      18.855 -14.972  21.681  1.00  0.00     0.104 C 
BRANCH  20  21
HETATM   21  C11 UNL     1      19.562 -13.718  22.147  1.00  0.00     0.243 C 
BRANCH  21  22
HETATM   22  N2  UNL     1      20.161 -13.860  23.435  1.00  0.00    -0.078 N 
HETATM   23  C12 UNL     1      21.398 -13.107  23.556  1.00  0.00     0.271 C 
HETATM   24  C13 UNL     1      19.258 -13.482  24.515  1.00  0.00     0.271 C 
HETATM   25  C14 UNL     1      20.492 -15.261  23.626  1.00  0.00     0.271 C 
ENDBRANCH  21  22
ENDBRANCH  20  21
ENDBRANCH  14  20
ENDBRANCH   8  12
BRANCH   9  26
HETATM   26  O2  UNL     1      15.860 -10.726  20.711  1.00  0.00    -0.345 OA
ATOM     27  H2  UNL     1      16.689 -10.815  21.167  1.00  0.00     0.219 HD
ENDBRANCH   9  26
ENDBRANCH   4   5
ENDBRANCH   3   4
TORSDOF 7
ENDMDL
MODEL 3
REMARK VINA RESULT: -6.881577395      2.135      3.909
REMARK  7 active torsions:
REMARK  status: ('A' for Active; 'I' for Inactive)
REMARK    1  A    between atoms: C3_3  and  O1_4 
REMARK    2  A    between atoms: O1_4  and  C4_5 
REMARK    3  A    between atoms: C7_8  and  C8_9 
REMARK    4  A    between atoms: C9_12  and  C10_13 
REMARK    5  A    between atoms: C10_13  and  C11_14 
REMARK    6  A    between atoms: C11_14  and  N2_15 
REMARK    7  A    between atoms: C17_23  and  O2_24 
ROOT
HETATM    1  C1  UNL     1      20.849 -12.006  26.001  1.00  0.00     0.014 C 
HETATM    2  C2  UNL     1      21.472 -12.528  25.100  1.00  0.00    -0.091 C 
HETATM    3  C3  UNL     1      22.201 -13.163  24.007  1.00  0.00     0.270 C 
ENDROOT
BRANCH   3   4
HETATM    4  O1  UNL     1      21.534 -14.343  23.580  1.00  0.00    -0.324 OA
BRANCH   4   5
HETATM    5  C4  UNL     1      20.247 -14.230  23.049  1.00  0.00     0.146 A 
HETATM    6  C5  UNL     1      20.006 -13.526  21.882  1.00  0.00     0.057 A 
HETATM    7  C6  UNL     1      18.709 -13.465  21.429  1.00  0.00     0.022 A 
HETATM    8  C7  UNL     1      17.631 -14.077  22.089  1.00  0.00     0.045 A 
HETATM    9  C17 UNL     1      17.960 -14.744  23.226  1.00  0.00     0.156 A 
HETATM   10  N4  UNL     1      19.246 -14.823  23.703  1.00  0.00    -0.312 N 
HETATM   11  C18 UNL     1      19.510 -15.556  24.926  1.00  0.00     0.160 C 
BRANCH   8  12
HETATM   12  C8  UNL     1      16.310 -13.869  21.520  1.00  0.00     0.082 A 
HETATM   13  N1  UNL     1      15.287 -14.777  21.711  1.00  0.00    -0.343 N 
HETATM   14  C9  UNL     1      14.159 -14.359  21.159  1.00  0.00     0.086 A 
ATOM     15  H1  UNL     1      15.388 -15.658  22.214  1.00  0.00     0.167 HD
HETATM   16  N3  UNL     1      14.406 -13.182  20.599  1.00  0.00    -0.333 N 
HETATM   17  C15 UNL     1      13.499 -12.318  19.871  1.00  0.00     0.158 C 
HETATM   18  C16 UNL     1      15.722 -12.867  20.814  1.00  0.00     0.111 A 
HETATM   19 BR1  UNL     1      16.507 -11.225  20.255  1.00  0.00    -0.029 Br
BRANCH  14  20
HETATM   20  C10 UNL     1      12.822 -15.056  21.145  1.00  0.00     0.104 C 
BRANCH  20  21
HETATM   21  C11 UNL     1      13.029 -16.540  20.933  1.00  0.00     0.243 C 
BRANCH  21  22
HETATM   22  N2  UNL     1      12.634 -16.979  19.633  1.00  0.00    -0.078 N 
HETATM   23  C12 UNL     1      11.673 -16.083  19.014  1.00  0.00     0.271 C 
HETATM   24  C13 UNL     1      13.770 -17.163  18.737  1.00  0.00     0.271 C 
HETATM   25  C14 UNL     1      11.987 -18.271  19.772  1.00  0.00     0.271 C 
ENDBRANCH  21  22
ENDBRANCH  20  21
ENDBRANCH  14  20
ENDBRANCH   8  12
BRANCH   9  26
HETATM   26  O2  UNL     1      17.006 -15.379  23.976  1.00  0.00    -0.345 OA
ATOM     27  H2  UNL     1      17.243 -16.043  24.613  1.00  0.00     0.219 HD
ENDBRANCH   9  26
ENDBRANCH   4   5
ENDBRANCH   3   4
TORSDOF 7
ENDMDL
MODEL 4
REMARK VINA RESULT: -6.793908443      2.661      7.350
REMARK  7 active torsions:
REMARK  status: ('A' for Active; 'I' for Inactive)
REMARK    1  A    between atoms: C3_3  and  O1_4 
REMARK    2  A    between atoms: O1_4  and  C4_5 
REMARK    3  A    between atoms: C7_8  and  C8_9 
REMARK    4  A    between atoms: C9_12  and  C10_13 
REMARK    5  A    between atoms: C10_13  and  C11_14 
REMARK    6  A    between atoms: C11_14  and  N2_15 
REMARK    7  A    between atoms: C17_23  and  O2_24 
ROOT
HETATM    1  C1  UNL     1      12.428  -6.790  24.678  1.00  0.00     0.014 C 
HETATM    2  C2  UNL     1      11.997  -7.875  24.348  1.00  0.00    -0.091 C 
HETATM    3  C3  UNL     1      11.497  -9.182  23.934  1.00  0.00     0.270 C 
ENDROOT
BRANCH   3   4
HETATM    4  O1  UNL     1      11.682  -9.370  22.538  1.00  0.00    -0.324 OA
BRANCH   4   5
HETATM    5  C4  UNL     1      12.439 -10.460  22.104  1.00  0.00     0.146 A 
HETATM    6  C5  UNL     1      12.064 -11.760  22.389  1.00  0.00     0.057 A 
HETATM    7  C6  UNL     1      12.867 -12.775  21.923  1.00  0.00     0.022 A 
HETATM    8  C7  UNL     1      14.037 -12.553  21.179  1.00  0.00     0.045 A 
HETATM    9  C17 UNL     1      14.329 -11.246  20.948  1.00  0.00     0.156 A 
HETATM   10  N4  UNL     1      13.547 -10.212  21.400  1.00  0.00    -0.312 N 
HETATM   11  C18 UNL     1      13.931  -8.845  21.107  1.00  0.00     0.160 C 
BRANCH   8  12
HETATM   12  C8  UNL     1      14.813 -13.725  20.812  1.00  0.00     0.082 A 
HETATM   13  N1  UNL     1      16.053 -13.977  21.364  1.00  0.00    -0.343 N 
HETATM   14  C9  UNL     1      16.552 -15.125  20.934  1.00  0.00     0.086 A 
ATOM     15  H1  UNL     1      16.526 -13.356  22.021  1.00  0.00     0.167 HD
HETATM   16  N3  UNL     1      15.665 -15.652  20.100  1.00  0.00    -0.333 N 
HETATM   17  C15 UNL     1      15.742 -16.900  19.367  1.00  0.00     0.158 C 
HETATM   18  C16 UNL     1      14.592 -14.806  20.016  1.00  0.00     0.111 A 
HETATM   19 BR1  UNL     1      13.035 -15.192  18.991  1.00  0.00    -0.029 Br
BRANCH  14  20
HETATM   20  C10 UNL     1      17.873 -15.755  21.297  1.00  0.00     0.104 C 
BRANCH  20  21
HETATM   21  C11 UNL     1      18.295 -15.284  22.672  1.00  0.00     0.243 C 
BRANCH  21  22
HETATM   22  N2  UNL     1      19.459 -14.459  22.648  1.00  0.00    -0.078 N 
HETATM   23  C12 UNL     1      20.563 -15.037  23.396  1.00  0.00     0.271 C 
HETATM   24  C13 UNL     1      19.901 -14.157  21.292  1.00  0.00     0.271 C 
HETATM   25  C14 UNL     1      19.128 -13.195  23.281  1.00  0.00     0.271 C 
ENDBRANCH  21  22
ENDBRANCH  20  21
ENDBRANCH  14  20
ENDBRANCH   8  12
BRANCH   9  26
HETATM   26  O2  UNL     1      15.447 -10.885  20.243  1.00  0.00    -0.345 OA
ATOM     27  H2  UNL     1      15.384 -10.582  19.345  1.00  0.00     0.219 HD
ENDBRANCH   9  26
ENDBRANCH   4   5
ENDBRANCH   3   4
TORSDOF 7
ENDMDL
MODEL 5
REMARK VINA RESULT: -6.689649873      3.181      7.523
REMARK  7 active torsions:
REMARK  status: ('A' for Active; 'I' for Inactive)
REMARK    1  A    between atoms: C3_3  and  O1_4 
REMARK    2  A    between atoms: O1_4  and  C4_5 
REMARK    3  A    between atoms: C7_8  and  C8_9 
REMARK    4  A    between atoms: C9_12  and  C10_13 
REMARK    5  A    between atoms: C10_13  and  C11_14 
REMARK    6  A    between atoms: C11_14  and  N2_15 
REMARK    7  A    between atoms: C17_23  and  O2_24 
ROOT
HETATM    1  C1  UNL     1      14.876 -13.913  17.296  1.00  0.00     0.014 C 
HETATM    2  C2  UNL     1      15.407 -12.831  17.160  1.00  0.00    -0.091 C 
HETATM    3  C3  UNL     1      16.053 -11.530  17.019  1.00  0.00     0.270 C 
ENDROOT
BRANCH   3   4
HETATM    4  O1  UNL     1      16.032 -10.824  18.252  1.00  0.00    -0.324 OA
BRANCH   4   5
HETATM    5  C4  UNL     1      16.513 -11.462  19.398  1.00  0.00     0.146 A 
HETATM    6  C5  UNL     1      17.834 -11.862  19.501  1.00  0.00     0.057 A 
HETATM    7  C6  UNL     1      18.225 -12.483  20.664  1.00  0.00     0.022 A 
HETATM    8  C7  UNL     1      17.355 -12.726  21.739  1.00  0.00     0.045 A 
HETATM    9  C17 UNL     1      16.078 -12.302  21.550  1.00  0.00     0.156 A 
HETATM   10  N4  UNL     1      15.658 -11.679  20.400  1.00  0.00    -0.312 N 
HETATM   11  C18 UNL     1      14.276 -11.256  20.280  1.00  0.00     0.160 C 
BRANCH   8  12
HETATM   12  C8  UNL     1      17.902 -13.449  22.875  1.00  0.00     0.082 A 
HETATM   13  N1  UNL     1      17.108 -14.240  23.681  1.00  0.00    -0.343 N 
HETATM   14  C9  UNL     1      17.821 -14.851  24.614  1.00  0.00     0.086 A 
ATOM     15  H1  UNL     1      16.099 -14.341  23.572  1.00  0.00     0.167 HD
HETATM   16  N3  UNL     1      19.085 -14.483  24.448  1.00  0.00    -0.333 N 
HETATM   17  C15 UNL     1      20.251 -14.876  25.215  1.00  0.00     0.158 C 
HETATM   18  C16 UNL     1      19.151 -13.625  23.383  1.00  0.00     0.111 A 
HETATM   19 BR1  UNL     1      20.783 -12.900  22.725  1.00  0.00    -0.029 Br
BRANCH  14  20
HETATM   20  C10 UNL     1      17.332 -15.794  25.684  1.00  0.00     0.104 C 
BRANCH  20  21
HETATM   21  C11 UNL     1      16.737 -17.026  25.037  1.00  0.00     0.243 C 
BRANCH  21  22
HETATM   22  N2  UNL     1      17.329 -18.241  25.497  1.00  0.00    -0.078 N 
HETATM   23  C12 UNL     1      18.019 -18.956  24.438  1.00  0.00     0.271 C 
HETATM   24  C13 UNL     1      18.244 -18.029  26.612  1.00  0.00     0.271 C 
HETATM   25  C14 UNL     1      16.265 -19.106  25.976  1.00  0.00     0.271 C 
ENDBRANCH  21  22
ENDBRANCH  20  21
ENDBRANCH  14  20
ENDBRANCH   8  12
BRANCH   9  26
HETATM   26  O2  UNL     1      15.121 -12.484  22.513  1.00  0.00    -0.345 OA
ATOM     27  H2  UNL     1      14.260 -12.090  22.430  1.00  0.00     0.219 HD
ENDBRANCH   9  26
ENDBRANCH   4   5
ENDBRANCH   3   4
TORSDOF 7
ENDMDL
