MODEL 1
REMARK VINA RESULT: -6.273482175      0.000      0.000
REMARK  6 active torsions:
REMARK  status: ('A' for Active; 'I' for Inactive)
REMARK    1  A    between atoms: C4_9  and  C5_10 
REMARK       I    between atoms: C5_10  and  N3_12 
REMARK    2  A    between atoms: N3_12  and  C6_13 
REMARK    3  A    between atoms: N3_12  and  C7_15 
REMARK    4  A    between atoms: C7_15  and  C8_16 
REMARK    5  A    between atoms: C8_16  and  C9_17 
REMARK    6  A    between atoms: C9_17  and  N4_18 
ROOT
HETATM    1  C5  UNL     1      20.225 -13.650  23.060  1.00  0.00     0.245 C 
HETATM    2  O1  UNL     1      21.100 -13.080  22.311  1.00  0.00    -0.271 OA
HETATM    3  N3  UNL     1      18.876 -13.283  22.944  1.00  0.00    -0.341 N 
ENDROOT
BRANCH   3   4
HETATM    4  C6  UNL     1      17.845 -13.902  23.741  1.00  0.00     0.210 C 
HETATM    5 BR1  UNL     1      17.219 -15.583  23.039  1.00  0.00    -0.075 Br
ENDBRANCH   3   4
BRANCH   3   6
HETATM    6  C7  UNL     1      18.502 -12.259  22.006  1.00  0.00     0.128 C 
BRANCH   6   7
HETATM    7  C8  UNL     1      18.031 -12.685  20.680  1.00  0.00     0.040 C 
BRANCH   7   8
HETATM    8  C9  UNL     1      17.610 -11.634  19.712  1.00  0.00     0.128 C 
BRANCH   8   9
HETATM    9  N4  UNL     1      16.182 -11.624  19.621  1.00  0.00    -0.371 N 
HETATM   10  C10 UNL     1      15.444 -10.885  20.553  1.00  0.00     0.091 C 
HETATM   11  C11 UNL     1      14.675 -11.789  21.490  1.00  0.00     0.281 C 
HETATM   12  N5  UNL     1      13.796 -12.670  20.758  1.00  0.00    -0.066 N 
HETATM   13  C12 UNL     1      12.428 -12.334  21.077  1.00  0.00     0.272 C 
HETATM   14  C13 UNL     1      13.992 -14.057  21.164  1.00  0.00     0.272 C 
HETATM   15  C14 UNL     1      14.034 -12.619  19.329  1.00  0.00     0.281 C 
HETATM   16  C15 UNL     1      15.533 -12.764  19.122  1.00  0.00     0.091 C 
ENDBRANCH   8   9
ENDBRANCH   7   8
ENDBRANCH   6   7
ENDBRANCH   3   6
BRANCH   1  17
HETATM   17  C4  UNL     1      20.787 -14.664  23.981  1.00  0.00     0.198 C 
HETATM   18  C2  UNL     1      21.195 -14.018  25.305  1.00  0.00     0.111 C 
HETATM   19  C1  UNL     1      21.984 -12.750  25.057  1.00  0.00     0.034 C 
HETATM   20  N1  UNL     1      22.131 -15.003  25.828  1.00  0.00    -0.361 N 
HETATM   21  C3  UNL     1      22.827 -15.465  24.676  1.00  0.00     0.168 C 
ATOM     22  H1  UNL     1      22.258 -15.295  26.797  1.00  0.00     0.162 HD
HETATM   23  S1  UNL     1      24.233 -16.320  24.644  1.00  0.00    -0.041 SA
HETATM   24  N2  UNL     1      22.125 -15.072  23.513  1.00  0.00    -0.352 N 
ATOM     25  H2  UNL     1      22.470 -15.070  22.553  1.00  0.00     0.162 HD
ENDBRANCH   1  17
TORSDOF 6
ENDMDL
MODEL 2
REMARK VINA RESULT: -6.257515800      4.026      7.743
REMARK  6 active torsions:
REMARK  status: ('A' for Active; 'I' for Inactive)
REMARK    1  A    between atoms: C4_9  and  C5_10 
REMARK       I    between atoms: C5_10  and  N3_12 
REMARK    2  A    between atoms: N3_12  and  C6_13 
REMARK    3  A    between atoms: N3_12  and  C7_15 
REMARK    4  A    between atoms: C7_15  and  C8_16 
REMARK    5  A    between atoms: C8_16  and  C9_17 
REMARK    6  A    between atoms: C9_17  and  N4_18 
ROOT
HETATM    1  C5  UNL     1      14.353 -12.494  21.186  1.00  0.00     0.245 C 
HETATM    2  O1  UNL     1      15.168 -12.327  22.165  1.00  0.00    -0.271 OA
HETATM    3  N3  UNL     1      14.718 -13.331  20.121  1.00  0.00    -0.341 N 
ENDROOT
BRANCH   3   4
HETATM    4  C6  UNL     1      13.837 -13.576  19.005  1.00  0.00     0.210 C 
HETATM    5 BR1  UNL     1      12.540 -14.964  19.324  1.00  0.00    -0.075 Br
ENDBRANCH   3   4
BRANCH   3   6
HETATM    6  C7  UNL     1      16.008 -13.966  20.135  1.00  0.00     0.128 C 
BRANCH   6   7
HETATM    7  C8  UNL     1      16.074 -15.373  20.559  1.00  0.00     0.040 C 
BRANCH   7   8
HETATM    8  C9  UNL     1      16.111 -15.665  22.019  1.00  0.00     0.128 C 
BRANCH   8   9
HETATM    9  N4  UNL     1      17.439 -15.451  22.508  1.00  0.00    -0.371 N 
HETATM   10  C10 UNL     1      17.667 -14.436  23.444  1.00  0.00     0.091 C 
HETATM   11  C11 UNL     1      18.461 -13.300  22.842  1.00  0.00     0.281 C 
HETATM   12  N5  UNL     1      19.720 -13.767  22.312  1.00  0.00    -0.066 N 
HETATM   13  C12 UNL     1      20.795 -13.189  23.084  1.00  0.00     0.272 C 
HETATM   14  C13 UNL     1      19.905 -13.321  20.936  1.00  0.00     0.272 C 
HETATM   15  C14 UNL     1      19.802 -15.214  22.291  1.00  0.00     0.281 C 
HETATM   16  C15 UNL     1      18.520 -15.724  21.655  1.00  0.00     0.091 C 
ENDBRANCH   8   9
ENDBRANCH   7   8
ENDBRANCH   6   7
ENDBRANCH   3   6
BRANCH   1  17
HETATM   17  C4  UNL     1      13.080 -11.750  21.325  1.00  0.00     0.198 C 
HETATM   18  C2  UNL     1      13.177 -10.389  20.636  1.00  0.00     0.111 C 
HETATM   19  C1  UNL     1      14.468  -9.693  21.012  1.00  0.00     0.034 C 
HETATM   20  N1  UNL     1      12.097  -9.660  21.287  1.00  0.00    -0.361 N 
HETATM   21  C3  UNL     1      12.140 -10.111  22.636  1.00  0.00     0.168 C 
ATOM     22  H1  UNL     1      11.458  -8.983  20.872  1.00  0.00     0.162 HD
HETATM   23  S1  UNL     1      11.410  -9.416  23.937  1.00  0.00    -0.041 SA
HETATM   24  N2  UNL     1      12.929 -11.282  22.716  1.00  0.00    -0.352 N 
ATOM     25  H2  UNL     1      13.313 -11.713  23.558  1.00  0.00     0.162 HD
ENDBRANCH   1  17
TORSDOF 6
ENDMDL
MODEL 3
REMARK VINA RESULT: -6.232797212      3.479      7.860
REMARK  6 active torsions:
REMARK  status: ('A' for Active; 'I' for Inactive)
REMARK    1  A    between atoms: C4_9  and  C5_10 
REMARK       I    between atoms: C5_10  and  N3_12 
REMARK    2  A    between atoms: N3_12  and  C6_13 
REMARK    3  A    between atoms: N3_12  and  C7_15 
REMARK    4  A    between atoms: C7_15  and  C8_16 
REMARK    5  A    between atoms: C8_16  and  C9_17 
REMARK    6  A    between atoms: C9_17  and  N4_18 
ROOT
HETATM    1  C5  UNL     1      16.551 -11.822  20.932  1.00  0.00     0.245 C 
HETATM    2  O1  UNL     1      16.817 -10.800  20.201  1.00  0.00    -0.271 OA
HETATM    3  N3  UNL     1      17.507 -12.841  21.065  1.00  0.00    -0.341 N 
ENDROOT
BRANCH   3   4
HETATM    4  C6  UNL     1      17.276 -14.002  21.889  1.00  0.00     0.210 C 
HETATM    5 BR1  UNL     1      16.551 -15.508  20.931  1.00  0.00    -0.075 Br
ENDBRANCH   3   4
BRANCH   3   6
HETATM    6  C7  UNL     1      18.755 -12.732  20.360  1.00  0.00     0.128 C 
BRANCH   6   7
HETATM    7  C8  UNL     1      19.926 -13.413  20.933  1.00  0.00     0.040 C 
BRANCH   7   8
HETATM    8  C9  UNL     1      20.669 -12.732  22.030  1.00  0.00     0.128 C 
BRANCH   8   9
HETATM    9  N4  UNL     1      20.521 -13.488  23.237  1.00  0.00    -0.371 N 
HETATM   10  C10 UNL     1      20.958 -12.935  24.446  1.00  0.00     0.091 C 
HETATM   11  C11 UNL     1      22.176 -13.657  24.974  1.00  0.00     0.281 C 
HETATM   12  N5  UNL     1      21.913 -15.066  25.148  1.00  0.00    -0.066 N 
HETATM   13  C12 UNL     1      21.973 -15.382  26.556  1.00  0.00     0.272 C 
HETATM   14  C13 UNL     1      22.935 -15.872  24.493  1.00  0.00     0.272 C 
HETATM   15  C14 UNL     1      20.642 -15.461  24.572  1.00  0.00     0.281 C 
HETATM   16  C15 UNL     1      20.594 -14.888  23.165  1.00  0.00     0.091 C 
ENDBRANCH   8   9
ENDBRANCH   7   8
ENDBRANCH   6   7
ENDBRANCH   3   6
BRANCH   1  17
HETATM   17  C4  UNL     1      15.214 -11.780  21.566  1.00  0.00     0.198 C 
HETATM   18  C2  UNL     1      14.190 -12.519  20.705  1.00  0.00     0.111 C 
HETATM   19  C1  UNL     1      14.316 -12.105  19.254  1.00  0.00     0.034 C 
HETATM   20  N1  UNL     1      12.941 -11.955  21.199  1.00  0.00    -0.361 N 
HETATM   21  C3  UNL     1      13.251 -10.589  21.445  1.00  0.00     0.168 C 
ATOM     22  H1  UNL     1      12.049 -12.431  21.337  1.00  0.00     0.162 HD
HETATM   23  S1  UNL     1      12.185  -9.357  21.681  1.00  0.00    -0.041 SA
HETATM   24  N2  UNL     1      14.655 -10.419  21.455  1.00  0.00    -0.352 N 
ATOM     25  H2  UNL     1      15.173  -9.542  21.397  1.00  0.00     0.162 HD
ENDBRANCH   1  17
TORSDOF 6
ENDMDL
MODEL 4
REMARK VINA RESULT: -6.200066902      4.146      7.768
REMARK  6 active torsions:
REMARK  status: ('A' for Active; 'I' for Inactive)
REMARK    1  A    between atoms: C4_9  and  C5_10 
REMARK       I    between atoms: C5_10  and  N3_12 
REMARK    2  A    between atoms: N3_12  and  C6_13 
REMARK    3  A    between atoms: N3_12  and  C7_15 
REMARK    4  A    between atoms: C7_15  and  C8_16 
REMARK    5  A    between atoms: C8_16  and  C9_17 
REMARK    6  A    between atoms: C9_17  and  N4_18 
ROOT
HETATM    1  C5  UNL     1      13.388 -14.184  20.916  1.00  0.00     0.245 C 
HETATM    2  O1  UNL     1      13.176 -14.884  21.972  1.00  0.00    -0.271 OA
HETATM    3  N3  UNL     1      14.156 -14.725  19.874  1.00  0.00    -0.341 N 
ENDROOT
BRANCH   3   4
HETATM    4  C6  UNL     1      14.410 -13.998  18.654  1.00  0.00     0.210 C 
HETATM    5 BR1  UNL     1      14.731 -15.124  17.125  1.00  0.00    -0.075 Br
ENDBRANCH   3   4
BRANCH   3   6
HETATM    6  C7  UNL     1      14.711 -16.044  20.019  1.00  0.00     0.128 C 
BRANCH   6   7
HETATM    7  C8  UNL     1      16.109 -16.152  20.463  1.00  0.00     0.040 C 
BRANCH   7   8
HETATM    8  C9  UNL     1      16.377 -16.243  21.925  1.00  0.00     0.128 C 
BRANCH   8   9
HETATM    9  N4  UNL     1      17.149 -15.108  22.333  1.00  0.00    -0.371 N 
HETATM   10  C10 UNL     1      17.909 -14.422  21.379  1.00  0.00     0.091 C 
HETATM   11  C11 UNL     1      19.390 -14.625  21.604  1.00  0.00     0.281 C 
HETATM   12  N5  UNL     1      19.777 -14.207  22.930  1.00  0.00    -0.066 N 
HETATM   13  C12 UNL     1      20.656 -13.066  22.822  1.00  0.00     0.272 C 
HETATM   14  C13 UNL     1      20.531 -15.254  23.608  1.00  0.00     0.272 C 
HETATM   15  C14 UNL     1      18.631 -13.914  23.769  1.00  0.00     0.281 C 
HETATM   16  C15 UNL     1      17.671 -15.084  23.635  1.00  0.00     0.091 C 
ENDBRANCH   8   9
ENDBRANCH   7   8
ENDBRANCH   6   7
ENDBRANCH   3   6
BRANCH   1  17
HETATM   17  C4  UNL     1      12.760 -12.843  20.943  1.00  0.00     0.198 C 
HETATM   18  C2  UNL     1      13.824 -11.751  20.834  1.00  0.00     0.111 C 
HETATM   19  C1  UNL     1      14.973 -12.032  21.780  1.00  0.00     0.034 C 
HETATM   20  N1  UNL     1      13.109 -10.600  21.367  1.00  0.00    -0.361 N 
HETATM   21  C3  UNL     1      12.324 -11.139  22.424  1.00  0.00     0.168 C 
ATOM     22  H1  UNL     1      13.159  -9.630  21.054  1.00  0.00     0.162 HD
HETATM   23  S1  UNL     1      11.568 -10.304  23.624  1.00  0.00    -0.041 SA
HETATM   24  N2  UNL     1      12.279 -12.548  22.306  1.00  0.00    -0.352 N 
ATOM     25  H2  UNL     1      11.979 -13.219  23.014  1.00  0.00     0.162 HD
ENDBRANCH   1  17
TORSDOF 6
ENDMDL
MODEL 5
REMARK VINA RESULT: -6.154273055      4.076      7.662
REMARK  6 active torsions:
REMARK  status: ('A' for Active; 'I' for Inactive)
REMARK    1  A    between atoms: C4_9  and  C5_10 
REMARK       I    between atoms: C5_10  and  N3_12 
REMARK    2  A    between atoms: N3_12  and  C6_13 
REMARK    3  A    between atoms: N3_12  and  C7_15 
REMARK    4  A    between atoms: C7_15  and  C8_16 
REMARK    5  A    between atoms: C8_16  and  C9_17 
REMARK    6  A    between atoms: C9_17  and  N4_18 
ROOT
HETATM    1  C5  UNL     1      13.565 -13.217  19.714  1.00  0.00     0.245 C 
HETATM    2  O1  UNL     1      14.489 -13.415  18.844  1.00  0.00    -0.271 OA
HETATM    3  N3  UNL     1      13.607 -12.065  20.513  1.00  0.00    -0.341 N 
ENDROOT
BRANCH   3   4
HETATM    4  C6  UNL     1      12.587 -11.776  21.491  1.00  0.00     0.210 C 
HETATM    5 BR1  UNL     1      12.314  -9.894  21.802  1.00  0.00    -0.075 Br
ENDBRANCH   3   4
BRANCH   3   6
HETATM    6  C7  UNL     1      14.699 -11.142  20.361  1.00  0.00     0.128 C 
BRANCH   6   7
HETATM    7  C8  UNL     1      15.906 -11.370  21.169  1.00  0.00     0.040 C 
BRANCH   7   8
HETATM    8  C9  UNL     1      17.227 -11.357  20.480  1.00  0.00     0.128 C 
BRANCH   8   9
HETATM    9  N4  UNL     1      17.894 -12.600  20.718  1.00  0.00    -0.371 N 
HETATM   10  C10 UNL     1      17.360 -13.492  21.655  1.00  0.00     0.091 C 
HETATM   11  C11 UNL     1      18.237 -13.593  22.882  1.00  0.00     0.281 C 
HETATM   12  N5  UNL     1      19.578 -13.997  22.531  1.00  0.00    -0.066 N 
HETATM   13  C12 UNL     1      19.834 -15.303  23.093  1.00  0.00     0.272 C 
HETATM   14  C13 UNL     1      20.564 -13.092  23.110  1.00  0.00     0.272 C 
HETATM   15  C14 UNL     1      19.797 -13.986  21.098  1.00  0.00     0.281 C 
HETATM   16  C15 UNL     1      19.290 -12.650  20.581  1.00  0.00     0.091 C 
ENDBRANCH   8   9
ENDBRANCH   7   8
ENDBRANCH   6   7
ENDBRANCH   3   6
BRANCH   1  17
HETATM   17  C4  UNL     1      12.531 -14.278  19.750  1.00  0.00     0.198 C 
HETATM   18  C2  UNL     1      12.722 -15.168  20.978  1.00  0.00     0.111 C 
HETATM   19  C1  UNL     1      14.174 -15.567  21.125  1.00  0.00     0.034 C 
HETATM   20  N1  UNL     1      11.992 -16.364  20.579  1.00  0.00    -0.361 N 
HETATM   21  C3  UNL     1      12.270 -16.492  19.190  1.00  0.00     0.168 C 
ATOM     22  H1  UNL     1      11.415 -16.970  21.162  1.00  0.00     0.162 HD
HETATM   23  S1  UNL     1      12.023 -17.819  18.247  1.00  0.00    -0.041 SA
HETATM   24  N2  UNL     1      12.813 -15.280  18.704  1.00  0.00    -0.352 N 
ATOM     25  H2  UNL     1      13.297 -15.129  17.819  1.00  0.00     0.162 HD
ENDBRANCH   1  17
TORSDOF 6
ENDMDL
