MODEL 1
REMARK VINA RESULT: -7.122262219      0.000      0.000
REMARK  7 active torsions:
REMARK  status: ('A' for Active; 'I' for Inactive)
REMARK    1  A    between atoms: C1_2  and  C2_4 
REMARK    2  A    between atoms: C2_4  and  N2_5 
REMARK    3  A    between atoms: N3_8  and  C5_9 
REMARK    4  A    between atoms: C5_9  and  C6_10 
REMARK    5  A    between atoms: C6_10  and  C7_11 
REMARK    6  A    between atoms: C7_11  and  C8_12 
REMARK    7  A    between atoms: N4_16  and  C11_17 
ROOT
HETATM    1  N2  UNL     1      14.821 -12.613  18.822  1.00  0.00     0.018 N 
HETATM    2  C3  UNL     1      16.079 -12.760  19.586  1.00  0.00     0.280 C 
HETATM    3  C4  UNL     1      16.039 -11.734  20.670  1.00  0.00     0.268 C 
HETATM    4  N3  UNL     1      14.624 -11.402  20.761  1.00  0.00    -0.036 N 
HETATM    5  C9  UNL     1      14.006 -12.464  21.502  1.00  0.00     0.284 C 
HETATM    6  C10 UNL     1      12.780 -13.006  20.802  1.00  0.00     0.093 C 
HETATM    7  N4  UNL     1      13.015 -13.956  19.817  1.00  0.00    -0.344 N 
HETATM    8  C17 UNL     1      14.051 -13.811  18.914  1.00  0.00     0.304 C 
HETATM    9  C18 UNL     1      14.245 -11.430  19.355  1.00  0.00     0.486 C 
ENDROOT
BRANCH   7  10
HETATM   10  C11 UNL     1      12.571 -15.294  20.120  1.00  0.00     0.090 C 
HETATM   11  C12 UNL     1      11.904 -15.950  18.941  1.00  0.00     0.026 C 
HETATM   12  C13 UNL     1      11.969 -17.436  18.908  1.00  0.00     0.002 C 
HETATM   13  C14 UNL     1      11.959 -17.927  20.347  1.00  0.00     0.000 C 
HETATM   14  C15 UNL     1      13.349 -17.572  20.872  1.00  0.00     0.002 C 
HETATM   15  C16 UNL     1      13.633 -16.102  20.780  1.00  0.00     0.026 C 
ENDBRANCH   7  10
BRANCH   1  16
HETATM   16  C2  UNL     1      15.199 -12.509  17.430  1.00  0.00     0.282 C 
BRANCH  16  17
HETATM   17  C1  UNL     1      15.683 -11.275  16.906  1.00  0.00     0.278 C 
HETATM   18  N1  UNL     1      14.817 -10.552  15.987  1.00  0.00    -0.057 NA
HETATM   19  O1  UNL     1      16.769 -10.734  17.143  1.00  0.00    -0.270 OA
ENDBRANCH  16  17
ENDBRANCH   1  16
BRANCH   4  20
HETATM   20  C5  UNL     1      14.388 -10.080  21.257  1.00  0.00     0.240 C 
BRANCH  20  21
HETATM   21  C6  UNL     1      13.279  -9.331  20.595  1.00  0.00     0.029 C 
BRANCH  21  22
HETATM   22  C7  UNL     1      12.097  -9.340  21.552  1.00  0.00     0.012 C 
BRANCH  22  23
HETATM   23  C8  UNL     1      12.547  -9.110  22.967  1.00  0.00     0.085 C 
HETATM   24 BR1  UNL     1      11.370 -10.072  24.158  1.00  0.00    -0.097 Br
ENDBRANCH  22  23
ENDBRANCH  21  22
ENDBRANCH  20  21
ENDBRANCH   4  20
TORSDOF 7
ENDMDL
MODEL 2
REMARK VINA RESULT: -6.981720853      2.961      4.477
REMARK  7 active torsions:
REMARK  status: ('A' for Active; 'I' for Inactive)
REMARK    1  A    between atoms: C1_2  and  C2_4 
REMARK    2  A    between atoms: C2_4  and  N2_5 
REMARK    3  A    between atoms: N3_8  and  C5_9 
REMARK    4  A    between atoms: C5_9  and  C6_10 
REMARK    5  A    between atoms: C6_10  and  C7_11 
REMARK    6  A    between atoms: C7_11  and  C8_12 
REMARK    7  A    between atoms: N4_16  and  C11_17 
ROOT
HETATM    1  N2  UNL     1      14.091 -11.579  20.462  1.00  0.00     0.018 N 
HETATM    2  C3  UNL     1      14.584 -11.452  19.073  1.00  0.00     0.280 C 
HETATM    3  C4  UNL     1      16.067 -11.610  19.134  1.00  0.00     0.268 C 
HETATM    4  N3  UNL     1      16.278 -12.268  20.415  1.00  0.00    -0.036 N 
HETATM    5  C9  UNL     1      15.963 -13.653  20.216  1.00  0.00     0.284 C 
HETATM    6  C10 UNL     1      15.011 -14.176  21.269  1.00  0.00     0.093 C 
HETATM    7  N4  UNL     1      13.663 -13.932  21.041  1.00  0.00    -0.344 N 
HETATM    8  C17 UNL     1      13.225 -12.708  20.572  1.00  0.00     0.304 C 
HETATM    9  C18 UNL     1      15.280 -11.597  21.236  1.00  0.00     0.486 C 
ENDROOT
BRANCH   7  10
HETATM   10  C11 UNL     1      12.860 -15.092  20.743  1.00  0.00     0.090 C 
HETATM   11  C12 UNL     1      12.406 -15.112  19.308  1.00  0.00     0.026 C 
HETATM   12  C13 UNL     1      12.136 -16.460  18.736  1.00  0.00     0.002 C 
HETATM   13  C14 UNL     1      11.625 -17.342  19.865  1.00  0.00     0.000 C 
HETATM   14  C15 UNL     1      12.864 -17.614  20.716  1.00  0.00     0.002 C 
HETATM   15  C16 UNL     1      13.490 -16.351  21.229  1.00  0.00     0.026 C 
ENDBRANCH   7  10
BRANCH   1  16
HETATM   16  C2  UNL     1      13.247 -10.429  20.702  1.00  0.00     0.282 C 
BRANCH  16  17
HETATM   17  C1  UNL     1      13.097  -9.911  22.021  1.00  0.00     0.278 C 
HETATM   18  N1  UNL     1      12.322 -10.699  22.966  1.00  0.00    -0.057 NA
HETATM   19  O1  UNL     1      13.555  -8.853  22.468  1.00  0.00    -0.270 OA
ENDBRANCH  16  17
ENDBRANCH   1  16
BRANCH   4  20
HETATM   20  C5  UNL     1      17.567 -11.999  20.978  1.00  0.00     0.240 C 
BRANCH  20  21
HETATM   21  C6  UNL     1      18.641 -11.657  19.999  1.00  0.00     0.029 C 
BRANCH  21  22
HETATM   22  C7  UNL     1      19.892 -12.412  20.422  1.00  0.00     0.012 C 
BRANCH  22  23
HETATM   23  C8  UNL     1      19.562 -13.489  21.417  1.00  0.00     0.085 C 
HETATM   24 BR1  UNL     1      20.618 -13.211  23.008  1.00  0.00    -0.097 Br
ENDBRANCH  22  23
ENDBRANCH  21  22
ENDBRANCH  20  21
ENDBRANCH   4  20
TORSDOF 7
ENDMDL
MODEL 3
REMARK VINA RESULT: -6.949183929      2.728      4.941
REMARK  7 active torsions:
REMARK  status: ('A' for Active; 'I' for Inactive)
REMARK    1  A    between atoms: C1_2  and  C2_4 
REMARK    2  A    between atoms: C2_4  and  N2_5 
REMARK    3  A    between atoms: N3_8  and  C5_9 
REMARK    4  A    between atoms: C5_9  and  C6_10 
REMARK    5  A    between atoms: C6_10  and  C7_11 
REMARK    6  A    between atoms: C7_11  and  C8_12 
REMARK    7  A    between atoms: N4_16  and  C11_17 
ROOT
HETATM    1  N2  UNL     1      14.763 -13.640  19.674  1.00  0.00     0.018 N 
HETATM    2  C3  UNL     1      15.196 -12.999  18.413  1.00  0.00     0.280 C 
HETATM    3  C4  UNL     1      14.725 -11.583  18.475  1.00  0.00     0.268 C 
HETATM    4  N3  UNL     1      14.490 -11.373  19.895  1.00  0.00    -0.036 N 
HETATM    5  C9  UNL     1      15.777 -11.156  20.492  1.00  0.00     0.284 C 
HETATM    6  C10 UNL     1      15.995 -12.030  21.706  1.00  0.00     0.093 C 
HETATM    7  N4  UNL     1      16.435 -13.322  21.451  1.00  0.00    -0.344 N 
HETATM    8  C17 UNL     1      15.902 -14.070  20.419  1.00  0.00     0.304 C 
HETATM    9  C18 UNL     1      13.928 -12.663  20.274  1.00  0.00     0.486 C 
ENDROOT
BRANCH   7  10
HETATM   10  C11 UNL     1      17.784 -13.616  21.867  1.00  0.00     0.090 C 
HETATM   11  C12 UNL     1      18.805 -13.060  20.909  1.00  0.00     0.026 C 
HETATM   12  C13 UNL     1      20.137 -12.750  21.497  1.00  0.00     0.002 C 
HETATM   13  C14 UNL     1      20.388 -13.749  22.615  1.00  0.00     0.000 C 
HETATM   14  C15 UNL     1      19.450 -13.301  23.734  1.00  0.00     0.002 C 
HETATM   15  C16 UNL     1      18.014 -13.290  23.301  1.00  0.00     0.026 C 
ENDBRANCH   7  10
BRANCH   1  16
HETATM   16  C2  UNL     1      14.074 -14.855  19.298  1.00  0.00     0.282 C 
BRANCH  16  17
HETATM   17  C1  UNL     1      12.700 -15.034  19.632  1.00  0.00     0.278 C 
HETATM   18  N1  UNL     1      12.399 -15.693  20.894  1.00  0.00    -0.057 NA
HETATM   19  O1  UNL     1      11.715 -14.691  18.968  1.00  0.00    -0.270 OA
ENDBRANCH  16  17
ENDBRANCH   1  16
BRANCH   4  20
HETATM   20  C5  UNL     1      13.506 -10.367  20.159  1.00  0.00     0.240 C 
BRANCH  20  21
HETATM   21  C6  UNL     1      12.685 -10.574  21.389  1.00  0.00     0.029 C 
BRANCH  21  22
HETATM   22  C7  UNL     1      12.971  -9.406  22.322  1.00  0.00     0.012 C 
BRANCH  22  23
HETATM   23  C8  UNL     1      11.983  -9.365  23.454  1.00  0.00     0.085 C 
HETATM   24 BR1  UNL     1      12.174  -7.685  24.385  1.00  0.00    -0.097 Br
ENDBRANCH  22  23
ENDBRANCH  21  22
ENDBRANCH  20  21
ENDBRANCH   4  20
TORSDOF 7
ENDMDL
MODEL 4
REMARK VINA RESULT: -6.935131639      1.191      1.425
REMARK  7 active torsions:
REMARK  status: ('A' for Active; 'I' for Inactive)
REMARK    1  A    between atoms: C1_2  and  C2_4 
REMARK    2  A    between atoms: C2_4  and  N2_5 
REMARK    3  A    between atoms: N3_8  and  C5_9 
REMARK    4  A    between atoms: C5_9  and  C6_10 
REMARK    5  A    between atoms: C6_10  and  C7_11 
REMARK    6  A    between atoms: C7_11  and  C8_12 
REMARK    7  A    between atoms: N4_16  and  C11_17 
ROOT
HETATM    1  N2  UNL     1      15.029 -12.355  18.250  1.00  0.00     0.018 N 
HETATM    2  C3  UNL     1      16.235 -12.176  19.089  1.00  0.00     0.280 C 
HETATM    3  C4  UNL     1      15.870 -11.189  20.148  1.00  0.00     0.268 C 
HETATM    4  N3  UNL     1      14.415 -11.225  20.149  1.00  0.00    -0.036 N 
HETATM    5  C9  UNL     1      14.040 -12.406  20.874  1.00  0.00     0.284 C 
HETATM    6  C10 UNL     1      13.035 -13.244  20.114  1.00  0.00     0.093 C 
HETATM    7  N4  UNL     1      13.563 -14.107  19.163  1.00  0.00    -0.344 N 
HETATM    8  C17 UNL     1      14.582 -13.708  18.319  1.00  0.00     0.304 C 
HETATM    9  C18 UNL     1      14.142 -11.354  18.724  1.00  0.00     0.486 C 
ENDROOT
BRANCH   7  10
HETATM   10  C11 UNL     1      13.453 -15.513  19.466  1.00  0.00     0.090 C 
HETATM   11  C12 UNL     1      12.454 -15.778  20.561  1.00  0.00     0.026 C 
HETATM   12  C13 UNL     1      11.812 -17.121  20.535  1.00  0.00     0.002 C 
HETATM   13  C14 UNL     1      12.827 -18.103  19.973  1.00  0.00     0.000 C 
HETATM   14  C15 UNL     1      12.887 -17.766  18.484  1.00  0.00     0.002 C 
HETATM   15  C16 UNL     1      13.288 -16.341  18.240  1.00  0.00     0.026 C 
ENDBRANCH   7  10
BRANCH   1  16
HETATM   16  C2  UNL     1      15.454 -12.165  16.880  1.00  0.00     0.282 C 
BRANCH  16  17
HETATM   17  C1  UNL     1      15.566 -10.852  16.338  1.00  0.00     0.278 C 
HETATM   18  N1  UNL     1      16.878 -10.223  16.371  1.00  0.00    -0.057 NA
HETATM   19  O1  UNL     1      14.667 -10.169  15.833  1.00  0.00    -0.270 OA
ENDBRANCH  16  17
ENDBRANCH   1  16
BRANCH   4  20
HETATM   20  C5  UNL     1      13.823 -10.004  20.604  1.00  0.00     0.240 C 
BRANCH  20  21
HETATM   21  C6  UNL     1      13.547  -9.927  22.070  1.00  0.00     0.029 C 
BRANCH  21  22
HETATM   22  C7  UNL     1      12.092  -9.512  22.232  1.00  0.00     0.012 C 
BRANCH  22  23
HETATM   23  C8  UNL     1      11.705  -9.458  23.683  1.00  0.00     0.085 C 
HETATM   24 BR1  UNL     1      12.140  -7.712  24.379  1.00  0.00    -0.097 Br
ENDBRANCH  22  23
ENDBRANCH  21  22
ENDBRANCH  20  21
ENDBRANCH   4  20
TORSDOF 7
ENDMDL
MODEL 5
REMARK VINA RESULT: -6.883736010      3.004      4.581
REMARK  7 active torsions:
REMARK  status: ('A' for Active; 'I' for Inactive)
REMARK    1  A    between atoms: C1_2  and  C2_4 
REMARK    2  A    between atoms: C2_4  and  N2_5 
REMARK    3  A    between atoms: N3_8  and  C5_9 
REMARK    4  A    between atoms: C5_9  and  C6_10 
REMARK    5  A    between atoms: C6_10  and  C7_11 
REMARK    6  A    between atoms: C7_11  and  C8_12 
REMARK    7  A    between atoms: N4_16  and  C11_17 
ROOT
HETATM    1  N2  UNL     1      13.402 -11.794  20.869  1.00  0.00     0.018 N 
HETATM    2  C3  UNL     1      14.016 -11.272  19.629  1.00  0.00     0.280 C 
HETATM    3  C4  UNL     1      15.494 -11.352  19.822  1.00  0.00     0.268 C 
HETATM    4  N3  UNL     1      15.636 -12.314  20.905  1.00  0.00    -0.036 N 
HETATM    5  C9  UNL     1      15.466 -13.613  20.319  1.00  0.00     0.284 C 
HETATM    6  C10 UNL     1      14.464 -14.453  21.080  1.00  0.00     0.093 C 
HETATM    7  N4  UNL     1      13.129 -14.237  20.765  1.00  0.00    -0.344 N 
HETATM    8  C17 UNL     1      12.633 -12.962  20.580  1.00  0.00     0.304 C 
HETATM    9  C18 UNL     1      14.506 -11.947  21.748  1.00  0.00     0.486 C 
ENDROOT
BRANCH   7  10
HETATM   10  C11 UNL     1      12.465 -15.322  20.084  1.00  0.00     0.090 C 
HETATM   11  C12 UNL     1      12.848 -15.394  18.630  1.00  0.00     0.026 C 
HETATM   12  C13 UNL     1      12.752 -16.742  18.005  1.00  0.00     0.002 C 
HETATM   13  C14 UNL     1      11.608 -17.481  18.683  1.00  0.00     0.000 C 
HETATM   14  C15 UNL     1      12.155 -17.825  20.068  1.00  0.00     0.002 C 
HETATM   15  C16 UNL     1      12.570 -16.604  20.834  1.00  0.00     0.026 C 
ENDBRANCH   7  10
BRANCH   1  16
HETATM   16  C2  UNL     1      12.440 -10.802  21.298  1.00  0.00     0.282 C 
BRANCH  16  17
HETATM   17  C1  UNL     1      12.745  -9.926  22.380  1.00  0.00     0.278 C 
HETATM   18  N1  UNL     1      12.054 -10.152  23.639  1.00  0.00    -0.057 NA
HETATM   19  O1  UNL     1      13.542  -8.980  22.378  1.00  0.00    -0.270 OA
ENDBRANCH  16  17
ENDBRANCH   1  16
BRANCH   4  20
HETATM   20  C5  UNL     1      16.834 -12.130  21.667  1.00  0.00     0.240 C 
BRANCH  20  21
HETATM   21  C6  UNL     1      17.908 -13.142  21.436  1.00  0.00     0.029 C 
BRANCH  21  22
HETATM   22  C7  UNL     1      19.062 -12.792  22.364  1.00  0.00     0.012 C 
BRANCH  22  23
HETATM   23  C8  UNL     1      20.365 -12.761  21.617  1.00  0.00     0.085 C 
HETATM   24 BR1  UNL     1      20.066 -11.982  19.876  1.00  0.00    -0.097 Br
ENDBRANCH  22  23
ENDBRANCH  21  22
ENDBRANCH  20  21
ENDBRANCH   4  20
TORSDOF 7
ENDMDL
