MODEL 1
REMARK VINA RESULT: -6.821658998      0.000      0.000
REMARK  7 active torsions:
REMARK  status: ('A' for Active; 'I' for Inactive)
REMARK    1  A    between atoms: C3_3  and  C4_4 
REMARK    2  A    between atoms: C5_5  and  C6_6 
REMARK    3  A    between atoms: C6_6  and  N1_7 
REMARK    4  A    between atoms: N1_7  and  C7_8 
REMARK    5  A    between atoms: C7_8  and  C8_9 
REMARK    6  A    between atoms: C8_9  and  C9_10 
REMARK    7  A    between atoms: C9_10  and  N2_11 
ROOT
HETATM    1  C1  UNL     1      12.050  -7.470  24.580  1.00  0.00     0.113 C 
HETATM    2  C2  UNL     1      12.408  -8.472  23.568  1.00  0.00    -0.097 C 
HETATM    3  C3  UNL     1      12.724  -9.299  22.741  1.00  0.00    -0.015 C 
ENDROOT
BRANCH   3   4
HETATM    4  C4  UNL     1      13.119 -10.265  21.773  1.00  0.00    -0.013 C 
HETATM    5  C5  UNL     1      13.463 -11.075  20.940  1.00  0.00    -0.064 C 
BRANCH   5   6
HETATM    6  C6  UNL     1      13.865 -12.048  19.912  1.00  0.00     0.334 C 
BRANCH   6   7
HETATM    7  N1  UNL     1      15.286 -12.403  20.201  1.00  0.00    -0.036 N 
HETATM    8  C13 UNL     1      16.105 -11.218  19.968  1.00  0.00     0.361 C 
HETATM    9  N3  UNL     1      15.783 -10.987  18.551  1.00  0.00    -0.368 N 
HETATM   10  C14 UNL     1      15.605 -12.271  17.959  1.00  0.00     0.045 C 
ATOM     11  H3  UNL     1      15.702 -10.084  18.084  1.00  0.00     0.161 HD
HETATM   12  C15 UNL     1      15.454 -12.534  16.691  1.00  0.00     0.009 C 
HETATM   13  C17 UNL     1      15.630 -13.249  19.111  1.00  0.00     0.298 C 
HETATM   14  C16 UNL     1      15.282 -13.955  16.284  1.00  0.00     0.059 C 
HETATM   15 BR1  UNL     1      15.458 -11.120  15.435  1.00  0.00    -0.054 Br
BRANCH   7  16
HETATM   16  C7  UNL     1      15.306 -12.917  21.501  1.00  0.00     0.242 C 
BRANCH  16  17
HETATM   17  C8  UNL     1      16.450 -12.727  22.395  1.00  0.00     0.058 C 
BRANCH  17  18
HETATM   18  C9  UNL     1      17.614 -13.661  22.259  1.00  0.00     0.275 C 
BRANCH  18  19
HETATM   19  N2  UNL     1      18.723 -12.985  22.972  1.00  0.00     0.100 N 
HETATM   20  C10 UNL     1      18.782 -13.618  24.266  1.00  0.00     0.286 C 
HETATM   21  C11 UNL     1      20.045 -13.126  24.942  1.00  0.00     0.141 C 
HETATM   22  S1  UNL     1      21.176 -13.224  23.542  1.00  0.00     0.045 S 
HETATM   23  O1  UNL     1      21.918 -14.732  23.631  1.00  0.00    -0.256 OA
HETATM   24  C12 UNL     1      19.926 -13.340  22.253  1.00  0.00     0.380 C 
ENDBRANCH  18  19
ENDBRANCH  17  18
ENDBRANCH  16  17
ENDBRANCH   7  16
ENDBRANCH   6   7
ENDBRANCH   5   6
ENDBRANCH   3   4
TORSDOF 7
ENDMDL
MODEL 2
REMARK VINA RESULT: -6.579805161      2.153      2.779
REMARK  7 active torsions:
REMARK  status: ('A' for Active; 'I' for Inactive)
REMARK    1  A    between atoms: C3_3  and  C4_4 
REMARK    2  A    between atoms: C5_5  and  C6_6 
REMARK    3  A    between atoms: C6_6  and  N1_7 
REMARK    4  A    between atoms: N1_7  and  C7_8 
REMARK    5  A    between atoms: C7_8  and  C8_9 
REMARK    6  A    between atoms: C8_9  and  C9_10 
REMARK    7  A    between atoms: C9_10  and  N2_11 
ROOT
HETATM    1  C1  UNL     1      12.059  -7.531  24.641  1.00  0.00     0.113 C 
HETATM    2  C2  UNL     1      12.457  -8.400  23.527  1.00  0.00    -0.097 C 
HETATM    3  C3  UNL     1      12.789  -9.100  22.595  1.00  0.00    -0.015 C 
ENDROOT
BRANCH   3   4
HETATM    4  C4  UNL     1      13.173  -9.905  21.486  1.00  0.00    -0.013 C 
HETATM    5  C5  UNL     1      13.497 -10.575  20.530  1.00  0.00    -0.064 C 
BRANCH   5   6
HETATM    6  C6  UNL     1      13.869 -11.389  19.361  1.00  0.00     0.334 C 
BRANCH   6   7
HETATM    7  N1  UNL     1      15.165 -12.047  19.700  1.00  0.00    -0.036 N 
HETATM    8  C13 UNL     1      15.651 -12.731  18.507  1.00  0.00     0.361 C 
HETATM    9  N3  UNL     1      14.517 -13.641  18.282  1.00  0.00    -0.368 N 
HETATM   10  C14 UNL     1      14.022 -14.002  19.568  1.00  0.00     0.045 C 
ATOM     11  H3  UNL     1      14.155 -13.953  17.381  1.00  0.00     0.161 HD
HETATM   12  C15 UNL     1      13.118 -14.903  19.835  1.00  0.00     0.009 C 
HETATM   13  C17 UNL     1      14.765 -13.119  20.545  1.00  0.00     0.298 C 
HETATM   14  C16 UNL     1      12.744 -15.123  21.259  1.00  0.00     0.059 C 
HETATM   15 BR1  UNL     1      12.329 -15.883  18.423  1.00  0.00    -0.054 Br
BRANCH   7  16
HETATM   16  C7  UNL     1      15.993 -11.043  20.212  1.00  0.00     0.242 C 
BRANCH  16  17
HETATM   17  C8  UNL     1      17.008 -11.316  21.231  1.00  0.00     0.058 C 
BRANCH  17  18
HETATM   18  C9  UNL     1      18.377 -11.716  20.772  1.00  0.00     0.275 C 
BRANCH  18  19
HETATM   19  N2  UNL     1      18.616 -13.035  21.404  1.00  0.00     0.100 N 
HETATM   20  C10 UNL     1      19.993 -13.006  21.830  1.00  0.00     0.286 C 
HETATM   21  C11 UNL     1      20.217 -14.235  22.687  1.00  0.00     0.141 C 
HETATM   22  S1  UNL     1      18.695 -14.192  23.652  1.00  0.00     0.045 S 
HETATM   23  O1  UNL     1      19.049 -13.350  25.065  1.00  0.00    -0.256 OA
HETATM   24  C12 UNL     1      17.789 -13.058  22.589  1.00  0.00     0.380 C 
ENDBRANCH  18  19
ENDBRANCH  17  18
ENDBRANCH  16  17
ENDBRANCH   7  16
ENDBRANCH   6   7
ENDBRANCH   5   6
ENDBRANCH   3   4
TORSDOF 7
ENDMDL
MODEL 3
REMARK VINA RESULT: -6.577667526      4.232      6.752
REMARK  7 active torsions:
REMARK  status: ('A' for Active; 'I' for Inactive)
REMARK    1  A    between atoms: C3_3  and  C4_4 
REMARK    2  A    between atoms: C5_5  and  C6_6 
REMARK    3  A    between atoms: C6_6  and  N1_7 
REMARK    4  A    between atoms: N1_7  and  C7_8 
REMARK    5  A    between atoms: C7_8  and  C8_9 
REMARK    6  A    between atoms: C8_9  and  C9_10 
REMARK    7  A    between atoms: C9_10  and  N2_11 
ROOT
HETATM    1  C1  UNL     1      20.602 -11.612  19.053  1.00  0.00     0.113 C 
HETATM    2  C2  UNL     1      19.297 -11.657  19.724  1.00  0.00    -0.097 C 
HETATM    3  C3  UNL     1      18.210 -11.694  20.260  1.00  0.00    -0.015 C 
ENDROOT
BRANCH   3   4
HETATM    4  C4  UNL     1      16.925 -11.727  20.869  1.00  0.00    -0.013 C 
HETATM    5  C5  UNL     1      15.829 -11.736  21.387  1.00  0.00    -0.064 C 
BRANCH   5   6
HETATM    6  C6  UNL     1      14.509 -11.740  22.037  1.00  0.00     0.334 C 
BRANCH   6   7
HETATM    7  N1  UNL     1      13.504 -11.534  20.952  1.00  0.00    -0.036 N 
HETATM    8  C13 UNL     1      13.712 -10.205  20.389  1.00  0.00     0.361 C 
HETATM    9  N3  UNL     1      13.507  -9.402  21.605  1.00  0.00    -0.368 N 
HETATM   10  C14 UNL     1      12.510 -10.071  22.372  1.00  0.00     0.045 C 
ATOM     11  H3  UNL     1      13.986  -8.536  21.852  1.00  0.00     0.161 HD
HETATM   12  C15 UNL     1      11.923  -9.629  23.449  1.00  0.00     0.009 C 
HETATM   13  C17 UNL     1      12.286 -11.392  21.671  1.00  0.00     0.298 C 
HETATM   14  C16 UNL     1      10.902 -10.496  24.099  1.00  0.00     0.059 C 
HETATM   15 BR1  UNL     1      12.384  -7.928  24.135  1.00  0.00    -0.054 Br
BRANCH   7  16
HETATM   16  C7  UNL     1      13.657 -12.607  20.067  1.00  0.00     0.242 C 
BRANCH  16  17
HETATM   17  C8  UNL     1      13.031 -13.908  20.307  1.00  0.00     0.058 C 
BRANCH  17  18
HETATM   18  C9  UNL     1      12.560 -14.693  19.120  1.00  0.00     0.275 C 
BRANCH  18  19
HETATM   19  N2  UNL     1      12.924 -16.096  19.429  1.00  0.00     0.100 N 
HETATM   20  C10 UNL     1      14.365 -16.114  19.463  1.00  0.00     0.286 C 
HETATM   21  C11 UNL     1      14.778 -17.467  20.003  1.00  0.00     0.141 C 
HETATM   22  S1  UNL     1      13.578 -17.620  21.339  1.00  0.00     0.045 S 
HETATM   23  O1  UNL     1      14.325 -17.026  22.725  1.00  0.00    -0.256 OA
HETATM   24  C12 UNL     1      12.449 -16.337  20.773  1.00  0.00     0.380 C 
ENDBRANCH  18  19
ENDBRANCH  17  18
ENDBRANCH  16  17
ENDBRANCH   7  16
ENDBRANCH   6   7
ENDBRANCH   5   6
ENDBRANCH   3   4
TORSDOF 7
ENDMDL
MODEL 4
REMARK VINA RESULT: -6.560567104      4.166      5.293
REMARK  7 active torsions:
REMARK  status: ('A' for Active; 'I' for Inactive)
REMARK    1  A    between atoms: C3_3  and  C4_4 
REMARK    2  A    between atoms: C5_5  and  C6_6 
REMARK    3  A    between atoms: C6_6  and  N1_7 
REMARK    4  A    between atoms: N1_7  and  C7_8 
REMARK    5  A    between atoms: C7_8  and  C8_9 
REMARK    6  A    between atoms: C8_9  and  C9_10 
REMARK    7  A    between atoms: C9_10  and  N2_11 
ROOT
HETATM    1  C1  UNL     1      12.086  -7.280  24.694  1.00  0.00     0.113 C 
HETATM    2  C2  UNL     1      12.432  -8.233  23.632  1.00  0.00    -0.097 C 
HETATM    3  C3  UNL     1      12.727  -9.004  22.745  1.00  0.00    -0.015 C 
ENDROOT
BRANCH   3   4
HETATM    4  C4  UNL     1      13.078  -9.891  21.688  1.00  0.00    -0.013 C 
HETATM    5  C5  UNL     1      13.371 -10.633  20.776  1.00  0.00    -0.064 C 
BRANCH   5   6
HETATM    6  C6  UNL     1      13.703 -11.538  19.664  1.00  0.00     0.334 C 
BRANCH   6   7
HETATM    7  N1  UNL     1      14.783 -12.440  20.163  1.00  0.00    -0.036 N 
HETATM    8  C13 UNL     1      15.973 -11.632  20.403  1.00  0.00     0.361 C 
HETATM    9  N3  UNL     1      16.169 -11.096  19.046  1.00  0.00    -0.368 N 
HETATM   10  C14 UNL     1      15.761 -12.120  18.142  1.00  0.00     0.045 C 
ATOM     11  H3  UNL     1      16.526 -10.173  18.800  1.00  0.00     0.161 HD
HETATM   12  C15 UNL     1      15.906 -12.122  16.846  1.00  0.00     0.009 C 
HETATM   13  C17 UNL     1      15.131 -13.189  19.005  1.00  0.00     0.298 C 
HETATM   14  C16 UNL     1      15.405 -13.300  16.086  1.00  0.00     0.059 C 
HETATM   15 BR1  UNL     1      16.734 -10.651  15.994  1.00  0.00    -0.054 Br
BRANCH   7  16
HETATM   16  C7  UNL     1      14.257 -13.104  21.276  1.00  0.00     0.242 C 
BRANCH  16  17
HETATM   17  C8  UNL     1      13.072 -13.958  21.184  1.00  0.00     0.058 C 
BRANCH  17  18
HETATM   18  C9  UNL     1      13.252 -15.435  21.360  1.00  0.00     0.275 C 
BRANCH  18  19
HETATM   19  N2  UNL     1      12.135 -16.043  20.600  1.00  0.00     0.100 N 
HETATM   20  C10 UNL     1      12.237 -15.493  19.272  1.00  0.00     0.286 C 
HETATM   21  C11 UNL     1      11.264 -16.259  18.399  1.00  0.00     0.141 C 
HETATM   22  S1  UNL     1      11.593 -17.926  19.000  1.00  0.00     0.045 S 
HETATM   23  O1  UNL     1      12.761 -18.581  17.981  1.00  0.00    -0.256 OA
HETATM   24  C12 UNL     1      12.439 -17.454  20.517  1.00  0.00     0.380 C 
ENDBRANCH  18  19
ENDBRANCH  17  18
ENDBRANCH  16  17
ENDBRANCH   7  16
ENDBRANCH   6   7
ENDBRANCH   5   6
ENDBRANCH   3   4
TORSDOF 7
ENDMDL
MODEL 5
REMARK VINA RESULT: -6.557790383      4.702      7.271
REMARK  7 active torsions:
REMARK  status: ('A' for Active; 'I' for Inactive)
REMARK    1  A    between atoms: C3_3  and  C4_4 
REMARK    2  A    between atoms: C5_5  and  C6_6 
REMARK    3  A    between atoms: C6_6  and  N1_7 
REMARK    4  A    between atoms: N1_7  and  C7_8 
REMARK    5  A    between atoms: C7_8  and  C8_9 
REMARK    6  A    between atoms: C8_9  and  C9_10 
REMARK    7  A    between atoms: C9_10  and  N2_11 
ROOT
HETATM    1  C1  UNL     1      20.660 -11.614  19.200  1.00  0.00     0.113 C 
HETATM    2  C2  UNL     1      19.308 -11.642  19.771  1.00  0.00    -0.097 C 
HETATM    3  C3  UNL     1      18.200 -11.664  20.263  1.00  0.00    -0.015 C 
ENDROOT
BRANCH   3   4
HETATM    4  C4  UNL     1      16.909 -11.700  20.860  1.00  0.00    -0.013 C 
HETATM    5  C5  UNL     1      15.815 -11.717  21.380  1.00  0.00    -0.064 C 
BRANCH   5   6
HETATM    6  C6  UNL     1      14.495 -11.747  22.032  1.00  0.00     0.334 C 
BRANCH   6   7
HETATM    7  N1  UNL     1      13.487 -11.545  20.950  1.00  0.00    -0.036 N 
HETATM    8  C13 UNL     1      13.684 -10.212  20.390  1.00  0.00     0.361 C 
HETATM    9  N3  UNL     1      13.477  -9.414  21.609  1.00  0.00    -0.368 N 
HETATM   10  C14 UNL     1      12.487 -10.093  22.376  1.00  0.00     0.045 C 
ATOM     11  H3  UNL     1      13.950  -8.545  21.856  1.00  0.00     0.161 HD
HETATM   12  C15 UNL     1      11.900  -9.657  23.456  1.00  0.00     0.009 C 
HETATM   13  C17 UNL     1      12.269 -11.412  21.672  1.00  0.00     0.298 C 
HETATM   14  C16 UNL     1      10.886 -10.533  24.107  1.00  0.00     0.059 C 
HETATM   15 BR1  UNL     1      12.351  -7.955  24.145  1.00  0.00    -0.054 Br
BRANCH   7  16
HETATM   16  C7  UNL     1      13.644 -12.614  20.062  1.00  0.00     0.242 C 
BRANCH  16  17
HETATM   17  C8  UNL     1      12.771 -13.788  20.096  1.00  0.00     0.058 C 
BRANCH  17  18
HETATM   18  C9  UNL     1      13.182 -14.946  20.954  1.00  0.00     0.275 C 
BRANCH  18  19
HETATM   19  N2  UNL     1      12.229 -16.027  20.608  1.00  0.00     0.100 N 
HETATM   20  C10 UNL     1      12.121 -15.991  19.171  1.00  0.00     0.286 C 
HETATM   21  C11 UNL     1      11.344 -17.221  18.753  1.00  0.00     0.141 C 
HETATM   22  S1  UNL     1      12.125 -18.434  19.836  1.00  0.00     0.045 S 
HETATM   23  O1  UNL     1      13.375 -19.130  18.950  1.00  0.00    -0.256 OA
HETATM   24  C12 UNL     1      12.887 -17.262  20.969  1.00  0.00     0.380 C 
ENDBRANCH  18  19
ENDBRANCH  17  18
ENDBRANCH  16  17
ENDBRANCH   7  16
ENDBRANCH   6   7
ENDBRANCH   5   6
ENDBRANCH   3   4
TORSDOF 7
ENDMDL
