MODEL 1
REMARK VINA RESULT: -5.342546149      0.000      0.000
REMARK  15 active torsions:
REMARK  status: ('A' for Active; 'I' for Inactive)
REMARK    1  A    between atoms: C2_2  and  C3_3 
REMARK    2  A    between atoms: C3_3  and  C4_4 
REMARK    3  A    between atoms: C4_4  and  C5_5 
REMARK    4  A    between atoms: C5_5  and  C6_6 
REMARK    5  A    between atoms: C7_7  and  O1_8 
REMARK    6  A    between atoms: O1_8  and  C8_9 
REMARK    7  A    between atoms: C12_13  and  O2_14 
REMARK    8  A    between atoms: O2_14  and  C13_15 
REMARK    9  A    between atoms: C15_18  and  O4_19 
REMARK   10  A    between atoms: C16_21  and  C17_22 
REMARK   11  A    between atoms: C17_22  and  O5_23 
REMARK   12  A    between atoms: C18_27  and  C19_28 
REMARK   13  A    between atoms: C19_28  and  O8_29 
REMARK   14  A    between atoms: C20_31  and  O9_32 
REMARK   15  A    between atoms: C21_34  and  O10_35 
ROOT
HETATM    1  C6  UNL     1      31.561 -41.175  -6.907  1.00  0.00     0.072 C 
HETATM    2  C7  UNL     1      33.002 -40.881  -6.529  1.00  0.00     0.270 C 
HETATM    3  O7  UNL     1      33.629 -40.076  -7.421  1.00  0.00    -0.351 OA
HETATM    4  C18 UNL     1      33.637 -40.346  -8.732  1.00  0.00     0.179 C 
HETATM    5  C20 UNL     1      32.395 -41.039  -9.199  1.00  0.00     0.178 C 
HETATM    6  C21 UNL     1      31.256 -40.650  -8.290  1.00  0.00     0.158 C 
ENDROOT
BRANCH   2   7
HETATM    7  O1  UNL     1      33.648 -42.106  -6.462  1.00  0.00    -0.331 OA
BRANCH   7   8
HETATM    8  C8  UNL     1      34.185 -42.381  -5.205  1.00  0.00     0.263 C 
HETATM    9  C9  UNL     1      34.434 -41.124  -4.440  1.00  0.00     0.061 C 
HETATM   10  C10 UNL     1      34.068 -41.139  -3.004  1.00  0.00     0.007 C 
HETATM   11  C11 UNL     1      34.997 -41.797  -2.067  1.00  0.00     0.035 C 
HETATM   12  C12 UNL     1      34.390 -42.969  -1.321  1.00  0.00     0.163 C 
HETATM   13  C15 UNL     1      33.582 -43.872  -2.180  1.00  0.00     0.178 C 
HETATM   14  C16 UNL     1      34.100 -43.994  -3.590  1.00  0.00     0.179 C 
HETATM   15  O6  UNL     1      33.347 -43.205  -4.454  1.00  0.00    -0.351 OA
BRANCH  12  16
HETATM   16  O2  UNL     1      35.465 -43.629  -0.666  1.00  0.00    -0.314 OA
BRANCH  16  17
HETATM   17  C13 UNL     1      35.680 -43.555   0.699  1.00  0.00     0.255 C 
HETATM   18  C14 UNL     1      35.962 -44.716   1.555  1.00  0.00     0.126 C 
HETATM   19  O3  UNL     1      35.627 -42.402   1.225  1.00  0.00    -0.266 OA
ENDBRANCH  16  17
ENDBRANCH  12  16
BRANCH  13  20
HETATM   20  O4  UNL     1      33.630 -45.157  -1.615  1.00  0.00    -0.390 OA
ATOM     21  H4  UNL     1      33.859 -45.768  -2.305  1.00  0.00     0.210 HD
ENDBRANCH  13  20
BRANCH  14  22
HETATM   22  C17 UNL     1      34.000 -45.433  -4.104  1.00  0.00     0.198 C 
BRANCH  22  23
HETATM   23  O5  UNL     1      32.662 -45.767  -4.170  1.00  0.00    -0.398 OA
ATOM     24  H5  UNL     1      32.535 -46.310  -4.939  1.00  0.00     0.209 HD
ENDBRANCH  22  23
ENDBRANCH  14  22
ENDBRANCH   7   8
ENDBRANCH   2   7
BRANCH   1  25
HETATM   25  C5  UNL     1      30.680 -40.547  -5.850  1.00  0.00     0.012 C 
BRANCH  25  26
HETATM   26  C4  UNL     1      29.533 -41.395  -5.426  1.00  0.00     0.001 C 
BRANCH  26  27
HETATM   27  C3  UNL     1      29.401 -41.379  -3.927  1.00  0.00    -0.000 C 
BRANCH  27  28
HETATM   28  C2  UNL     1      30.540 -42.047  -3.223  1.00  0.00    -0.005 C 
HETATM   29  C1  UNL     1      30.664 -41.514  -1.801  1.00  0.00     0.005 C 
ENDBRANCH  27  28
ENDBRANCH  26  27
ENDBRANCH  25  26
ENDBRANCH   1  25
BRANCH   6  30
HETATM   30  O10 UNL     1      30.134 -41.358  -8.786  1.00  0.00    -0.392 OA
ATOM     31  H10 UNL     1      29.402 -40.754  -8.826  1.00  0.00     0.210 HD
ENDBRANCH   6  30
BRANCH   4  32
HETATM   32  C19 UNL     1      34.887 -41.138  -9.094  1.00  0.00     0.198 C 
BRANCH  32  33
HETATM   33  O8  UNL     1      35.901 -40.871  -8.183  1.00  0.00    -0.398 OA
ATOM     34  H8  UNL     1      36.522 -40.257  -8.558  1.00  0.00     0.209 HD
ENDBRANCH  32  33
ENDBRANCH   4  32
BRANCH   5  35
HETATM   35  O9  UNL     1      32.628 -42.429  -9.102  1.00  0.00    -0.390 OA
ATOM     36  H9  UNL     1      31.944 -42.865  -9.595  1.00  0.00     0.210 HD
ENDBRANCH   5  35
TORSDOF 15
ENDMDL
MODEL 2
REMARK VINA RESULT: -5.305356775      2.610      5.622
REMARK  15 active torsions:
REMARK  status: ('A' for Active; 'I' for Inactive)
REMARK    1  A    between atoms: C2_2  and  C3_3 
REMARK    2  A    between atoms: C3_3  and  C4_4 
REMARK    3  A    between atoms: C4_4  and  C5_5 
REMARK    4  A    between atoms: C5_5  and  C6_6 
REMARK    5  A    between atoms: C7_7  and  O1_8 
REMARK    6  A    between atoms: O1_8  and  C8_9 
REMARK    7  A    between atoms: C12_13  and  O2_14 
REMARK    8  A    between atoms: O2_14  and  C13_15 
REMARK    9  A    between atoms: C15_18  and  O4_19 
REMARK   10  A    between atoms: C16_21  and  C17_22 
REMARK   11  A    between atoms: C17_22  and  O5_23 
REMARK   12  A    between atoms: C18_27  and  C19_28 
REMARK   13  A    between atoms: C19_28  and  O8_29 
REMARK   14  A    between atoms: C20_31  and  O9_32 
REMARK   15  A    between atoms: C21_34  and  O10_35 
ROOT
HETATM    1  C6  UNL     1      36.427 -40.847  -8.772  1.00  0.00     0.072 C 
HETATM    2  C7  UNL     1      35.397 -41.675  -8.023  1.00  0.00     0.270 C 
HETATM    3  O7  UNL     1      34.419 -42.156  -8.828  1.00  0.00    -0.351 OA
HETATM    4  C18 UNL     1      33.727 -41.360  -9.652  1.00  0.00     0.179 C 
HETATM    5  C20 UNL     1      34.530 -40.208 -10.173  1.00  0.00     0.178 C 
HETATM    6  C21 UNL     1      35.984 -40.608 -10.195  1.00  0.00     0.158 C 
ENDROOT
BRANCH   2   7
HETATM    7  O1  UNL     1      34.850 -40.843  -7.058  1.00  0.00    -0.331 OA
BRANCH   7   8
HETATM    8  C8  UNL     1      34.293 -41.534  -5.983  1.00  0.00     0.263 C 
HETATM    9  C9  UNL     1      35.323 -41.836  -4.947  1.00  0.00     0.061 C 
HETATM   10  C10 UNL     1      34.917 -41.646  -3.534  1.00  0.00     0.007 C 
HETATM   11  C11 UNL     1      34.096 -42.699  -2.908  1.00  0.00     0.035 C 
HETATM   12  C12 UNL     1      32.738 -42.220  -2.435  1.00  0.00     0.163 C 
HETATM   13  C15 UNL     1      32.041 -41.340  -3.408  1.00  0.00     0.178 C 
HETATM   14  C16 UNL     1      32.317 -41.689  -4.848  1.00  0.00     0.179 C 
HETATM   15  O6  UNL     1      33.256 -40.816  -5.389  1.00  0.00    -0.351 OA
BRANCH  12  16
HETATM   16  O2  UNL     1      31.997 -43.384  -2.097  1.00  0.00    -0.314 OA
BRANCH  16  17
HETATM   17  C13 UNL     1      32.088 -44.570  -2.803  1.00  0.00     0.255 C 
HETATM   18  C14 UNL     1      32.955 -45.694  -2.422  1.00  0.00     0.126 C 
HETATM   19  O3  UNL     1      31.368 -44.675  -3.841  1.00  0.00    -0.266 OA
ENDBRANCH  16  17
ENDBRANCH  12  16
BRANCH  13  20
HETATM   20  O4  UNL     1      30.660 -41.492  -3.209  1.00  0.00    -0.390 OA
ATOM     21  H4  UNL     1      30.531 -41.858  -2.342  1.00  0.00     0.210 HD
ENDBRANCH  13  20
BRANCH  14  22
HETATM   22  C17 UNL     1      31.055 -41.569  -5.708  1.00  0.00     0.198 C 
BRANCH  22  23
HETATM   23  O5  UNL     1      30.922 -40.247  -6.083  1.00  0.00    -0.398 OA
ATOM     24  H5  UNL     1      30.011 -40.098  -6.308  1.00  0.00     0.209 HD
ENDBRANCH  22  23
ENDBRANCH  14  22
ENDBRANCH   7   8
ENDBRANCH   2   7
BRANCH   1  25
HETATM   25  C5  UNL     1      37.743 -41.589  -8.699  1.00  0.00     0.012 C 
BRANCH  25  26
HETATM   26  C4  UNL     1      37.701 -42.967  -9.258  1.00  0.00     0.001 C 
BRANCH  26  27
HETATM   27  C3  UNL     1      38.985 -43.690  -8.956  1.00  0.00    -0.000 C 
BRANCH  27  28
HETATM   28  C2  UNL     1      40.178 -42.787  -8.908  1.00  0.00    -0.005 C 
HETATM   29  C1  UNL     1      41.421 -43.533  -9.380  1.00  0.00     0.005 C 
ENDBRANCH  27  28
ENDBRANCH  26  27
ENDBRANCH  25  26
ENDBRANCH   1  25
BRANCH   6  30
HETATM   30  O10 UNL     1      36.670 -39.467 -10.678  1.00  0.00    -0.392 OA
ATOM     31  H10 UNL     1      36.448 -39.359 -11.595  1.00  0.00     0.210 HD
ENDBRANCH   6  30
BRANCH   4  32
HETATM   32  C19 UNL     1      32.451 -40.884  -8.967  1.00  0.00     0.198 C 
BRANCH  32  33
HETATM   33  O8  UNL     1      31.577 -41.949  -8.797  1.00  0.00    -0.398 OA
ATOM     34  H8  UNL     1      30.872 -41.702  -8.209  1.00  0.00     0.209 HD
ENDBRANCH  32  33
ENDBRANCH   4  32
BRANCH   5  35
HETATM   35  O9  UNL     1      34.347 -39.130  -9.278  1.00  0.00    -0.390 OA
ATOM     36  H9  UNL     1      34.621 -38.340  -9.729  1.00  0.00     0.210 HD
ENDBRANCH   5  35
TORSDOF 15
ENDMDL
MODEL 3
REMARK VINA RESULT: -5.171119219      7.846     10.207
REMARK  15 active torsions:
REMARK  status: ('A' for Active; 'I' for Inactive)
REMARK    1  A    between atoms: C2_2  and  C3_3 
REMARK    2  A    between atoms: C3_3  and  C4_4 
REMARK    3  A    between atoms: C4_4  and  C5_5 
REMARK    4  A    between atoms: C5_5  and  C6_6 
REMARK    5  A    between atoms: C7_7  and  O1_8 
REMARK    6  A    between atoms: O1_8  and  C8_9 
REMARK    7  A    between atoms: C12_13  and  O2_14 
REMARK    8  A    between atoms: O2_14  and  C13_15 
REMARK    9  A    between atoms: C15_18  and  O4_19 
REMARK   10  A    between atoms: C16_21  and  C17_22 
REMARK   11  A    between atoms: C17_22  and  O5_23 
REMARK   12  A    between atoms: C18_27  and  C19_28 
REMARK   13  A    between atoms: C19_28  and  O8_29 
REMARK   14  A    between atoms: C20_31  and  O9_32 
REMARK   15  A    between atoms: C21_34  and  O10_35 
ROOT
HETATM    1  C6  UNL     1      42.056 -43.108 -10.186  1.00  0.00     0.072 C 
HETATM    2  C7  UNL     1      42.453 -43.892  -8.947  1.00  0.00     0.270 C 
HETATM    3  O7  UNL     1      43.773 -43.788  -8.658  1.00  0.00    -0.351 OA
HETATM    4  C18 UNL     1      44.718 -44.036  -9.572  1.00  0.00     0.179 C 
HETATM    5  C20 UNL     1      44.299 -43.680 -10.966  1.00  0.00     0.178 C 
HETATM    6  C21 UNL     1      43.278 -42.572 -10.892  1.00  0.00     0.158 C 
ENDROOT
BRANCH   2   7
HETATM    7  O1  UNL     1      42.126 -45.215  -9.198  1.00  0.00    -0.331 OA
BRANCH   7   8
HETATM    8  C8  UNL     1      41.503 -45.845  -8.122  1.00  0.00     0.263 C 
HETATM    9  C9  UNL     1      41.058 -47.222  -8.488  1.00  0.00     0.061 C 
HETATM   10  C10 UNL     1      41.285 -48.281  -7.477  1.00  0.00     0.007 C 
HETATM   11  C11 UNL     1      40.342 -48.365  -6.347  1.00  0.00     0.035 C 
HETATM   12  C12 UNL     1      40.988 -48.169  -4.990  1.00  0.00     0.163 C 
HETATM   13  C15 UNL     1      41.960 -47.048  -4.946  1.00  0.00     0.178 C 
HETATM   14  C16 UNL     1      41.593 -45.890  -5.840  1.00  0.00     0.179 C 
HETATM   15  O6  UNL     1      42.342 -45.925  -7.012  1.00  0.00    -0.351 OA
BRANCH  12  16
HETATM   16  O2  UNL     1      39.927 -48.031  -4.056  1.00  0.00    -0.314 OA
BRANCH  16  17
HETATM   17  C13 UNL     1      38.823 -48.865  -4.035  1.00  0.00     0.255 C 
HETATM   18  C14 UNL     1      38.895 -50.329  -3.914  1.00  0.00     0.126 C 
HETATM   19  O3  UNL     1      37.685 -48.312  -4.128  1.00  0.00    -0.266 OA
ENDBRANCH  16  17
ENDBRANCH  12  16
BRANCH  13  20
HETATM   20  O4  UNL     1      41.987 -46.555  -3.632  1.00  0.00    -0.390 OA
ATOM     21  H4  UNL     1      42.502 -45.757  -3.632  1.00  0.00     0.210 HD
ENDBRANCH  13  20
BRANCH  14  22
HETATM   22  C17 UNL     1      41.885 -44.545  -5.167  1.00  0.00     0.198 C 
BRANCH  22  23
HETATM   23  O5  UNL     1      43.179 -44.184  -5.485  1.00  0.00    -0.398 OA
ATOM     24  H5  UNL     1      43.284 -44.273  -6.425  1.00  0.00     0.209 HD
ENDBRANCH  22  23
ENDBRANCH  14  22
ENDBRANCH   7   8
ENDBRANCH   2   7
BRANCH   1  25
HETATM   25  C5  UNL     1      41.122 -42.003  -9.742  1.00  0.00     0.012 C 
BRANCH  25  26
HETATM   26  C4  UNL     1      40.171 -42.401  -8.669  1.00  0.00     0.001 C 
BRANCH  26  27
HETATM   27  C3  UNL     1      38.791 -41.893  -8.984  1.00  0.00    -0.000 C 
BRANCH  27  28
HETATM   28  C2  UNL     1      38.789 -40.567  -9.678  1.00  0.00    -0.005 C 
HETATM   29  C1  UNL     1      37.447 -39.873  -9.483  1.00  0.00     0.005 C 
ENDBRANCH  27  28
ENDBRANCH  26  27
ENDBRANCH  25  26
ENDBRANCH   1  25
BRANCH   6  30
HETATM   30  O10 UNL     1      42.924 -42.312 -12.238  1.00  0.00    -0.392 OA
ATOM     31  H10 UNL     1      43.623 -42.640 -12.793  1.00  0.00     0.210 HD
ENDBRANCH   6  30
BRANCH   4  32
HETATM   32  C19 UNL     1      45.166 -45.489  -9.480  1.00  0.00     0.198 C 
BRANCH  32  33
HETATM   33  O8  UNL     1      45.030 -45.947  -8.175  1.00  0.00    -0.398 OA
ATOM     34  H8  UNL     1      45.603 -46.691  -8.029  1.00  0.00     0.209 HD
ENDBRANCH  32  33
ENDBRANCH   4  32
BRANCH   5  35
HETATM   35  O9  UNL     1      43.711 -44.832 -11.533  1.00  0.00    -0.390 OA
ATOM     36  H9  UNL     1      43.100 -44.539 -12.198  1.00  0.00     0.210 HD
ENDBRANCH   5  35
TORSDOF 15
ENDMDL
MODEL 4
REMARK VINA RESULT: -5.062151445      7.931     10.230
REMARK  15 active torsions:
REMARK  status: ('A' for Active; 'I' for Inactive)
REMARK    1  A    between atoms: C2_2  and  C3_3 
REMARK    2  A    between atoms: C3_3  and  C4_4 
REMARK    3  A    between atoms: C4_4  and  C5_5 
REMARK    4  A    between atoms: C5_5  and  C6_6 
REMARK    5  A    between atoms: C7_7  and  O1_8 
REMARK    6  A    between atoms: O1_8  and  C8_9 
REMARK    7  A    between atoms: C12_13  and  O2_14 
REMARK    8  A    between atoms: O2_14  and  C13_15 
REMARK    9  A    between atoms: C15_18  and  O4_19 
REMARK   10  A    between atoms: C16_21  and  C17_22 
REMARK   11  A    between atoms: C17_22  and  O5_23 
REMARK   12  A    between atoms: C18_27  and  C19_28 
REMARK   13  A    between atoms: C19_28  and  O8_29 
REMARK   14  A    between atoms: C20_31  and  O9_32 
REMARK   15  A    between atoms: C21_34  and  O10_35 
ROOT
HETATM    1  C6  UNL     1      41.556 -43.467  -9.573  1.00  0.00     0.072 C 
HETATM    2  C7  UNL     1      42.050 -44.401  -8.482  1.00  0.00     0.270 C 
HETATM    3  O7  UNL     1      43.331 -44.153  -8.116  1.00  0.00    -0.351 OA
HETATM    4  C18 UNL     1      44.320 -44.074  -9.015  1.00  0.00     0.179 C 
HETATM    5  C20 UNL     1      43.875 -43.531 -10.337  1.00  0.00     0.178 C 
HETATM    6  C21 UNL     1      42.689 -42.627 -10.110  1.00  0.00     0.158 C 
ENDROOT
BRANCH   2   7
HETATM    7  O1  UNL     1      41.943 -45.687  -8.988  1.00  0.00    -0.331 OA
BRANCH   7   8
HETATM    8  C8  UNL     1      41.428 -46.601  -8.069  1.00  0.00     0.263 C 
HETATM    9  C9  UNL     1      40.730 -47.724  -8.762  1.00  0.00     0.061 C 
HETATM   10  C10 UNL     1      40.970 -49.084  -8.225  1.00  0.00     0.007 C 
HETATM   11  C11 UNL     1      40.232 -49.482  -7.012  1.00  0.00     0.035 C 
HETATM   12  C12 UNL     1      41.123 -49.824  -5.834  1.00  0.00     0.163 C 
HETATM   13  C15 UNL     1      42.243 -48.869  -5.634  1.00  0.00     0.178 C 
HETATM   14  C16 UNL     1      41.901 -47.448  -6.001  1.00  0.00     0.179 C 
HETATM   15  O6  UNL     1      42.425 -47.130  -7.251  1.00  0.00    -0.351 OA
BRANCH  12  16
HETATM   16  O2  UNL     1      40.270 -49.937  -4.704  1.00  0.00    -0.314 OA
BRANCH  16  17
HETATM   17  C13 UNL     1      39.147 -49.149  -4.522  1.00  0.00     0.255 C 
HETATM   18  C14 UNL     1      37.771 -49.600  -4.776  1.00  0.00     0.126 C 
HETATM   19  O3  UNL     1      39.339 -47.966  -4.108  1.00  0.00    -0.266 OA
ENDBRANCH  16  17
ENDBRANCH  12  16
BRANCH  13  20
HETATM   20  O4  UNL     1      42.566 -48.870  -4.267  1.00  0.00    -0.390 OA
ATOM     21  H4  UNL     1      41.753 -48.910  -3.777  1.00  0.00     0.210 HD
ENDBRANCH  13  20
BRANCH  14  22
HETATM   22  C17 UNL     1      42.498 -46.449  -5.005  1.00  0.00     0.198 C 
BRANCH  22  23
HETATM   23  O5  UNL     1      41.528 -46.155  -4.067  1.00  0.00    -0.398 OA
ATOM     24  H5  UNL     1      41.330 -46.954  -3.592  1.00  0.00     0.209 HD
ENDBRANCH  22  23
ENDBRANCH  14  22
ENDBRANCH   7   8
ENDBRANCH   2   7
BRANCH   1  25
HETATM   25  C5  UNL     1      40.449 -42.623  -8.978  1.00  0.00     0.012 C 
BRANCH  25  26
HETATM   26  C4  UNL     1      39.105 -43.259  -9.021  1.00  0.00     0.001 C 
BRANCH  26  27
HETATM   27  C3  UNL     1      38.044 -42.214  -9.239  1.00  0.00    -0.000 C 
BRANCH  27  28
HETATM   28  C2  UNL     1      38.597 -40.836  -9.426  1.00  0.00    -0.005 C 
HETATM   29  C1  UNL     1      37.464 -39.817  -9.472  1.00  0.00     0.005 C 
ENDBRANCH  27  28
ENDBRANCH  26  27
ENDBRANCH  25  26
ENDBRANCH   1  25
BRANCH   6  30
HETATM   30  O10 UNL     1      42.322 -42.174 -11.400  1.00  0.00    -0.392 OA
ATOM     31  H10 UNL     1      41.470 -41.759 -11.333  1.00  0.00     0.210 HD
ENDBRANCH   6  30
BRANCH   4  32
HETATM   32  C19 UNL     1      44.993 -45.433  -9.170  1.00  0.00     0.198 C 
BRANCH  32  33
HETATM   33  O8  UNL     1      44.962 -46.120  -7.963  1.00  0.00    -0.398 OA
ATOM     34  H8  UNL     1      44.928 -47.057  -8.122  1.00  0.00     0.209 HD
ENDBRANCH  32  33
ENDBRANCH   4  32
BRANCH   5  35
HETATM   35  O9  UNL     1      43.489 -44.631 -11.134  1.00  0.00    -0.390 OA
ATOM     36  H9  UNL     1      42.636 -44.429 -11.499  1.00  0.00     0.210 HD
ENDBRANCH   5  35
TORSDOF 15
ENDMDL
MODEL 5
REMARK VINA RESULT: -4.742887364      2.182      5.280
REMARK  15 active torsions:
REMARK  status: ('A' for Active; 'I' for Inactive)
REMARK    1  A    between atoms: C2_2  and  C3_3 
REMARK    2  A    between atoms: C3_3  and  C4_4 
REMARK    3  A    between atoms: C4_4  and  C5_5 
REMARK    4  A    between atoms: C5_5  and  C6_6 
REMARK    5  A    between atoms: C7_7  and  O1_8 
REMARK    6  A    between atoms: O1_8  and  C8_9 
REMARK    7  A    between atoms: C12_13  and  O2_14 
REMARK    8  A    between atoms: O2_14  and  C13_15 
REMARK    9  A    between atoms: C15_18  and  O4_19 
REMARK   10  A    between atoms: C16_21  and  C17_22 
REMARK   11  A    between atoms: C17_22  and  O5_23 
REMARK   12  A    between atoms: C18_27  and  C19_28 
REMARK   13  A    between atoms: C19_28  and  O8_29 
REMARK   14  A    between atoms: C20_31  and  O9_32 
REMARK   15  A    between atoms: C21_34  and  O10_35 
ROOT
HETATM    1  C6  UNL     1      35.170 -40.843  -8.415  1.00  0.00     0.072 C 
HETATM    2  C7  UNL     1      33.992 -41.444  -7.667  1.00  0.00     0.270 C 
HETATM    3  O7  UNL     1      33.136 -42.110  -8.478  1.00  0.00    -0.351 OA
HETATM    4  C18 UNL     1      32.627 -41.550  -9.581  1.00  0.00     0.179 C 
HETATM    5  C20 UNL     1      33.560 -40.576 -10.233  1.00  0.00     0.178 C 
HETATM    6  C21 UNL     1      34.977 -40.978  -9.906  1.00  0.00     0.158 C 
ENDROOT
BRANCH   2   7
HETATM    7  O1  UNL     1      33.337 -40.388  -7.052  1.00  0.00    -0.331 OA
BRANCH   7   8
HETATM    8  C8  UNL     1      32.777 -40.725  -5.821  1.00  0.00     0.263 C 
HETATM    9  C9  UNL     1      31.288 -40.774  -5.903  1.00  0.00     0.061 C 
HETATM   10  C10 UNL     1      30.623 -41.898  -5.203  1.00  0.00     0.007 C 
HETATM   11  C11 UNL     1      30.458 -41.795  -3.741  1.00  0.00     0.035 C 
HETATM   12  C12 UNL     1      31.159 -42.891  -2.964  1.00  0.00     0.163 C 
HETATM   13  C15 UNL     1      32.533 -43.183  -3.447  1.00  0.00     0.178 C 
HETATM   14  C16 UNL     1      33.262 -41.972  -3.970  1.00  0.00     0.179 C 
HETATM   15  O6  UNL     1      33.242 -41.956  -5.361  1.00  0.00    -0.351 OA
BRANCH  12  16
HETATM   16  O2  UNL     1      31.112 -42.508  -1.597  1.00  0.00    -0.314 OA
BRANCH  16  17
HETATM   17  C13 UNL     1      30.817 -41.221  -1.181  1.00  0.00     0.255 C 
HETATM   18  C14 UNL     1      29.537 -40.821  -0.578  1.00  0.00     0.126 C 
HETATM   19  O3  UNL     1      31.722 -40.347  -1.339  1.00  0.00    -0.266 OA
ENDBRANCH  16  17
ENDBRANCH  12  16
BRANCH  13  20
HETATM   20  O4  UNL     1      33.275 -43.667  -2.358  1.00  0.00    -0.390 OA
ATOM     21  H4  UNL     1      34.167 -43.805  -2.654  1.00  0.00     0.210 HD
ENDBRANCH  13  20
BRANCH  14  22
HETATM   22  C17 UNL     1      34.735 -41.977  -3.549  1.00  0.00     0.198 C 
BRANCH  22  23
HETATM   23  O5  UNL     1      35.475 -42.477  -4.602  1.00  0.00    -0.398 OA
ATOM     24  H5  UNL     1      35.080 -43.298  -4.872  1.00  0.00     0.209 HD
ENDBRANCH  22  23
ENDBRANCH  14  22
ENDBRANCH   7   8
ENDBRANCH   2   7
BRANCH   1  25
HETATM   25  C5  UNL     1      36.418 -41.550  -7.934  1.00  0.00     0.012 C 
BRANCH  25  26
HETATM   26  C4  UNL     1      36.774 -42.765  -8.715  1.00  0.00     0.001 C 
BRANCH  26  27
HETATM   27  C3  UNL     1      38.206 -42.688  -9.169  1.00  0.00    -0.000 C 
BRANCH  27  28
HETATM   28  C2  UNL     1      38.746 -41.293  -9.204  1.00  0.00    -0.005 C 
HETATM   29  C1  UNL     1      40.267 -41.319  -9.301  1.00  0.00     0.005 C 
ENDBRANCH  27  28
ENDBRANCH  26  27
ENDBRANCH  25  26
ENDBRANCH   1  25
BRANCH   6  30
HETATM   30  O10 UNL     1      35.787 -40.004 -10.539  1.00  0.00    -0.392 OA
ATOM     31  H10 UNL     1      36.627 -39.989 -10.095  1.00  0.00     0.210 HD
ENDBRANCH   6  30
BRANCH   4  32
HETATM   32  C19 UNL     1      31.282 -40.906  -9.267  1.00  0.00     0.198 C 
BRANCH  32  33
HETATM   33  O8  UNL     1      30.266 -41.574  -9.938  1.00  0.00    -0.398 OA
ATOM     34  H8  UNL     1      30.119 -41.175 -10.788  1.00  0.00     0.209 HD
ENDBRANCH  32  33
ENDBRANCH   4  32
BRANCH   5  35
HETATM   35  O9  UNL     1      33.288 -39.303  -9.686  1.00  0.00    -0.390 OA
ATOM     36  H9  UNL     1      33.831 -38.676 -10.147  1.00  0.00     0.210 HD
ENDBRANCH   5  35
TORSDOF 15
ENDMDL
