MODEL 1
REMARK VINA RESULT: -7.277865607      0.000      0.000
REMARK  14 active torsions:
REMARK  status: ('A' for Active; 'I' for Inactive)
REMARK    1  A    between atoms: C4_4  and  C5_5 
REMARK    2  A    between atoms: C5_5  and  O1_6 
REMARK    3  A    between atoms: O1_6  and  C6_7 
REMARK    4  A    between atoms: C6_7  and  C7_8 
REMARK    5  A    between atoms: C7_8  and  C8_9 
REMARK    6  A    between atoms: C8_9  and  C9_10 
REMARK    7  A    between atoms: C9_10  and  O2_11 
REMARK    8  A    between atoms: O2_11  and  C10_12 
REMARK    9  A    between atoms: C13_17  and  C14_18 
REMARK   10  A    between atoms: C14_18  and  O5_19 
REMARK   11  A    between atoms: C15_21  and  O6_22 
REMARK   12  A    between atoms: C19_27  and  O7_28 
REMARK   13  A    between atoms: C20_30  and  O8_31 
REMARK   14  A    between atoms: C22_34  and  O9_35 
ROOT
HETATM    1  C10 UNL     1      39.367 -41.983  -8.962  1.00  0.00     0.176 C 
HETATM    2  C11 UNL     1      40.894 -41.786  -8.926  1.00  0.00     0.206 C 
HETATM    3  O3  UNL     1      41.407 -42.929  -8.335  1.00  0.00    -0.350 OA
HETATM    4  C12 UNL     1      41.374 -44.065  -9.109  1.00  0.00     0.200 C 
HETATM    5  O4  UNL     1      40.202 -43.924  -9.911  1.00  0.00    -0.342 OA
HETATM    6  C13 UNL     1      39.189 -43.462  -9.035  1.00  0.00     0.179 C 
HETATM    7  C15 UNL     1      42.584 -44.280  -9.959  1.00  0.00     0.184 C 
HETATM    8  C16 UNL     1      43.545 -45.322  -9.601  1.00  0.00     0.018 C 
HETATM    9  C17 UNL     1      44.947 -44.698  -9.475  1.00  0.00     0.012 C 
HETATM   10  C18 UNL     1      43.353 -46.116  -8.337  1.00  0.00     0.048 C 
HETATM   11  C19 UNL     1      42.422 -45.383  -7.472  1.00  0.00     0.096 A 
HETATM   12  C20 UNL     1      41.117 -45.668  -6.995  1.00  0.00     0.165 A 
HETATM   13  C21 UNL     1      41.140 -45.326  -8.361  1.00  0.00     0.119 A 
ENDROOT
BRANCH   1  14
HETATM   14  O2  UNL     1      38.797 -41.238  -9.967  1.00  0.00    -0.381 OA
BRANCH  14  15
HETATM   15  C9  UNL     1      38.088 -40.158  -9.540  1.00  0.00     0.168 C 
BRANCH  15  16
HETATM   16  C8  UNL     1      36.739 -39.984 -10.157  1.00  0.00     0.028 C 
BRANCH  16  17
HETATM   17  C7  UNL     1      35.599 -39.832  -9.227  1.00  0.00     0.028 C 
BRANCH  17  18
HETATM   18  C6  UNL     1      34.390 -40.676  -9.522  1.00  0.00     0.168 C 
BRANCH  18  19
HETATM   19  O1  UNL     1      33.732 -40.968  -8.312  1.00  0.00    -0.386 OA
BRANCH  19  20
HETATM   20  C5  UNL     1      34.331 -40.367  -7.231  1.00  0.00     0.211 C 
BRANCH  20  21
HETATM   21  C4  UNL     1      34.294 -41.347  -6.106  1.00  0.00     0.026 A 
HETATM   22  C3  UNL     1      34.146 -41.094  -4.752  1.00  0.00     0.046 A 
HETATM   23  C2  UNL     1      34.167 -42.294  -4.079  1.00  0.00     0.052 A 
HETATM   24  C1  UNL     1      34.046 -42.537  -2.622  1.00  0.00     0.077 C 
HETATM   25  O10 UNL     1      34.319 -43.226  -4.975  1.00  0.00    -0.292 OA
HETATM   26  C22 UNL     1      34.398 -42.731  -6.183  1.00  0.00     0.192 A 
BRANCH  26  27
HETATM   27  O9  UNL     1      34.559 -43.466  -7.338  1.00  0.00    -0.340 OA
ATOM     28  H9  UNL     1      35.002 -44.304  -7.407  1.00  0.00     0.220 HD
ENDBRANCH  26  27
ENDBRANCH  20  21
ENDBRANCH  19  20
ENDBRANCH  18  19
ENDBRANCH  17  18
ENDBRANCH  16  17
ENDBRANCH  15  16
ENDBRANCH  14  15
ENDBRANCH   1  14
BRANCH   6  29
HETATM   29  C14 UNL     1      37.834 -43.960  -9.379  1.00  0.00     0.198 C 
BRANCH  29  30
HETATM   30  O5  UNL     1      36.861 -43.211  -8.729  1.00  0.00    -0.398 OA
ATOM     31  H5  UNL     1      36.422 -43.736  -8.070  1.00  0.00     0.209 HD
ENDBRANCH  29  30
ENDBRANCH   6  29
BRANCH   7  32
HETATM   32  O6  UNL     1      43.252 -43.053 -10.197  1.00  0.00    -0.390 OA
ATOM     33  H6  UNL     1      43.501 -42.980 -11.111  1.00  0.00     0.210 HD
ENDBRANCH   7  32
BRANCH  11  34
HETATM   34  O7  UNL     1      42.974 -44.164  -7.048  1.00  0.00    -0.387 OA
ATOM     35  H7  UNL     1      42.541 -43.427  -7.464  1.00  0.00     0.210 HD
ENDBRANCH  11  34
BRANCH  12  36
HETATM   36  O8  UNL     1      40.840 -47.012  -6.650  1.00  0.00    -0.392 OA
ATOM     37  H8  UNL     1      41.013 -47.272  -5.754  1.00  0.00     0.210 HD
ENDBRANCH  12  36
TORSDOF 14
ENDMDL
MODEL 2
REMARK VINA RESULT: -7.246895503      1.823      2.338
REMARK  14 active torsions:
REMARK  status: ('A' for Active; 'I' for Inactive)
REMARK    1  A    between atoms: C4_4  and  C5_5 
REMARK    2  A    between atoms: C5_5  and  O1_6 
REMARK    3  A    between atoms: O1_6  and  C6_7 
REMARK    4  A    between atoms: C6_7  and  C7_8 
REMARK    5  A    between atoms: C7_8  and  C8_9 
REMARK    6  A    between atoms: C8_9  and  C9_10 
REMARK    7  A    between atoms: C9_10  and  O2_11 
REMARK    8  A    between atoms: O2_11  and  C10_12 
REMARK    9  A    between atoms: C13_17  and  C14_18 
REMARK   10  A    between atoms: C14_18  and  O5_19 
REMARK   11  A    between atoms: C15_21  and  O6_22 
REMARK   12  A    between atoms: C19_27  and  O7_28 
REMARK   13  A    between atoms: C20_30  and  O8_31 
REMARK   14  A    between atoms: C22_34  and  O9_35 
ROOT
HETATM    1  C10 UNL     1      39.216 -41.863  -8.972  1.00  0.00     0.176 C 
HETATM    2  C11 UNL     1      40.746 -41.690  -8.993  1.00  0.00     0.206 C 
HETATM    3  O3  UNL     1      41.263 -42.844  -8.428  1.00  0.00    -0.350 OA
HETATM    4  C12 UNL     1      41.182 -43.976  -9.205  1.00  0.00     0.200 C 
HETATM    5  O4  UNL     1      39.983 -43.812  -9.961  1.00  0.00    -0.342 OA
HETATM    6  C13 UNL     1      39.012 -43.339  -9.045  1.00  0.00     0.179 C 
HETATM    7  C15 UNL     1      42.356 -44.205 -10.102  1.00  0.00     0.184 C 
HETATM    8  C16 UNL     1      43.314 -45.264  -9.786  1.00  0.00     0.018 C 
HETATM    9  C17 UNL     1      44.728 -44.662  -9.710  1.00  0.00     0.012 C 
HETATM   10  C18 UNL     1      43.157 -46.061  -8.519  1.00  0.00     0.048 C 
HETATM   11  C19 UNL     1      42.271 -45.319  -7.616  1.00  0.00     0.096 A 
HETATM   12  C20 UNL     1      40.981 -45.587  -7.091  1.00  0.00     0.165 A 
HETATM   13  C21 UNL     1      40.957 -45.237  -8.456  1.00  0.00     0.119 A 
ENDROOT
BRANCH   1  14
HETATM   14  O2  UNL     1      38.620 -41.104  -9.951  1.00  0.00    -0.381 OA
BRANCH  14  15
HETATM   15  C9  UNL     1      37.846 -40.086  -9.486  1.00  0.00     0.168 C 
BRANCH  15  16
HETATM   16  C8  UNL     1      36.682 -39.713 -10.344  1.00  0.00     0.028 C 
BRANCH  16  17
HETATM   17  C7  UNL     1      35.338 -40.026  -9.811  1.00  0.00     0.028 C 
BRANCH  17  18
HETATM   18  C6  UNL     1      35.193 -39.976  -8.315  1.00  0.00     0.168 C 
BRANCH  18  19
HETATM   19  O1  UNL     1      34.126 -40.810  -7.933  1.00  0.00    -0.386 OA
BRANCH  19  20
HETATM   20  C5  UNL     1      33.153 -40.893  -8.900  1.00  0.00     0.211 C 
BRANCH  20  21
HETATM   21  C4  UNL     1      31.838 -40.953  -8.196  1.00  0.00     0.026 A 
HETATM   22  C3  UNL     1      31.594 -40.966  -6.832  1.00  0.00     0.046 A 
HETATM   23  C2  UNL     1      30.234 -41.026  -6.632  1.00  0.00     0.052 A 
HETATM   24  C1  UNL     1      29.489 -41.062  -5.351  1.00  0.00     0.077 C 
HETATM   25  O10 UNL     1      29.681 -41.049  -7.811  1.00  0.00    -0.292 OA
HETATM   26  C22 UNL     1      30.571 -41.007  -8.767  1.00  0.00     0.192 A 
BRANCH  26  27
HETATM   27  O9  UNL     1      30.295 -41.017 -10.117  1.00  0.00    -0.340 OA
ATOM     28  H9  UNL     1      29.738 -40.398 -10.576  1.00  0.00     0.220 HD
ENDBRANCH  26  27
ENDBRANCH  20  21
ENDBRANCH  19  20
ENDBRANCH  18  19
ENDBRANCH  17  18
ENDBRANCH  16  17
ENDBRANCH  15  16
ENDBRANCH  14  15
ENDBRANCH   1  14
BRANCH   6  29
HETATM   29  C14 UNL     1      37.637 -43.814  -9.340  1.00  0.00     0.198 C 
BRANCH  29  30
HETATM   30  O5  UNL     1      36.707 -43.105  -8.590  1.00  0.00    -0.398 OA
ATOM     31  H5  UNL     1      36.292 -43.674  -7.951  1.00  0.00     0.209 HD
ENDBRANCH  29  30
ENDBRANCH   6  29
BRANCH   7  32
HETATM   32  O6  UNL     1      43.034 -42.987 -10.359  1.00  0.00    -0.390 OA
ATOM     33  H6  UNL     1      43.801 -42.908  -9.805  1.00  0.00     0.210 HD
ENDBRANCH   7  32
BRANCH  11  34
HETATM   34  O7  UNL     1      42.858 -44.111  -7.207  1.00  0.00    -0.387 OA
ATOM     35  H7  UNL     1      43.091 -43.572  -7.954  1.00  0.00     0.210 HD
ENDBRANCH  11  34
BRANCH  12  36
HETATM   36  O8  UNL     1      40.696 -46.928  -6.743  1.00  0.00    -0.392 OA
ATOM     37  H8  UNL     1      40.009 -47.071  -6.103  1.00  0.00     0.210 HD
ENDBRANCH  12  36
TORSDOF 14
ENDMDL
MODEL 3
REMARK VINA RESULT: -7.225956651      1.654      3.070
REMARK  14 active torsions:
REMARK  status: ('A' for Active; 'I' for Inactive)
REMARK    1  A    between atoms: C4_4  and  C5_5 
REMARK    2  A    between atoms: C5_5  and  O1_6 
REMARK    3  A    between atoms: O1_6  and  C6_7 
REMARK    4  A    between atoms: C6_7  and  C7_8 
REMARK    5  A    between atoms: C7_8  and  C8_9 
REMARK    6  A    between atoms: C8_9  and  C9_10 
REMARK    7  A    between atoms: C9_10  and  O2_11 
REMARK    8  A    between atoms: O2_11  and  C10_12 
REMARK    9  A    between atoms: C13_17  and  C14_18 
REMARK   10  A    between atoms: C14_18  and  O5_19 
REMARK   11  A    between atoms: C15_21  and  O6_22 
REMARK   12  A    between atoms: C19_27  and  O7_28 
REMARK   13  A    between atoms: C20_30  and  O8_31 
REMARK   14  A    between atoms: C22_34  and  O9_35 
ROOT
HETATM    1  C10 UNL     1      40.572 -42.951  -9.270  1.00  0.00     0.176 C 
HETATM    2  C11 UNL     1      40.057 -43.793  -8.088  1.00  0.00     0.206 C 
HETATM    3  O3  UNL     1      40.634 -45.044  -8.237  1.00  0.00    -0.350 OA
HETATM    4  C12 UNL     1      41.978 -45.116  -7.960  1.00  0.00     0.200 C 
HETATM    5  O4  UNL     1      42.498 -43.843  -8.341  1.00  0.00    -0.342 OA
HETATM    6  C13 UNL     1      41.903 -43.543  -9.591  1.00  0.00     0.179 C 
HETATM    7  C15 UNL     1      42.308 -45.426  -6.534  1.00  0.00     0.184 C 
HETATM    8  C16 UNL     1      42.814 -46.752  -6.180  1.00  0.00     0.018 C 
HETATM    9  C17 UNL     1      41.919 -47.359  -5.084  1.00  0.00     0.012 C 
HETATM   10  C18 UNL     1      42.922 -47.818  -7.235  1.00  0.00     0.048 C 
HETATM   11  C19 UNL     1      42.085 -47.425  -8.374  1.00  0.00     0.096 A 
HETATM   12  C20 UNL     1      42.381 -47.079  -9.718  1.00  0.00     0.165 A 
HETATM   13  C21 UNL     1      42.741 -46.073  -8.799  1.00  0.00     0.119 A 
ENDROOT
BRANCH   1  14
HETATM   14  O2  UNL     1      40.545 -41.609  -8.969  1.00  0.00    -0.381 OA
BRANCH  14  15
HETATM   15  C9  UNL     1      39.637 -40.887  -9.679  1.00  0.00     0.168 C 
BRANCH  15  16
HETATM   16  C8  UNL     1      38.229 -40.952  -9.186  1.00  0.00     0.028 C 
BRANCH  16  17
HETATM   17  C7  UNL     1      37.388 -39.758  -9.422  1.00  0.00     0.028 C 
BRANCH  17  18
HETATM   18  C6  UNL     1      36.223 -39.945 -10.354  1.00  0.00     0.168 C 
BRANCH  18  19
HETATM   19  O1  UNL     1      35.395 -40.966  -9.848  1.00  0.00    -0.386 OA
BRANCH  19  20
HETATM   20  C5  UNL     1      34.353 -40.474  -9.100  1.00  0.00     0.211 C 
BRANCH  20  21
HETATM   21  C4  UNL     1      34.464 -41.077  -7.740  1.00  0.00     0.026 A 
HETATM   22  C3  UNL     1      34.032 -40.555  -6.531  1.00  0.00     0.046 A 
HETATM   23  C2  UNL     1      34.341 -41.451  -5.534  1.00  0.00     0.052 A 
HETATM   24  C1  UNL     1      34.081 -41.338  -4.078  1.00  0.00     0.077 C 
HETATM   25  O10 UNL     1      34.928 -42.463  -6.104  1.00  0.00    -0.292 OA
HETATM   26  C22 UNL     1      35.028 -42.301  -7.398  1.00  0.00     0.192 A 
BRANCH  26  27
HETATM   27  O9  UNL     1      35.600 -43.198  -8.274  1.00  0.00    -0.340 OA
ATOM     28  H9  UNL     1      36.388 -43.707  -8.114  1.00  0.00     0.220 HD
ENDBRANCH  26  27
ENDBRANCH  20  21
ENDBRANCH  19  20
ENDBRANCH  18  19
ENDBRANCH  17  18
ENDBRANCH  16  17
ENDBRANCH  15  16
ENDBRANCH  14  15
ENDBRANCH   1  14
BRANCH   6  29
HETATM   29  C14 UNL     1      42.785 -42.765 -10.496  1.00  0.00     0.198 C 
BRANCH  29  30
HETATM   30  O5  UNL     1      43.182 -41.581  -9.888  1.00  0.00    -0.398 OA
ATOM     31  H5  UNL     1      43.023 -40.842 -10.464  1.00  0.00     0.209 HD
ENDBRANCH  29  30
ENDBRANCH   6  29
BRANCH   7  32
HETATM   32  O6  UNL     1      41.235 -45.063  -5.683  1.00  0.00    -0.390 OA
ATOM     33  H6  UNL     1      41.186 -45.650  -4.938  1.00  0.00     0.210 HD
ENDBRANCH   7  32
BRANCH  11  34
HETATM   34  O7  UNL     1      40.726 -47.406  -8.024  1.00  0.00    -0.387 OA
ATOM     35  H7  UNL     1      40.551 -46.751  -7.358  1.00  0.00     0.210 HD
ENDBRANCH  11  34
BRANCH  12  36
HETATM   36  O8  UNL     1      43.418 -47.802 -10.353  1.00  0.00    -0.392 OA
ATOM     37  H8  UNL     1      44.262 -47.373 -10.423  1.00  0.00     0.210 HD
ENDBRANCH  12  36
TORSDOF 14
ENDMDL
MODEL 4
REMARK VINA RESULT: -7.052154906      1.569      2.476
REMARK  14 active torsions:
REMARK  status: ('A' for Active; 'I' for Inactive)
REMARK    1  A    between atoms: C4_4  and  C5_5 
REMARK    2  A    between atoms: C5_5  and  O1_6 
REMARK    3  A    between atoms: O1_6  and  C6_7 
REMARK    4  A    between atoms: C6_7  and  C7_8 
REMARK    5  A    between atoms: C7_8  and  C8_9 
REMARK    6  A    between atoms: C8_9  and  C9_10 
REMARK    7  A    between atoms: C9_10  and  O2_11 
REMARK    8  A    between atoms: O2_11  and  C10_12 
REMARK    9  A    between atoms: C13_17  and  C14_18 
REMARK   10  A    between atoms: C14_18  and  O5_19 
REMARK   11  A    between atoms: C15_21  and  O6_22 
REMARK   12  A    between atoms: C19_27  and  O7_28 
REMARK   13  A    between atoms: C20_30  and  O8_31 
REMARK   14  A    between atoms: C22_34  and  O9_35 
ROOT
HETATM    1  C10 UNL     1      40.501 -42.533  -8.791  1.00  0.00     0.176 C 
HETATM    2  C11 UNL     1      41.381 -41.651  -9.695  1.00  0.00     0.206 C 
HETATM    3  O3  UNL     1      42.664 -42.162  -9.586  1.00  0.00    -0.350 OA
HETATM    4  C12 UNL     1      42.880 -43.366 -10.214  1.00  0.00     0.200 C 
HETATM    5  O4  UNL     1      41.634 -44.055 -10.120  1.00  0.00    -0.342 OA
HETATM    6  C13 UNL     1      41.186 -43.858  -8.790  1.00  0.00     0.179 C 
HETATM    7  C15 UNL     1      43.328 -43.259 -11.637  1.00  0.00     0.184 C 
HETATM    8  C16 UNL     1      44.718 -43.555 -11.983  1.00  0.00     0.018 C 
HETATM    9  C17 UNL     1      45.324 -42.350 -12.724  1.00  0.00     0.012 C 
HETATM   10  C18 UNL     1      45.706 -43.886 -10.897  1.00  0.00     0.048 C 
HETATM   11  C19 UNL     1      45.151 -43.433  -9.617  1.00  0.00     0.096 A 
HETATM   12  C20 UNL     1      44.730 -44.118  -8.448  1.00  0.00     0.165 A 
HETATM   13  C21 UNL     1      43.836 -44.270  -9.526  1.00  0.00     0.119 A 
ENDROOT
BRANCH   1  14
HETATM   14  O2  UNL     1      39.190 -42.511  -9.205  1.00  0.00    -0.381 OA
BRANCH  14  15
HETATM   15  C9  UNL     1      38.488 -41.415  -8.807  1.00  0.00     0.168 C 
BRANCH  15  16
HETATM   16  C8  UNL     1      38.006 -40.521  -9.902  1.00  0.00     0.028 C 
BRANCH  16  17
HETATM   17  C7  UNL     1      36.794 -39.723  -9.621  1.00  0.00     0.028 C 
BRANCH  17  18
HETATM   18  C6  UNL     1      35.523 -40.203 -10.268  1.00  0.00     0.168 C 
BRANCH  18  19
HETATM   19  O1  UNL     1      34.693 -40.763  -9.278  1.00  0.00    -0.386 OA
BRANCH  19  20
HETATM   20  C5  UNL     1      34.764 -40.082  -8.087  1.00  0.00     0.211 C 
BRANCH  20  21
HETATM   21  C4  UNL     1      34.617 -41.090  -6.995  1.00  0.00     0.026 A 
HETATM   22  C3  UNL     1      34.129 -40.901  -5.712  1.00  0.00     0.046 A 
HETATM   23  C2  UNL     1      34.175 -42.104  -5.047  1.00  0.00     0.052 A 
HETATM   24  C1  UNL     1      33.763 -42.406  -3.655  1.00  0.00     0.077 C 
HETATM   25  O10 UNL     1      34.664 -42.978  -5.880  1.00  0.00    -0.292 OA
HETATM   26  C22 UNL     1      34.941 -42.441  -7.039  1.00  0.00     0.192 A 
BRANCH  26  27
HETATM   27  O9  UNL     1      35.469 -43.110  -8.123  1.00  0.00    -0.340 OA
ATOM     28  H9  UNL     1      35.595 -44.049  -8.190  1.00  0.00     0.220 HD
ENDBRANCH  26  27
ENDBRANCH  20  21
ENDBRANCH  19  20
ENDBRANCH  18  19
ENDBRANCH  17  18
ENDBRANCH  16  17
ENDBRANCH  15  16
ENDBRANCH  14  15
ENDBRANCH   1  14
BRANCH   6  29
HETATM   29  C14 UNL     1      40.424 -45.009  -8.245  1.00  0.00     0.198 C 
BRANCH  29  30
HETATM   30  O5  UNL     1      39.426 -45.395  -9.130  1.00  0.00    -0.398 OA
ATOM     31  H5  UNL     1      38.575 -45.360  -8.708  1.00  0.00     0.209 HD
ENDBRANCH  29  30
ENDBRANCH   6  29
BRANCH   7  32
HETATM   32  O6  UNL     1      42.936 -42.016 -12.192  1.00  0.00    -0.390 OA
ATOM     33  H6  UNL     1      43.223 -41.947 -13.095  1.00  0.00     0.210 HD
ENDBRANCH   7  32
BRANCH  11  34
HETATM   34  O7  UNL     1      45.035 -42.034  -9.580  1.00  0.00    -0.387 OA
ATOM     35  H7  UNL     1      44.174 -41.753  -9.866  1.00  0.00     0.210 HD
ENDBRANCH  11  34
BRANCH  12  36
HETATM   36  O8  UNL     1      45.494 -45.241  -8.054  1.00  0.00    -0.392 OA
ATOM     37  H8  UNL     1      45.853 -45.783  -8.746  1.00  0.00     0.210 HD
ENDBRANCH  12  36
TORSDOF 14
ENDMDL
MODEL 5
REMARK VINA RESULT: -6.928994490      1.841      8.412
REMARK  14 active torsions:
REMARK  status: ('A' for Active; 'I' for Inactive)
REMARK    1  A    between atoms: C4_4  and  C5_5 
REMARK    2  A    between atoms: C5_5  and  O1_6 
REMARK    3  A    between atoms: O1_6  and  C6_7 
REMARK    4  A    between atoms: C6_7  and  C7_8 
REMARK    5  A    between atoms: C7_8  and  C8_9 
REMARK    6  A    between atoms: C8_9  and  C9_10 
REMARK    7  A    between atoms: C9_10  and  O2_11 
REMARK    8  A    between atoms: O2_11  and  C10_12 
REMARK    9  A    between atoms: C13_17  and  C14_18 
REMARK   10  A    between atoms: C14_18  and  O5_19 
REMARK   11  A    between atoms: C15_21  and  O6_22 
REMARK   12  A    between atoms: C19_27  and  O7_28 
REMARK   13  A    between atoms: C20_30  and  O8_31 
REMARK   14  A    between atoms: C22_34  and  O9_35 
ROOT
HETATM    1  C10 UNL     1      33.843 -40.797  -7.193  1.00  0.00     0.176 C 
HETATM    2  C11 UNL     1      33.388 -39.927  -6.005  1.00  0.00     0.206 C 
HETATM    3  O3  UNL     1      32.941 -40.814  -5.040  1.00  0.00    -0.350 OA
HETATM    4  C12 UNL     1      33.918 -41.534  -4.394  1.00  0.00     0.200 C 
HETATM    5  O4  UNL     1      34.939 -41.722  -5.374  1.00  0.00    -0.342 OA
HETATM    6  C13 UNL     1      34.265 -42.083  -6.566  1.00  0.00     0.179 C 
HETATM    7  C15 UNL     1      34.467 -40.883  -3.165  1.00  0.00     0.184 C 
HETATM    8  C16 UNL     1      34.107 -41.405  -1.847  1.00  0.00     0.018 C 
HETATM    9  C17 UNL     1      33.509 -40.268  -0.998  1.00  0.00     0.012 C 
HETATM   10  C18 UNL     1      33.125 -42.539  -1.733  1.00  0.00     0.048 C 
HETATM   11  C19 UNL     1      32.385 -42.634  -2.997  1.00  0.00     0.096 A 
HETATM   12  C20 UNL     1      32.318 -43.630  -4.005  1.00  0.00     0.165 A 
HETATM   13  C21 UNL     1      33.533 -42.916  -4.017  1.00  0.00     0.119 A 
ENDROOT
BRANCH   1  14
HETATM   14  O2  UNL     1      34.780 -40.139  -7.955  1.00  0.00    -0.381 OA
BRANCH  14  15
HETATM   15  C9  UNL     1      34.399 -39.899  -9.239  1.00  0.00     0.168 C 
BRANCH  15  16
HETATM   16  C8  UNL     1      35.266 -40.500 -10.296  1.00  0.00     0.028 C 
BRANCH  16  17
HETATM   17  C7  UNL     1      36.490 -39.751 -10.655  1.00  0.00     0.028 C 
BRANCH  17  18
HETATM   18  C6  UNL     1      37.489 -39.550  -9.549  1.00  0.00     0.168 C 
BRANCH  18  19
HETATM   19  O1  UNL     1      38.483 -40.542  -9.648  1.00  0.00    -0.386 OA
BRANCH  19  20
HETATM   20  C5  UNL     1      38.223 -41.627  -8.846  1.00  0.00     0.211 C 
BRANCH  20  21
HETATM   21  C4  UNL     1      39.348 -42.590  -9.031  1.00  0.00     0.026 A 
HETATM   22  C3  UNL     1      39.305 -43.975  -9.011  1.00  0.00     0.046 A 
HETATM   23  C2  UNL     1      40.577 -44.454  -9.225  1.00  0.00     0.052 A 
HETATM   24  C1  UNL     1      41.034 -45.863  -9.290  1.00  0.00     0.077 C 
HETATM   25  O10 UNL     1      41.351 -43.417  -9.368  1.00  0.00    -0.292 OA
HETATM   26  C22 UNL     1      40.687 -42.296  -9.265  1.00  0.00     0.192 A 
BRANCH  26  27
HETATM   27  O9  UNL     1      41.229 -41.033  -9.370  1.00  0.00    -0.340 OA
ATOM     28  H9  UNL     1      41.576 -40.515  -8.653  1.00  0.00     0.220 HD
ENDBRANCH  26  27
ENDBRANCH  20  21
ENDBRANCH  19  20
ENDBRANCH  18  19
ENDBRANCH  17  18
ENDBRANCH  16  17
ENDBRANCH  15  16
ENDBRANCH  14  15
ENDBRANCH   1  14
BRANCH   6  29
HETATM   29  C14 UNL     1      35.031 -43.026  -7.418  1.00  0.00     0.198 C 
BRANCH  29  30
HETATM   30  O5  UNL     1      34.327 -43.314  -8.580  1.00  0.00    -0.398 OA
ATOM     31  H5  UNL     1      33.486 -42.871  -8.578  1.00  0.00     0.209 HD
ENDBRANCH  29  30
ENDBRANCH   6  29
BRANCH   7  32
HETATM   32  O6  UNL     1      34.270 -39.481  -3.211  1.00  0.00    -0.390 OA
ATOM     33  H6  UNL     1      34.094 -39.197  -4.101  1.00  0.00     0.210 HD
ENDBRANCH   7  32
BRANCH  11  34
HETATM   34  O7  UNL     1      31.592 -41.496  -3.209  1.00  0.00    -0.387 OA
ATOM     35  H7  UNL     1      30.857 -41.472  -2.608  1.00  0.00     0.210 HD
ENDBRANCH  11  34
BRANCH  12  36
HETATM   36  O8  UNL     1      32.342 -44.978  -3.578  1.00  0.00    -0.392 OA
ATOM     37  H8  UNL     1      33.194 -45.360  -3.402  1.00  0.00     0.210 HD
ENDBRANCH  12  36
TORSDOF 14
ENDMDL
