MODEL 1
REMARK VINA RESULT: -7.005708352      0.000      0.000
REMARK  14 active torsions:
REMARK  status: ('A' for Active; 'I' for Inactive)
REMARK    1  A    between atoms: C2_2  and  C3_3 
REMARK    2  A    between atoms: C3_3  and  C4_4 
REMARK    3  A    between atoms: C4_4  and  C5_5 
REMARK    4  A    between atoms: C6_6  and  C7_7 
REMARK    5  A    between atoms: C10_10  and  O1_11 
REMARK    6  A    between atoms: N1_14  and  C12_15 
REMARK    7  A    between atoms: C14_17  and  C15_18 
REMARK    8  A    between atoms: C15_18  and  O2_19 
REMARK    9  A    between atoms: O2_19  and  C16_20 
REMARK   10  A    between atoms: C17_22  and  C18_23 
REMARK   11  A    between atoms: C18_23  and  O4_24 
REMARK   12  A    between atoms: C19_26  and  O5_27 
REMARK   13  A    between atoms: C20_29  and  O6_30 
REMARK   14  A    between atoms: C21_32  and  O7_33 
ROOT
HETATM    1  C12 UNL     1     -19.335  13.886 -30.538  1.00  0.00     0.232 C 
HETATM    2  C13 UNL     1     -19.809  12.665 -29.846  1.00  0.00     0.088 C 
HETATM    3  C14 UNL     1     -20.019  11.503 -30.747  1.00  0.00     0.152 C 
HETATM    4  O8  UNL     1     -19.953  11.691 -32.087  1.00  0.00    -0.359 OA
HETATM    5  C22 UNL     1     -19.601  12.924 -32.538  1.00  0.00     0.341 C 
HETATM    6  O9  UNL     1     -18.690  13.574 -31.708  1.00  0.00    -0.342 OA
ENDROOT
BRANCH   3   7
HETATM    7  C15 UNL     1     -21.431  10.944 -30.470  1.00  0.00     0.203 C 
BRANCH   7   8
HETATM    8  O2  UNL     1     -21.841  10.135 -31.498  1.00  0.00    -0.356 OA
BRANCH   8   9
HETATM    9  C16 UNL     1     -22.581   9.039 -31.103  1.00  0.00     0.291 C 
HETATM   10  O3  UNL     1     -22.390   8.815 -29.774  1.00  0.00    -0.348 OA
HETATM   11  C17 UNL     1     -22.822   7.626 -29.261  1.00  0.00     0.179 C 
HETATM   12  C19 UNL     1     -22.501   6.415 -30.103  1.00  0.00     0.180 C 
HETATM   13  C20 UNL     1     -22.857   6.587 -31.539  1.00  0.00     0.183 C 
HETATM   14  C21 UNL     1     -22.269   7.897 -32.020  1.00  0.00     0.204 C 
BRANCH  11  15
HETATM   15  C18 UNL     1     -24.282   7.631 -28.819  1.00  0.00     0.198 C 
BRANCH  15  16
HETATM   16  O4  UNL     1     -24.456   7.233 -27.522  1.00  0.00    -0.398 OA
ATOM     17  H4  UNL     1     -24.067   7.828 -26.891  1.00  0.00     0.209 HD
ENDBRANCH  15  16
ENDBRANCH  11  15
BRANCH  12  18
HETATM   18  O5  UNL     1     -21.167   6.126 -29.949  1.00  0.00    -0.390 OA
ATOM     19  H5  UNL     1     -20.775   6.066 -30.812  1.00  0.00     0.210 HD
ENDBRANCH  12  18
BRANCH  13  20
HETATM   20  O6  UNL     1     -22.202   5.567 -32.259  1.00  0.00    -0.390 OA
ATOM     21  H6  UNL     1     -22.655   5.471 -33.089  1.00  0.00     0.210 HD
ENDBRANCH  13  20
BRANCH  14  22
HETATM   22  O7  UNL     1     -22.823   8.201 -33.273  1.00  0.00    -0.388 OA
ATOM     23  H7  UNL     1     -22.153   8.039 -33.927  1.00  0.00     0.210 HD
ENDBRANCH  14  22
ENDBRANCH   8   9
ENDBRANCH   7   8
ENDBRANCH   3   7
BRANCH   1  24
HETATM   24  N1  UNL     1     -18.603  14.806 -29.694  1.00  0.00    -0.330 N 
HETATM   25  C5  UNL     1     -17.298  14.794 -29.378  1.00  0.00     0.023 A 
HETATM   26  C6  UNL     1     -17.063  15.889 -28.517  1.00  0.00     0.003 A 
HETATM   27  C10 UNL     1     -18.223  16.557 -28.316  1.00  0.00     0.089 A 
HETATM   28  C11 UNL     1     -19.185  15.842 -29.081  1.00  0.00     0.130 A 
BRANCH  25  29
HETATM   29  C4  UNL     1     -16.344  13.825 -29.864  1.00  0.00     0.058 C 
BRANCH  29  30
HETATM   30  C3  UNL     1     -16.105  12.601 -29.036  1.00  0.00     0.006 C 
BRANCH  30  31
HETATM   31  C2  UNL     1     -14.595  12.450 -28.734  1.00  0.00    -0.004 C 
HETATM   32  C1  UNL     1     -14.400  11.531 -27.555  1.00  0.00     0.005 C 
ENDBRANCH  30  31
ENDBRANCH  29  30
ENDBRANCH  25  29
BRANCH  26  33
HETATM   33  C7  UNL     1     -15.732  16.156 -27.940  1.00  0.00     0.015 C 
HETATM   34  C8  UNL     1     -15.400  17.593 -27.722  1.00  0.00     0.015 C 
HETATM   35  C9  UNL     1     -15.567  15.414 -26.616  1.00  0.00     0.015 C 
ENDBRANCH  26  33
BRANCH  27  36
HETATM   36  O1  UNL     1     -18.532  17.670 -27.575  1.00  0.00    -0.359 OA
ATOM     37  H1  UNL     1     -18.047  18.157 -26.918  1.00  0.00     0.217 HD
ENDBRANCH  27  36
ENDBRANCH   1  24
TORSDOF 14
ENDMDL
MODEL 2
REMARK VINA RESULT: -6.988932080      3.474      6.683
REMARK  14 active torsions:
REMARK  status: ('A' for Active; 'I' for Inactive)
REMARK    1  A    between atoms: C2_2  and  C3_3 
REMARK    2  A    between atoms: C3_3  and  C4_4 
REMARK    3  A    between atoms: C4_4  and  C5_5 
REMARK    4  A    between atoms: C6_6  and  C7_7 
REMARK    5  A    between atoms: C10_10  and  O1_11 
REMARK    6  A    between atoms: N1_14  and  C12_15 
REMARK    7  A    between atoms: C14_17  and  C15_18 
REMARK    8  A    between atoms: C15_18  and  O2_19 
REMARK    9  A    between atoms: O2_19  and  C16_20 
REMARK   10  A    between atoms: C17_22  and  C18_23 
REMARK   11  A    between atoms: C18_23  and  O4_24 
REMARK   12  A    between atoms: C19_26  and  O5_27 
REMARK   13  A    between atoms: C20_29  and  O6_30 
REMARK   14  A    between atoms: C21_32  and  O7_33 
ROOT
HETATM    1  C12 UNL     1     -14.500  13.009 -27.307  1.00  0.00     0.232 C 
HETATM    2  C13 UNL     1     -15.031  12.660 -28.645  1.00  0.00     0.088 C 
HETATM    3  C14 UNL     1     -15.839  13.736 -29.273  1.00  0.00     0.152 C 
HETATM    4  O8  UNL     1     -16.175  14.821 -28.536  1.00  0.00    -0.359 OA
HETATM    5  C22 UNL     1     -15.669  14.913 -27.277  1.00  0.00     0.341 C 
HETATM    6  O9  UNL     1     -14.393  14.368 -27.155  1.00  0.00    -0.342 OA
ENDROOT
BRANCH   3   7
HETATM    7  C15 UNL     1     -17.173  13.112 -29.734  1.00  0.00     0.203 C 
BRANCH   7   8
HETATM    8  O2  UNL     1     -18.210  13.989 -29.541  1.00  0.00    -0.356 OA
BRANCH   8   9
HETATM    9  C16 UNL     1     -19.443  13.513 -29.936  1.00  0.00     0.291 C 
HETATM   10  O3  UNL     1     -19.426  12.152 -29.945  1.00  0.00    -0.348 OA
HETATM   11  C17 UNL     1     -20.459  11.505 -30.560  1.00  0.00     0.179 C 
HETATM   12  C19 UNL     1     -20.871  12.087 -31.891  1.00  0.00     0.180 C 
HETATM   13  C20 UNL     1     -21.054  13.565 -31.855  1.00  0.00     0.183 C 
HETATM   14  C21 UNL     1     -19.824  14.180 -31.222  1.00  0.00     0.204 C 
BRANCH  11  15
HETATM   15  C18 UNL     1     -21.664  11.257 -29.659  1.00  0.00     0.198 C 
BRANCH  15  16
HETATM   16  O4  UNL     1     -22.197  10.006 -29.802  1.00  0.00    -0.398 OA
ATOM     17  H4  UNL     1     -21.726   9.339 -29.317  1.00  0.00     0.209 HD
ENDBRANCH  15  16
ENDBRANCH  11  15
BRANCH  12  18
HETATM   18  O5  UNL     1     -19.936  11.722 -32.828  1.00  0.00    -0.390 OA
ATOM     19  H5  UNL     1     -20.139  12.169 -33.641  1.00  0.00     0.210 HD
ENDBRANCH  12  18
BRANCH  13  20
HETATM   20  O6  UNL     1     -21.084  14.017 -33.190  1.00  0.00    -0.390 OA
ATOM     21  H6  UNL     1     -20.955  14.959 -33.173  1.00  0.00     0.210 HD
ENDBRANCH  13  20
BRANCH  14  22
HETATM   22  O7  UNL     1     -20.097  15.525 -30.931  1.00  0.00    -0.388 OA
ATOM     23  H7  UNL     1     -20.332  15.950 -31.749  1.00  0.00     0.210 HD
ENDBRANCH  14  22
ENDBRANCH   8   9
ENDBRANCH   7   8
ENDBRANCH   3   7
BRANCH   1  24
HETATM   24  N1  UNL     1     -13.306  12.283 -26.930  1.00  0.00    -0.330 N 
HETATM   25  C5  UNL     1     -13.076  11.573 -25.813  1.00  0.00     0.023 A 
HETATM   26  C6  UNL     1     -11.762  11.062 -25.901  1.00  0.00     0.003 A 
HETATM   27  C10 UNL     1     -11.204  11.464 -27.068  1.00  0.00     0.089 A 
HETATM   28  C11 UNL     1     -12.214  12.240 -27.700  1.00  0.00     0.130 A 
BRANCH  25  29
HETATM   29  C4  UNL     1     -14.034  11.383 -24.750  1.00  0.00     0.058 C 
BRANCH  29  30
HETATM   30  C3  UNL     1     -14.991  10.236 -24.865  1.00  0.00     0.006 C 
BRANCH  30  31
HETATM   31  C2  UNL     1     -14.496   9.044 -24.012  1.00  0.00    -0.004 C 
HETATM   32  C1  UNL     1     -14.200   7.867 -24.905  1.00  0.00     0.005 C 
ENDBRANCH  30  31
ENDBRANCH  29  30
ENDBRANCH  25  29
BRANCH  26  33
HETATM   33  C7  UNL     1     -11.162  10.261 -24.818  1.00  0.00     0.015 C 
HETATM   34  C8  UNL     1     -10.608   8.939 -25.225  1.00  0.00     0.015 C 
HETATM   35  C9  UNL     1     -10.062  11.053 -24.117  1.00  0.00     0.015 C 
ENDBRANCH  26  33
BRANCH  27  36
HETATM   36  O1  UNL     1      -9.968  11.246 -27.624  1.00  0.00    -0.359 OA
ATOM     37  H1  UNL     1      -9.626  11.390 -28.499  1.00  0.00     0.217 HD
ENDBRANCH  27  36
ENDBRANCH   1  24
TORSDOF 14
ENDMDL
MODEL 3
REMARK VINA RESULT: -6.672105136      0.911      2.138
REMARK  14 active torsions:
REMARK  status: ('A' for Active; 'I' for Inactive)
REMARK    1  A    between atoms: C2_2  and  C3_3 
REMARK    2  A    between atoms: C3_3  and  C4_4 
REMARK    3  A    between atoms: C4_4  and  C5_5 
REMARK    4  A    between atoms: C6_6  and  C7_7 
REMARK    5  A    between atoms: C10_10  and  O1_11 
REMARK    6  A    between atoms: N1_14  and  C12_15 
REMARK    7  A    between atoms: C14_17  and  C15_18 
REMARK    8  A    between atoms: C15_18  and  O2_19 
REMARK    9  A    between atoms: O2_19  and  C16_20 
REMARK   10  A    between atoms: C17_22  and  C18_23 
REMARK   11  A    between atoms: C18_23  and  O4_24 
REMARK   12  A    between atoms: C19_26  and  O5_27 
REMARK   13  A    between atoms: C20_29  and  O6_30 
REMARK   14  A    between atoms: C21_32  and  O7_33 
ROOT
HETATM    1  C12 UNL     1     -19.256  14.001 -30.513  1.00  0.00     0.232 C 
HETATM    2  C13 UNL     1     -19.870  12.860 -29.796  1.00  0.00     0.088 C 
HETATM    3  C14 UNL     1     -20.124  11.674 -30.653  1.00  0.00     0.152 C 
HETATM    4  O8  UNL     1     -19.965  11.786 -31.994  1.00  0.00    -0.359 OA
HETATM    5  C22 UNL     1     -19.485  12.963 -32.478  1.00  0.00     0.341 C 
HETATM    6  O9  UNL     1     -18.573  13.579 -31.625  1.00  0.00    -0.342 OA
ENDROOT
BRANCH   3   7
HETATM    7  C15 UNL     1     -21.591  11.246 -30.438  1.00  0.00     0.203 C 
BRANCH   7   8
HETATM    8  O2  UNL     1     -21.969  10.324 -31.381  1.00  0.00    -0.356 OA
BRANCH   8   9
HETATM    9  C16 UNL     1     -22.031   9.025 -30.919  1.00  0.00     0.291 C 
HETATM   10  O3  UNL     1     -22.200   8.175 -31.968  1.00  0.00    -0.348 OA
HETATM   11  C17 UNL     1     -22.549   6.884 -31.692  1.00  0.00     0.179 C 
HETATM   12  C19 UNL     1     -23.621   6.726 -30.640  1.00  0.00     0.180 C 
HETATM   13  C20 UNL     1     -23.363   7.530 -29.413  1.00  0.00     0.183 C 
HETATM   14  C21 UNL     1     -23.059   8.953 -29.833  1.00  0.00     0.204 C 
BRANCH  11  15
HETATM   15  C18 UNL     1     -21.365   5.961 -31.428  1.00  0.00     0.198 C 
BRANCH  15  16
HETATM   16  O4  UNL     1     -20.276   6.242 -32.208  1.00  0.00    -0.398 OA
ATOM     17  H4  UNL     1     -19.741   5.479 -32.395  1.00  0.00     0.209 HD
ENDBRANCH  15  16
ENDBRANCH  11  15
BRANCH  12  18
HETATM   18  O5  UNL     1     -24.830   7.051 -31.206  1.00  0.00    -0.390 OA
ATOM     19  H5  UNL     1     -25.107   6.325 -31.753  1.00  0.00     0.210 HD
ENDBRANCH  12  18
BRANCH  13  20
HETATM   20  O6  UNL     1     -24.568   7.579 -28.682  1.00  0.00    -0.390 OA
ATOM     21  H6  UNL     1     -24.740   8.491 -28.481  1.00  0.00     0.210 HD
ENDBRANCH  13  20
BRANCH  14  22
HETATM   22  O7  UNL     1     -22.549   9.646 -28.725  1.00  0.00    -0.388 OA
ATOM     23  H7  UNL     1     -21.826  10.181 -29.032  1.00  0.00     0.210 HD
ENDBRANCH  14  22
ENDBRANCH   8   9
ENDBRANCH   7   8
ENDBRANCH   3   7
BRANCH   1  24
HETATM   24  N1  UNL     1     -18.500  14.902 -29.669  1.00  0.00    -0.330 N 
HETATM   25  C5  UNL     1     -17.199  14.849 -29.344  1.00  0.00     0.023 A 
HETATM   26  C6  UNL     1     -16.933  15.940 -28.487  1.00  0.00     0.003 A 
HETATM   27  C10 UNL     1     -18.073  16.647 -28.298  1.00  0.00     0.089 A 
HETATM   28  C11 UNL     1     -19.053  15.959 -29.065  1.00  0.00     0.130 A 
BRANCH  25  29
HETATM   29  C4  UNL     1     -16.274  13.847 -29.819  1.00  0.00     0.058 C 
BRANCH  29  30
HETATM   30  C3  UNL     1     -16.080  12.620 -28.982  1.00  0.00     0.006 C 
BRANCH  30  31
HETATM   31  C2  UNL     1     -14.571  12.355 -28.769  1.00  0.00    -0.004 C 
HETATM   32  C1  UNL     1     -14.366  11.564 -27.503  1.00  0.00     0.005 C 
ENDBRANCH  30  31
ENDBRANCH  29  30
ENDBRANCH  25  29
BRANCH  26  33
HETATM   33  C7  UNL     1     -15.598  16.167 -27.902  1.00  0.00     0.015 C 
HETATM   34  C8  UNL     1     -15.210  17.594 -27.715  1.00  0.00     0.015 C 
HETATM   35  C9  UNL     1     -15.476  15.451 -26.560  1.00  0.00     0.015 C 
ENDBRANCH  26  33
BRANCH  27  36
HETATM   36  O1  UNL     1     -18.350  17.774 -27.565  1.00  0.00    -0.359 OA
ATOM     37  H1  UNL     1     -18.336  18.699 -27.783  1.00  0.00     0.217 HD
ENDBRANCH  27  36
ENDBRANCH   1  24
TORSDOF 14
ENDMDL
MODEL 4
REMARK VINA RESULT: -6.569172927      1.503      2.920
REMARK  14 active torsions:
REMARK  status: ('A' for Active; 'I' for Inactive)
REMARK    1  A    between atoms: C2_2  and  C3_3 
REMARK    2  A    between atoms: C3_3  and  C4_4 
REMARK    3  A    between atoms: C4_4  and  C5_5 
REMARK    4  A    between atoms: C6_6  and  C7_7 
REMARK    5  A    between atoms: C10_10  and  O1_11 
REMARK    6  A    between atoms: N1_14  and  C12_15 
REMARK    7  A    between atoms: C14_17  and  C15_18 
REMARK    8  A    between atoms: C15_18  and  O2_19 
REMARK    9  A    between atoms: O2_19  and  C16_20 
REMARK   10  A    between atoms: C17_22  and  C18_23 
REMARK   11  A    between atoms: C18_23  and  O4_24 
REMARK   12  A    between atoms: C19_26  and  O5_27 
REMARK   13  A    between atoms: C20_29  and  O6_30 
REMARK   14  A    between atoms: C21_32  and  O7_33 
ROOT
HETATM    1  C12 UNL     1     -19.497  13.541 -30.668  1.00  0.00     0.232 C 
HETATM    2  C13 UNL     1     -19.650  12.077 -30.837  1.00  0.00     0.088 C 
HETATM    3  C14 UNL     1     -20.432  11.686 -32.037  1.00  0.00     0.152 C 
HETATM    4  O8  UNL     1     -21.078  12.646 -32.742  1.00  0.00    -0.359 OA
HETATM    5  C22 UNL     1     -20.895  13.940 -32.365  1.00  0.00     0.341 C 
HETATM    6  O9  UNL     1     -19.619  14.194 -31.868  1.00  0.00    -0.342 OA
ENDROOT
BRANCH   3   7
HETATM    7  C15 UNL     1     -21.522  10.693 -31.584  1.00  0.00     0.203 C 
BRANCH   7   8
HETATM    8  O2  UNL     1     -21.434   9.521 -32.290  1.00  0.00    -0.356 OA
BRANCH   8   9
HETATM    9  C16 UNL     1     -22.234   8.503 -31.812  1.00  0.00     0.291 C 
HETATM   10  O3  UNL     1     -22.262   8.545 -30.452  1.00  0.00    -0.348 OA
HETATM   11  C17 UNL     1     -22.778   7.467 -29.792  1.00  0.00     0.179 C 
HETATM   12  C19 UNL     1     -22.334   6.125 -30.321  1.00  0.00     0.180 C 
HETATM   13  C20 UNL     1     -22.453   6.007 -31.801  1.00  0.00     0.183 C 
HETATM   14  C21 UNL     1     -21.787   7.214 -32.428  1.00  0.00     0.204 C 
BRANCH  11  15
HETATM   15  C18 UNL     1     -24.290   7.521 -29.598  1.00  0.00     0.198 C 
BRANCH  15  16
HETATM   16  O4  UNL     1     -24.677   7.305 -28.304  1.00  0.00    -0.398 OA
ATOM     17  H4  UNL     1     -25.615   7.194 -28.206  1.00  0.00     0.209 HD
ENDBRANCH  15  16
ENDBRANCH  11  15
BRANCH  12  18
HETATM   18  O5  UNL     1     -21.043   5.904 -29.904  1.00  0.00    -0.390 OA
ATOM     19  H5  UNL     1     -20.649   5.263 -30.483  1.00  0.00     0.210 HD
ENDBRANCH  12  18
BRANCH  13  20
HETATM   20  O6  UNL     1     -21.697   4.884 -32.196  1.00  0.00    -0.390 OA
ATOM     21  H6  UNL     1     -21.301   4.520 -31.412  1.00  0.00     0.210 HD
ENDBRANCH  13  20
BRANCH  14  22
HETATM   22  O7  UNL     1     -22.130   7.257 -33.788  1.00  0.00    -0.388 OA
ATOM     23  H7  UNL     1     -22.845   7.876 -33.881  1.00  0.00     0.210 HD
ENDBRANCH  14  22
ENDBRANCH   8   9
ENDBRANCH   7   8
ENDBRANCH   3   7
BRANCH   1  24
HETATM   24  N1  UNL     1     -18.334  13.936 -29.902  1.00  0.00    -0.330 N 
HETATM   25  C5  UNL     1     -18.162  15.035 -29.150  1.00  0.00     0.023 A 
HETATM   26  C6  UNL     1     -16.856  14.978 -28.613  1.00  0.00     0.003 A 
HETATM   27  C10 UNL     1     -16.246  13.847 -29.041  1.00  0.00     0.089 A 
HETATM   28  C11 UNL     1     -17.215  13.205 -29.860  1.00  0.00     0.130 A 
BRANCH  25  29
HETATM   29  C4  UNL     1     -19.162  16.056 -28.947  1.00  0.00     0.058 C 
BRANCH  29  30
HETATM   30  C3  UNL     1     -18.958  17.022 -27.821  1.00  0.00     0.006 C 
BRANCH  30  31
HETATM   31  C2  UNL     1     -19.095  18.475 -28.335  1.00  0.00    -0.004 C 
HETATM   32  C1  UNL     1     -19.893  18.490 -29.613  1.00  0.00     0.005 C 
ENDBRANCH  30  31
ENDBRANCH  29  30
ENDBRANCH  25  29
BRANCH  26  33
HETATM   33  C7  UNL     1     -16.314  16.054 -27.762  1.00  0.00     0.015 C 
HETATM   34  C8  UNL     1     -15.421  15.612 -26.654  1.00  0.00     0.015 C 
HETATM   35  C9  UNL     1     -15.564  17.076 -28.611  1.00  0.00     0.015 C 
ENDBRANCH  26  33
BRANCH  27  36
HETATM   36  O1  UNL     1     -14.996  13.329 -28.813  1.00  0.00    -0.359 OA
ATOM     37  H1  UNL     1     -14.148  13.512 -29.200  1.00  0.00     0.217 HD
ENDBRANCH  27  36
ENDBRANCH   1  24
TORSDOF 14
ENDMDL
MODEL 5
REMARK VINA RESULT: -6.058812754      4.408      8.452
REMARK  14 active torsions:
REMARK  status: ('A' for Active; 'I' for Inactive)
REMARK    1  A    between atoms: C2_2  and  C3_3 
REMARK    2  A    between atoms: C3_3  and  C4_4 
REMARK    3  A    between atoms: C4_4  and  C5_5 
REMARK    4  A    between atoms: C6_6  and  C7_7 
REMARK    5  A    between atoms: C10_10  and  O1_11 
REMARK    6  A    between atoms: N1_14  and  C12_15 
REMARK    7  A    between atoms: C14_17  and  C15_18 
REMARK    8  A    between atoms: C15_18  and  O2_19 
REMARK    9  A    between atoms: O2_19  and  C16_20 
REMARK   10  A    between atoms: C17_22  and  C18_23 
REMARK   11  A    between atoms: C18_23  and  O4_24 
REMARK   12  A    between atoms: C19_26  and  O5_27 
REMARK   13  A    between atoms: C20_29  and  O6_30 
REMARK   14  A    between atoms: C21_32  and  O7_33 
ROOT
HETATM    1  C12 UNL     1     -13.497  10.961 -26.640  1.00  0.00     0.232 C 
HETATM    2  C13 UNL     1     -14.766  11.392 -27.268  1.00  0.00     0.088 C 
HETATM    3  C14 UNL     1     -14.590  12.088 -28.569  1.00  0.00     0.152 C 
HETATM    4  O8  UNL     1     -13.341  12.431 -28.966  1.00  0.00    -0.359 OA
HETATM    5  C22 UNL     1     -12.298  12.030 -28.192  1.00  0.00     0.341 C 
HETATM    6  O9  UNL     1     -12.509  10.799 -27.577  1.00  0.00    -0.342 OA
ENDROOT
BRANCH   3   7
HETATM    7  C15 UNL     1     -15.387  13.408 -28.507  1.00  0.00     0.203 C 
BRANCH   7   8
HETATM    8  O2  UNL     1     -16.116  13.588 -29.654  1.00  0.00    -0.356 OA
BRANCH   8   9
HETATM    9  C16 UNL     1     -17.481  13.641 -29.463  1.00  0.00     0.291 C 
HETATM   10  O3  UNL     1     -18.103  12.857 -30.386  1.00  0.00    -0.348 OA
HETATM   11  C17 UNL     1     -19.454  12.988 -30.527  1.00  0.00     0.179 C 
HETATM   12  C19 UNL     1     -19.956  14.412 -30.545  1.00  0.00     0.180 C 
HETATM   13  C20 UNL     1     -19.408  15.243 -29.437  1.00  0.00     0.183 C 
HETATM   14  C21 UNL     1     -17.903  15.077 -29.420  1.00  0.00     0.204 C 
BRANCH  11  15
HETATM   15  C18 UNL     1     -20.268  12.119 -29.575  1.00  0.00     0.198 C 
BRANCH  15  16
HETATM   16  O4  UNL     1     -21.603  12.416 -29.578  1.00  0.00    -0.398 OA
ATOM     17  H4  UNL     1     -22.123  11.815 -29.057  1.00  0.00     0.209 HD
ENDBRANCH  15  16
ENDBRANCH  11  15
BRANCH  12  18
HETATM   18  O5  UNL     1     -19.662  14.956 -31.772  1.00  0.00    -0.390 OA
ATOM     19  H5  UNL     1     -19.413  15.864 -31.642  1.00  0.00     0.210 HD
ENDBRANCH  12  18
BRANCH  13  20
HETATM   20  O6  UNL     1     -19.657  16.592 -29.761  1.00  0.00    -0.390 OA
ATOM     21  H6  UNL     1     -19.219  16.771 -30.585  1.00  0.00     0.210 HD
ENDBRANCH  13  20
BRANCH  14  22
HETATM   22  O7  UNL     1     -17.408  15.625 -28.227  1.00  0.00    -0.388 OA
ATOM     23  H7  UNL     1     -16.459  15.585 -28.268  1.00  0.00     0.210 HD
ENDBRANCH  14  22
ENDBRANCH   8   9
ENDBRANCH   7   8
ENDBRANCH   3   7
BRANCH   1  24
HETATM   24  N1  UNL     1     -13.630   9.842 -25.731  1.00  0.00    -0.330 N 
HETATM   25  C5  UNL     1     -13.626   9.849 -24.388  1.00  0.00     0.023 A 
HETATM   26  C6  UNL     1     -13.775   8.511 -23.959  1.00  0.00     0.003 A 
HETATM   27  C10 UNL     1     -13.869   7.702 -25.042  1.00  0.00     0.089 A 
HETATM   28  C11 UNL     1     -13.773   8.581 -26.155  1.00  0.00     0.130 A 
BRANCH  25  29
HETATM   29  C4  UNL     1     -13.502  11.035 -23.574  1.00  0.00     0.058 C 
BRANCH  29  30
HETATM   30  C3  UNL     1     -12.128  11.445 -23.140  1.00  0.00     0.006 C 
BRANCH  30  31
HETATM   31  C2  UNL     1     -11.962  11.216 -21.619  1.00  0.00    -0.004 C 
HETATM   32  C1  UNL     1     -13.301  11.325 -20.937  1.00  0.00     0.005 C 
ENDBRANCH  30  31
ENDBRANCH  29  30
ENDBRANCH  25  29
BRANCH  26  33
HETATM   33  C7  UNL     1     -13.773   8.145 -22.530  1.00  0.00     0.015 C 
HETATM   34  C8  UNL     1     -15.001   7.459 -22.038  1.00  0.00     0.015 C 
HETATM   35  C9  UNL     1     -12.565   7.269 -22.207  1.00  0.00     0.015 C 
ENDBRANCH  26  33
BRANCH  27  36
HETATM   36  O1  UNL     1     -14.020   6.344 -25.169  1.00  0.00    -0.359 OA
ATOM     37  H1  UNL     1     -14.284   5.796 -25.899  1.00  0.00     0.217 HD
ENDBRANCH  27  36
ENDBRANCH   1  24
TORSDOF 14
ENDMDL
