MODEL 1
REMARK VINA RESULT: -6.457963762      0.000      0.000
REMARK  14 active torsions:
REMARK  status: ('A' for Active; 'I' for Inactive)
REMARK    1  A    between atoms: C2_2  and  C3_3 
REMARK    2  A    between atoms: C3_3  and  C4_4 
REMARK    3  A    between atoms: C4_4  and  C5_5 
REMARK    4  A    between atoms: C5_5  and  C6_6 
REMARK    5  A    between atoms: C9_9  and  S1_10 
REMARK    6  A    between atoms: S1_10  and  C10_11 
REMARK    7  A    between atoms: C11_13  and  O2_14 
REMARK    8  A    between atoms: O2_14  and  C12_15 
REMARK    9  A    between atoms: C14_18  and  O4_19 
REMARK   10  A    between atoms: C16_22  and  O5_23 
REMARK   11  A    between atoms: C17_25  and  O6_26 
REMARK   12  A    between atoms: C18_28  and  O7_29 
REMARK   13  A    between atoms: C19_31  and  C20_32 
REMARK   14  A    between atoms: C20_32  and  O8_33 
ROOT
HETATM    1  C10 UNL     1     -21.888   8.240 -31.210  1.00  0.00     0.195 C 
HETATM    2  O1  UNL     1     -22.514   7.974 -29.996  1.00  0.00    -0.342 OA
HETATM    3  C11 UNL     1     -22.111   6.753 -29.527  1.00  0.00     0.295 C 
HETATM    4  C17 UNL     1     -21.948   5.700 -30.600  1.00  0.00     0.202 C 
HETATM    5  C18 UNL     1     -22.816   6.065 -31.761  1.00  0.00     0.161 C 
HETATM    6  C19 UNL     1     -22.389   7.381 -32.335  1.00  0.00     0.080 C 
ENDROOT
BRANCH   1   7
HETATM    7  S1  UNL     1     -21.933  10.001 -31.644  1.00  0.00    -0.130 SA
BRANCH   7   8
HETATM    8  C9  UNL     1     -21.410  11.037 -30.263  1.00  0.00     0.076 C 
HETATM    9  C8  UNL     1     -20.038  11.669 -30.516  1.00  0.00     0.055 C 
HETATM   10  C5  UNL     1     -20.392  13.095 -30.708  1.00  0.00     0.061 C 
HETATM   11  O9  UNL     1     -21.543  13.341 -29.969  1.00  0.00    -0.379 OA
HETATM   12  C21 UNL     1     -22.322  12.194 -30.049  1.00  0.00     0.184 C 
BRANCH  10  13
HETATM   13  C4  UNL     1     -19.337  14.078 -30.393  1.00  0.00     0.038 C 
BRANCH  13  14
HETATM   14  C3  UNL     1     -17.990  13.602 -30.045  1.00  0.00     0.002 C 
BRANCH  14  15
HETATM   15  C2  UNL     1     -17.144  14.626 -29.332  1.00  0.00    -0.004 C 
HETATM   16  C1  UNL     1     -17.966  15.724 -28.720  1.00  0.00     0.005 C 
ENDBRANCH  14  15
ENDBRANCH  13  14
ENDBRANCH  10  13
BRANCH  10  17
HETATM   17  C6  UNL     1     -20.801  13.326 -32.177  1.00  0.00     0.033 C 
HETATM   18  C7  UNL     1     -19.875  12.569 -33.100  1.00  0.00     0.008 C 
ENDBRANCH  10  17
ENDBRANCH   7   8
ENDBRANCH   1   7
BRANCH   6  19
HETATM   19  C20 UNL     1     -21.374   7.237 -33.446  1.00  0.00     0.174 C 
BRANCH  19  20
HETATM   20  O8  UNL     1     -22.059   6.843 -34.593  1.00  0.00    -0.400 OA
ATOM     21  H8  UNL     1     -21.449   6.363 -35.141  1.00  0.00     0.209 HD
ENDBRANCH  19  20
ENDBRANCH   6  19
BRANCH   3  22
HETATM   22  O2  UNL     1     -22.951   6.217 -28.563  1.00  0.00    -0.326 OA
BRANCH  22  23
HETATM   23  C12 UNL     1     -24.285   6.434 -28.780  1.00  0.00     0.291 C 
HETATM   24  O3  UNL     1     -24.778   7.162 -27.681  1.00  0.00    -0.356 OA
HETATM   25  C13 UNL     1     -24.490   6.386 -26.554  1.00  0.00     0.202 C 
HETATM   26  C14 UNL     1     -25.519   5.278 -26.512  1.00  0.00     0.144 C 
HETATM   27  C15 UNL     1     -25.361   4.424 -27.723  1.00  0.00     0.070 C 
HETATM   28  C16 UNL     1     -25.070   5.157 -28.981  1.00  0.00     0.175 C 
BRANCH  26  29
HETATM   29  O4  UNL     1     -26.785   5.819 -26.356  1.00  0.00    -0.393 OA
ATOM     30  H4  UNL     1     -27.132   6.075 -27.202  1.00  0.00     0.210 HD
ENDBRANCH  26  29
BRANCH  28  31
HETATM   31  O5  UNL     1     -26.229   5.367 -29.713  1.00  0.00    -0.391 OA
ATOM     32  H5  UNL     1     -26.575   4.558 -30.074  1.00  0.00     0.210 HD
ENDBRANCH  28  31
ENDBRANCH  22  23
ENDBRANCH   3  22
BRANCH   5  33
HETATM   33  O7  UNL     1     -22.832   5.043 -32.713  1.00  0.00    -0.392 OA
ATOM     34  H7  UNL     1     -23.719   4.860 -33.000  1.00  0.00     0.210 HD
ENDBRANCH   5  33
BRANCH   4  35
HETATM   35  O6  UNL     1     -20.612   5.527 -30.960  1.00  0.00    -0.388 OA
ATOM     36  H6  UNL     1     -20.523   5.216 -31.853  1.00  0.00     0.210 HD
ENDBRANCH   4  35
TORSDOF 14
ENDMDL
MODEL 2
REMARK VINA RESULT: -6.216675109      2.288      5.813
REMARK  14 active torsions:
REMARK  status: ('A' for Active; 'I' for Inactive)
REMARK    1  A    between atoms: C2_2  and  C3_3 
REMARK    2  A    between atoms: C3_3  and  C4_4 
REMARK    3  A    between atoms: C4_4  and  C5_5 
REMARK    4  A    between atoms: C5_5  and  C6_6 
REMARK    5  A    between atoms: C9_9  and  S1_10 
REMARK    6  A    between atoms: S1_10  and  C10_11 
REMARK    7  A    between atoms: C11_13  and  O2_14 
REMARK    8  A    between atoms: O2_14  and  C12_15 
REMARK    9  A    between atoms: C14_18  and  O4_19 
REMARK   10  A    between atoms: C16_22  and  O5_23 
REMARK   11  A    between atoms: C17_25  and  O6_26 
REMARK   12  A    between atoms: C18_28  and  O7_29 
REMARK   13  A    between atoms: C19_31  and  C20_32 
REMARK   14  A    between atoms: C20_32  and  O8_33 
ROOT
HETATM    1  C10 UNL     1     -22.146   8.498 -32.463  1.00  0.00     0.195 C 
HETATM    2  O1  UNL     1     -21.307   7.921 -33.412  1.00  0.00    -0.342 OA
HETATM    3  C11 UNL     1     -21.777   6.681 -33.750  1.00  0.00     0.295 C 
HETATM    4  C17 UNL     1     -22.345   5.896 -32.590  1.00  0.00     0.202 C 
HETATM    5  C18 UNL     1     -21.722   6.395 -31.326  1.00  0.00     0.161 C 
HETATM    6  C19 UNL     1     -22.058   7.840 -31.117  1.00  0.00     0.080 C 
ENDROOT
BRANCH   1   7
HETATM    7  S1  UNL     1     -21.927  10.295 -32.344  1.00  0.00    -0.130 SA
BRANCH   7   8
HETATM    8  C9  UNL     1     -20.931  10.748 -30.911  1.00  0.00     0.076 C 
HETATM    9  C8  UNL     1     -19.863  11.786 -31.266  1.00  0.00     0.055 C 
HETATM   10  C5  UNL     1     -20.373  12.995 -30.577  1.00  0.00     0.061 C 
HETATM   11  O9  UNL     1     -21.097  12.568 -29.470  1.00  0.00    -0.379 OA
HETATM   12  C21 UNL     1     -21.743  11.395 -29.843  1.00  0.00     0.184 C 
BRANCH  10  13
HETATM   13  C4  UNL     1     -19.367  14.004 -30.197  1.00  0.00     0.038 C 
BRANCH  13  14
HETATM   14  C3  UNL     1     -17.939  13.664 -30.279  1.00  0.00     0.002 C 
BRANCH  14  15
HETATM   15  C2  UNL     1     -17.069  14.436 -29.321  1.00  0.00    -0.004 C 
HETATM   16  C1  UNL     1     -17.773  15.630 -28.741  1.00  0.00     0.005 C 
ENDBRANCH  14  15
ENDBRANCH  13  14
ENDBRANCH  10  13
BRANCH  10  17
HETATM   17  C6  UNL     1     -21.403  13.702 -31.482  1.00  0.00     0.033 C 
HETATM   18  C7  UNL     1     -20.898  13.752 -32.905  1.00  0.00     0.008 C 
ENDBRANCH  10  17
ENDBRANCH   7   8
ENDBRANCH   1   7
BRANCH   6  19
HETATM   19  C20 UNL     1     -23.312   8.039 -30.296  1.00  0.00     0.174 C 
BRANCH  19  20
HETATM   20  O8  UNL     1     -22.927   8.151 -28.962  1.00  0.00    -0.400 OA
ATOM     21  H8  UNL     1     -23.718   8.152 -28.435  1.00  0.00     0.209 HD
ENDBRANCH  19  20
ENDBRANCH   6  19
BRANCH   3  22
HETATM   22  O2  UNL     1     -20.832   5.870 -34.359  1.00  0.00    -0.326 OA
BRANCH  22  23
HETATM   23  C12 UNL     1     -21.287   5.177 -35.449  1.00  0.00     0.291 C 
HETATM   24  O3  UNL     1     -20.265   4.294 -35.844  1.00  0.00    -0.356 OA
HETATM   25  C13 UNL     1     -19.147   5.096 -36.090  1.00  0.00     0.202 C 
HETATM   26  C14 UNL     1     -19.361   5.740 -37.441  1.00  0.00     0.144 C 
HETATM   27  C15 UNL     1     -20.563   6.618 -37.375  1.00  0.00     0.070 C 
HETATM   28  C16 UNL     1     -21.701   6.074 -36.593  1.00  0.00     0.175 C 
BRANCH  26  29
HETATM   29  O4  UNL     1     -19.420   4.764 -38.422  1.00  0.00    -0.393 OA
ATOM     30  H4  UNL     1     -19.792   5.128 -39.217  1.00  0.00     0.210 HD
ENDBRANCH  26  29
BRANCH  28  31
HETATM   31  O5  UNL     1     -22.629   5.465 -37.425  1.00  0.00    -0.391 OA
ATOM     32  H5  UNL     1     -22.335   5.439 -38.329  1.00  0.00     0.210 HD
ENDBRANCH  28  31
ENDBRANCH  22  23
ENDBRANCH   3  22
BRANCH   5  33
HETATM   33  O7  UNL     1     -22.086   5.596 -30.240  1.00  0.00    -0.392 OA
ATOM     34  H7  UNL     1     -21.817   5.994 -29.420  1.00  0.00     0.210 HD
ENDBRANCH   5  33
BRANCH   4  35
HETATM   35  O6  UNL     1     -23.738   5.947 -32.560  1.00  0.00    -0.388 OA
ATOM     36  H6  UNL     1     -24.125   5.493 -33.300  1.00  0.00     0.210 HD
ENDBRANCH   4  35
TORSDOF 14
ENDMDL
MODEL 3
REMARK VINA RESULT: -6.151898798      1.082      1.449
REMARK  14 active torsions:
REMARK  status: ('A' for Active; 'I' for Inactive)
REMARK    1  A    between atoms: C2_2  and  C3_3 
REMARK    2  A    between atoms: C3_3  and  C4_4 
REMARK    3  A    between atoms: C4_4  and  C5_5 
REMARK    4  A    between atoms: C5_5  and  C6_6 
REMARK    5  A    between atoms: C9_9  and  S1_10 
REMARK    6  A    between atoms: S1_10  and  C10_11 
REMARK    7  A    between atoms: C11_13  and  O2_14 
REMARK    8  A    between atoms: O2_14  and  C12_15 
REMARK    9  A    between atoms: C14_18  and  O4_19 
REMARK   10  A    between atoms: C16_22  and  O5_23 
REMARK   11  A    between atoms: C17_25  and  O6_26 
REMARK   12  A    between atoms: C18_28  and  O7_29 
REMARK   13  A    between atoms: C19_31  and  C20_32 
REMARK   14  A    between atoms: C20_32  and  O8_33 
ROOT
HETATM    1  C10 UNL     1     -22.001   8.463 -31.081  1.00  0.00     0.195 C 
HETATM    2  O1  UNL     1     -22.777   8.308 -29.935  1.00  0.00    -0.342 OA
HETATM    3  C11 UNL     1     -22.546   7.076 -29.385  1.00  0.00     0.295 C 
HETATM    4  C17 UNL     1     -22.370   5.967 -30.398  1.00  0.00     0.202 C 
HETATM    5  C18 UNL     1     -23.069   6.360 -31.660  1.00  0.00     0.161 C 
HETATM    6  C19 UNL     1     -22.458   7.606 -32.225  1.00  0.00     0.080 C 
ENDROOT
BRANCH   1   7
HETATM    7  S1  UNL     1     -21.829  10.200 -31.573  1.00  0.00    -0.130 SA
BRANCH   7   8
HETATM    8  C9  UNL     1     -21.251  11.223 -30.206  1.00  0.00     0.076 C 
HETATM    9  C8  UNL     1     -19.876  11.833 -30.494  1.00  0.00     0.055 C 
HETATM   10  C5  UNL     1     -20.211  13.265 -30.673  1.00  0.00     0.061 C 
HETATM   11  O9  UNL     1     -21.337  13.528 -29.902  1.00  0.00    -0.379 OA
HETATM   12  C21 UNL     1     -22.138  12.394 -29.964  1.00  0.00     0.184 C 
BRANCH  10  13
HETATM   13  C4  UNL     1     -19.132  14.229 -30.385  1.00  0.00     0.038 C 
BRANCH  13  14
HETATM   14  C3  UNL     1     -17.784  13.731 -30.077  1.00  0.00     0.002 C 
BRANCH  14  15
HETATM   15  C2  UNL     1     -17.004  14.613 -29.136  1.00  0.00    -0.004 C 
HETATM   16  C1  UNL     1     -17.804  15.791 -28.658  1.00  0.00     0.005 C 
ENDBRANCH  14  15
ENDBRANCH  13  14
ENDBRANCH  10  13
BRANCH  10  17
HETATM   17  C6  UNL     1     -20.656  13.508 -32.129  1.00  0.00     0.033 C 
HETATM   18  C7  UNL     1     -19.828  12.667 -33.074  1.00  0.00     0.008 C 
ENDBRANCH  10  17
ENDBRANCH   7   8
ENDBRANCH   1   7
BRANCH   6  19
HETATM   19  C20 UNL     1     -21.347   7.321 -33.211  1.00  0.00     0.174 C 
BRANCH  19  20
HETATM   20  O8  UNL     1     -21.939   7.004 -34.431  1.00  0.00    -0.400 OA
ATOM     21  H8  UNL     1     -22.751   6.547 -34.246  1.00  0.00     0.209 HD
ENDBRANCH  19  20
ENDBRANCH   6  19
BRANCH   3  22
HETATM   22  O2  UNL     1     -23.533   6.662 -28.504  1.00  0.00    -0.326 OA
BRANCH  22  23
HETATM   23  C12 UNL     1     -23.499   5.329 -28.190  1.00  0.00     0.291 C 
HETATM   24  O3  UNL     1     -24.829   4.903 -28.012  1.00  0.00    -0.356 OA
HETATM   25  C13 UNL     1     -25.358   5.724 -27.012  1.00  0.00     0.202 C 
HETATM   26  C14 UNL     1     -24.826   5.205 -25.695  1.00  0.00     0.144 C 
HETATM   27  C15 UNL     1     -23.343   5.347 -25.682  1.00  0.00     0.070 C 
HETATM   28  C16 UNL     1     -22.666   5.030 -26.964  1.00  0.00     0.175 C 
BRANCH  26  29
HETATM   29  O4  UNL     1     -25.279   3.914 -25.482  1.00  0.00    -0.393 OA
ATOM     30  H4  UNL     1     -25.458   3.784 -24.558  1.00  0.00     0.210 HD
ENDBRANCH  26  29
BRANCH  28  31
HETATM   31  O5  UNL     1     -22.188   3.727 -26.964  1.00  0.00    -0.391 OA
ATOM     32  H5  UNL     1     -22.881   3.092 -27.103  1.00  0.00     0.210 HD
ENDBRANCH  28  31
ENDBRANCH  22  23
ENDBRANCH   3  22
BRANCH   5  33
HETATM   33  O7  UNL     1     -23.080   5.305 -32.574  1.00  0.00    -0.392 OA
ATOM     34  H7  UNL     1     -23.392   5.594 -33.424  1.00  0.00     0.210 HD
ENDBRANCH   5  33
BRANCH   4  35
HETATM   35  O6  UNL     1     -21.027   5.657 -30.601  1.00  0.00    -0.388 OA
ATOM     36  H6  UNL     1     -20.598   6.289 -31.166  1.00  0.00     0.210 HD
ENDBRANCH   4  35
TORSDOF 14
ENDMDL
MODEL 4
REMARK VINA RESULT: -6.087098605      1.941      4.543
REMARK  14 active torsions:
REMARK  status: ('A' for Active; 'I' for Inactive)
REMARK    1  A    between atoms: C2_2  and  C3_3 
REMARK    2  A    between atoms: C3_3  and  C4_4 
REMARK    3  A    between atoms: C4_4  and  C5_5 
REMARK    4  A    between atoms: C5_5  and  C6_6 
REMARK    5  A    between atoms: C9_9  and  S1_10 
REMARK    6  A    between atoms: S1_10  and  C10_11 
REMARK    7  A    between atoms: C11_13  and  O2_14 
REMARK    8  A    between atoms: O2_14  and  C12_15 
REMARK    9  A    between atoms: C14_18  and  O4_19 
REMARK   10  A    between atoms: C16_22  and  O5_23 
REMARK   11  A    between atoms: C17_25  and  O6_26 
REMARK   12  A    between atoms: C18_28  and  O7_29 
REMARK   13  A    between atoms: C19_31  and  C20_32 
REMARK   14  A    between atoms: C20_32  and  O8_33 
ROOT
HETATM    1  C10 UNL     1     -22.205   8.383 -31.514  1.00  0.00     0.195 C 
HETATM    2  O1  UNL     1     -21.544   7.292 -32.071  1.00  0.00    -0.342 OA
HETATM    3  C11 UNL     1     -22.367   6.198 -32.056  1.00  0.00     0.295 C 
HETATM    4  C17 UNL     1     -23.218   6.079 -30.813  1.00  0.00     0.202 C 
HETATM    5  C18 UNL     1     -22.536   6.806 -29.698  1.00  0.00     0.161 C 
HETATM    6  C19 UNL     1     -22.404   8.260 -30.031  1.00  0.00     0.080 C 
ENDROOT
BRANCH   1   7
HETATM    7  S1  UNL     1     -21.429   9.963 -31.955  1.00  0.00    -0.130 SA
BRANCH   7   8
HETATM    8  C9  UNL     1     -21.057  10.950 -30.492  1.00  0.00     0.076 C 
HETATM    9  C8  UNL     1     -19.754  11.737 -30.655  1.00  0.00     0.055 C 
HETATM   10  C5  UNL     1     -20.252  13.129 -30.765  1.00  0.00     0.061 C 
HETATM   11  O9  UNL     1     -21.442  13.202 -30.051  1.00  0.00    -0.379 OA
HETATM   12  C21 UNL     1     -22.093  11.988 -30.234  1.00  0.00     0.184 C 
BRANCH  10  13
HETATM   13  C4  UNL     1     -19.316  14.192 -30.350  1.00  0.00     0.038 C 
BRANCH  13  14
HETATM   14  C3  UNL     1     -17.898  13.864 -30.145  1.00  0.00     0.002 C 
BRANCH  14  15
HETATM   15  C2  UNL     1     -17.206  14.743 -29.135  1.00  0.00    -0.004 C 
HETATM   16  C1  UNL     1     -18.057  15.904 -28.706  1.00  0.00     0.005 C 
ENDBRANCH  14  15
ENDBRANCH  13  14
ENDBRANCH  10  13
BRANCH  10  17
HETATM   17  C6  UNL     1     -20.643  13.417 -32.229  1.00  0.00     0.033 C 
HETATM   18  C7  UNL     1     -19.682  12.727 -33.169  1.00  0.00     0.008 C 
ENDBRANCH  10  17
ENDBRANCH   7   8
ENDBRANCH   1   7
BRANCH   6  19
HETATM   19  C20 UNL     1     -23.571   9.085 -29.537  1.00  0.00     0.174 C 
BRANCH  19  20
HETATM   20  O8  UNL     1     -23.273   9.501 -28.241  1.00  0.00    -0.400 OA
ATOM     21  H8  UNL     1     -22.736   8.827 -27.841  1.00  0.00     0.209 HD
ENDBRANCH  19  20
ENDBRANCH   6  19
BRANCH   3  22
HETATM   22  O2  UNL     1     -21.699   4.992 -32.203  1.00  0.00    -0.326 OA
BRANCH  22  23
HETATM   23  C12 UNL     1     -20.343   5.061 -32.023  1.00  0.00     0.291 C 
HETATM   24  O3  UNL     1     -19.739   4.404 -33.111  1.00  0.00    -0.356 OA
HETATM   25  C13 UNL     1     -20.262   3.107 -33.108  1.00  0.00     0.202 C 
HETATM   26  C14 UNL     1     -19.539   2.349 -32.017  1.00  0.00     0.144 C 
HETATM   27  C15 UNL     1     -19.845   2.982 -30.703  1.00  0.00     0.070 C 
HETATM   28  C16 UNL     1     -19.888   4.465 -30.710  1.00  0.00     0.175 C 
BRANCH  26  29
HETATM   29  O4  UNL     1     -18.189   2.272 -32.314  1.00  0.00    -0.393 OA
ATOM     30  H4  UNL     1     -17.677   2.508 -31.549  1.00  0.00     0.210 HD
ENDBRANCH  26  29
BRANCH  28  31
HETATM   31  O5  UNL     1     -18.679   4.999 -30.286  1.00  0.00    -0.391 OA
ATOM     32  H5  UNL     1     -18.787   5.851 -29.881  1.00  0.00     0.210 HD
ENDBRANCH  28  31
ENDBRANCH  22  23
ENDBRANCH   3  22
BRANCH   5  33
HETATM   33  O7  UNL     1     -23.195   6.590 -28.485  1.00  0.00    -0.392 OA
ATOM     34  H7  UNL     1     -23.331   5.662 -28.333  1.00  0.00     0.210 HD
ENDBRANCH   5  33
BRANCH   4  35
HETATM   35  O6  UNL     1     -24.521   6.525 -31.030  1.00  0.00    -0.388 OA
ATOM     36  H6  UNL     1     -24.712   7.314 -30.537  1.00  0.00     0.210 HD
ENDBRANCH   4  35
TORSDOF 14
ENDMDL
MODEL 5
REMARK VINA RESULT: -6.055230211      0.946      1.526
REMARK  14 active torsions:
REMARK  status: ('A' for Active; 'I' for Inactive)
REMARK    1  A    between atoms: C2_2  and  C3_3 
REMARK    2  A    between atoms: C3_3  and  C4_4 
REMARK    3  A    between atoms: C4_4  and  C5_5 
REMARK    4  A    between atoms: C5_5  and  C6_6 
REMARK    5  A    between atoms: C9_9  and  S1_10 
REMARK    6  A    between atoms: S1_10  and  C10_11 
REMARK    7  A    between atoms: C11_13  and  O2_14 
REMARK    8  A    between atoms: O2_14  and  C12_15 
REMARK    9  A    between atoms: C14_18  and  O4_19 
REMARK   10  A    between atoms: C16_22  and  O5_23 
REMARK   11  A    between atoms: C17_25  and  O6_26 
REMARK   12  A    between atoms: C18_28  and  O7_29 
REMARK   13  A    between atoms: C19_31  and  C20_32 
REMARK   14  A    between atoms: C20_32  and  O8_33 
ROOT
HETATM    1  C10 UNL     1     -22.118   8.379 -30.977  1.00  0.00     0.195 C 
HETATM    2  O1  UNL     1     -23.036   8.237 -29.940  1.00  0.00    -0.342 OA
HETATM    3  C11 UNL     1     -22.852   7.028 -29.325  1.00  0.00     0.295 C 
HETATM    4  C17 UNL     1     -22.518   5.896 -30.270  1.00  0.00     0.202 C 
HETATM    5  C18 UNL     1     -23.052   6.234 -31.626  1.00  0.00     0.161 C 
HETATM    6  C19 UNL     1     -22.399   7.479 -32.144  1.00  0.00     0.080 C 
ENDROOT
BRANCH   1   7
HETATM    7  S1  UNL     1     -21.922  10.106 -31.498  1.00  0.00    -0.130 SA
BRANCH   7   8
HETATM    8  C9  UNL     1     -21.361  11.149 -30.138  1.00  0.00     0.076 C 
HETATM    9  C8  UNL     1     -19.984  11.757 -30.419  1.00  0.00     0.055 C 
HETATM   10  C5  UNL     1     -20.319  13.186 -30.622  1.00  0.00     0.061 C 
HETATM   11  O9  UNL     1     -21.454  13.458 -29.868  1.00  0.00    -0.379 OA
HETATM   12  C21 UNL     1     -22.252  12.322 -29.923  1.00  0.00     0.184 C 
BRANCH  10  13
HETATM   13  C4  UNL     1     -19.245  14.156 -30.335  1.00  0.00     0.038 C 
BRANCH  13  14
HETATM   14  C3  UNL     1     -17.885  13.667 -30.066  1.00  0.00     0.002 C 
BRANCH  14  15
HETATM   15  C2  UNL     1     -17.050  14.603 -29.231  1.00  0.00    -0.004 C 
HETATM   16  C1  UNL     1     -17.850  15.752 -28.685  1.00  0.00     0.005 C 
ENDBRANCH  14  15
ENDBRANCH  13  14
ENDBRANCH  10  13
BRANCH  10  17
HETATM   17  C6  UNL     1     -20.748  13.407 -32.087  1.00  0.00     0.033 C 
HETATM   18  C7  UNL     1     -19.856  12.615 -33.015  1.00  0.00     0.008 C 
ENDBRANCH  10  17
ENDBRANCH   7   8
ENDBRANCH   1   7
BRANCH   6  19
HETATM   19  C20 UNL     1     -21.161   7.195 -32.965  1.00  0.00     0.174 C 
BRANCH  19  20
HETATM   20  O8  UNL     1     -21.557   7.072 -34.295  1.00  0.00    -0.400 OA
ATOM     21  H8  UNL     1     -20.826   6.705 -34.778  1.00  0.00     0.209 HD
ENDBRANCH  19  20
ENDBRANCH   6  19
BRANCH   3  22
HETATM   22  O2  UNL     1     -23.938   6.613 -28.570  1.00  0.00    -0.326 OA
BRANCH  22  23
HETATM   23  C12 UNL     1     -23.614   5.932 -27.426  1.00  0.00     0.291 C 
HETATM   24  O3  UNL     1     -24.011   4.593 -27.606  1.00  0.00    -0.356 OA
HETATM   25  C13 UNL     1     -25.380   4.640 -27.889  1.00  0.00     0.202 C 
HETATM   26  C14 UNL     1     -26.090   4.862 -26.572  1.00  0.00     0.144 C 
HETATM   27  C15 UNL     1     -25.680   6.183 -26.018  1.00  0.00     0.070 C 
HETATM   28  C16 UNL     1     -24.244   6.522 -26.185  1.00  0.00     0.175 C 
BRANCH  26  29
HETATM   29  O4  UNL     1     -25.857   3.791 -25.726  1.00  0.00    -0.393 OA
ATOM     30  H4  UNL     1     -26.644   3.592 -25.233  1.00  0.00     0.210 HD
ENDBRANCH  26  29
BRANCH  28  31
HETATM   31  O5  UNL     1     -23.525   6.215 -25.039  1.00  0.00    -0.391 OA
ATOM     32  H5  UNL     1     -24.080   5.861 -24.353  1.00  0.00     0.210 HD
ENDBRANCH  28  31
ENDBRANCH  22  23
ENDBRANCH   3  22
BRANCH   5  33
HETATM   33  O7  UNL     1     -22.917   5.152 -32.499  1.00  0.00    -0.392 OA
ATOM     34  H7  UNL     1     -23.616   4.522 -32.369  1.00  0.00     0.210 HD
ENDBRANCH   5  33
BRANCH   4  35
HETATM   35  O6  UNL     1     -21.153   5.615 -30.283  1.00  0.00    -0.388 OA
ATOM     36  H6  UNL     1     -20.646   6.304 -29.870  1.00  0.00     0.210 HD
ENDBRANCH   4  35
TORSDOF 14
ENDMDL
