MODEL 1
REMARK VINA RESULT: -5.616562100      0.000      0.000
REMARK  14 active torsions:
REMARK  status: ('A' for Active; 'I' for Inactive)
REMARK    1  A    between atoms: C2_2  and  C3_3 
REMARK    2  A    between atoms: C3_3  and  C4_4 
REMARK    3  A    between atoms: C4_4  and  C5_5 
REMARK    4  A    between atoms: C5_5  and  C6_6 
REMARK    5  A    between atoms: C6_6  and  O1_7 
REMARK    6  A    between atoms: C6_6  and  C12_19 
REMARK    7  A    between atoms: O1_7  and  C7_8 
REMARK    8  A    between atoms: C10_13  and  O4_14 
REMARK    9  A    between atoms: C11_16  and  O5_17 
REMARK   10  A    between atoms: C13_20  and  O6_21 
REMARK   11  A    between atoms: C14_23  and  O7_25 
REMARK   12  A    between atoms: C16_27  and  O8_28 
REMARK   13  A    between atoms: C16_27  and  C17_30 
REMARK   14  A    between atoms: C20_34  and  O10_36 
ROOT
HETATM    1  C12 UNL     1     -22.116   5.896 -33.284  1.00  0.00     0.081 C 
HETATM    2  C13 UNL     1     -21.027   6.176 -34.354  1.00  0.00     0.165 C 
HETATM    3  C14 UNL     1     -20.883   4.863 -35.099  1.00  0.00     0.118 C 
HETATM    4  C15 UNL     1     -19.675   4.974 -36.003  1.00  0.00     0.052 C 
HETATM    5  C16 UNL     1     -22.155   4.577 -35.836  1.00  0.00     0.153 C 
HETATM    6  C19 UNL     1     -23.292   5.465 -35.486  1.00  0.00     0.087 C 
HETATM    7  C20 UNL     1     -23.428   5.801 -34.009  1.00  0.00     0.068 C 
HETATM    8  C21 UNL     1     -24.299   4.709 -33.428  1.00  0.00     0.047 C 
ENDROOT
BRANCH   1   9
HETATM    9  C6  UNL     1     -22.003   6.914 -32.205  1.00  0.00     0.134 C 
BRANCH   9  10
HETATM   10  C5  UNL     1     -21.351   8.204 -32.742  1.00  0.00     0.032 C 
BRANCH  10  11
HETATM   11  C4  UNL     1     -22.085   9.444 -32.422  1.00  0.00     0.002 C 
BRANCH  11  12
HETATM   12  C3  UNL     1     -21.067  10.435 -31.833  1.00  0.00    -0.000 C 
BRANCH  12  13
HETATM   13  C2  UNL     1     -20.860  11.585 -32.777  1.00  0.00    -0.005 C 
HETATM   14  C1  UNL     1     -19.801  12.526 -32.253  1.00  0.00     0.005 C 
ENDBRANCH  12  13
ENDBRANCH  11  12
ENDBRANCH  10  11
ENDBRANCH   9  10
BRANCH   9  15
HETATM   15  O1  UNL     1     -21.103   6.555 -31.205  1.00  0.00    -0.353 OA
BRANCH  15  16
HETATM   16  C7  UNL     1     -21.154   5.249 -30.813  1.00  0.00     0.296 C 
HETATM   17  O2  UNL     1     -21.942   5.094 -29.636  1.00  0.00    -0.329 OA
HETATM   18  C8  UNL     1     -21.162   4.865 -28.530  1.00  0.00     0.262 C 
HETATM   19  C9  UNL     1     -21.925   4.948 -27.231  1.00  0.00     0.071 C 
HETATM   20  O3  UNL     1     -20.419   3.696 -28.587  1.00  0.00    -0.329 OA
HETATM   21  C10 UNL     1     -20.276   3.201 -29.878  1.00  0.00     0.293 C 
HETATM   22  C11 UNL     1     -19.950   4.415 -30.770  1.00  0.00     0.228 C 
BRANCH  21  23
HETATM   23  O4  UNL     1     -21.374   2.514 -30.325  1.00  0.00    -0.368 OA
ATOM     24  H4  UNL     1     -22.197   2.937 -30.110  1.00  0.00     0.212 HD
ENDBRANCH  21  23
BRANCH  22  25
HETATM   25  O5  UNL     1     -18.820   4.970 -30.193  1.00  0.00    -0.386 OA
ATOM     26  H5  UNL     1     -18.588   4.670 -29.321  1.00  0.00     0.210 HD
ENDBRANCH  22  25
ENDBRANCH  15  16
ENDBRANCH   9  15
ENDBRANCH   1   9
BRANCH   2  27
HETATM   27  O6  UNL     1     -21.345   7.141 -35.241  1.00  0.00    -0.392 OA
ATOM     28  H6  UNL     1     -20.600   7.548 -35.668  1.00  0.00     0.210 HD
ENDBRANCH   2  27
BRANCH   7  29
HETATM   29  O10 UNL     1     -24.167   6.976 -33.936  1.00  0.00    -0.385 OA
HETATM   30  C22 UNL     1     -25.504   6.782 -33.717  1.00  0.00     0.202 C 
ENDBRANCH   7  29
BRANCH   3  31
HETATM   31  O7  UNL     1     -20.607   3.887 -34.148  1.00  0.00    -0.384 OA
ATOM     32  H7  UNL     1     -19.713   4.028 -33.859  1.00  0.00     0.210 HD
ENDBRANCH   3  31
BRANCH   5  33
HETATM   33  O8  UNL     1     -22.475   3.223 -35.574  1.00  0.00    -0.379 OA
ATOM     34  H8  UNL     1     -22.129   2.719 -36.302  1.00  0.00     0.211 HD
ENDBRANCH   5  33
BRANCH   5  35
HETATM   35  C17 UNL     1     -21.888   4.689 -37.293  1.00  0.00     0.160 C 
HETATM   36  C18 UNL     1     -21.522   3.516 -38.123  1.00  0.00     0.094 C 
HETATM   37  O9  UNL     1     -21.970   5.774 -37.840  1.00  0.00    -0.295 OA
ENDBRANCH   5  35
TORSDOF 14
ENDMDL
MODEL 2
REMARK VINA RESULT: -5.525188451      1.947      6.292
REMARK  14 active torsions:
REMARK  status: ('A' for Active; 'I' for Inactive)
REMARK    1  A    between atoms: C2_2  and  C3_3 
REMARK    2  A    between atoms: C3_3  and  C4_4 
REMARK    3  A    between atoms: C4_4  and  C5_5 
REMARK    4  A    between atoms: C5_5  and  C6_6 
REMARK    5  A    between atoms: C6_6  and  O1_7 
REMARK    6  A    between atoms: C6_6  and  C12_19 
REMARK    7  A    between atoms: O1_7  and  C7_8 
REMARK    8  A    between atoms: C10_13  and  O4_14 
REMARK    9  A    between atoms: C11_16  and  O5_17 
REMARK   10  A    between atoms: C13_20  and  O6_21 
REMARK   11  A    between atoms: C14_23  and  O7_25 
REMARK   12  A    between atoms: C16_27  and  O8_28 
REMARK   13  A    between atoms: C16_27  and  C17_30 
REMARK   14  A    between atoms: C20_34  and  O10_36 
ROOT
HETATM    1  C12 UNL     1     -22.695   6.144 -31.751  1.00  0.00     0.081 C 
HETATM    2  C13 UNL     1     -22.896   6.953 -30.441  1.00  0.00     0.165 C 
HETATM    3  C14 UNL     1     -24.045   6.255 -29.738  1.00  0.00     0.118 C 
HETATM    4  C15 UNL     1     -24.465   7.119 -28.569  1.00  0.00     0.052 C 
HETATM    5  C16 UNL     1     -23.609   4.879 -29.338  1.00  0.00     0.153 C 
HETATM    6  C19 UNL     1     -22.312   4.444 -29.911  1.00  0.00     0.087 C 
HETATM    7  C20 UNL     1     -22.076   4.831 -31.363  1.00  0.00     0.068 C 
HETATM    8  C21 UNL     1     -22.646   3.692 -32.179  1.00  0.00     0.047 C 
ENDROOT
BRANCH   1   9
HETATM    9  C6  UNL     1     -21.957   6.987 -32.729  1.00  0.00     0.134 C 
BRANCH   9  10
HETATM   10  C5  UNL     1     -22.453   8.445 -32.672  1.00  0.00     0.032 C 
BRANCH  10  11
HETATM   11  C4  UNL     1     -21.384   9.461 -32.712  1.00  0.00     0.002 C 
BRANCH  11  12
HETATM   12  C3  UNL     1     -21.682  10.478 -31.598  1.00  0.00    -0.000 C 
BRANCH  12  13
HETATM   13  C2  UNL     1     -20.542  11.447 -31.463  1.00  0.00    -0.005 C 
HETATM   14  C1  UNL     1     -20.293  12.169 -32.765  1.00  0.00     0.005 C 
ENDBRANCH  12  13
ENDBRANCH  11  12
ENDBRANCH  10  11
ENDBRANCH   9  10
BRANCH   9  15
HETATM   15  O1  UNL     1     -22.234   6.659 -34.054  1.00  0.00    -0.353 OA
BRANCH  15  16
HETATM   16  C7  UNL     1     -21.161   6.260 -34.794  1.00  0.00     0.296 C 
HETATM   17  O2  UNL     1     -20.979   7.098 -35.932  1.00  0.00    -0.329 OA
HETATM   18  C8  UNL     1     -21.367   6.471 -37.091  1.00  0.00     0.262 C 
HETATM   19  C9  UNL     1     -21.434   7.399 -38.280  1.00  0.00     0.071 C 
HETATM   20  O3  UNL     1     -20.636   5.335 -37.398  1.00  0.00    -0.329 OA
HETATM   21  C10 UNL     1     -19.951   4.813 -36.306  1.00  0.00     0.293 C 
HETATM   22  C11 UNL     1     -20.938   4.849 -35.123  1.00  0.00     0.228 C 
BRANCH  21  23
HETATM   23  O4  UNL     1     -18.786   5.475 -36.024  1.00  0.00    -0.368 OA
ATOM     24  H4  UNL     1     -18.443   5.287 -35.158  1.00  0.00     0.212 HD
ENDBRANCH  21  23
BRANCH  22  25
HETATM   25  O5  UNL     1     -22.033   4.127 -35.569  1.00  0.00    -0.386 OA
ATOM     26  H5  UNL     1     -22.793   4.099 -34.999  1.00  0.00     0.210 HD
ENDBRANCH  22  25
ENDBRANCH  15  16
ENDBRANCH   9  15
ENDBRANCH   1   9
BRANCH   2  27
HETATM   27  O6  UNL     1     -21.829   6.962 -29.617  1.00  0.00    -0.392 OA
ATOM     28  H6  UNL     1     -21.978   7.390 -28.781  1.00  0.00     0.210 HD
ENDBRANCH   2  27
BRANCH   7  29
HETATM   29  O10 UNL     1     -20.700   4.808 -31.562  1.00  0.00    -0.385 OA
HETATM   30  C22 UNL     1     -20.005   4.151 -30.583  1.00  0.00     0.202 C 
ENDBRANCH   7  29
BRANCH   3  31
HETATM   31  O7  UNL     1     -25.106   6.220 -30.636  1.00  0.00    -0.384 OA
ATOM     32  H7  UNL     1     -25.040   5.400 -31.109  1.00  0.00     0.210 HD
ENDBRANCH   3  31
BRANCH   5  33
HETATM   33  O8  UNL     1     -24.650   4.001 -29.723  1.00  0.00    -0.379 OA
ATOM     34  H8  UNL     1     -24.613   3.261 -29.127  1.00  0.00     0.211 HD
ENDBRANCH   5  33
BRANCH   5  35
HETATM   35  C17 UNL     1     -23.521   4.828 -27.856  1.00  0.00     0.160 C 
HETATM   36  C18 UNL     1     -24.635   4.329 -27.014  1.00  0.00     0.094 C 
HETATM   37  O9  UNL     1     -22.506   5.205 -27.298  1.00  0.00    -0.295 OA
ENDBRANCH   5  35
TORSDOF 14
ENDMDL
MODEL 3
REMARK VINA RESULT: -5.449057273      2.264      6.447
REMARK  14 active torsions:
REMARK  status: ('A' for Active; 'I' for Inactive)
REMARK    1  A    between atoms: C2_2  and  C3_3 
REMARK    2  A    between atoms: C3_3  and  C4_4 
REMARK    3  A    between atoms: C4_4  and  C5_5 
REMARK    4  A    between atoms: C5_5  and  C6_6 
REMARK    5  A    between atoms: C6_6  and  O1_7 
REMARK    6  A    between atoms: C6_6  and  C12_19 
REMARK    7  A    between atoms: O1_7  and  C7_8 
REMARK    8  A    between atoms: C10_13  and  O4_14 
REMARK    9  A    between atoms: C11_16  and  O5_17 
REMARK   10  A    between atoms: C13_20  and  O6_21 
REMARK   11  A    between atoms: C14_23  and  O7_25 
REMARK   12  A    between atoms: C16_27  and  O8_28 
REMARK   13  A    between atoms: C16_27  and  C17_30 
REMARK   14  A    between atoms: C20_34  and  O10_36 
ROOT
HETATM    1  C12 UNL     1     -22.570   6.240 -31.361  1.00  0.00     0.081 C 
HETATM    2  C13 UNL     1     -22.916   6.963 -30.031  1.00  0.00     0.165 C 
HETATM    3  C14 UNL     1     -23.882   6.025 -29.332  1.00  0.00     0.118 C 
HETATM    4  C15 UNL     1     -24.456   6.757 -28.139  1.00  0.00     0.052 C 
HETATM    5  C16 UNL     1     -23.161   4.763 -28.968  1.00  0.00     0.153 C 
HETATM    6  C19 UNL     1     -21.810   4.622 -29.565  1.00  0.00     0.087 C 
HETATM    7  C20 UNL     1     -21.683   5.080 -31.009  1.00  0.00     0.068 C 
HETATM    8  C21 UNL     1     -22.013   3.863 -31.845  1.00  0.00     0.047 C 
ENDROOT
BRANCH   1   9
HETATM    9  C6  UNL     1     -22.040   7.239 -32.327  1.00  0.00     0.134 C 
BRANCH   9  10
HETATM   10  C5  UNL     1     -22.127   8.662 -31.739  1.00  0.00     0.032 C 
BRANCH  10  11
HETATM   11  C4  UNL     1     -21.743   9.737 -32.674  1.00  0.00     0.002 C 
BRANCH  11  12
HETATM   12  C3  UNL     1     -21.341  10.955 -31.825  1.00  0.00    -0.000 C 
BRANCH  12  13
HETATM   13  C2  UNL     1     -20.436  11.859 -32.612  1.00  0.00    -0.005 C 
HETATM   14  C1  UNL     1     -20.961  13.275 -32.616  1.00  0.00     0.005 C 
ENDBRANCH  12  13
ENDBRANCH  11  12
ENDBRANCH  10  11
ENDBRANCH   9  10
BRANCH   9  15
HETATM   15  O1  UNL     1     -22.828   7.370 -33.467  1.00  0.00    -0.353 OA
BRANCH  15  16
HETATM   16  C7  UNL     1     -24.010   6.691 -33.442  1.00  0.00     0.296 C 
HETATM   17  O2  UNL     1     -24.016   5.630 -34.393  1.00  0.00    -0.329 OA
HETATM   18  C8  UNL     1     -24.797   5.930 -35.482  1.00  0.00     0.262 C 
HETATM   19  C9  UNL     1     -24.633   4.955 -36.624  1.00  0.00     0.071 C 
HETATM   20  O3  UNL     1     -26.138   6.118 -35.190  1.00  0.00    -0.329 OA
HETATM   21  C10 UNL     1     -26.374   6.380 -33.845  1.00  0.00     0.293 C 
HETATM   22  C11 UNL     1     -25.296   7.393 -33.410  1.00  0.00     0.228 C 
BRANCH  21  23
HETATM   23  O4  UNL     1     -26.369   5.257 -33.061  1.00  0.00    -0.368 OA
ATOM     24  H4  UNL     1     -25.579   5.160 -32.542  1.00  0.00     0.212 HD
ENDBRANCH  21  23
BRANCH  22  25
HETATM   25  O5  UNL     1     -25.455   8.457 -34.283  1.00  0.00    -0.386 OA
ATOM     26  H5  UNL     1     -26.274   8.504 -34.763  1.00  0.00     0.210 HD
ENDBRANCH  22  25
ENDBRANCH  15  16
ENDBRANCH   9  15
ENDBRANCH   1   9
BRANCH   2  27
HETATM   27  O6  UNL     1     -21.862   7.179 -29.218  1.00  0.00    -0.392 OA
ATOM     28  H6  UNL     1     -21.590   6.421 -28.713  1.00  0.00     0.210 HD
ENDBRANCH   2  27
BRANCH   7  29
HETATM   29  O10 UNL     1     -20.336   5.351 -31.223  1.00  0.00    -0.385 OA
HETATM   30  C22 UNL     1     -19.494   4.344 -30.834  1.00  0.00     0.202 C 
ENDBRANCH   7  29
BRANCH   3  31
HETATM   31  O7  UNL     1     -24.926   5.785 -30.219  1.00  0.00    -0.384 OA
ATOM     32  H7  UNL     1     -24.532   5.582 -31.059  1.00  0.00     0.210 HD
ENDBRANCH   3  31
BRANCH   5  33
HETATM   33  O8  UNL     1     -23.999   3.694 -29.362  1.00  0.00    -0.379 OA
ATOM     34  H8  UNL     1     -24.175   3.817 -30.288  1.00  0.00     0.211 HD
ENDBRANCH   5  33
BRANCH   5  35
HETATM   35  C17 UNL     1     -23.041   4.702 -27.488  1.00  0.00     0.160 C 
HETATM   36  C18 UNL     1     -24.052   4.025 -26.640  1.00  0.00     0.094 C 
HETATM   37  O9  UNL     1     -22.086   5.220 -26.937  1.00  0.00    -0.295 OA
ENDBRANCH   5  35
TORSDOF 14
ENDMDL
MODEL 4
REMARK VINA RESULT: -5.445292921      1.319      1.850
REMARK  14 active torsions:
REMARK  status: ('A' for Active; 'I' for Inactive)
REMARK    1  A    between atoms: C2_2  and  C3_3 
REMARK    2  A    between atoms: C3_3  and  C4_4 
REMARK    3  A    between atoms: C4_4  and  C5_5 
REMARK    4  A    between atoms: C5_5  and  C6_6 
REMARK    5  A    between atoms: C6_6  and  O1_7 
REMARK    6  A    between atoms: C6_6  and  C12_19 
REMARK    7  A    between atoms: O1_7  and  C7_8 
REMARK    8  A    between atoms: C10_13  and  O4_14 
REMARK    9  A    between atoms: C11_16  and  O5_17 
REMARK   10  A    between atoms: C13_20  and  O6_21 
REMARK   11  A    between atoms: C14_23  and  O7_25 
REMARK   12  A    between atoms: C16_27  and  O8_28 
REMARK   13  A    between atoms: C16_27  and  C17_30 
REMARK   14  A    between atoms: C20_34  and  O10_36 
ROOT
HETATM    1  C12 UNL     1     -22.500   6.074 -33.540  1.00  0.00     0.081 C 
HETATM    2  C13 UNL     1     -21.217   6.335 -34.375  1.00  0.00     0.165 C 
HETATM    3  C14 UNL     1     -20.700   4.950 -34.717  1.00  0.00     0.118 C 
HETATM    4  C15 UNL     1     -19.324   5.108 -35.326  1.00  0.00     0.052 C 
HETATM    5  C16 UNL     1     -21.681   4.273 -35.624  1.00  0.00     0.153 C 
HETATM    6  C19 UNL     1     -22.982   4.972 -35.770  1.00  0.00     0.087 C 
HETATM    7  C20 UNL     1     -23.547   5.573 -34.493  1.00  0.00     0.068 C 
HETATM    8  C21 UNL     1     -24.379   4.475 -33.868  1.00  0.00     0.047 C 
ENDROOT
BRANCH   1   9
HETATM    9  C6  UNL     1     -22.818   7.295 -32.753  1.00  0.00     0.134 C 
BRANCH   9  10
HETATM   10  C5  UNL     1     -21.546   8.133 -32.513  1.00  0.00     0.032 C 
BRANCH  10  11
HETATM   11  C4  UNL     1     -21.735   9.590 -32.649  1.00  0.00     0.002 C 
BRANCH  11  12
HETATM   12  C3  UNL     1     -21.658  10.193 -31.236  1.00  0.00    -0.000 C 
BRANCH  12  13
HETATM   13  C2  UNL     1     -20.812  11.433 -31.248  1.00  0.00    -0.005 C 
HETATM   14  C1  UNL     1     -20.495  11.854 -32.664  1.00  0.00     0.005 C 
ENDBRANCH  12  13
ENDBRANCH  11  12
ENDBRANCH  10  11
ENDBRANCH   9  10
BRANCH   9  15
HETATM   15  O1  UNL     1     -23.208   7.017 -31.445  1.00  0.00    -0.353 OA
BRANCH  15  16
HETATM   16  C7  UNL     1     -22.300   6.326 -30.698  1.00  0.00     0.296 C 
HETATM   17  O2  UNL     1     -22.345   4.933 -30.991  1.00  0.00    -0.329 OA
HETATM   18  C8  UNL     1     -22.952   4.222 -29.985  1.00  0.00     0.262 C 
HETATM   19  C9  UNL     1     -23.250   2.790 -30.358  1.00  0.00     0.071 C 
HETATM   20  O3  UNL     1     -22.294   4.282 -28.766  1.00  0.00    -0.329 OA
HETATM   21  C10 UNL     1     -21.410   5.351 -28.674  1.00  0.00     0.293 C 
HETATM   22  C11 UNL     1     -22.146   6.570 -29.261  1.00  0.00     0.228 C 
BRANCH  21  23
HETATM   23  O4  UNL     1     -20.212   5.123 -29.298  1.00  0.00    -0.368 OA
ATOM     24  H4  UNL     1     -19.557   5.787 -29.114  1.00  0.00     0.212 HD
ENDBRANCH  21  23
BRANCH  22  25
HETATM   25  O5  UNL     1     -23.307   6.663 -28.510  1.00  0.00    -0.386 OA
ATOM     26  H5  UNL     1     -23.309   7.287 -27.794  1.00  0.00     0.210 HD
ENDBRANCH  22  25
ENDBRANCH  15  16
ENDBRANCH   9  15
ENDBRANCH   1   9
BRANCH   2  27
HETATM   27  O6  UNL     1     -21.422   7.012 -35.523  1.00  0.00    -0.392 OA
ATOM     28  H6  UNL     1     -20.754   7.657 -35.727  1.00  0.00     0.210 HD
ENDBRANCH   2  27
BRANCH   7  29
HETATM   29  O10 UNL     1     -24.436   6.568 -34.883  1.00  0.00    -0.385 OA
HETATM   30  C22 UNL     1     -25.233   6.223 -35.941  1.00  0.00     0.202 C 
ENDBRANCH   7  29
BRANCH   3  31
HETATM   31  O7  UNL     1     -20.551   4.267 -33.515  1.00  0.00    -0.384 OA
ATOM     32  H7  UNL     1     -20.307   3.376 -33.733  1.00  0.00     0.210 HD
ENDBRANCH   3  31
BRANCH   5  33
HETATM   33  O8  UNL     1     -21.866   2.967 -35.111  1.00  0.00    -0.379 OA
ATOM     34  H8  UNL     1     -22.793   2.883 -34.917  1.00  0.00     0.211 HD
ENDBRANCH   5  33
BRANCH   5  35
HETATM   35  C17 UNL     1     -21.058   4.131 -36.965  1.00  0.00     0.160 C 
HETATM   36  C18 UNL     1     -20.413   2.872 -37.409  1.00  0.00     0.094 C 
HETATM   37  O9  UNL     1     -21.070   5.072 -37.739  1.00  0.00    -0.295 OA
ENDBRANCH   5  35
TORSDOF 14
ENDMDL
MODEL 5
REMARK VINA RESULT: -5.403985332      1.801      6.249
REMARK  14 active torsions:
REMARK  status: ('A' for Active; 'I' for Inactive)
REMARK    1  A    between atoms: C2_2  and  C3_3 
REMARK    2  A    between atoms: C3_3  and  C4_4 
REMARK    3  A    between atoms: C4_4  and  C5_5 
REMARK    4  A    between atoms: C5_5  and  C6_6 
REMARK    5  A    between atoms: C6_6  and  O1_7 
REMARK    6  A    between atoms: C6_6  and  C12_19 
REMARK    7  A    between atoms: O1_7  and  C7_8 
REMARK    8  A    between atoms: C10_13  and  O4_14 
REMARK    9  A    between atoms: C11_16  and  O5_17 
REMARK   10  A    between atoms: C13_20  and  O6_21 
REMARK   11  A    between atoms: C14_23  and  O7_25 
REMARK   12  A    between atoms: C16_27  and  O8_28 
REMARK   13  A    between atoms: C16_27  and  C17_30 
REMARK   14  A    between atoms: C20_34  and  O10_36 
ROOT
HETATM    1  C12 UNL     1     -22.300   6.232 -31.444  1.00  0.00     0.081 C 
HETATM    2  C13 UNL     1     -22.901   6.908 -30.181  1.00  0.00     0.165 C 
HETATM    3  C14 UNL     1     -23.958   5.933 -29.698  1.00  0.00     0.118 C 
HETATM    4  C15 UNL     1     -24.757   6.619 -28.611  1.00  0.00     0.052 C 
HETATM    5  C16 UNL     1     -23.288   4.673 -29.241  1.00  0.00     0.153 C 
HETATM    6  C19 UNL     1     -21.847   4.574 -29.583  1.00  0.00     0.087 C 
HETATM    7  C20 UNL     1     -21.467   5.077 -30.967  1.00  0.00     0.068 C 
HETATM    8  C21 UNL     1     -21.612   3.881 -31.881  1.00  0.00     0.047 C 
ENDROOT
BRANCH   1   9
HETATM    9  C6  UNL     1     -21.624   7.269 -32.269  1.00  0.00     0.134 C 
BRANCH   9  10
HETATM   10  C5  UNL     1     -21.970   8.681 -31.755  1.00  0.00     0.032 C 
BRANCH  10  11
HETATM   11  C4  UNL     1     -21.616   9.775 -32.680  1.00  0.00     0.002 C 
BRANCH  11  12
HETATM   12  C3  UNL     1     -20.980  10.894 -31.838  1.00  0.00    -0.000 C 
BRANCH  12  13
HETATM   13  C2  UNL     1     -20.312  11.899 -32.733  1.00  0.00    -0.005 C 
HETATM   14  C1  UNL     1     -20.994  13.243 -32.635  1.00  0.00     0.005 C 
ENDBRANCH  12  13
ENDBRANCH  11  12
ENDBRANCH  10  11
ENDBRANCH   9  10
BRANCH   9  15
HETATM   15  O1  UNL     1     -22.107   7.332 -33.574  1.00  0.00    -0.353 OA
BRANCH  15  16
HETATM   16  C7  UNL     1     -22.054   6.163 -34.274  1.00  0.00     0.296 C 
HETATM   17  O2  UNL     1     -20.929   6.136 -35.148  1.00  0.00    -0.329 OA
HETATM   18  C8  UNL     1     -21.301   6.312 -36.458  1.00  0.00     0.262 C 
HETATM   19  C9  UNL     1     -20.133   6.545 -37.386  1.00  0.00     0.071 C 
HETATM   20  O3  UNL     1     -22.129   5.319 -36.955  1.00  0.00    -0.329 OA
HETATM   21  C10 UNL     1     -22.755   4.578 -35.959  1.00  0.00     0.293 C 
HETATM   22  C11 UNL     1     -23.246   5.597 -34.911  1.00  0.00     0.228 C 
BRANCH  21  23
HETATM   23  O4  UNL     1     -21.951   3.618 -35.405  1.00  0.00    -0.368 OA
ATOM     24  H4  UNL     1     -22.219   2.732 -35.616  1.00  0.00     0.212 HD
ENDBRANCH  21  23
BRANCH  22  25
HETATM   25  O5  UNL     1     -24.048   6.468 -35.631  1.00  0.00    -0.386 OA
ATOM     26  H5  UNL     1     -23.875   6.546 -36.561  1.00  0.00     0.210 HD
ENDBRANCH  22  25
ENDBRANCH  15  16
ENDBRANCH   9  15
ENDBRANCH   1   9
BRANCH   2  27
HETATM   27  O6  UNL     1     -22.020   7.117 -29.183  1.00  0.00    -0.392 OA
ATOM     28  H6  UNL     1     -21.744   8.021 -29.080  1.00  0.00     0.210 HD
ENDBRANCH   2  27
BRANCH   7  29
HETATM   29  O10 UNL     1     -20.111   5.377 -30.922  1.00  0.00    -0.385 OA
HETATM   30  C22 UNL     1     -19.297   4.279 -30.849  1.00  0.00     0.202 C 
ENDBRANCH   7  29
BRANCH   3  31
HETATM   31  O7  UNL     1     -24.815   5.703 -30.768  1.00  0.00    -0.384 OA
ATOM     32  H7  UNL     1     -24.974   4.768 -30.798  1.00  0.00     0.210 HD
ENDBRANCH   3  31
BRANCH   5  33
HETATM   33  O8  UNL     1     -24.016   3.602 -29.812  1.00  0.00    -0.379 OA
ATOM     34  H8  UNL     1     -23.475   3.251 -30.511  1.00  0.00     0.211 HD
ENDBRANCH   5  33
BRANCH   5  35
HETATM   35  C17 UNL     1     -23.440   4.569 -27.767  1.00  0.00     0.160 C 
HETATM   36  C18 UNL     1     -24.501   3.746 -27.138  1.00  0.00     0.094 C 
HETATM   37  O9  UNL     1     -22.676   5.173 -27.037  1.00  0.00    -0.295 OA
ENDBRANCH   5  35
TORSDOF 14
ENDMDL
