MODEL 1
REMARK VINA RESULT: -7.197474804      0.000      0.000
REMARK  5 active torsions:
REMARK  status: ('A' for Active; 'I' for Inactive)
REMARK    1  A    between atoms: N4_11  and  C6_12 
REMARK    2  A    between atoms: C6_12  and  C7_13 
REMARK    3  A    between atoms: C7_13  and  C8_14 
REMARK    4  A    between atoms: N5_19  and  C13_20 
REMARK    5  A    between atoms: C13_20  and  S1_24 
ROOT
HETATM    1  C1  UNL     1      20.470   1.841  11.196  1.00  0.00     0.147 C 
HETATM    2  N1  UNL     1      19.514   0.817  11.208  1.00  0.00    -0.378 N 
ATOM      3  H1  UNL     1      19.927  -0.102  11.372  1.00  0.00     0.160 HD
HETATM    4  C2  UNL     1      18.257   0.769  11.064  1.00  0.00     0.140 A 
HETATM    5  C3  UNL     1      17.602  -0.485  11.141  1.00  0.00     0.106 A 
HETATM    6  C4  UNL     1      18.192  -1.769  11.367  1.00  0.00     0.104 C 
HETATM    7  N2  UNL     1      18.656  -2.819  11.542  1.00  0.00    -0.191 NA
HETATM    8  C5  UNL     1      16.276  -0.215  10.955  1.00  0.00     0.134 A 
HETATM    9  N3  UNL     1      16.135   1.080  10.780  1.00  0.00    -0.306 N 
ATOM     10  H3  UNL     1      15.243   1.547  10.620  1.00  0.00     0.186 HD
HETATM   11  N4  UNL     1      17.331   1.713  10.841  1.00  0.00    -0.276 N 
ENDROOT
BRANCH  11  12
HETATM   12  C6  UNL     1      17.503   3.146  10.672  1.00  0.00     0.153 C 
BRANCH  12  13
HETATM   13  C7  UNL     1      17.113   3.803  11.970  1.00  0.00     0.047 C 
BRANCH  13  14
HETATM   14  C8  UNL     1      18.261   4.407  12.706  1.00  0.00     0.088 C 
HETATM   15  C9  UNL     1      18.339   5.877  12.277  1.00  0.00     0.025 C 
HETATM   16  C10 UNL     1      19.084   6.702  13.296  1.00  0.00     0.004 C 
HETATM   17  C11 UNL     1      18.289   6.801  14.563  1.00  0.00     0.020 C 
HETATM   18  C12 UNL     1      17.389   5.571  14.711  1.00  0.00     0.125 C 
HETATM   19  N5  UNL     1      18.077   4.417  14.138  1.00  0.00    -0.357 N 
BRANCH  19  20
HETATM   20  C13 UNL     1      18.504   3.412  15.014  1.00  0.00     0.135 C 
HETATM   21  N6  UNL     1      19.728   3.321  15.354  1.00  0.00    -0.380 N 
ATOM     22  H62 UNL     1      20.420   3.979  14.994  1.00  0.00     0.158 HD
ATOM     23  H61 UNL     1      20.039   2.589  15.992  1.00  0.00     0.158 HD
BRANCH  20  24
HETATM   24  S1  UNL     1      17.303   2.269  15.641  1.00  0.00    -0.099 SA
HETATM   25  C14 UNL     1      17.087   0.838  14.544  1.00  0.00     0.099 C 
ENDBRANCH  20  24
ENDBRANCH  19  20
ENDBRANCH  13  14
ENDBRANCH  12  13
ENDBRANCH  11  12
TORSDOF 5
ENDMDL
MODEL 2
REMARK VINA RESULT: -6.968362347      2.428      5.069
REMARK  5 active torsions:
REMARK  status: ('A' for Active; 'I' for Inactive)
REMARK    1  A    between atoms: N4_11  and  C6_12 
REMARK    2  A    between atoms: C6_12  and  C7_13 
REMARK    3  A    between atoms: C7_13  and  C8_14 
REMARK    4  A    between atoms: N5_19  and  C13_20 
REMARK    5  A    between atoms: C13_20  and  S1_24 
ROOT
HETATM    1  C1  UNL     1      14.773   4.626  14.739  1.00  0.00     0.147 C 
HETATM    2  N1  UNL     1      15.164   3.390  15.271  1.00  0.00    -0.378 N 
ATOM      3  H1  UNL     1      14.375   2.847  15.622  1.00  0.00     0.160 HD
HETATM    4  C2  UNL     1      16.271   2.793  15.415  1.00  0.00     0.140 A 
HETATM    5  C3  UNL     1      16.289   1.509  16.016  1.00  0.00     0.106 A 
HETATM    6  C4  UNL     1      15.174   0.759  16.509  1.00  0.00     0.104 C 
HETATM    7  N2  UNL     1      14.282   0.140  16.920  1.00  0.00    -0.191 NA
HETATM    8  C5  UNL     1      17.600   1.129  16.026  1.00  0.00     0.134 A 
HETATM    9  N3  UNL     1      18.316   2.090  15.484  1.00  0.00    -0.306 N 
ATOM     10  H3  UNL     1      19.329   2.060  15.370  1.00  0.00     0.186 HD
HETATM   11  N4  UNL     1      17.531   3.125  15.099  1.00  0.00    -0.276 N 
ENDROOT
BRANCH  11  12
HETATM   12  C6  UNL     1      18.033   4.340  14.480  1.00  0.00     0.153 C 
BRANCH  12  13
HETATM   13  C7  UNL     1      19.148   3.944  13.548  1.00  0.00     0.047 C 
BRANCH  13  14
HETATM   14  C8  UNL     1      18.724   3.820  12.124  1.00  0.00     0.088 C 
HETATM   15  C9  UNL     1      19.847   4.425  11.273  1.00  0.00     0.025 C 
HETATM   16  C10 UNL     1      19.794   3.908   9.857  1.00  0.00     0.004 C 
HETATM   17  C11 UNL     1      20.145   2.451   9.824  1.00  0.00     0.020 C 
HETATM   18  C12 UNL     1      19.780   1.797  11.160  1.00  0.00     0.125 C 
HETATM   19  N5  UNL     1      18.586   2.450  11.690  1.00  0.00    -0.357 N 
BRANCH  19  20
HETATM   20  C13 UNL     1      17.402   1.704  11.736  1.00  0.00     0.135 C 
HETATM   21  N6  UNL     1      16.312   2.182  11.284  1.00  0.00    -0.380 N 
ATOM     22  H62 UNL     1      16.281   3.119  10.880  1.00  0.00     0.158 HD
ATOM     23  H61 UNL     1      15.449   1.639  11.318  1.00  0.00     0.158 HD
BRANCH  20  24
HETATM   24  S1  UNL     1      17.454   0.077  12.438  1.00  0.00    -0.099 SA
HETATM   25  C14 UNL     1      17.853  -1.188  11.197  1.00  0.00     0.099 C 
ENDBRANCH  20  24
ENDBRANCH  19  20
ENDBRANCH  13  14
ENDBRANCH  12  13
ENDBRANCH  11  12
TORSDOF 5
ENDMDL
MODEL 3
REMARK VINA RESULT: -6.938211425      2.370      4.953
REMARK  5 active torsions:
REMARK  status: ('A' for Active; 'I' for Inactive)
REMARK    1  A    between atoms: N4_11  and  C6_12 
REMARK    2  A    between atoms: C6_12  and  C7_13 
REMARK    3  A    between atoms: C7_13  and  C8_14 
REMARK    4  A    between atoms: N5_19  and  C13_20 
REMARK    5  A    between atoms: C13_20  and  S1_24 
ROOT
HETATM    1  C1  UNL     1      14.840   4.683  14.752  1.00  0.00     0.147 C 
HETATM    2  N1  UNL     1      15.224   3.433  15.253  1.00  0.00    -0.378 N 
ATOM      3  H1  UNL     1      14.430   2.877  15.570  1.00  0.00     0.160 HD
HETATM    4  C2  UNL     1      16.330   2.835  15.403  1.00  0.00     0.140 A 
HETATM    5  C3  UNL     1      16.339   1.532  15.963  1.00  0.00     0.106 A 
HETATM    6  C4  UNL     1      15.217   0.764  16.408  1.00  0.00     0.104 C 
HETATM    7  N2  UNL     1      14.318   0.129  16.780  1.00  0.00    -0.191 NA
HETATM    8  C5  UNL     1      17.651   1.157  15.989  1.00  0.00     0.134 A 
HETATM    9  N3  UNL     1      18.375   2.136  15.494  1.00  0.00    -0.306 N 
ATOM     10  H3  UNL     1      19.390   2.113  15.400  1.00  0.00     0.186 HD
HETATM   11  N4  UNL     1      17.595   3.180  15.125  1.00  0.00    -0.276 N 
ENDROOT
BRANCH  11  12
HETATM   12  C6  UNL     1      18.106   4.415  14.555  1.00  0.00     0.153 C 
BRANCH  12  13
HETATM   13  C7  UNL     1      19.062   4.043  13.453  1.00  0.00     0.047 C 
BRANCH  13  14
HETATM   14  C8  UNL     1      18.389   3.639  12.185  1.00  0.00     0.088 C 
HETATM   15  C9  UNL     1      18.379   4.873  11.276  1.00  0.00     0.025 C 
HETATM   16  C10 UNL     1      18.215   4.480   9.829  1.00  0.00     0.004 C 
HETATM   17  C11 UNL     1      19.439   3.762   9.345  1.00  0.00     0.020 C 
HETATM   18  C12 UNL     1      20.128   3.059  10.519  1.00  0.00     0.125 C 
HETATM   19  N5  UNL     1      19.106   2.614  11.463  1.00  0.00    -0.357 N 
BRANCH  19  20
HETATM   20  C13 UNL     1      18.898   1.236  11.596  1.00  0.00     0.135 C 
HETATM   21  N6  UNL     1      19.829   0.408  11.332  1.00  0.00    -0.380 N 
ATOM     22  H62 UNL     1      20.743   0.734  11.017  1.00  0.00     0.158 HD
ATOM     23  H61 UNL     1      19.677  -0.596  11.428  1.00  0.00     0.158 HD
BRANCH  20  24
HETATM   24  S1  UNL     1      17.310   0.669  12.143  1.00  0.00    -0.099 SA
HETATM   25  C14 UNL     1      17.052  -1.091  11.776  1.00  0.00     0.099 C 
ENDBRANCH  20  24
ENDBRANCH  19  20
ENDBRANCH  13  14
ENDBRANCH  12  13
ENDBRANCH  11  12
TORSDOF 5
ENDMDL
MODEL 4
REMARK VINA RESULT: -6.602380040      2.572      5.271
REMARK  5 active torsions:
REMARK  status: ('A' for Active; 'I' for Inactive)
REMARK    1  A    between atoms: N4_11  and  C6_12 
REMARK    2  A    between atoms: C6_12  and  C7_13 
REMARK    3  A    between atoms: C7_13  and  C8_14 
REMARK    4  A    between atoms: N5_19  and  C13_20 
REMARK    5  A    between atoms: C13_20  and  S1_24 
ROOT
HETATM    1  C1  UNL     1      14.849   4.640  14.687  1.00  0.00     0.147 C 
HETATM    2  N1  UNL     1      15.222   3.395  15.210  1.00  0.00    -0.378 N 
ATOM      3  H1  UNL     1      14.425   2.857  15.550  1.00  0.00     0.160 HD
HETATM    4  C2  UNL     1      16.322   2.785  15.358  1.00  0.00     0.140 A 
HETATM    5  C3  UNL     1      16.321   1.496  15.946  1.00  0.00     0.106 A 
HETATM    6  C4  UNL     1      15.195   0.752  16.423  1.00  0.00     0.104 C 
HETATM    7  N2  UNL     1      14.293   0.138  16.820  1.00  0.00    -0.191 NA
HETATM    8  C5  UNL     1      17.629   1.103  15.964  1.00  0.00     0.134 A 
HETATM    9  N3  UNL     1      18.359   2.061  15.438  1.00  0.00    -0.306 N 
ATOM     10  H3  UNL     1      19.372   2.022  15.332  1.00  0.00     0.186 HD
HETATM   11  N4  UNL     1      17.588   3.107  15.057  1.00  0.00    -0.276 N 
ENDROOT
BRANCH  11  12
HETATM   12  C6  UNL     1      18.107   4.323  14.454  1.00  0.00     0.153 C 
BRANCH  12  13
HETATM   13  C7  UNL     1      19.438   3.987  13.834  1.00  0.00     0.047 C 
BRANCH  13  14
HETATM   14  C8  UNL     1      19.409   3.927  12.344  1.00  0.00     0.088 C 
HETATM   15  C9  UNL     1      20.799   3.467  11.891  1.00  0.00     0.025 C 
HETATM   16  C10 UNL     1      20.751   2.878  10.503  1.00  0.00     0.004 C 
HETATM   17  C11 UNL     1      19.997   1.583  10.517  1.00  0.00     0.020 C 
HETATM   18  C12 UNL     1      18.974   1.588  11.656  1.00  0.00     0.125 C 
HETATM   19  N5  UNL     1      18.477   2.950  11.833  1.00  0.00    -0.357 N 
BRANCH  19  20
HETATM   20  C13 UNL     1      17.142   3.205  11.495  1.00  0.00     0.135 C 
HETATM   21  N6  UNL     1      16.242   2.324  11.684  1.00  0.00    -0.380 N 
ATOM     22  H62 UNL     1      16.477   1.416  12.086  1.00  0.00     0.158 HD
ATOM     23  H61 UNL     1      15.270   2.510  11.438  1.00  0.00     0.158 HD
BRANCH  20  24
HETATM   24  S1  UNL     1      16.733   4.783  10.797  1.00  0.00    -0.099 SA
HETATM   25  C14 UNL     1      17.602   5.080   9.230  1.00  0.00     0.099 C 
ENDBRANCH  20  24
ENDBRANCH  19  20
ENDBRANCH  13  14
ENDBRANCH  12  13
ENDBRANCH  11  12
TORSDOF 5
ENDMDL
MODEL 5
REMARK VINA RESULT: -6.531891171      3.087      5.402
REMARK  5 active torsions:
REMARK  status: ('A' for Active; 'I' for Inactive)
REMARK    1  A    between atoms: N4_11  and  C6_12 
REMARK    2  A    between atoms: C6_12  and  C7_13 
REMARK    3  A    between atoms: C7_13  and  C8_14 
REMARK    4  A    between atoms: N5_19  and  C13_20 
REMARK    5  A    between atoms: C13_20  and  S1_24 
ROOT
HETATM    1  C1  UNL     1      14.813   4.622  14.879  1.00  0.00     0.147 C 
HETATM    2  N1  UNL     1      15.124   3.353  15.384  1.00  0.00    -0.378 N 
ATOM      3  H1  UNL     1      14.306   2.865  15.748  1.00  0.00     0.160 HD
HETATM    4  C2  UNL     1      16.187   2.673  15.492  1.00  0.00     0.140 A 
HETATM    5  C3  UNL     1      16.123   1.383  16.074  1.00  0.00     0.106 A 
HETATM    6  C4  UNL     1      14.968   0.709  16.586  1.00  0.00     0.104 C 
HETATM    7  N2  UNL     1      14.043   0.152  17.011  1.00  0.00    -0.191 NA
HETATM    8  C5  UNL     1      17.403   0.907  16.046  1.00  0.00     0.134 A 
HETATM    9  N3  UNL     1      18.175   1.820  15.500  1.00  0.00    -0.306 N 
ATOM     10  H3  UNL     1      19.180   1.717  15.359  1.00  0.00     0.186 HD
HETATM   11  N4  UNL     1      17.460   2.916  15.149  1.00  0.00    -0.276 N 
ENDROOT
BRANCH  11  12
HETATM   12  C6  UNL     1      18.035   4.100  14.534  1.00  0.00     0.153 C 
BRANCH  12  13
HETATM   13  C7  UNL     1      18.035   3.880  13.044  1.00  0.00     0.047 C 
BRANCH  13  14
HETATM   14  C8  UNL     1      19.306   3.298  12.523  1.00  0.00     0.088 C 
HETATM   15  C9  UNL     1      18.925   2.045  11.725  1.00  0.00     0.025 C 
HETATM   16  C10 UNL     1      20.009   1.675  10.744  1.00  0.00     0.004 C 
HETATM   17  C11 UNL     1      20.098   2.705   9.659  1.00  0.00     0.020 C 
HETATM   18  C12 UNL     1      19.625   4.062  10.188  1.00  0.00     0.125 C 
HETATM   19  N5  UNL     1      19.992   4.168  11.598  1.00  0.00    -0.357 N 
BRANCH  19  20
HETATM   20  C13 UNL     1      20.978   5.100  11.946  1.00  0.00     0.135 C 
HETATM   21  N6  UNL     1      22.181   4.732  12.146  1.00  0.00    -0.380 N 
ATOM     22  H62 UNL     1      22.448   3.751  12.058  1.00  0.00     0.158 HD
ATOM     23  H61 UNL     1      22.898   5.411  12.400  1.00  0.00     0.158 HD
BRANCH  20  24
HETATM   24  S1  UNL     1      20.515   6.804  12.100  1.00  0.00    -0.099 SA
HETATM   25  C14 UNL     1      19.922   7.201  13.770  1.00  0.00     0.099 C 
ENDBRANCH  20  24
ENDBRANCH  19  20
ENDBRANCH  13  14
ENDBRANCH  12  13
ENDBRANCH  11  12
TORSDOF 5
ENDMDL
