MODEL 1
REMARK VINA RESULT: -7.592501651      0.000      0.000
REMARK  5 active torsions:
REMARK  status: ('A' for Active; 'I' for Inactive)
REMARK    1  A    between atoms: C1_2  and  O2_3 
REMARK    2  A    between atoms: C1_2  and  C14_16 
REMARK    3  A    between atoms: O2_3  and  C2_4 
REMARK    4  A    between atoms: C16_18  and  C17_19 
REMARK    5  A    between atoms: C17_19  and  O3_20 
ROOT
HETATM    1  C2  UNL     1      16.722   2.074  13.479  1.00  0.00     0.072 C 
HETATM    2  C3  UNL     1      16.899   0.749  14.244  1.00  0.00     0.043 C 
HETATM    3  C4  UNL     1      17.286   0.853  15.656  1.00  0.00    -0.011 C 
HETATM    4  C5  UNL     1      16.070   0.654  16.533  1.00  0.00     0.005 C 
HETATM    5  C6  UNL     1      15.565   1.899  17.152  1.00  0.00     0.001 C 
HETATM    6  C7  UNL     1      14.673   2.698  16.219  1.00  0.00     0.005 C 
HETATM    7  C8  UNL     1      15.407   3.431  15.124  1.00  0.00    -0.011 C 
HETATM    8  C9  UNL     1      16.690   4.027  15.592  1.00  0.00     0.009 C 
HETATM    9  C10 UNL     1      17.907   3.260  15.273  1.00  0.00    -0.011 C 
HETATM   10  C11 UNL     1      18.169   1.994  16.018  1.00  0.00     0.009 C 
HETATM   11  C12 UNL     1      17.934   2.955  13.828  1.00  0.00     0.043 C 
HETATM   12  C13 UNL     1      15.463   2.702  13.796  1.00  0.00     0.043 C 
ENDROOT
BRANCH   1  13
HETATM   13  O2  UNL     1      17.050   1.740  12.164  1.00  0.00    -0.308 OA
BRANCH  13  14
HETATM   14  C1  UNL     1      16.378   0.987  11.243  1.00  0.00     0.290 C 
HETATM   15  O1  UNL     1      15.249   1.340  10.921  1.00  0.00    -0.263 OA
BRANCH  14  16
HETATM   16  C14 UNL     1      17.032  -0.223  10.654  1.00  0.00     0.287 C 
HETATM   17  C15 UNL     1      18.469  -0.494  11.041  1.00  0.00     0.078 C 
HETATM   18  C16 UNL     1      17.953  -1.954  10.906  1.00  0.00     0.212 C 
HETATM   19  N1  UNL     1      16.740  -1.388  11.542  1.00  0.00    -0.055 N 
ATOM     20  H12 UNL     1      16.631  -1.303  12.553  1.00  0.00     0.278 HD
ATOM     21  H11 UNL     1      15.841  -1.869  11.550  1.00  0.00     0.278 HD
BRANCH  18  22
HETATM   22  C17 UNL     1      18.612  -2.969  11.763  1.00  0.00     0.197 C 
BRANCH  22  23
HETATM   23  O3  UNL     1      18.228  -4.238  11.356  1.00  0.00    -0.399 OA
ATOM     24  H3  UNL     1      18.902  -4.865  11.594  1.00  0.00     0.209 HD
ENDBRANCH  22  23
ENDBRANCH  18  22
ENDBRANCH  14  16
ENDBRANCH  13  14
ENDBRANCH   1  13
TORSDOF 5
ENDMDL
MODEL 2
REMARK VINA RESULT: -7.188813102      0.911      2.253
REMARK  5 active torsions:
REMARK  status: ('A' for Active; 'I' for Inactive)
REMARK    1  A    between atoms: C1_2  and  O2_3 
REMARK    2  A    between atoms: C1_2  and  C14_16 
REMARK    3  A    between atoms: O2_3  and  C2_4 
REMARK    4  A    between atoms: C16_18  and  C17_19 
REMARK    5  A    between atoms: C17_19  and  O3_20 
ROOT
HETATM    1  C2  UNL     1      16.672   2.164  13.251  1.00  0.00     0.072 C 
HETATM    2  C3  UNL     1      15.307   2.762  13.637  1.00  0.00     0.043 C 
HETATM    3  C4  UNL     1      15.193   3.317  14.991  1.00  0.00    -0.011 C 
HETATM    4  C5  UNL     1      15.311   4.823  14.937  1.00  0.00     0.005 C 
HETATM    5  C6  UNL     1      16.605   5.344  15.429  1.00  0.00     0.001 C 
HETATM    6  C7  UNL     1      17.697   5.291  14.375  1.00  0.00     0.005 C 
HETATM    7  C8  UNL     1      18.247   3.911  14.110  1.00  0.00    -0.011 C 
HETATM    8  C9  UNL     1      18.395   3.105  15.354  1.00  0.00     0.009 C 
HETATM    9  C10 UNL     1      17.321   2.131  15.619  1.00  0.00    -0.011 C 
HETATM   10  C11 UNL     1      15.987   2.641  16.053  1.00  0.00     0.009 C 
HETATM   11  C12 UNL     1      17.121   1.281  14.428  1.00  0.00     0.043 C 
HETATM   12  C13 UNL     1      17.628   3.195  12.927  1.00  0.00     0.043 C 
ENDROOT
BRANCH   1  13
HETATM   13  O2  UNL     1      16.345   1.170  12.327  1.00  0.00    -0.308 OA
BRANCH  13  14
HETATM   14  C1  UNL     1      16.669   1.040  11.006  1.00  0.00     0.290 C 
HETATM   15  O1  UNL     1      16.430   1.981  10.258  1.00  0.00    -0.263 OA
BRANCH  14  16
HETATM   16  C14 UNL     1      17.305  -0.223  10.520  1.00  0.00     0.287 C 
HETATM   17  C15 UNL     1      18.677  -0.564  11.060  1.00  0.00     0.078 C 
HETATM   18  C16 UNL     1      18.090  -1.996  10.910  1.00  0.00     0.212 C 
HETATM   19  N1  UNL     1      16.854  -1.341  11.402  1.00  0.00    -0.055 N 
ATOM     20  H12 UNL     1      16.648  -1.218  12.393  1.00  0.00     0.278 HD
ATOM     21  H11 UNL     1      15.932  -1.769  11.328  1.00  0.00     0.278 HD
BRANCH  18  22
HETATM   22  C17 UNL     1      18.596  -3.019  11.856  1.00  0.00     0.197 C 
BRANCH  22  23
HETATM   23  O3  UNL     1      18.298  -4.284  11.372  1.00  0.00    -0.399 OA
ATOM     24  H3  UNL     1      17.497  -4.598  11.776  1.00  0.00     0.209 HD
ENDBRANCH  22  23
ENDBRANCH  18  22
ENDBRANCH  14  16
ENDBRANCH  13  14
ENDBRANCH   1  13
TORSDOF 5
ENDMDL
MODEL 3
REMARK VINA RESULT: -7.091855978      1.935      3.132
REMARK  5 active torsions:
REMARK  status: ('A' for Active; 'I' for Inactive)
REMARK    1  A    between atoms: C1_2  and  O2_3 
REMARK    2  A    between atoms: C1_2  and  C14_16 
REMARK    3  A    between atoms: O2_3  and  C2_4 
REMARK    4  A    between atoms: C16_18  and  C17_19 
REMARK    5  A    between atoms: C17_19  and  O3_20 
ROOT
HETATM    1  C2  UNL     1      17.511   2.975  12.606  1.00  0.00     0.072 C 
HETATM    2  C3  UNL     1      17.227   3.322  14.079  1.00  0.00     0.043 C 
HETATM    3  C4  UNL     1      18.138   4.281  14.715  1.00  0.00    -0.011 C 
HETATM    4  C5  UNL     1      17.491   5.648  14.756  1.00  0.00     0.005 C 
HETATM    5  C6  UNL     1      18.049   6.607  13.779  1.00  0.00     0.001 C 
HETATM    6  C7  UNL     1      17.452   6.445  12.391  1.00  0.00     0.005 C 
HETATM    7  C8  UNL     1      17.950   5.240  11.632  1.00  0.00    -0.011 C 
HETATM    8  C9  UNL     1      19.406   4.997  11.832  1.00  0.00     0.009 C 
HETATM    9  C10 UNL     1      19.753   3.955  12.815  1.00  0.00    -0.011 C 
HETATM   10  C11 UNL     1      19.555   4.247  14.265  1.00  0.00     0.009 C 
HETATM   11  C12 UNL     1      19.023   2.711  12.495  1.00  0.00     0.043 C 
HETATM   12  C13 UNL     1      17.057   4.019  11.720  1.00  0.00     0.043 C 
ENDROOT
BRANCH   1  13
HETATM   13  O2  UNL     1      17.039   1.667  12.481  1.00  0.00    -0.308 OA
BRANCH  13  14
HETATM   14  C1  UNL     1      16.238   1.097  11.532  1.00  0.00     0.290 C 
HETATM   15  O1  UNL     1      15.210   1.684  11.215  1.00  0.00    -0.263 OA
BRANCH  14  16
HETATM   16  C14 UNL     1      16.637  -0.203  10.909  1.00  0.00     0.287 C 
HETATM   17  C15 UNL     1      18.107  -0.417  10.626  1.00  0.00     0.078 C 
HETATM   18  C16 UNL     1      17.693  -1.873  10.979  1.00  0.00     0.212 C 
HETATM   19  N1  UNL     1      16.865  -1.193  12.004  1.00  0.00    -0.055 N 
ATOM     20  H12 UNL     1      17.223  -0.933  12.923  1.00  0.00     0.278 HD
ATOM     21  H11 UNL     1      16.106  -1.656  12.502  1.00  0.00     0.278 HD
BRANCH  18  22
HETATM   22  C17 UNL     1      18.740  -2.730  11.584  1.00  0.00     0.197 C 
BRANCH  22  23
HETATM   23  O3  UNL     1      18.363  -4.061  11.488  1.00  0.00    -0.399 OA
ATOM     24  H3  UNL     1      17.799  -4.285  12.218  1.00  0.00     0.209 HD
ENDBRANCH  22  23
ENDBRANCH  18  22
ENDBRANCH  14  16
ENDBRANCH  13  14
ENDBRANCH   1  13
TORSDOF 5
ENDMDL
MODEL 4
REMARK VINA RESULT: -7.078233484      1.715      3.254
REMARK  5 active torsions:
REMARK  status: ('A' for Active; 'I' for Inactive)
REMARK    1  A    between atoms: C1_2  and  O2_3 
REMARK    2  A    between atoms: C1_2  and  C14_16 
REMARK    3  A    between atoms: O2_3  and  C2_4 
REMARK    4  A    between atoms: C16_18  and  C17_19 
REMARK    5  A    between atoms: C17_19  and  O3_20 
ROOT
HETATM    1  C2  UNL     1      17.800   3.047  12.326  1.00  0.00     0.072 C 
HETATM    2  C3  UNL     1      16.903   4.248  11.975  1.00  0.00     0.043 C 
HETATM    3  C4  UNL     1      16.485   5.104  13.091  1.00  0.00    -0.011 C 
HETATM    4  C5  UNL     1      17.341   6.351  13.125  1.00  0.00     0.005 C 
HETATM    5  C6  UNL     1      18.343   6.364  14.213  1.00  0.00     0.001 C 
HETATM    6  C7  UNL     1      19.603   5.594  13.859  1.00  0.00     0.005 C 
HETATM    7  C8  UNL     1      19.452   4.094  13.890  1.00  0.00    -0.011 C 
HETATM    8  C9  UNL     1      18.608   3.626  15.025  1.00  0.00     0.009 C 
HETATM    9  C10 UNL     1      17.208   3.306  14.694  1.00  0.00    -0.011 C 
HETATM   10  C11 UNL     1      16.270   4.428  14.399  1.00  0.00     0.009 C 
HETATM   11  C12 UNL     1      17.172   2.367  13.555  1.00  0.00     0.043 C 
HETATM   12  C13 UNL     1      19.166   3.454  12.547  1.00  0.00     0.043 C 
ENDROOT
BRANCH   1  13
HETATM   13  O2  UNL     1      17.478   2.102  11.350  1.00  0.00    -0.308 OA
BRANCH  13  14
HETATM   14  C1  UNL     1      16.378   1.304  11.212  1.00  0.00     0.290 C 
HETATM   15  O1  UNL     1      15.274   1.810  11.378  1.00  0.00    -0.263 OA
BRANCH  14  16
HETATM   16  C14 UNL     1      16.548  -0.140  10.857  1.00  0.00     0.287 C 
HETATM   17  C15 UNL     1      17.899  -0.573  10.334  1.00  0.00     0.078 C 
HETATM   18  C16 UNL     1      17.494  -1.856  11.112  1.00  0.00     0.212 C 
HETATM   19  N1  UNL     1      16.965  -0.875  12.088  1.00  0.00    -0.055 N 
ATOM     20  H12 UNL     1      17.539  -0.454  12.820  1.00  0.00     0.278 HD
ATOM     21  H11 UNL     1      16.315  -1.126  12.832  1.00  0.00     0.278 HD
BRANCH  18  22
HETATM   22  C17 UNL     1      18.603  -2.664  11.675  1.00  0.00     0.197 C 
BRANCH  22  23
HETATM   23  O3  UNL     1      18.354  -4.010  11.452  1.00  0.00    -0.399 OA
ATOM     24  H3  UNL     1      18.512  -4.499  12.251  1.00  0.00     0.209 HD
ENDBRANCH  22  23
ENDBRANCH  18  22
ENDBRANCH  14  16
ENDBRANCH  13  14
ENDBRANCH   1  13
TORSDOF 5
ENDMDL
MODEL 5
REMARK VINA RESULT: -7.005716883      1.376      1.859
REMARK  5 active torsions:
REMARK  status: ('A' for Active; 'I' for Inactive)
REMARK    1  A    between atoms: C1_2  and  O2_3 
REMARK    2  A    between atoms: C1_2  and  C14_16 
REMARK    3  A    between atoms: O2_3  and  C2_4 
REMARK    4  A    between atoms: C16_18  and  C17_19 
REMARK    5  A    between atoms: C17_19  and  O3_20 
ROOT
HETATM    1  C2  UNL     1      17.309   3.148  12.590  1.00  0.00     0.072 C 
HETATM    2  C3  UNL     1      16.398   2.129  13.298  1.00  0.00     0.043 C 
HETATM    3  C4  UNL     1      16.241   2.285  14.749  1.00  0.00    -0.011 C 
HETATM    4  C5  UNL     1      14.924   2.965  15.048  1.00  0.00     0.005 C 
HETATM    5  C6  UNL     1      15.057   4.377  15.467  1.00  0.00     0.001 C 
HETATM    6  C7  UNL     1      15.198   5.327  14.290  1.00  0.00     0.005 C 
HETATM    7  C8  UNL     1      16.550   5.301  13.621  1.00  0.00    -0.011 C 
HETATM    8  C9  UNL     1      17.670   5.178  14.597  1.00  0.00     0.009 C 
HETATM    9  C10 UNL     1      18.230   3.825  14.763  1.00  0.00    -0.011 C 
HETATM   10  C11 UNL     1      17.423   2.803  15.491  1.00  0.00     0.009 C 
HETATM   11  C12 UNL     1      18.585   3.272  13.441  1.00  0.00     0.043 C 
HETATM   12  C13 UNL     1      16.639   4.411  12.398  1.00  0.00     0.043 C 
ENDROOT
BRANCH   1  13
HETATM   13  O2  UNL     1      17.822   2.432  11.507  1.00  0.00    -0.308 OA
BRANCH  13  14
HETATM   14  C1  UNL     1      17.442   1.234  10.971  1.00  0.00     0.290 C 
HETATM   15  O1  UNL     1      16.557   1.236  10.123  1.00  0.00    -0.263 OA
BRANCH  14  16
HETATM   16  C14 UNL     1      18.113  -0.025  11.420  1.00  0.00     0.287 C 
HETATM   17  C15 UNL     1      17.320  -0.956  12.310  1.00  0.00     0.078 C 
HETATM   18  C16 UNL     1      18.146  -2.000  11.507  1.00  0.00     0.212 C 
HETATM   19  N1  UNL     1      17.877  -1.073  10.382  1.00  0.00    -0.055 N 
ATOM     20  H12 UNL     1      17.029  -1.115   9.817  1.00  0.00     0.278 HD
ATOM     21  H11 UNL     1      18.389  -1.106   9.500  1.00  0.00     0.278 HD
BRANCH  18  22
HETATM   22  C17 UNL     1      17.515  -3.325  11.302  1.00  0.00     0.197 C 
BRANCH  22  23
HETATM   23  O3  UNL     1      18.479  -4.318  11.402  1.00  0.00    -0.399 OA
ATOM     24  H3  UNL     1      19.165  -4.159  10.764  1.00  0.00     0.209 HD
ENDBRANCH  22  23
ENDBRANCH  18  22
ENDBRANCH  14  16
ENDBRANCH  13  14
ENDBRANCH   1  13
TORSDOF 5
ENDMDL
