MODEL 1
REMARK VINA RESULT: -7.391566414      0.000      0.000
REMARK  4 active torsions:
REMARK  status: ('A' for Active; 'I' for Inactive)
REMARK    1  A    between atoms: C4_8  and  C5_9 
REMARK    2  A    between atoms: C5_9  and  C6_10 
REMARK    3  A    between atoms: C6_10  and  C7_11 
REMARK    4  A    between atoms: C7_11  and  N3_12 
ROOT
HETATM    1  C1  UNL     1      13.586   2.131  16.965  1.00  0.00     0.069 C 
HETATM    2  C2  UNL     1      14.932   2.236  16.361  1.00  0.00     0.017 A 
HETATM    3  N1  UNL     1      15.248   3.288  15.575  1.00  0.00    -0.344 N 
ATOM      4  H1  UNL     1      14.548   4.009  15.402  1.00  0.00     0.167 HD
HETATM    5  C3  UNL     1      16.476   3.409  15.010  1.00  0.00     0.138 A 
HETATM    6  N2  UNL     1      17.052   4.304  14.218  1.00  0.00    -0.330 N 
ATOM      7  H2  UNL     1      16.613   5.152  13.861  1.00  0.00     0.168 HD
HETATM    8  C4  UNL     1      18.338   3.899  13.959  1.00  0.00     0.083 A 
HETATM    9  N4  UNL     1      18.540   2.754  14.596  1.00  0.00    -0.340 N 
ATOM     10  H4  UNL     1      19.405   2.212  14.591  1.00  0.00     0.167 HD
HETATM   11  C12 UNL     1      17.413   2.429  15.250  1.00  0.00     0.129 A 
HETATM   12  C13 UNL     1      17.104   1.337  16.058  1.00  0.00     0.210 A 
HETATM   13  O2  UNL     1      17.973   0.459  16.262  1.00  0.00    -0.285 OA
HETATM   14  C14 UNL     1      15.847   1.243  16.619  1.00  0.00     0.013 A 
HETATM   15  C15 UNL     1      15.465   0.111  17.482  1.00  0.00     0.054 C 
ENDROOT
BRANCH   8  16
HETATM   16  C5  UNL     1      19.180   4.714  13.072  1.00  0.00     0.078 C 
BRANCH  16  17
HETATM   17  C6  UNL     1      19.161   4.336  11.626  1.00  0.00     0.038 C 
BRANCH  17  18
HETATM   18  C7  UNL     1      19.491   2.903  11.458  1.00  0.00     0.273 C 
BRANCH  18  19
HETATM   19  N3  UNL     1      18.547   2.153  10.670  1.00  0.00     0.092 N 
HETATM   20  C8  UNL     1      17.220   2.596  11.054  1.00  0.00     0.298 C 
HETATM   21  C9  UNL     1      16.223   1.460  11.063  1.00  0.00     0.198 C 
HETATM   22  O1  UNL     1      16.565   0.443  11.927  1.00  0.00    -0.388 OA
HETATM   23  C10 UNL     1      17.951   0.357  12.138  1.00  0.00     0.198 C 
HETATM   24  C11 UNL     1      18.625   0.738  10.858  1.00  0.00     0.298 C 
ENDBRANCH  18  19
ENDBRANCH  17  18
ENDBRANCH  16  17
ENDBRANCH   8  16
TORSDOF 4
ENDMDL
MODEL 2
REMARK VINA RESULT: -7.302861999      2.871      3.754
REMARK  4 active torsions:
REMARK  status: ('A' for Active; 'I' for Inactive)
REMARK    1  A    between atoms: C4_8  and  C5_9 
REMARK    2  A    between atoms: C5_9  and  C6_10 
REMARK    3  A    between atoms: C6_10  and  C7_11 
REMARK    4  A    between atoms: C7_11  and  N3_12 
ROOT
HETATM    1  C1  UNL     1      14.360   2.938  16.958  1.00  0.00     0.069 C 
HETATM    2  C2  UNL     1      15.260   2.309  15.968  1.00  0.00     0.017 A 
HETATM    3  N1  UNL     1      15.744   3.027  14.932  1.00  0.00    -0.344 N 
ATOM      4  H1  UNL     1      15.482   4.009  14.840  1.00  0.00     0.167 HD
HETATM    5  C3  UNL     1      16.572   2.474  14.010  1.00  0.00     0.138 A 
HETATM    6  N2  UNL     1      17.183   2.921  12.920  1.00  0.00    -0.330 N 
ATOM      7  H2  UNL     1      17.124   3.870  12.552  1.00  0.00     0.168 HD
HETATM    8  C4  UNL     1      17.909   1.893  12.370  1.00  0.00     0.083 A 
HETATM    9  N4  UNL     1      17.735   0.821  13.129  1.00  0.00    -0.340 N 
ATOM     10  H4  UNL     1      18.151  -0.097  12.970  1.00  0.00     0.167 HD
HETATM   11  C12 UNL     1      16.918   1.148  14.144  1.00  0.00     0.129 A 
HETATM   12  C13 UNL     1      16.428   0.392  15.206  1.00  0.00     0.210 A 
HETATM   13  O2  UNL     1      16.757  -0.812  15.307  1.00  0.00    -0.285 OA
HETATM   14  C14 UNL     1      15.589   0.983  16.128  1.00  0.00     0.013 A 
HETATM   15  C15 UNL     1      15.040   0.233  17.271  1.00  0.00     0.054 C 
ENDROOT
BRANCH   8  16
HETATM   16  C5  UNL     1      18.657   2.131  11.127  1.00  0.00     0.078 C 
BRANCH  16  17
HETATM   17  C6  UNL     1      20.146   2.158  11.256  1.00  0.00     0.038 C 
BRANCH  17  18
HETATM   18  C7  UNL     1      20.605   3.491  11.708  1.00  0.00     0.273 C 
BRANCH  18  19
HETATM   19  N3  UNL     1      21.344   4.242  10.726  1.00  0.00     0.092 N 
HETATM   20  C8  UNL     1      21.941   3.284   9.813  1.00  0.00     0.298 C 
HETATM   21  C9  UNL     1      23.317   3.715   9.359  1.00  0.00     0.198 C 
HETATM   22  O1  UNL     1      24.206   3.878  10.398  1.00  0.00    -0.388 OA
HETATM   23  C10 UNL     1      23.571   4.206  11.607  1.00  0.00     0.198 C 
HETATM   24  C11 UNL     1      22.384   5.054  11.275  1.00  0.00     0.298 C 
ENDBRANCH  18  19
ENDBRANCH  17  18
ENDBRANCH  16  17
ENDBRANCH   8  16
TORSDOF 4
ENDMDL
MODEL 3
REMARK VINA RESULT: -7.177256576      2.597      3.855
REMARK  4 active torsions:
REMARK  status: ('A' for Active; 'I' for Inactive)
REMARK    1  A    between atoms: C4_8  and  C5_9 
REMARK    2  A    between atoms: C5_9  and  C6_10 
REMARK    3  A    between atoms: C6_10  and  C7_11 
REMARK    4  A    between atoms: C7_11  and  N3_12 
ROOT
HETATM    1  C1  UNL     1      15.492   0.602  17.668  1.00  0.00     0.069 C 
HETATM    2  C2  UNL     1      15.798   1.087  16.306  1.00  0.00     0.017 A 
HETATM    3  N1  UNL     1      16.598   0.369  15.488  1.00  0.00    -0.344 N 
ATOM      4  H1  UNL     1      16.989  -0.513  15.822  1.00  0.00     0.167 HD
HETATM    5  C3  UNL     1      16.895   0.792  14.233  1.00  0.00     0.138 A 
HETATM    6  N2  UNL     1      17.629   0.311  13.238  1.00  0.00    -0.330 N 
ATOM      7  H2  UNL     1      18.155  -0.563  13.256  1.00  0.00     0.168 HD
HETATM    8  C4  UNL     1      17.563   1.184  12.181  1.00  0.00     0.083 A 
HETATM    9  N4  UNL     1      16.787   2.197  12.538  1.00  0.00    -0.340 N 
ATOM     10  H4  UNL     1      16.552   3.003  11.958  1.00  0.00     0.167 HD
HETATM   11  C12 UNL     1      16.363   1.983  13.795  1.00  0.00     0.129 A 
HETATM   12  C13 UNL     1      15.535   2.737  14.623  1.00  0.00     0.210 A 
HETATM   13  O2  UNL     1      15.063   3.817  14.202  1.00  0.00    -0.285 OA
HETATM   14  C14 UNL     1      15.252   2.280  15.894  1.00  0.00     0.013 A 
HETATM   15  C15 UNL     1      14.384   3.035  16.815  1.00  0.00     0.054 C 
ENDROOT
BRANCH   8  16
HETATM   16  C5  UNL     1      18.325   0.887  10.960  1.00  0.00     0.078 C 
BRANCH  16  17
HETATM   17  C6  UNL     1      19.813   0.906  11.097  1.00  0.00     0.038 C 
BRANCH  17  18
HETATM   18  C7  UNL     1      20.369   2.171  10.566  1.00  0.00     0.273 C 
BRANCH  18  19
HETATM   19  N3  UNL     1      21.111   2.954  11.521  1.00  0.00     0.092 N 
HETATM   20  C8  UNL     1      20.185   3.909  12.103  1.00  0.00     0.298 C 
HETATM   21  C9  UNL     1      20.840   5.244  12.369  1.00  0.00     0.198 C 
HETATM   22  O1  UNL     1      21.353   5.834  11.234  1.00  0.00    -0.388 OA
HETATM   23  C10 UNL     1      21.708   4.895  10.252  1.00  0.00     0.198 C 
HETATM   24  C11 UNL     1      22.208   3.674  10.956  1.00  0.00     0.298 C 
ENDBRANCH  18  19
ENDBRANCH  17  18
ENDBRANCH  16  17
ENDBRANCH   8  16
TORSDOF 4
ENDMDL
MODEL 4
REMARK VINA RESULT: -7.165829067      2.306      3.384
REMARK  4 active torsions:
REMARK  status: ('A' for Active; 'I' for Inactive)
REMARK    1  A    between atoms: C4_8  and  C5_9 
REMARK    2  A    between atoms: C5_9  and  C6_10 
REMARK    3  A    between atoms: C6_10  and  C7_11 
REMARK    4  A    between atoms: C7_11  and  N3_12 
ROOT
HETATM    1  C1  UNL     1      14.324   3.541  16.598  1.00  0.00     0.069 C 
HETATM    2  C2  UNL     1      15.243   2.689  15.814  1.00  0.00     0.017 A 
HETATM    3  N1  UNL     1      15.504   2.976  14.520  1.00  0.00    -0.344 N 
ATOM      4  H1  UNL     1      15.060   3.787  14.090  1.00  0.00     0.167 HD
HETATM    5  C3  UNL     1      16.344   2.210  13.779  1.00  0.00     0.138 A 
HETATM    6  N2  UNL     1      16.775   2.247  12.524  1.00  0.00    -0.330 N 
ATOM      7  H2  UNL     1      16.514   2.943  11.826  1.00  0.00     0.168 HD
HETATM    8  C4  UNL     1      17.631   1.194  12.322  1.00  0.00     0.083 A 
HETATM    9  N4  UNL     1      17.718   0.516  13.458  1.00  0.00    -0.340 N 
ATOM     10  H4  UNL     1      18.282  -0.320  13.612  1.00  0.00     0.167 HD
HETATM   11  C12 UNL     1      16.937   1.117  14.370  1.00  0.00     0.129 A 
HETATM   12  C13 UNL     1      16.680   0.806  15.704  1.00  0.00     0.210 A 
HETATM   13  O2  UNL     1      17.232  -0.192  16.219  1.00  0.00    -0.285 OA
HETATM   14  C14 UNL     1      15.822   1.604  16.431  1.00  0.00     0.013 A 
HETATM   15  C15 UNL     1      15.512   1.325  17.845  1.00  0.00     0.054 C 
ENDROOT
BRANCH   8  16
HETATM   16  C5  UNL     1      18.222   0.998  10.990  1.00  0.00     0.078 C 
BRANCH  16  17
HETATM   17  C6  UNL     1      19.716   1.023  10.928  1.00  0.00     0.038 C 
BRANCH  17  18
HETATM   18  C7  UNL     1      20.199   2.369  10.550  1.00  0.00     0.273 C 
BRANCH  18  19
HETATM   19  N3  UNL     1      20.964   3.046  11.566  1.00  0.00     0.092 N 
HETATM   20  C8  UNL     1      20.080   4.008  12.199  1.00  0.00     0.298 C 
HETATM   21  C9  UNL     1      20.800   5.285  12.564  1.00  0.00     0.198 C 
HETATM   22  O1  UNL     1      21.364   5.921  11.480  1.00  0.00    -0.388 OA
HETATM   23  C10 UNL     1      21.686   5.033  10.441  1.00  0.00     0.198 C 
HETATM   24  C11 UNL     1      22.108   3.742  11.068  1.00  0.00     0.298 C 
ENDBRANCH  18  19
ENDBRANCH  17  18
ENDBRANCH  16  17
ENDBRANCH   8  16
TORSDOF 4
ENDMDL
MODEL 5
REMARK VINA RESULT: -7.065692611      2.903      4.015
REMARK  4 active torsions:
REMARK  status: ('A' for Active; 'I' for Inactive)
REMARK    1  A    between atoms: C4_8  and  C5_9 
REMARK    2  A    between atoms: C5_9  and  C6_10 
REMARK    3  A    between atoms: C6_10  and  C7_11 
REMARK    4  A    between atoms: C7_11  and  N3_12 
ROOT
HETATM    1  C1  UNL     1      15.472   0.280  17.425  1.00  0.00     0.069 C 
HETATM    2  C2  UNL     1      15.814   0.938  16.146  1.00  0.00     0.017 A 
HETATM    3  N1  UNL     1      16.648   0.336  15.270  1.00  0.00    -0.344 N 
ATOM      4  H1  UNL     1      17.039  -0.577  15.500  1.00  0.00     0.167 HD
HETATM    5  C3  UNL     1      16.978   0.919  14.089  1.00  0.00     0.138 A 
HETATM    6  N2  UNL     1      17.749   0.576  13.065  1.00  0.00    -0.330 N 
ATOM      7  H2  UNL     1      18.284  -0.289  12.987  1.00  0.00     0.168 HD
HETATM    8  C4  UNL     1      17.705   1.577  12.127  1.00  0.00     0.083 A 
HETATM    9  N4  UNL     1      16.906   2.530  12.586  1.00  0.00    -0.340 N 
ATOM     10  H4  UNL     1      16.679   3.401  12.105  1.00  0.00     0.167 HD
HETATM   11  C12 UNL     1      16.445   2.153  13.790  1.00  0.00     0.129 A 
HETATM   12  C13 UNL     1      15.583   2.788  14.681  1.00  0.00     0.210 A 
HETATM   13  O2  UNL     1      15.111   3.909  14.386  1.00  0.00    -0.285 OA
HETATM   14  C14 UNL     1      15.267   2.170  15.873  1.00  0.00     0.013 A 
HETATM   15  C15 UNL     1      14.361   2.793  16.855  1.00  0.00     0.054 C 
ENDROOT
BRANCH   8  16
HETATM   16  C5  UNL     1      18.507   1.445  10.902  1.00  0.00     0.078 C 
BRANCH  16  17
HETATM   17  C6  UNL     1      19.977   1.669  11.058  1.00  0.00     0.038 C 
BRANCH  17  18
HETATM   18  C7  UNL     1      20.243   3.021  11.600  1.00  0.00     0.273 C 
BRANCH  18  19
HETATM   19  N3  UNL     1      20.776   3.961  10.649  1.00  0.00     0.092 N 
HETATM   20  C8  UNL     1      21.321   3.192   9.545  1.00  0.00     0.298 C 
HETATM   21  C9  UNL     1      22.582   3.813   8.989  1.00  0.00     0.198 C 
HETATM   22  O1  UNL     1      23.588   3.932   9.922  1.00  0.00    -0.388 OA
HETATM   23  C10 UNL     1      23.097   4.037  11.234  1.00  0.00     0.198 C 
HETATM   24  C11 UNL     1      21.810   4.797  11.172  1.00  0.00     0.298 C 
ENDBRANCH  18  19
ENDBRANCH  17  18
ENDBRANCH  16  17
ENDBRANCH   8  16
TORSDOF 4
ENDMDL
