MODEL 1
REMARK VINA RESULT: -7.995802120      0.000      0.000
REMARK  5 active torsions:
REMARK  status: ('A' for Active; 'I' for Inactive)
REMARK    1  A    between atoms: C5_5  and  N1_6 
REMARK    2  A    between atoms: N1_6  and  C6_7 
REMARK    3  A    between atoms: N1_6  and  C12_14 
REMARK    4  A    between atoms: C6_7  and  C7_8 
REMARK    5  A    between atoms: C16_21  and  O2_22 
ROOT
HETATM    1  N1  UNL     1      17.406   2.327  13.539  1.00  0.00    -0.358 N 
ENDROOT
BRANCH   1   2
HETATM    2  C5  UNL     1      16.880   2.717  14.771  1.00  0.00     0.117 C 
HETATM    3  C4  UNL     1      15.446   3.076  14.873  1.00  0.00     0.028 C 
HETATM    4  C3  UNL     1      14.801   2.719  16.206  1.00  0.00     0.006 C 
HETATM    5  C2  UNL     1      14.841   1.259  16.532  1.00  0.00    -0.016 C 
HETATM    6  C1  UNL     1      14.887   1.175  18.065  1.00  0.00     0.010 C 
HETATM    7  C17 UNL     1      16.166   0.656  16.059  1.00  0.00     0.038 C 
HETATM    8  C16 UNL     1      17.134   1.796  15.951  1.00  0.00     0.141 C 
BRANCH   8   9
HETATM    9  O2  UNL     1      18.443   1.439  16.152  1.00  0.00    -0.393 OA
ATOM     10  H2  UNL     1      18.669   1.193  17.042  1.00  0.00     0.210 HD
ENDBRANCH   8   9
ENDBRANCH   1   2
BRANCH   1  11
HETATM   11  C6  UNL     1      18.403   3.050  12.913  1.00  0.00     0.069 C 
BRANCH  11  12
HETATM   12  C7  UNL     1      18.512   4.503  12.816  1.00  0.00     0.028 C 
HETATM   13  C8  UNL     1      19.351   5.023  14.001  1.00  0.00     0.036 C 
HETATM   14  C9  UNL     1      19.619   6.465  13.885  1.00  0.00     0.168 C 
HETATM   15  O1  UNL     1      18.554   7.257  13.473  1.00  0.00    -0.391 OA
HETATM   16  C10 UNL     1      17.984   6.811  12.312  1.00  0.00     0.168 C 
HETATM   17  C11 UNL     1      17.386   5.414  12.671  1.00  0.00     0.036 C 
ENDBRANCH  11  12
ENDBRANCH   1  11
BRANCH   1  18
HETATM   18  C12 UNL     1      16.766   1.432  12.671  1.00  0.00     0.016 C 
HETATM   19  C13 UNL     1      17.148  -0.002  12.612  1.00  0.00     0.082 C 
HETATM   20  C14 UNL     1      16.657  -0.416  11.243  1.00  0.00     0.238 C 
HETATM   21  N2  UNL     1      15.860   0.675  10.718  1.00  0.00    -0.070 N 
HETATM   22  C15 UNL     1      16.422   1.894  11.282  1.00  0.00     0.284 C 
ATOM     23  H22 UNL     1      15.805   0.686   9.700  1.00  0.00     0.277 HD
ATOM     24  H21 UNL     1      14.860   0.569  10.894  1.00  0.00     0.277 HD
ENDBRANCH   1  18
TORSDOF 5
ENDMDL
MODEL 2
REMARK VINA RESULT: -7.948871730      0.722      1.124
REMARK  5 active torsions:
REMARK  status: ('A' for Active; 'I' for Inactive)
REMARK    1  A    between atoms: C5_5  and  N1_6 
REMARK    2  A    between atoms: N1_6  and  C6_7 
REMARK    3  A    between atoms: N1_6  and  C12_14 
REMARK    4  A    between atoms: C6_7  and  C7_8 
REMARK    5  A    between atoms: C16_21  and  O2_22 
ROOT
HETATM    1  N1  UNL     1      17.439   2.219  13.484  1.00  0.00    -0.358 N 
ENDROOT
BRANCH   1   2
HETATM    2  C5  UNL     1      16.904   2.655  14.696  1.00  0.00     0.117 C 
HETATM    3  C4  UNL     1      15.460   2.980  14.784  1.00  0.00     0.028 C 
HETATM    4  C3  UNL     1      14.828   2.672  16.135  1.00  0.00     0.006 C 
HETATM    5  C2  UNL     1      14.909   1.232  16.534  1.00  0.00    -0.016 C 
HETATM    6  C1  UNL     1      14.960   1.227  18.069  1.00  0.00     0.010 C 
HETATM    7  C17 UNL     1      16.249   0.643  16.088  1.00  0.00     0.038 C 
HETATM    8  C16 UNL     1      17.185   1.803  15.920  1.00  0.00     0.141 C 
BRANCH   8   9
HETATM    9  O2  UNL     1      18.504   1.492  16.135  1.00  0.00    -0.393 OA
ATOM     10  H2  UNL     1      18.800   1.563  17.035  1.00  0.00     0.210 HD
ENDBRANCH   8   9
ENDBRANCH   1   2
BRANCH   1  11
HETATM   11  C6  UNL     1      18.475   2.889  12.863  1.00  0.00     0.069 C 
BRANCH  11  12
HETATM   12  C7  UNL     1      18.826   4.299  13.005  1.00  0.00     0.028 C 
HETATM   13  C8  UNL     1      19.456   4.795  11.688  1.00  0.00     0.036 C 
HETATM   14  C9  UNL     1      19.702   6.246  11.716  1.00  0.00     0.168 C 
HETATM   15  O1  UNL     1      20.227   6.757  12.896  1.00  0.00    -0.391 OA
HETATM   16  C10 UNL     1      19.494   6.404  13.997  1.00  0.00     0.168 C 
HETATM   17  C11 UNL     1      19.630   4.852  14.086  1.00  0.00     0.036 C 
ENDBRANCH  11  12
ENDBRANCH   1  11
BRANCH   1  18
HETATM   18  C12 UNL     1      16.781   1.331  12.621  1.00  0.00     0.016 C 
HETATM   19  C13 UNL     1      17.147  -0.107  12.559  1.00  0.00     0.082 C 
HETATM   20  C14 UNL     1      16.639  -0.515  11.194  1.00  0.00     0.238 C 
HETATM   21  N2  UNL     1      15.850   0.584  10.677  1.00  0.00    -0.070 N 
HETATM   22  C15 UNL     1      16.430   1.797  11.235  1.00  0.00     0.284 C 
ATOM     23  H22 UNL     1      15.787   0.595   9.659  1.00  0.00     0.277 HD
ATOM     24  H21 UNL     1      14.851   0.489  10.861  1.00  0.00     0.277 HD
ENDBRANCH   1  18
TORSDOF 5
ENDMDL
MODEL 3
REMARK VINA RESULT: -7.810078033      1.556      4.891
REMARK  5 active torsions:
REMARK  status: ('A' for Active; 'I' for Inactive)
REMARK    1  A    between atoms: C5_5  and  N1_6 
REMARK    2  A    between atoms: N1_6  and  C6_7 
REMARK    3  A    between atoms: N1_6  and  C12_14 
REMARK    4  A    between atoms: C6_7  and  C7_8 
REMARK    5  A    between atoms: C16_21  and  O2_22 
ROOT
HETATM    1  N1  UNL     1      16.915   2.356  13.370  1.00  0.00    -0.358 N 
ENDROOT
BRANCH   1   2
HETATM    2  C5  UNL     1      17.306   3.604  12.883  1.00  0.00     0.117 C 
HETATM    3  C4  UNL     1      16.615   4.826  13.362  1.00  0.00     0.028 C 
HETATM    4  C3  UNL     1      17.507   6.057  13.452  1.00  0.00     0.006 C 
HETATM    5  C2  UNL     1      18.672   5.903  14.378  1.00  0.00    -0.016 C 
HETATM    6  C1  UNL     1      19.780   6.802  13.808  1.00  0.00     0.010 C 
HETATM    7  C17 UNL     1      19.225   4.479  14.285  1.00  0.00     0.038 C 
HETATM    8  C16 UNL     1      18.784   3.940  12.957  1.00  0.00     0.141 C 
BRANCH   8   9
HETATM    9  O2  UNL     1      19.632   3.002  12.426  1.00  0.00    -0.393 OA
ATOM     10  H2  UNL     1      20.450   2.876  12.894  1.00  0.00     0.210 HD
ENDBRANCH   8   9
ENDBRANCH   1   2
BRANCH   1  11
HETATM   11  C6  UNL     1      17.198   1.960  14.663  1.00  0.00     0.069 C 
BRANCH  11  12
HETATM   12  C7  UNL     1      16.267   1.875  15.785  1.00  0.00     0.028 C 
HETATM   13  C8  UNL     1      16.105   0.397  16.193  1.00  0.00     0.036 C 
HETATM   14  C9  UNL     1      15.290   0.256  17.409  1.00  0.00     0.168 C 
HETATM   15  O1  UNL     1      14.157   1.056  17.486  1.00  0.00    -0.391 OA
HETATM   16  C10 UNL     1      14.433   2.381  17.282  1.00  0.00     0.168 C 
HETATM   17  C11 UNL     1      14.934   2.462  15.806  1.00  0.00     0.036 C 
ENDBRANCH  11  12
ENDBRANCH   1  11
BRANCH   1  18
HETATM   18  C12 UNL     1      16.552   1.282  12.547  1.00  0.00     0.016 C 
HETATM   19  C13 UNL     1      17.195  -0.051  12.681  1.00  0.00     0.082 C 
HETATM   20  C14 UNL     1      16.946  -0.671  11.324  1.00  0.00     0.238 C 
HETATM   21  N2  UNL     1      16.029   0.194  10.611  1.00  0.00    -0.070 N 
HETATM   22  C15 UNL     1      16.291   1.544  11.090  1.00  0.00     0.284 C 
ATOM     23  H22 UNL     1      16.090   0.104   9.596  1.00  0.00     0.277 HD
ATOM     24  H21 UNL     1      15.052  -0.086  10.701  1.00  0.00     0.277 HD
ENDBRANCH   1  18
TORSDOF 5
ENDMDL
MODEL 4
REMARK VINA RESULT: -7.658573393      1.602      1.965
REMARK  5 active torsions:
REMARK  status: ('A' for Active; 'I' for Inactive)
REMARK    1  A    between atoms: C5_5  and  N1_6 
REMARK    2  A    between atoms: N1_6  and  C6_7 
REMARK    3  A    between atoms: N1_6  and  C12_14 
REMARK    4  A    between atoms: C6_7  and  C7_8 
REMARK    5  A    between atoms: C16_21  and  O2_22 
ROOT
HETATM    1  N1  UNL     1      17.165   2.587  13.371  1.00  0.00    -0.358 N 
ENDROOT
BRANCH   1   2
HETATM    2  C5  UNL     1      16.700   2.867  14.657  1.00  0.00     0.117 C 
HETATM    3  C4  UNL     1      15.244   3.012  14.893  1.00  0.00     0.028 C 
HETATM    4  C3  UNL     1      14.778   2.532  16.261  1.00  0.00     0.006 C 
HETATM    5  C2  UNL     1      15.054   1.086  16.529  1.00  0.00    -0.016 C 
HETATM    6  C1  UNL     1      15.248   0.973  18.049  1.00  0.00     0.010 C 
HETATM    7  C17 UNL     1      16.403   0.694  15.924  1.00  0.00     0.038 C 
HETATM    8  C16 UNL     1      17.186   1.964  15.776  1.00  0.00     0.141 C 
BRANCH   8   9
HETATM    9  O2  UNL     1      18.545   1.795  15.853  1.00  0.00    -0.393 OA
ATOM     10  H2  UNL     1      18.869   0.942  15.586  1.00  0.00     0.210 HD
ENDBRANCH   8   9
ENDBRANCH   1   2
BRANCH   1  11
HETATM   11  C6  UNL     1      17.836   3.532  12.620  1.00  0.00     0.069 C 
BRANCH  11  12
HETATM   12  C7  UNL     1      19.256   3.547  12.282  1.00  0.00     0.028 C 
HETATM   13  C8  UNL     1      19.767   5.001  12.326  1.00  0.00     0.036 C 
HETATM   14  C9  UNL     1      21.224   5.070  12.134  1.00  0.00     0.168 C 
HETATM   15  O1  UNL     1      21.754   4.248  11.148  1.00  0.00    -0.391 OA
HETATM   16  C10 UNL     1      21.382   2.939  11.297  1.00  0.00     0.168 C 
HETATM   17  C11 UNL     1      19.835   2.937  11.093  1.00  0.00     0.036 C 
ENDBRANCH  11  12
ENDBRANCH   1  11
BRANCH   1  18
HETATM   18  C12 UNL     1      16.703   1.514  12.597  1.00  0.00     0.016 C 
HETATM   19  C13 UNL     1      17.416   0.212  12.570  1.00  0.00     0.082 C 
HETATM   20  C14 UNL     1      16.949  -0.391  11.264  1.00  0.00     0.238 C 
HETATM   21  N2  UNL     1      15.879   0.445  10.757  1.00  0.00    -0.070 N 
HETATM   22  C15 UNL     1      16.166   1.794  11.220  1.00  0.00     0.284 C 
ATOM     23  H22 UNL     1      15.756   0.379   9.747  1.00  0.00     0.277 HD
ATOM     24  H21 UNL     1      14.949   0.115  11.016  1.00  0.00     0.277 HD
ENDBRANCH   1  18
TORSDOF 5
ENDMDL
MODEL 5
REMARK VINA RESULT: -7.444536169      1.569      4.902
REMARK  5 active torsions:
REMARK  status: ('A' for Active; 'I' for Inactive)
REMARK    1  A    between atoms: C5_5  and  N1_6 
REMARK    2  A    between atoms: N1_6  and  C6_7 
REMARK    3  A    between atoms: N1_6  and  C12_14 
REMARK    4  A    between atoms: C6_7  and  C7_8 
REMARK    5  A    between atoms: C16_21  and  O2_22 
ROOT
HETATM    1  N1  UNL     1      16.889   2.275  13.238  1.00  0.00    -0.358 N 
ENDROOT
BRANCH   1   2
HETATM    2  C5  UNL     1      17.302   3.520  12.762  1.00  0.00     0.117 C 
HETATM    3  C4  UNL     1      16.575   4.742  13.180  1.00  0.00     0.028 C 
HETATM    4  C3  UNL     1      17.451   5.980  13.313  1.00  0.00     0.006 C 
HETATM    5  C2  UNL     1      18.555   5.845  14.313  1.00  0.00    -0.016 C 
HETATM    6  C1  UNL     1      19.692   6.745  13.806  1.00  0.00     0.010 C 
HETATM    7  C17 UNL     1      19.122   4.424  14.274  1.00  0.00     0.038 C 
HETATM    8  C16 UNL     1      18.771   3.867  12.927  1.00  0.00     0.141 C 
BRANCH   8   9
HETATM    9  O2  UNL     1      19.657   2.929  12.462  1.00  0.00    -0.393 OA
ATOM     10  H2  UNL     1      20.268   2.587  13.105  1.00  0.00     0.210 HD
ENDBRANCH   8   9
ENDBRANCH   1   2
BRANCH   1  11
HETATM   11  C6  UNL     1      17.110   1.887  14.545  1.00  0.00     0.069 C 
BRANCH  11  12
HETATM   12  C7  UNL     1      16.109   1.491  15.531  1.00  0.00     0.028 C 
HETATM   13  C8  UNL     1      15.327   2.741  15.982  1.00  0.00     0.036 C 
HETATM   14  C9  UNL     1      14.208   2.390  16.870  1.00  0.00     0.168 C 
HETATM   15  O1  UNL     1      14.470   1.429  17.839  1.00  0.00    -0.391 OA
HETATM   16  C10 UNL     1      15.004   0.283  17.314  1.00  0.00     0.168 C 
HETATM   17  C11 UNL     1      16.386   0.716  16.733  1.00  0.00     0.036 C 
ENDBRANCH  11  12
ENDBRANCH   1  11
BRANCH   1  18
HETATM   18  C12 UNL     1      16.565   1.196  12.405  1.00  0.00     0.016 C 
HETATM   19  C13 UNL     1      17.282  -0.101  12.499  1.00  0.00     0.082 C 
HETATM   20  C14 UNL     1      17.034  -0.713  11.138  1.00  0.00     0.238 C 
HETATM   21  N2  UNL     1      16.052   0.112  10.463  1.00  0.00    -0.070 N 
HETATM   22  C15 UNL     1      16.252   1.466  10.959  1.00  0.00     0.284 C 
ATOM     23  H22 UNL     1      16.092   0.042   9.446  1.00  0.00     0.277 HD
ATOM     24  H21 UNL     1      15.095  -0.224  10.572  1.00  0.00     0.277 HD
ENDBRANCH   1  18
TORSDOF 5
ENDMDL
