MODEL 1
REMARK VINA RESULT: -5.503094859      0.000      0.000
REMARK  6 active torsions:
REMARK  status: ('A' for Active; 'I' for Inactive)
REMARK    1  A    between atoms: S1_2  and  C2_3 
REMARK    2  A    between atoms: C2_3  and  C3_4 
REMARK    3  A    between atoms: C3_4  and  N1_5 
REMARK    4  A    between atoms: N1_5  and  C4_7 
REMARK    5  A    between atoms: C8_14  and  N3_15 
REMARK    6  A    between atoms: N3_15  and  C9_17 
ROOT
HETATM    1  C4  UNL     1      16.286   2.140  11.701  1.00  0.00     0.679 A 
HETATM    2  N2  UNL     1      16.680   3.325  11.203  1.00  0.00    -0.195 N 
ATOM      3  H2  UNL     1      16.736   3.468  10.194  1.00  0.00     0.184 HD
HETATM    4  C5  UNL     1      17.003   4.333  12.060  1.00  0.00     0.043 A 
HETATM    5  C6  UNL     1      17.439   5.650  11.527  1.00  0.00     0.070 C 
HETATM    6  C7  UNL     1      16.919   4.120  13.421  1.00  0.00     0.077 A 
HETATM    7 BR1  UNL     1      17.388   5.580  14.560  1.00  0.00    -0.045 Br
HETATM    8  C8  UNL     1      16.515   2.902  13.921  1.00  0.00     0.136 A 
HETATM    9  N4  UNL     1      16.207   1.937  13.043  1.00  0.00    -0.176 N 
ATOM     10  H4  UNL     1      15.905   1.027  13.391  1.00  0.00     0.186 HD
ENDROOT
BRANCH   1  11
HETATM   11  N1  UNL     1      15.985   1.197  10.911  1.00  0.00    -0.225 N 
ATOM     12  H1  UNL     1      15.345   1.423  10.149  1.00  0.00     0.177 HD
BRANCH  11  13
HETATM   13  C3  UNL     1      16.452  -0.153  10.981  1.00  0.00     0.148 C 
BRANCH  13  14
HETATM   14  C2  UNL     1      17.761  -0.306  10.210  1.00  0.00     0.093 C 
BRANCH  14  15
HETATM   15  S1  UNL     1      19.145   0.242  11.243  1.00  0.00    -0.172 SA
HETATM   16  C1  UNL     1      19.896   1.759  10.580  1.00  0.00     0.089 C 
ENDBRANCH  14  15
ENDBRANCH  13  14
ENDBRANCH  11  13
ENDBRANCH   1  11
BRANCH   8  17
HETATM   17  N3  UNL     1      16.436   2.694  15.163  1.00  0.00    -0.371 N 
ATOM     18  H3  UNL     1      17.253   2.957  15.714  1.00  0.00     0.161 HD
BRANCH  17  19
HETATM   19  C9  UNL     1      15.344   2.137  15.889  1.00  0.00     0.075 C 
HETATM   20  C10 UNL     1      14.395   3.178  16.441  1.00  0.00     0.031 C 
HETATM   21  C11 UNL     1      15.838   1.320  17.081  1.00  0.00     0.031 C 
ENDBRANCH  17  19
ENDBRANCH   8  17
TORSDOF 6
ENDMDL
MODEL 2
REMARK VINA RESULT: -5.489472333      1.619      1.950
REMARK  6 active torsions:
REMARK  status: ('A' for Active; 'I' for Inactive)
REMARK    1  A    between atoms: S1_2  and  C2_3 
REMARK    2  A    between atoms: C2_3  and  C3_4 
REMARK    3  A    between atoms: C3_4  and  N1_5 
REMARK    4  A    between atoms: N1_5  and  C4_7 
REMARK    5  A    between atoms: C8_14  and  N3_15 
REMARK    6  A    between atoms: N3_15  and  C9_17 
ROOT
HETATM    1  C4  UNL     1      17.963   2.158  12.793  1.00  0.00     0.679 A 
HETATM    2  N2  UNL     1      17.643   3.337  12.231  1.00  0.00    -0.195 N 
ATOM      3  H2  UNL     1      18.005   3.584  11.310  1.00  0.00     0.184 HD
HETATM    4  C5  UNL     1      16.832   4.198  12.906  1.00  0.00     0.043 A 
HETATM    5  C6  UNL     1      16.468   5.505  12.301  1.00  0.00     0.070 C 
HETATM    6  C7  UNL     1      16.353   3.844  14.151  1.00  0.00     0.077 A 
HETATM    7 BR1  UNL     1      15.220   5.102  15.037  1.00  0.00    -0.045 Br
HETATM    8  C8  UNL     1      16.687   2.634  14.718  1.00  0.00     0.136 A 
HETATM    9  N4  UNL     1      17.488   1.817  14.020  1.00  0.00    -0.176 N 
ATOM     10  H4  UNL     1      17.747   0.915  14.420  1.00  0.00     0.186 HD
ENDROOT
BRANCH   1  11
HETATM   11  N1  UNL     1      18.717   1.352  12.173  1.00  0.00    -0.225 N 
ATOM     12  H1  UNL     1      19.509   0.973  12.692  1.00  0.00     0.177 HD
BRANCH  11  13
HETATM   13  C3  UNL     1      18.571   0.921  10.817  1.00  0.00     0.148 C 
BRANCH  13  14
HETATM   14  C2  UNL     1      17.253   0.171  10.635  1.00  0.00     0.093 C 
BRANCH  14  15
HETATM   15  S1  UNL     1      17.157  -1.191  11.826  1.00  0.00    -0.172 SA
HETATM   16  C1  UNL     1      18.347  -2.503  11.417  1.00  0.00     0.089 C 
ENDBRANCH  14  15
ENDBRANCH  13  14
ENDBRANCH  11  13
ENDBRANCH   1  11
BRANCH   8  17
HETATM   17  N3  UNL     1      16.256   2.300  15.856  1.00  0.00    -0.371 N 
ATOM     18  H3  UNL     1      16.743   2.704  16.656  1.00  0.00     0.161 HD
BRANCH  17  19
HETATM   19  C9  UNL     1      15.173   1.425  16.159  1.00  0.00     0.075 C 
HETATM   20  C10 UNL     1      14.023   2.113  16.861  1.00  0.00     0.031 C 
HETATM   21  C11 UNL     1      15.626   0.289  17.073  1.00  0.00     0.031 C 
ENDBRANCH  17  19
ENDBRANCH   8  17
TORSDOF 6
ENDMDL
MODEL 3
REMARK VINA RESULT: -5.487101897      1.746      2.102
REMARK  6 active torsions:
REMARK  status: ('A' for Active; 'I' for Inactive)
REMARK    1  A    between atoms: S1_2  and  C2_3 
REMARK    2  A    between atoms: C2_3  and  C3_4 
REMARK    3  A    between atoms: C3_4  and  N1_5 
REMARK    4  A    between atoms: N1_5  and  C4_7 
REMARK    5  A    between atoms: C8_14  and  N3_15 
REMARK    6  A    between atoms: N3_15  and  C9_17 
ROOT
HETATM    1  C4  UNL     1      17.319   1.737  13.170  1.00  0.00     0.679 A 
HETATM    2  N2  UNL     1      17.377   3.006  12.730  1.00  0.00    -0.195 N 
ATOM      3  H2  UNL     1      17.953   3.247  11.924  1.00  0.00     0.184 HD
HETATM    4  C5  UNL     1      16.656   3.966  13.373  1.00  0.00     0.043 A 
HETATM    5  C6  UNL     1      16.706   5.374  12.901  1.00  0.00     0.070 C 
HETATM    6  C7  UNL     1      15.882   3.619  14.462  1.00  0.00     0.077 A 
HETATM    7 BR1  UNL     1      14.899   5.020  15.312  1.00  0.00    -0.045 Br
HETATM    8  C8  UNL     1      15.831   2.316  14.905  1.00  0.00     0.136 A 
HETATM    9  N4  UNL     1      16.555   1.403  14.244  1.00  0.00    -0.176 N 
ATOM     10  H4  UNL     1      16.532   0.431  14.554  1.00  0.00     0.186 HD
ENDROOT
BRANCH   1  11
HETATM   11  N1  UNL     1      17.987   0.838  12.579  1.00  0.00    -0.225 N 
ATOM     12  H1  UNL     1      18.305   0.053  13.148  1.00  0.00     0.177 HD
BRANCH  11  13
HETATM   13  C3  UNL     1      18.341   0.813  11.193  1.00  0.00     0.148 C 
BRANCH  13  14
HETATM   14  C2  UNL     1      19.853   0.942  11.026  1.00  0.00     0.093 C 
BRANCH  14  15
HETATM   15  S1  UNL     1      20.258   2.584  10.376  1.00  0.00    -0.172 SA
HETATM   16  C1  UNL     1      20.767   3.710  11.709  1.00  0.00     0.089 C 
ENDBRANCH  14  15
ENDBRANCH  13  14
ENDBRANCH  11  13
ENDBRANCH   1  11
BRANCH   8  17
HETATM   17  N3  UNL     1      15.128   1.987  15.900  1.00  0.00    -0.371 N 
ATOM     18  H3  UNL     1      14.119   2.089  15.789  1.00  0.00     0.161 HD
BRANCH  17  19
HETATM   19  C9  UNL     1      15.572   1.490  17.159  1.00  0.00     0.075 C 
HETATM   20  C10 UNL     1      15.337   0.006  17.337  1.00  0.00     0.031 C 
HETATM   21  C11 UNL     1      14.851   2.189  18.309  1.00  0.00     0.031 C 
ENDBRANCH  17  19
ENDBRANCH   8  17
TORSDOF 6
ENDMDL
MODEL 4
REMARK VINA RESULT: -5.478676745      2.553      5.229
REMARK  6 active torsions:
REMARK  status: ('A' for Active; 'I' for Inactive)
REMARK    1  A    between atoms: S1_2  and  C2_3 
REMARK    2  A    between atoms: C2_3  and  C3_4 
REMARK    3  A    between atoms: C3_4  and  N1_5 
REMARK    4  A    between atoms: N1_5  and  C4_7 
REMARK    5  A    between atoms: C8_14  and  N3_15 
REMARK    6  A    between atoms: N3_15  and  C9_17 
ROOT
HETATM    1  C4  UNL     1      17.694   2.022  14.943  1.00  0.00     0.679 A 
HETATM    2  N2  UNL     1      18.154   3.273  15.120  1.00  0.00    -0.195 N 
ATOM      3  H2  UNL     1      18.295   3.643  16.060  1.00  0.00     0.184 HD
HETATM    4  C5  UNL     1      18.430   4.041  14.029  1.00  0.00     0.043 A 
HETATM    5  C6  UNL     1      18.940   5.425  14.205  1.00  0.00     0.070 C 
HETATM    6  C7  UNL     1      18.233   3.521  12.766  1.00  0.00     0.077 A 
HETATM    7 BR1  UNL     1      18.642   4.657  11.285  1.00  0.00    -0.045 Br
HETATM    8  C8  UNL     1      17.761   2.238  12.596  1.00  0.00     0.136 A 
HETATM    9  N4  UNL     1      17.502   1.517  13.696  1.00  0.00    -0.176 N 
ATOM     10  H4  UNL     1      17.152   0.564  13.594  1.00  0.00     0.186 HD
ENDROOT
BRANCH   1  11
HETATM   11  N1  UNL     1      17.434   1.302  15.952  1.00  0.00    -0.225 N 
ATOM     12  H1  UNL     1      18.023   1.434  16.774  1.00  0.00     0.177 HD
BRANCH  11  13
HETATM   13  C3  UNL     1      16.397   0.322  16.054  1.00  0.00     0.148 C 
BRANCH  13  14
HETATM   14  C2  UNL     1      15.598   0.523  17.340  1.00  0.00     0.093 C 
BRANCH  14  15
HETATM   15  S1  UNL     1      14.036   1.362  16.964  1.00  0.00    -0.172 SA
HETATM   16  C1  UNL     1      14.327   3.072  16.418  1.00  0.00     0.089 C 
ENDBRANCH  14  15
ENDBRANCH  13  14
ENDBRANCH  11  13
ENDBRANCH   1  11
BRANCH   8  17
HETATM   17  N3  UNL     1      17.576   1.753  11.447  1.00  0.00    -0.371 N 
ATOM     18  H3  UNL     1      16.753   2.088  10.945  1.00  0.00     0.161 HD
BRANCH  17  19
HETATM   19  C9  UNL     1      18.376   0.791  10.764  1.00  0.00     0.075 C 
HETATM   20  C10 UNL     1      17.981  -0.639  11.059  1.00  0.00     0.031 C 
HETATM   21  C11 UNL     1      19.847   0.928  11.153  1.00  0.00     0.031 C 
ENDBRANCH  17  19
ENDBRANCH   8  17
TORSDOF 6
ENDMDL
MODEL 5
REMARK VINA RESULT: -5.440381862      2.859      5.051
REMARK  6 active torsions:
REMARK  status: ('A' for Active; 'I' for Inactive)
REMARK    1  A    between atoms: S1_2  and  C2_3 
REMARK    2  A    between atoms: C2_3  and  C3_4 
REMARK    3  A    between atoms: C3_4  and  N1_5 
REMARK    4  A    between atoms: N1_5  and  C4_7 
REMARK    5  A    between atoms: C8_14  and  N3_15 
REMARK    6  A    between atoms: N3_15  and  C9_17 
ROOT
HETATM    1  C4  UNL     1      17.009   0.661  14.852  1.00  0.00     0.679 A 
HETATM    2  N2  UNL     1      16.698   0.043  13.699  1.00  0.00    -0.195 N 
ATOM      3  H2  UNL     1      16.230  -0.863  13.710  1.00  0.00     0.184 HD
HETATM    4  C5  UNL     1      17.015   0.640  12.518  1.00  0.00     0.043 A 
HETATM    5  C6  UNL     1      16.679  -0.028  11.233  1.00  0.00     0.070 C 
HETATM    6  C7  UNL     1      17.648   1.867  12.525  1.00  0.00     0.077 A 
HETATM    7 BR1  UNL     1      18.060   2.643  10.828  1.00  0.00    -0.045 Br
HETATM    8  C8  UNL     1      17.962   2.492  13.712  1.00  0.00     0.136 A 
HETATM    9  N4  UNL     1      17.632   1.869  14.852  1.00  0.00    -0.176 N 
ATOM     10  H4  UNL     1      17.855   2.314  15.743  1.00  0.00     0.186 HD
ENDROOT
BRANCH   1  11
HETATM   11  N1  UNL     1      16.719   0.112  15.956  1.00  0.00    -0.225 N 
ATOM     12  H1  UNL     1      16.974  -0.870  16.061  1.00  0.00     0.177 HD
BRANCH  11  13
HETATM   13  C3  UNL     1      16.068   0.732  17.069  1.00  0.00     0.148 C 
BRANCH  13  14
HETATM   14  C2  UNL     1      14.591   0.968  16.760  1.00  0.00     0.093 C 
BRANCH  14  15
HETATM   15  S1  UNL     1      14.231   2.742  16.823  1.00  0.00    -0.172 SA
HETATM   16  C1  UNL     1      14.659   3.553  15.253  1.00  0.00     0.089 C 
ENDBRANCH  14  15
ENDBRANCH  13  14
ENDBRANCH  11  13
ENDBRANCH   1  11
BRANCH   8  17
HETATM   17  N3  UNL     1      18.541   3.613  13.731  1.00  0.00    -0.371 N 
ATOM     18  H3  UNL     1      19.505   3.625  13.397  1.00  0.00     0.161 HD
BRANCH  17  19
HETATM   19  C9  UNL     1      18.012   4.863  14.164  1.00  0.00     0.075 C 
HETATM   20  C10 UNL     1      16.969   5.431  13.227  1.00  0.00     0.031 C 
HETATM   21  C11 UNL     1      19.114   5.913  14.280  1.00  0.00     0.031 C 
ENDBRANCH  17  19
ENDBRANCH   8  17
TORSDOF 6
ENDMDL
