MODEL 1
REMARK VINA RESULT: -6.462580371      0.000      0.000
REMARK  4 active torsions:
REMARK  status: ('A' for Active; 'I' for Inactive)
REMARK    1  A    between atoms: C2_2  and  C3_3 
REMARK    2  A    between atoms: C3_3  and  N1_4 
REMARK    3  A    between atoms: C6_7  and  C7_8 
REMARK    4  A    between atoms: C10_17  and  O1_18 
ROOT
HETATM    1  C7  UNL     1      17.934   3.125  12.679  1.00  0.00     0.114 A 
HETATM    2  N2  UNL     1      19.275   2.931  12.701  1.00  0.00    -0.327 N 
ATOM      3  H2  UNL     1      19.699   2.640  13.582  1.00  0.00     0.169 HD
HETATM    4  C8  UNL     1      20.068   3.092  11.657  1.00  0.00     0.122 A 
HETATM    5  N3  UNL     1      21.332   2.890  11.752  1.00  0.00    -0.384 N 
ATOM      6  H31 UNL     1      21.945   3.014  10.947  1.00  0.00     0.157 HD
ATOM      7  H32 UNL     1      21.738   2.600  12.642  1.00  0.00     0.157 HD
HETATM    8  C9  UNL     1      19.519   3.484  10.452  1.00  0.00     0.105 A 
HETATM    9 BR1  UNL     1      20.680   3.706   8.957  1.00  0.00    -0.042 Br
HETATM   10  C10 UNL     1      18.171   3.691  10.386  1.00  0.00     0.165 A 
HETATM   11  N4  UNL     1      17.415   3.504  11.510  1.00  0.00    -0.321 N 
ATOM     12  H4  UNL     1      16.408   3.661  11.452  1.00  0.00     0.169 HD
ENDROOT
BRANCH   1  13
HETATM   13  C6  UNL     1      17.195   2.916  13.888  1.00  0.00    -0.014 C 
HETATM   14  C5  UNL     1      16.808   1.681  14.259  1.00  0.00     0.014 C 
HETATM   15  C4  UNL     1      16.057   1.608  15.524  1.00  0.00     0.301 C 
HETATM   16  N1  UNL     1      14.920   2.491  15.476  1.00  0.00     0.095 N 
HETATM   17  C13 UNL     1      15.261   3.827  15.050  1.00  0.00     0.277 C 
HETATM   18  C12 UNL     1      16.770   3.984  14.844  1.00  0.00     0.072 C 
BRANCH  16  19
HETATM   19  C3  UNL     1      14.196   2.499  16.738  1.00  0.00     0.299 C 
BRANCH  19  20
HETATM   20  C2  UNL     1      14.769   1.591  17.727  1.00  0.00    -0.007 C 
HETATM   21  C1  UNL     1      14.962   1.979  18.970  1.00  0.00     0.008 C 
ENDBRANCH  19  20
ENDBRANCH  16  19
ENDBRANCH   1  13
BRANCH  10  22
HETATM   22  O1  UNL     1      17.497   4.078   9.272  1.00  0.00    -0.340 OA
HETATM   23  C11 UNL     1      17.301   5.330   8.707  1.00  0.00     0.211 C 
ENDBRANCH  10  22
TORSDOF 4
ENDMDL
MODEL 2
REMARK VINA RESULT: -6.388916835      0.839      1.447
REMARK  4 active torsions:
REMARK  status: ('A' for Active; 'I' for Inactive)
REMARK    1  A    between atoms: C2_2  and  C3_3 
REMARK    2  A    between atoms: C3_3  and  N1_4 
REMARK    3  A    between atoms: C6_7  and  C7_8 
REMARK    4  A    between atoms: C10_17  and  O1_18 
ROOT
HETATM    1  C7  UNL     1      17.797   2.722  12.448  1.00  0.00     0.114 A 
HETATM    2  N2  UNL     1      19.141   2.734  12.622  1.00  0.00    -0.327 N 
ATOM      3  H2  UNL     1      19.511   2.357  13.495  1.00  0.00     0.169 HD
HETATM    4  C8  UNL     1      20.003   3.200  11.737  1.00  0.00     0.122 A 
HETATM    5  N3  UNL     1      21.265   3.180  11.972  1.00  0.00    -0.384 N 
ATOM      6  H31 UNL     1      21.931   3.540  11.288  1.00  0.00     0.157 HD
ATOM      7  H32 UNL     1      21.615   2.799  12.851  1.00  0.00     0.157 HD
HETATM    8  C9  UNL     1      19.529   3.715  10.546  1.00  0.00     0.105 A 
HETATM    9 BR1  UNL     1      20.790   4.378   9.281  1.00  0.00    -0.042 Br
HETATM   10  C10 UNL     1      18.181   3.722  10.330  1.00  0.00     0.165 A 
HETATM   11  N4  UNL     1      17.351   3.221  11.294  1.00  0.00    -0.321 N 
ATOM     12  H4  UNL     1      16.345   3.231  11.124  1.00  0.00     0.169 HD
ENDROOT
BRANCH   1  13
HETATM   13  C6  UNL     1      16.979   2.187  13.495  1.00  0.00    -0.014 C 
HETATM   14  C5  UNL     1      16.302   2.999  14.329  1.00  0.00     0.014 C 
HETATM   15  C4  UNL     1      15.498   2.318  15.358  1.00  0.00     0.301 C 
HETATM   16  N1  UNL     1      16.325   1.410  16.111  1.00  0.00     0.095 N 
HETATM   17  C13 UNL     1      17.106   0.532  15.273  1.00  0.00     0.277 C 
HETATM   18  C12 UNL     1      16.783   0.734  13.790  1.00  0.00     0.072 C 
BRANCH  16  19
HETATM   19  C3  UNL     1      15.547   0.665  17.089  1.00  0.00     0.299 C 
BRANCH  19  20
HETATM   20  C2  UNL     1      14.580   1.498  17.798  1.00  0.00    -0.007 C 
HETATM   21  C1  UNL     1      14.888   2.062  18.948  1.00  0.00     0.008 C 
ENDBRANCH  19  20
ENDBRANCH  16  19
ENDBRANCH   1  13
BRANCH  10  22
HETATM   22  O1  UNL     1      17.576   4.197   9.210  1.00  0.00    -0.340 OA
HETATM   23  C11 UNL     1      17.180   5.477   8.853  1.00  0.00     0.211 C 
ENDBRANCH  10  22
TORSDOF 4
ENDMDL
MODEL 3
REMARK VINA RESULT: -6.362735017      3.385      6.960
REMARK  4 active torsions:
REMARK  status: ('A' for Active; 'I' for Inactive)
REMARK    1  A    between atoms: C2_2  and  C3_3 
REMARK    2  A    between atoms: C3_3  and  N1_4 
REMARK    3  A    between atoms: C6_7  and  C7_8 
REMARK    4  A    between atoms: C10_17  and  O1_18 
ROOT
HETATM    1  C7  UNL     1      17.353   2.201  13.357  1.00  0.00     0.114 A 
HETATM    2  N2  UNL     1      17.455   1.004  13.985  1.00  0.00    -0.327 N 
ATOM      3  H2  UNL     1      18.136   0.335  13.626  1.00  0.00     0.169 HD
HETATM    4  C8  UNL     1      16.732   0.648  15.031  1.00  0.00     0.122 A 
HETATM    5  N3  UNL     1      16.883  -0.505  15.576  1.00  0.00    -0.384 N 
ATOM      6  H31 UNL     1      16.325  -0.781  16.383  1.00  0.00     0.157 HD
ATOM      7  H32 UNL     1      17.569  -1.161  15.201  1.00  0.00     0.157 HD
HETATM    8  C9  UNL     1      15.803   1.535  15.539  1.00  0.00     0.105 A 
HETATM    9 BR1  UNL     1      14.774   1.004  17.052  1.00  0.00    -0.042 Br
HETATM   10  C10 UNL     1      15.668   2.753  14.936  1.00  0.00     0.165 A 
HETATM   11  N4  UNL     1      16.453   3.050  13.856  1.00  0.00    -0.321 N 
ATOM     12  H4  UNL     1      16.345   3.962  13.411  1.00  0.00     0.169 HD
ENDROOT
BRANCH   1  13
HETATM   13  C6  UNL     1      18.200   2.454  12.230  1.00  0.00    -0.014 C 
HETATM   14  C5  UNL     1      18.791   1.442  11.567  1.00  0.00     0.014 C 
HETATM   15  C4  UNL     1      19.633   1.843  10.427  1.00  0.00     0.301 C 
HETATM   16  N1  UNL     1      20.621   2.800  10.854  1.00  0.00     0.095 N 
HETATM   17  C13 UNL     1      20.056   3.896  11.605  1.00  0.00     0.277 C 
HETATM   18  C12 UNL     1      18.530   3.802  11.675  1.00  0.00     0.072 C 
BRANCH  16  19
HETATM   19  C3  UNL     1      21.425   3.273   9.738  1.00  0.00     0.299 C 
BRANCH  19  20
HETATM   20  C2  UNL     1      20.647   3.457   8.516  1.00  0.00    -0.007 C 
HETATM   21  C1  UNL     1      21.235   3.487   7.338  1.00  0.00     0.008 C 
ENDBRANCH  19  20
ENDBRANCH  16  19
ENDBRANCH   1  13
BRANCH  10  22
HETATM   22  O1  UNL     1      14.798   3.721  15.324  1.00  0.00    -0.340 OA
HETATM   23  C11 UNL     1      14.842   5.101  15.195  1.00  0.00     0.211 C 
ENDBRANCH  10  22
TORSDOF 4
ENDMDL
MODEL 4
REMARK VINA RESULT: -6.308486902      1.127      1.245
REMARK  4 active torsions:
REMARK  status: ('A' for Active; 'I' for Inactive)
REMARK    1  A    between atoms: C2_2  and  C3_3 
REMARK    2  A    between atoms: C3_3  and  N1_4 
REMARK    3  A    between atoms: C6_7  and  C7_8 
REMARK    4  A    between atoms: C10_17  and  O1_18 
ROOT
HETATM    1  C7  UNL     1      17.836   2.638  12.532  1.00  0.00     0.114 A 
HETATM    2  N2  UNL     1      19.103   2.439  12.092  1.00  0.00    -0.327 N 
ATOM      3  H2  UNL     1      19.718   1.856  12.661  1.00  0.00     0.169 HD
HETATM    4  C8  UNL     1      19.593   2.947  10.976  1.00  0.00     0.122 A 
HETATM    5  N3  UNL     1      20.805   2.716  10.623  1.00  0.00    -0.384 N 
ATOM      6  H31 UNL     1      21.184   3.109   9.761  1.00  0.00     0.157 HD
ATOM      7  H32 UNL     1      21.405   2.131  11.206  1.00  0.00     0.157 HD
HETATM    8  C9  UNL     1      18.781   3.739  10.187  1.00  0.00     0.105 A 
HETATM    9 BR1  UNL     1      19.506   4.459   8.579  1.00  0.00    -0.042 Br
HETATM   10  C10 UNL     1      17.497   3.965  10.593  1.00  0.00     0.165 A 
HETATM   11  N4  UNL     1      17.062   3.403  11.761  1.00  0.00    -0.321 N 
ATOM     12  H4  UNL     1      16.101   3.578  12.057  1.00  0.00     0.169 HD
ENDROOT
BRANCH   1  13
HETATM   13  C6  UNL     1      17.438   2.025  13.764  1.00  0.00    -0.014 C 
HETATM   14  C5  UNL     1      17.099   0.724  13.813  1.00  0.00     0.014 C 
HETATM   15  C4  UNL     1      16.711   0.223  15.142  1.00  0.00     0.301 C 
HETATM   16  N1  UNL     1      15.652   1.032  15.687  1.00  0.00     0.095 N 
HETATM   17  C13 UNL     1      15.938   2.446  15.632  1.00  0.00     0.277 C 
HETATM   18  C12 UNL     1      17.343   2.715  15.087  1.00  0.00     0.072 C 
BRANCH  16  19
HETATM   19  C3  UNL     1      15.293   0.610  17.032  1.00  0.00     0.299 C 
BRANCH  19  20
HETATM   20  C2  UNL     1      14.606   1.653  17.789  1.00  0.00    -0.007 C 
HETATM   21  C1  UNL     1      14.975   1.951  19.017  1.00  0.00     0.008 C 
ENDBRANCH  19  20
ENDBRANCH  16  19
ENDBRANCH   1  13
BRANCH  10  22
HETATM   22  O1  UNL     1      16.591   4.721   9.920  1.00  0.00    -0.340 OA
HETATM   23  C11 UNL     1      16.046   5.965  10.199  1.00  0.00     0.211 C 
ENDBRANCH  10  22
TORSDOF 4
ENDMDL
MODEL 5
REMARK VINA RESULT: -6.271796195      3.771      5.692
REMARK  4 active torsions:
REMARK  status: ('A' for Active; 'I' for Inactive)
REMARK    1  A    between atoms: C2_2  and  C3_3 
REMARK    2  A    between atoms: C3_3  and  N1_4 
REMARK    3  A    between atoms: C6_7  and  C7_8 
REMARK    4  A    between atoms: C10_17  and  O1_18 
ROOT
HETATM    1  C7  UNL     1      18.267   3.068  13.260  1.00  0.00     0.114 A 
HETATM    2  N2  UNL     1      18.676   2.557  12.074  1.00  0.00    -0.327 N 
ATOM      3  H2  UNL     1      19.238   3.155  11.467  1.00  0.00     0.169 HD
HETATM    4  C8  UNL     1      18.398   1.337  11.651  1.00  0.00     0.122 A 
HETATM    5  N3  UNL     1      18.821   0.921  10.513  1.00  0.00    -0.384 N 
ATOM      6  H31 UNL     1      18.606  -0.021  10.186  1.00  0.00     0.157 HD
ATOM      7  H32 UNL     1      19.380   1.535   9.920  1.00  0.00     0.157 HD
HETATM    8  C9  UNL     1      17.641   0.506  12.454  1.00  0.00     0.105 A 
HETATM    9 BR1  UNL     1      17.255  -1.252  11.828  1.00  0.00    -0.042 Br
HETATM   10  C10 UNL     1      17.207   0.981  13.658  1.00  0.00     0.165 A 
HETATM   11  N4  UNL     1      17.536   2.256  14.027  1.00  0.00    -0.321 N 
ATOM     12  H4  UNL     1      17.208   2.603  14.928  1.00  0.00     0.169 HD
ENDROOT
BRANCH   1  13
HETATM   13  C6  UNL     1      18.640   4.410  13.590  1.00  0.00    -0.014 C 
HETATM   14  C5  UNL     1      17.778   5.237  14.210  1.00  0.00     0.014 C 
HETATM   15  C4  UNL     1      18.290   6.589  14.492  1.00  0.00     0.301 C 
HETATM   16  N1  UNL     1      18.776   7.196  13.279  1.00  0.00     0.095 N 
HETATM   17  C13 UNL     1      19.682   6.345  12.545  1.00  0.00     0.277 C 
HETATM   18  C12 UNL     1      19.963   5.042  13.298  1.00  0.00     0.072 C 
BRANCH  16  19
HETATM   19  C3  UNL     1      19.358   8.505  13.533  1.00  0.00     0.299 C 
BRANCH  19  20
HETATM   20  C2  UNL     1      19.538   8.780  14.956  1.00  0.00    -0.007 C 
HETATM   21  C1  UNL     1      20.684   9.235  15.416  1.00  0.00     0.008 C 
ENDBRANCH  19  20
ENDBRANCH  16  19
ENDBRANCH   1  13
BRANCH  10  22
HETATM   22  O1  UNL     1      16.457   0.279  14.546  1.00  0.00    -0.340 OA
HETATM   23  C11 UNL     1      16.131   0.527  15.871  1.00  0.00     0.211 C 
ENDBRANCH  10  22
TORSDOF 4
ENDMDL
