MODEL 1
REMARK VINA RESULT: -7.389021995      0.000      0.000
REMARK  5 active torsions:
REMARK  status: ('A' for Active; 'I' for Inactive)
REMARK       I    between atoms: N1_2  and  C2_4 
REMARK    1  A    between atoms: C2_4  and  C3_6 
REMARK    2  A    between atoms: C3_6  and  S1_7 
REMARK    3  A    between atoms: S1_7  and  C4_8 
REMARK    4  A    between atoms: C4_8  and  C5_9 
REMARK    5  A    between atoms: C7_12  and  O3_13 
ROOT
HETATM    1  C3  UNL     1      16.881   2.220  14.806  1.00  0.00     0.090 C 
HETATM    2  C10 UNL     1      15.589   3.014  14.638  1.00  0.00     0.030 C 
HETATM    3  C11 UNL     1      15.752   4.360  14.051  1.00  0.00     0.002 C 
HETATM    4  C12 UNL     1      16.877   5.180  14.676  1.00  0.00     0.000 C 
HETATM    5  C13 UNL     1      18.116   4.366  14.268  1.00  0.00     0.002 C 
HETATM    6  C14 UNL     1      18.082   3.123  15.084  1.00  0.00     0.030 C 
ENDROOT
BRANCH   1   7
HETATM    7  C2  UNL     1      16.668   1.518  16.131  1.00  0.00     0.236 C 
HETATM    8  N1  UNL     1      15.541   1.942  16.917  1.00  0.00    -0.364 N 
HETATM    9  C1  UNL     1      15.211   1.332  18.185  1.00  0.00     0.149 C 
ATOM     10  H1  UNL     1      14.954   2.699  16.568  1.00  0.00     0.161 HD
HETATM   11  O1  UNL     1      17.384   0.618  16.576  1.00  0.00    -0.272 OA
ENDBRANCH   1   7
BRANCH   1  12
HETATM   12  S1  UNL     1      17.209   1.084  13.572  1.00  0.00    -0.126 SA
BRANCH  12  13
HETATM   13  C4  UNL     1      17.324   1.253  11.869  1.00  0.00     0.120 A 
HETATM   14  C7  UNL     1      18.586   0.965  11.082  1.00  0.00     0.171 A 
HETATM   15  C8  UNL     1      17.443   0.039  10.980  1.00  0.00     0.087 A 
HETATM   16  C9  UNL     1      16.633   0.013   9.703  1.00  0.00     0.037 C 
HETATM   17 CL1  UNL     1      17.743  -1.550  11.664  1.00  0.00    -0.115 Cl
BRANCH  13  18
HETATM   18  C5  UNL     1      16.512   2.349  11.229  1.00  0.00     0.146 C 
HETATM   19  C6  UNL     1      16.809   3.601  10.627  1.00  0.00     0.093 C 
HETATM   20  O2  UNL     1      15.267   2.043  11.274  1.00  0.00    -0.296 OA
ENDBRANCH  13  18
BRANCH  14  21
HETATM   21  O3  UNL     1      19.746   0.546  11.708  1.00  0.00    -0.391 OA
ATOM     22  H3  UNL     1      20.438   1.158  11.928  1.00  0.00     0.210 HD
ENDBRANCH  14  21
ENDBRANCH  12  13
ENDBRANCH   1  12
TORSDOF 5
ENDMDL
MODEL 2
REMARK VINA RESULT: -7.383174596      2.189      3.684
REMARK  5 active torsions:
REMARK  status: ('A' for Active; 'I' for Inactive)
REMARK       I    between atoms: N1_2  and  C2_4 
REMARK    1  A    between atoms: C2_4  and  C3_6 
REMARK    2  A    between atoms: C3_6  and  S1_7 
REMARK    3  A    between atoms: S1_7  and  C4_8 
REMARK    4  A    between atoms: C4_8  and  C5_9 
REMARK    5  A    between atoms: C7_12  and  O3_13 
ROOT
HETATM    1  C3  UNL     1      16.532   2.557  14.910  1.00  0.00     0.090 C 
HETATM    2  C10 UNL     1      17.163   1.485  15.794  1.00  0.00     0.030 C 
HETATM    3  C11 UNL     1      16.229   0.797  16.709  1.00  0.00     0.002 C 
HETATM    4  C12 UNL     1      15.307   1.737  17.480  1.00  0.00     0.000 C 
HETATM    5  C13 UNL     1      14.456   2.333  16.346  1.00  0.00     0.002 C 
HETATM    6  C14 UNL     1      15.354   3.250  15.595  1.00  0.00     0.030 C 
ENDROOT
BRANCH   1   7
HETATM    7  C2  UNL     1      17.595   3.635  14.885  1.00  0.00     0.236 C 
HETATM    8  N1  UNL     1      17.174   4.954  14.499  1.00  0.00    -0.364 N 
HETATM    9  C1  UNL     1      18.085   6.075  14.464  1.00  0.00     0.149 C 
ATOM     10  H1  UNL     1      16.199   5.104  14.240  1.00  0.00     0.161 HD
HETATM   11  O1  UNL     1      18.782   3.461  15.172  1.00  0.00    -0.272 OA
ENDBRANCH   1   7
BRANCH   1  12
HETATM   12  S1  UNL     1      16.144   2.061  13.321  1.00  0.00    -0.126 SA
BRANCH  12  13
HETATM   13  C4  UNL     1      17.015   1.130  12.174  1.00  0.00     0.120 A 
HETATM   14  C7  UNL     1      17.125   1.495  10.707  1.00  0.00     0.171 A 
HETATM   15  C8  UNL     1      18.304   1.646  11.580  1.00  0.00     0.087 A 
HETATM   16  C9  UNL     1      19.455   0.676  11.431  1.00  0.00     0.037 C 
HETATM   17 CL1  UNL     1      18.806   3.311  11.830  1.00  0.00    -0.115 Cl
BRANCH  13  18
HETATM   18  C5  UNL     1      17.040  -0.363  12.374  1.00  0.00     0.146 C 
HETATM   19  C6  UNL     1      17.357  -1.483  11.558  1.00  0.00     0.093 C 
HETATM   20  O2  UNL     1      16.666  -0.643  13.568  1.00  0.00    -0.296 OA
ENDBRANCH  13  18
BRANCH  14  21
HETATM   21  O3  UNL     1      16.509   2.624  10.198  1.00  0.00    -0.391 OA
ATOM     22  H3  UNL     1      16.778   3.003   9.369  1.00  0.00     0.210 HD
ENDBRANCH  14  21
ENDBRANCH  12  13
ENDBRANCH   1  12
TORSDOF 5
ENDMDL
MODEL 3
REMARK VINA RESULT: -7.028451875      1.784      2.467
REMARK  5 active torsions:
REMARK  status: ('A' for Active; 'I' for Inactive)
REMARK       I    between atoms: N1_2  and  C2_4 
REMARK    1  A    between atoms: C2_4  and  C3_6 
REMARK    2  A    between atoms: C3_6  and  S1_7 
REMARK    3  A    between atoms: S1_7  and  C4_8 
REMARK    4  A    between atoms: C4_8  and  C5_9 
REMARK    5  A    between atoms: C7_12  and  O3_13 
ROOT
HETATM    1  C3  UNL     1      16.540   2.754  14.638  1.00  0.00     0.090 C 
HETATM    2  C10 UNL     1      15.493   3.704  15.214  1.00  0.00     0.030 C 
HETATM    3  C11 UNL     1      15.708   5.134  14.910  1.00  0.00     0.002 C 
HETATM    4  C12 UNL     1      17.138   5.612  15.145  1.00  0.00     0.000 C 
HETATM    5  C13 UNL     1      17.910   4.812  14.082  1.00  0.00     0.002 C 
HETATM    6  C14 UNL     1      17.922   3.402  14.553  1.00  0.00     0.030 C 
ENDROOT
BRANCH   1   7
HETATM    7  C2  UNL     1      16.707   1.735  15.746  1.00  0.00     0.236 C 
HETATM    8  N1  UNL     1      15.505   1.165  16.290  1.00  0.00    -0.364 N 
HETATM    9  C1  UNL     1      15.530   0.161  17.330  1.00  0.00     0.149 C 
ATOM     10  H1  UNL     1      14.604   1.479  15.931  1.00  0.00     0.161 HD
HETATM   11  O1  UNL     1      17.790   1.365  16.206  1.00  0.00    -0.272 OA
ENDBRANCH   1   7
BRANCH   1  12
HETATM   12  S1  UNL     1      16.105   1.984  13.176  1.00  0.00    -0.126 SA
BRANCH  12  13
HETATM   13  C4  UNL     1      16.961   0.896  12.163  1.00  0.00     0.120 A 
HETATM   14  C7  UNL     1      17.028   1.031  10.655  1.00  0.00     0.171 A 
HETATM   15  C8  UNL     1      18.227   1.329  11.462  1.00  0.00     0.087 A 
HETATM   16  C9  UNL     1      19.388   0.360  11.433  1.00  0.00     0.037 C 
HETATM   17 CL1  UNL     1      18.708   3.018  11.438  1.00  0.00    -0.115 Cl
BRANCH  13  18
HETATM   18  C5  UNL     1      17.014  -0.548  12.591  1.00  0.00     0.146 C 
HETATM   19  C6  UNL     1      17.377  -1.771  11.964  1.00  0.00     0.093 C 
HETATM   20  O2  UNL     1      16.616  -0.651  13.805  1.00  0.00    -0.296 OA
ENDBRANCH  13  18
BRANCH  14  21
HETATM   21  O3  UNL     1      16.382   2.060   9.995  1.00  0.00    -0.391 OA
ATOM     22  H3  UNL     1      16.728   2.425   9.188  1.00  0.00     0.210 HD
ENDBRANCH  14  21
ENDBRANCH  12  13
ENDBRANCH   1  12
TORSDOF 5
ENDMDL
MODEL 4
REMARK VINA RESULT: -6.736097536      1.398      2.761
REMARK  5 active torsions:
REMARK  status: ('A' for Active; 'I' for Inactive)
REMARK       I    between atoms: N1_2  and  C2_4 
REMARK    1  A    between atoms: C2_4  and  C3_6 
REMARK    2  A    between atoms: C3_6  and  S1_7 
REMARK    3  A    between atoms: S1_7  and  C4_8 
REMARK    4  A    between atoms: C4_8  and  C5_9 
REMARK    5  A    between atoms: C7_12  and  O3_13 
ROOT
HETATM    1  C3  UNL     1      16.903   2.209  14.909  1.00  0.00     0.090 C 
HETATM    2  C10 UNL     1      17.184   1.700  16.320  1.00  0.00     0.030 C 
HETATM    3  C11 UNL     1      15.993   1.265  17.079  1.00  0.00     0.002 C 
HETATM    4  C12 UNL     1      14.825   2.246  17.021  1.00  0.00     0.000 C 
HETATM    5  C13 UNL     1      14.447   2.188  15.531  1.00  0.00     0.002 C 
HETATM    6  C14 UNL     1      15.538   2.887  14.801  1.00  0.00     0.030 C 
ENDROOT
BRANCH   1   7
HETATM    7  C2  UNL     1      17.871   3.366  14.775  1.00  0.00     0.236 C 
HETATM    8  N1  UNL     1      17.346   4.593  14.240  1.00  0.00    -0.364 N 
HETATM    9  C1  UNL     1      18.159   5.779  14.089  1.00  0.00     0.149 C 
ATOM     10  H1  UNL     1      16.367   4.627  13.955  1.00  0.00     0.161 HD
HETATM   11  O1  UNL     1      19.062   3.330  15.092  1.00  0.00    -0.272 OA
ENDBRANCH   1   7
BRANCH   1  12
HETATM   12  S1  UNL     1      17.152   1.072  13.657  1.00  0.00    -0.126 SA
BRANCH  12  13
HETATM   13  C4  UNL     1      17.288   1.260  11.958  1.00  0.00     0.120 A 
HETATM   14  C7  UNL     1      18.562   0.987  11.184  1.00  0.00     0.171 A 
HETATM   15  C8  UNL     1      17.426   0.056  11.057  1.00  0.00     0.087 A 
HETATM   16  C9  UNL     1      16.632   0.039   9.770  1.00  0.00     0.037 C 
HETATM   17 CL1  UNL     1      17.725  -1.539  11.729  1.00  0.00    -0.115 Cl
BRANCH  13  18
HETATM   18  C5  UNL     1      16.479   2.358  11.319  1.00  0.00     0.146 C 
HETATM   19  C6  UNL     1      16.773   3.635  10.767  1.00  0.00     0.093 C 
HETATM   20  O2  UNL     1      15.241   2.026  11.304  1.00  0.00    -0.296 OA
ENDBRANCH  13  18
BRANCH  14  21
HETATM   21  O3  UNL     1      19.716   0.567  11.821  1.00  0.00    -0.391 OA
ATOM     22  H3  UNL     1      20.066  -0.306  11.686  1.00  0.00     0.210 HD
ENDBRANCH  14  21
ENDBRANCH  12  13
ENDBRANCH   1  12
TORSDOF 5
ENDMDL
MODEL 5
REMARK VINA RESULT: -6.710303821      2.972      4.538
REMARK  5 active torsions:
REMARK  status: ('A' for Active; 'I' for Inactive)
REMARK       I    between atoms: N1_2  and  C2_4 
REMARK    1  A    between atoms: C2_4  and  C3_6 
REMARK    2  A    between atoms: C3_6  and  S1_7 
REMARK    3  A    between atoms: S1_7  and  C4_8 
REMARK    4  A    between atoms: C4_8  and  C5_9 
REMARK    5  A    between atoms: C7_12  and  O3_13 
ROOT
HETATM    1  C3  UNL     1      16.684   2.331  13.732  1.00  0.00     0.090 C 
HETATM    2  C10 UNL     1      15.341   2.933  14.136  1.00  0.00     0.030 C 
HETATM    3  C11 UNL     1      15.121   3.056  15.592  1.00  0.00     0.002 C 
HETATM    4  C12 UNL     1      15.472   1.799  16.383  1.00  0.00     0.000 C 
HETATM    5  C13 UNL     1      16.992   1.714  16.171  1.00  0.00     0.002 C 
HETATM    6  C14 UNL     1      17.190   1.312  14.753  1.00  0.00     0.030 C 
ENDROOT
BRANCH   1   7
HETATM    7  C2  UNL     1      16.316   1.469  12.543  1.00  0.00     0.236 C 
HETATM    8  N1  UNL     1      17.005   0.214  12.412  1.00  0.00    -0.364 N 
HETATM    9  C1  UNL     1      16.725  -0.712  11.339  1.00  0.00     0.149 C 
ATOM     10  H1  UNL     1      17.716  -0.032  13.101  1.00  0.00     0.161 HD
HETATM   11  O1  UNL     1      15.477   1.766  11.690  1.00  0.00    -0.272 OA
ENDBRANCH   1   7
BRANCH   1  12
HETATM   12  S1  UNL     1      17.894   3.459  13.304  1.00  0.00    -0.126 SA
BRANCH  12  13
HETATM   13  C4  UNL     1      18.512   3.943  11.779  1.00  0.00     0.120 A 
HETATM   14  C7  UNL     1      17.640   4.419  10.634  1.00  0.00     0.171 A 
HETATM   15  C8  UNL     1      18.478   5.393  11.358  1.00  0.00     0.087 A 
HETATM   16  C9  UNL     1      19.700   5.961  10.672  1.00  0.00     0.037 C 
HETATM   17 CL1  UNL     1      17.567   6.576  12.283  1.00  0.00    -0.115 Cl
BRANCH  13  18
HETATM   18  C5  UNL     1      19.744   3.235  11.278  1.00  0.00     0.146 C 
HETATM   19  C6  UNL     1      20.122   2.616  10.055  1.00  0.00     0.093 C 
HETATM   20  O2  UNL     1      20.623   3.191  12.210  1.00  0.00    -0.296 OA
ENDBRANCH  13  18
BRANCH  14  21
HETATM   21  O3  UNL     1      16.264   4.484  10.755  1.00  0.00    -0.391 OA
ATOM     22  H3  UNL     1      15.849   5.083  11.365  1.00  0.00     0.210 HD
ENDBRANCH  14  21
ENDBRANCH  12  13
ENDBRANCH   1  12
TORSDOF 5
ENDMDL
