MODEL 1
REMARK VINA RESULT: -6.616431381      0.000      0.000
REMARK  4 active torsions:
REMARK  status: ('A' for Active; 'I' for Inactive)
REMARK    1  A    between atoms: C2_2  and  N1_4 
REMARK    2  A    between atoms: C6_10  and  C7_11 
REMARK    3  A    between atoms: C7_11  and  O1_12 
REMARK    4  A    between atoms: O1_12  and  C8_13 
ROOT
HETATM    1  N1  UNL     1      15.772   1.926  16.367  1.00  0.00    -0.366 N 
HETATM    2  C4  UNL     1      16.472   0.714  16.389  1.00  0.00     0.091 C 
HETATM    3  C5  UNL     1      16.979   0.238  15.051  1.00  0.00     0.278 C 
HETATM    4  N2  UNL     1      17.448   1.329  14.223  1.00  0.00    -0.060 N 
ATOM      5  H21 UNL     1      17.850   1.009  13.342  1.00  0.00     0.278 HD
ATOM      6  H22 UNL     1      18.282   1.779  14.599  1.00  0.00     0.278 HD
HETATM    7  C6  UNL     1      16.362   2.242  14.035  1.00  0.00     0.248 C 
HETATM    8  C11 UNL     1      16.081   2.891  15.387  1.00  0.00     0.098 C 
ENDROOT
BRANCH   7   9
HETATM    9  C7  UNL     1      16.700   3.379  13.103  1.00  0.00     0.216 C 
BRANCH   9  10
HETATM   10  O1  UNL     1      16.426   3.129  11.760  1.00  0.00    -0.331 OA
BRANCH  10  11
HETATM   11  C8  UNL     1      16.720   1.875  11.247  1.00  0.00     0.178 A 
HETATM   12  N3  UNL     1      15.817   0.898  10.956  1.00  0.00    -0.331 N 
HETATM   13  C9  UNL     1      16.453  -0.189  10.475  1.00  0.00     0.183 A 
ATOM     14  H3  UNL     1      14.809   0.976  11.083  1.00  0.00     0.168 HD
HETATM   15  N4  UNL     1      17.764   0.094  10.459  1.00  0.00    -0.343 N 
HETATM   16  C10 UNL     1      17.943   1.345  10.925  1.00  0.00     0.132 A 
ATOM     17  H4  UNL     1      18.504  -0.535  10.145  1.00  0.00     0.167 HD
HETATM   18 BR1  UNL     1      19.616   2.278  11.123  1.00  0.00    -0.027 Br
ENDBRANCH  10  11
ENDBRANCH   9  10
ENDBRANCH   7   9
BRANCH   1  19
HETATM   19  C2  UNL     1      14.566   2.055  17.079  1.00  0.00     0.080 C 
HETATM   20  C1  UNL     1      14.832   2.126  18.578  1.00  0.00     0.032 C 
HETATM   21  C3  UNL     1      13.554   0.980  16.850  1.00  0.00     0.032 C 
ENDBRANCH   1  19
TORSDOF 4
ENDMDL
MODEL 2
REMARK VINA RESULT: -6.571534843      1.531      2.184
REMARK  4 active torsions:
REMARK  status: ('A' for Active; 'I' for Inactive)
REMARK    1  A    between atoms: C2_2  and  N1_4 
REMARK    2  A    between atoms: C6_10  and  C7_11 
REMARK    3  A    between atoms: C7_11  and  O1_12 
REMARK    4  A    between atoms: O1_12  and  C8_13 
ROOT
HETATM    1  N1  UNL     1      15.244   2.295  16.234  1.00  0.00    -0.366 N 
HETATM    2  C4  UNL     1      14.406   3.416  16.266  1.00  0.00     0.091 C 
HETATM    3  C5  UNL     1      14.896   4.608  15.484  1.00  0.00     0.278 C 
HETATM    4  N2  UNL     1      15.546   4.225  14.249  1.00  0.00    -0.060 N 
ATOM      5  H21 UNL     1      15.824   5.028  13.685  1.00  0.00     0.278 HD
ATOM      6  H22 UNL     1      14.903   3.803  13.579  1.00  0.00     0.278 HD
HETATM    7  C6  UNL     1      16.647   3.370  14.573  1.00  0.00     0.248 C 
HETATM    8  C11 UNL     1      16.062   2.067  15.109  1.00  0.00     0.098 C 
ENDROOT
BRANCH   7   9
HETATM    9  C7  UNL     1      17.467   2.980  13.369  1.00  0.00     0.216 C 
BRANCH   9  10
HETATM   10  O1  UNL     1      18.017   1.701  13.430  1.00  0.00    -0.331 OA
BRANCH  10  11
HETATM   11  C8  UNL     1      17.802   0.837  12.367  1.00  0.00     0.178 A 
HETATM   12  N3  UNL     1      16.812  -0.093  12.278  1.00  0.00    -0.331 N 
HETATM   13  C9  UNL     1      16.904  -0.755  11.109  1.00  0.00     0.183 A 
ATOM     14  H3  UNL     1      16.105  -0.264  12.993  1.00  0.00     0.168 HD
HETATM   15  N4  UNL     1      17.955  -0.247  10.448  1.00  0.00    -0.343 N 
HETATM   16  C10 UNL     1      18.512   0.722  11.199  1.00  0.00     0.132 A 
ATOM     17  H4  UNL     1      18.279  -0.546   9.528  1.00  0.00     0.167 HD
HETATM   18 BR1  UNL     1      20.047   1.795  10.752  1.00  0.00    -0.027 Br
ENDBRANCH  10  11
ENDBRANCH   9  10
ENDBRANCH   7   9
BRANCH   1  19
HETATM   19  C2  UNL     1      15.525   1.593  17.421  1.00  0.00     0.080 C 
HETATM   20  C1  UNL     1      15.179   0.118  17.267  1.00  0.00     0.032 C 
HETATM   21  C3  UNL     1      14.840   2.092  18.652  1.00  0.00     0.032 C 
ENDBRANCH   1  19
TORSDOF 4
ENDMDL
MODEL 3
REMARK VINA RESULT: -6.463952863      1.991      2.708
REMARK  4 active torsions:
REMARK  status: ('A' for Active; 'I' for Inactive)
REMARK    1  A    between atoms: C2_2  and  N1_4 
REMARK    2  A    between atoms: C6_10  and  C7_11 
REMARK    3  A    between atoms: C7_11  and  O1_12 
REMARK    4  A    between atoms: O1_12  and  C8_13 
ROOT
HETATM    1  N1  UNL     1      15.673   2.217  16.014  1.00  0.00    -0.366 N 
HETATM    2  C4  UNL     1      14.576   3.029  15.705  1.00  0.00     0.091 C 
HETATM    3  C5  UNL     1      14.916   4.368  15.101  1.00  0.00     0.278 C 
HETATM    4  N2  UNL     1      16.038   4.291  14.190  1.00  0.00    -0.060 N 
ATOM      5  H21 UNL     1      16.234   5.180  13.730  1.00  0.00     0.278 HD
ATOM      6  H22 UNL     1      15.830   3.746  13.353  1.00  0.00     0.278 HD
HETATM    7  C6  UNL     1      17.163   3.784  14.914  1.00  0.00     0.248 C 
HETATM    8  C11 UNL     1      16.859   2.330  15.259  1.00  0.00     0.098 C 
ENDROOT
BRANCH   7   9
HETATM    9  C7  UNL     1      18.428   3.749  14.093  1.00  0.00     0.216 C 
BRANCH   9  10
HETATM   10  O1  UNL     1      18.225   3.741  12.715  1.00  0.00    -0.331 OA
BRANCH  10  11
HETATM   11  C8  UNL     1      18.688   2.658  11.984  1.00  0.00     0.178 A 
HETATM   12  N3  UNL     1      19.993   2.360  11.733  1.00  0.00    -0.331 N 
HETATM   13  C9  UNL     1      20.076   1.237  10.992  1.00  0.00     0.183 A 
ATOM     14  H3  UNL     1      20.790   2.905  12.058  1.00  0.00     0.168 HD
HETATM   15  N4  UNL     1      18.822   0.817  10.769  1.00  0.00    -0.343 N 
HETATM   16  C10 UNL     1      17.966   1.669  11.365  1.00  0.00     0.132 A 
ATOM     17  H4  UNL     1      18.559  -0.012  10.235  1.00  0.00     0.167 HD
HETATM   18 BR1  UNL     1      16.044   1.561  11.377  1.00  0.00    -0.027 Br
ENDBRANCH  10  11
ENDBRANCH   9  10
ENDBRANCH   7   9
BRANCH   1  19
HETATM   19  C2  UNL     1      15.726   1.546  17.250  1.00  0.00     0.080 C 
HETATM   20  C1  UNL     1      15.302   0.092  17.089  1.00  0.00     0.032 C 
HETATM   21  C3  UNL     1      14.905   2.138  18.349  1.00  0.00     0.032 C 
ENDBRANCH   1  19
TORSDOF 4
ENDMDL
MODEL 4
REMARK VINA RESULT: -6.443228312      1.470      1.708
REMARK  4 active torsions:
REMARK  status: ('A' for Active; 'I' for Inactive)
REMARK    1  A    between atoms: C2_2  and  N1_4 
REMARK    2  A    between atoms: C6_10  and  C7_11 
REMARK    3  A    between atoms: C7_11  and  O1_12 
REMARK    4  A    between atoms: O1_12  and  C8_13 
ROOT
HETATM    1  N1  UNL     1      15.758   2.044  16.445  1.00  0.00    -0.366 N 
HETATM    2  C4  UNL     1      16.620   0.953  16.600  1.00  0.00     0.091 C 
HETATM    3  C5  UNL     1      17.185   0.391  15.320  1.00  0.00     0.278 C 
HETATM    4  N2  UNL     1      17.495   1.425  14.356  1.00  0.00    -0.060 N 
ATOM      5  H21 UNL     1      17.935   1.058  13.513  1.00  0.00     0.278 HD
ATOM      6  H22 UNL     1      18.258   2.030  14.658  1.00  0.00     0.278 HD
HETATM    7  C6  UNL     1      16.291   2.149  14.081  1.00  0.00     0.248 C 
HETATM    8  C11 UNL     1      15.926   2.915  15.348  1.00  0.00     0.098 C 
ENDROOT
BRANCH   7   9
HETATM    9  C7  UNL     1      16.464   3.198  13.010  1.00  0.00     0.216 C 
BRANCH   9  10
HETATM   10  O1  UNL     1      16.461   2.704  11.707  1.00  0.00    -0.331 OA
BRANCH  10  11
HETATM   11  C8  UNL     1      17.659   2.268  11.162  1.00  0.00     0.178 A 
HETATM   12  N3  UNL     1      18.679   3.062  10.734  1.00  0.00    -0.331 N 
HETATM   13  C9  UNL     1      19.687   2.303  10.262  1.00  0.00     0.183 A 
ATOM     14  H3  UNL     1      18.680   4.081  10.764  1.00  0.00     0.168 HD
HETATM   15  N4  UNL     1      19.311   1.022  10.390  1.00  0.00    -0.343 N 
HETATM   16  C10 UNL     1      18.081   0.983  10.936  1.00  0.00     0.132 A 
ATOM     17  H4  UNL     1      19.866   0.210  10.118  1.00  0.00     0.167 HD
HETATM   18 BR1  UNL     1      17.046  -0.587  11.349  1.00  0.00    -0.027 Br
ENDBRANCH  10  11
ENDBRANCH   9  10
ENDBRANCH   7   9
BRANCH   1  19
HETATM   19  C2  UNL     1      14.547   2.092  17.160  1.00  0.00     0.080 C 
HETATM   20  C1  UNL     1      14.810   2.084  18.661  1.00  0.00     0.032 C 
HETATM   21  C3  UNL     1      13.572   0.999  16.866  1.00  0.00     0.032 C 
ENDBRANCH   1  19
TORSDOF 4
ENDMDL
MODEL 5
REMARK VINA RESULT: -6.391899981      2.258      5.642
REMARK  4 active torsions:
REMARK  status: ('A' for Active; 'I' for Inactive)
REMARK    1  A    between atoms: C2_2  and  N1_4 
REMARK    2  A    between atoms: C6_10  and  C7_11 
REMARK    3  A    between atoms: C7_11  and  O1_12 
REMARK    4  A    between atoms: O1_12  and  C8_13 
ROOT
HETATM    1  N1  UNL     1      18.602   0.528  11.496  1.00  0.00    -0.366 N 
HETATM    2  C4  UNL     1      19.843   0.990  11.044  1.00  0.00     0.091 C 
HETATM    3  C5  UNL     1      20.025   2.486  11.083  1.00  0.00     0.278 C 
HETATM    4  N2  UNL     1      19.412   3.084  12.249  1.00  0.00    -0.060 N 
ATOM      5  H21 UNL     1      19.585   4.087  12.315  1.00  0.00     0.278 HD
ATOM      6  H22 UNL     1      19.867   2.809  13.119  1.00  0.00     0.278 HD
HETATM    7  C6  UNL     1      18.017   2.764  12.230  1.00  0.00     0.248 C 
HETATM    8  C11 UNL     1      17.896   1.263  12.470  1.00  0.00     0.098 C 
ENDROOT
BRANCH   7   9
HETATM    9  C7  UNL     1      17.245   3.417  13.350  1.00  0.00     0.216 C 
BRANCH   9  10
HETATM   10  O1  UNL     1      15.954   2.925  13.529  1.00  0.00    -0.331 OA
BRANCH  10  11
HETATM   11  C8  UNL     1      15.435   2.880  14.813  1.00  0.00     0.178 A 
HETATM   12  N3  UNL     1      14.617   3.809  15.379  1.00  0.00    -0.331 N 
HETATM   13  C9  UNL     1      14.307   3.445  16.639  1.00  0.00     0.183 A 
ATOM     14  H3  UNL     1      14.287   4.657  14.918  1.00  0.00     0.168 HD
HETATM   15  N4  UNL     1      14.929   2.281  16.879  1.00  0.00    -0.343 N 
HETATM   16  C10 UNL     1      15.619   1.923  15.779  1.00  0.00     0.132 A 
ATOM     17  H4  UNL     1      14.886   1.753  17.751  1.00  0.00     0.167 HD
HETATM   18 BR1  UNL     1      16.695   0.344  15.550  1.00  0.00    -0.027 Br
ENDBRANCH  10  11
ENDBRANCH   9  10
ENDBRANCH   7   9
BRANCH   1  19
HETATM   19  C2  UNL     1      17.909  -0.457  10.766  1.00  0.00     0.080 C 
HETATM   20  C1  UNL     1      16.430  -0.105  10.661  1.00  0.00     0.032 C 
HETATM   21  C3  UNL     1      18.007  -1.850  11.296  1.00  0.00     0.032 C 
ENDBRANCH   1  19
TORSDOF 4
ENDMDL
