MODEL 1
REMARK VINA RESULT: -6.325558982      0.000      0.000
REMARK  5 active torsions:
REMARK  status: ('A' for Active; 'I' for Inactive)
REMARK    1  A    between atoms: C4_4  and  N1_5 
REMARK    2  A    between atoms: N1_5  and  C5_7 
REMARK    3  A    between atoms: C5_7  and  C6_8 
REMARK    4  A    between atoms: C6_8  and  N2_9 
REMARK    5  A    between atoms: C11_18  and  C12_19 
ROOT
HETATM    1  C1  UNL     1      16.042   0.584  10.815  1.00  0.00     0.068 C 
HETATM    2  C2  UNL     1      16.952   1.378  11.680  1.00  0.00     0.010 A 
HETATM    3  C3  UNL     1      18.228   1.593  11.199  1.00  0.00     0.072 A 
HETATM    4  C4  UNL     1      19.108   2.329  11.976  1.00  0.00     0.104 A 
HETATM    5  N4  UNL     1      18.708   2.813  13.167  1.00  0.00    -0.332 N 
ATOM      6  H4  UNL     1      19.369   3.353  13.725  1.00  0.00     0.168 HD
HETATM    7  C11 UNL     1      17.448   2.606  13.651  1.00  0.00     0.087 A 
HETATM    8  N5  UNL     1      16.630   1.887  12.864  1.00  0.00    -0.349 N 
ATOM      9  H5  UNL     1      15.683   1.718  13.204  1.00  0.00     0.167 HD
ENDROOT
BRANCH   4  10
HETATM   10  N1  UNL     1      20.321   2.586  11.621  1.00  0.00    -0.371 N 
ATOM     11  H1  UNL     1      20.912   1.803  11.339  1.00  0.00     0.161 HD
BRANCH  10  12
HETATM   12  C5  UNL     1      20.893   3.905  11.599  1.00  0.00     0.166 C 
BRANCH  12  13
HETATM   13  C6  UNL     1      20.275   4.694  10.493  1.00  0.00     0.082 C 
BRANCH  13  14
HETATM   14  N2  UNL     1      19.363   5.695  10.858  1.00  0.00    -0.369 N 
HETATM   15  C7  UNL     1      19.310   6.129  12.194  1.00  0.00     0.082 C 
HETATM   16  C8  UNL     1      17.982   6.597  12.681  1.00  0.00     0.158 C 
HETATM   17  N3  UNL     1      16.841   6.080  12.014  1.00  0.00    -0.415 N 
HETATM   18  C9  UNL     1      17.069   5.186  10.934  1.00  0.00     0.134 C 
ATOM     19  H3  UNL     1      15.896   6.340  12.299  1.00  0.00     0.153 HD
HETATM   20  C10 UNL     1      18.178   5.807  10.074  1.00  0.00     0.146 C 
ENDBRANCH  13  14
ENDBRANCH  12  13
ENDBRANCH  10  12
ENDBRANCH   4  10
BRANCH   7  21
HETATM   21  C12 UNL     1      17.031   3.147  14.948  1.00  0.00     0.057 C 
HETATM   22  C13 UNL     1      15.807   4.026  14.825  1.00  0.00     0.013 C 
HETATM   23  C14 UNL     1      14.653   3.214  15.379  1.00  0.00     0.001 C 
HETATM   24  C15 UNL     1      15.248   2.133  16.241  1.00  0.00     0.005 C 
HETATM   25  C16 UNL     1      16.732   2.130  16.003  1.00  0.00    -0.007 C 
HETATM   26  C17 UNL     1      17.241   0.758  15.749  1.00  0.00     0.011 C 
ENDBRANCH   7  21
TORSDOF 5
ENDMDL
MODEL 2
REMARK VINA RESULT: -6.194739221      2.201      3.468
REMARK  5 active torsions:
REMARK  status: ('A' for Active; 'I' for Inactive)
REMARK    1  A    between atoms: C4_4  and  N1_5 
REMARK    2  A    between atoms: N1_5  and  C5_7 
REMARK    3  A    between atoms: C5_7  and  C6_8 
REMARK    4  A    between atoms: C6_8  and  N2_9 
REMARK    5  A    between atoms: C11_18  and  C12_19 
ROOT
HETATM    1  C1  UNL     1      16.084   0.603  10.829  1.00  0.00     0.068 C 
HETATM    2  C2  UNL     1      16.994   1.399  11.691  1.00  0.00     0.010 A 
HETATM    3  C3  UNL     1      18.268   1.619  11.208  1.00  0.00     0.072 A 
HETATM    4  C4  UNL     1      19.146   2.359  11.983  1.00  0.00     0.104 A 
HETATM    5  N4  UNL     1      18.748   2.841  13.174  1.00  0.00    -0.332 N 
ATOM      6  H4  UNL     1      19.408   3.383  13.732  1.00  0.00     0.168 HD
HETATM    7  C11 UNL     1      17.490   2.629  13.661  1.00  0.00     0.087 A 
HETATM    8  N5  UNL     1      16.672   1.907  12.876  1.00  0.00    -0.349 N 
ATOM      9  H5  UNL     1      15.727   1.735  13.218  1.00  0.00     0.167 HD
ENDROOT
BRANCH   4  10
HETATM   10  N1  UNL     1      20.358   2.620  11.625  1.00  0.00    -0.371 N 
ATOM     11  H1  UNL     1      21.099   2.003  11.960  1.00  0.00     0.161 HD
BRANCH  10  12
HETATM   12  C5  UNL     1      20.730   3.726  10.785  1.00  0.00     0.166 C 
BRANCH  12  13
HETATM   13  C6  UNL     1      21.759   4.553  11.482  1.00  0.00     0.082 C 
BRANCH  13  14
HETATM   14  N2  UNL     1      23.104   4.265  11.200  1.00  0.00    -0.369 N 
HETATM   15  C7  UNL     1      24.118   4.947  11.893  1.00  0.00     0.082 C 
HETATM   16  C8  UNL     1      25.390   5.166  11.151  1.00  0.00     0.158 C 
HETATM   17  N3  UNL     1      25.306   5.187   9.734  1.00  0.00    -0.415 N 
HETATM   18  C9  UNL     1      24.025   4.977   9.157  1.00  0.00     0.134 C 
ATOM     19  H3  UNL     1      26.131   5.347   9.156  1.00  0.00     0.153 HD
HETATM   20  C10 UNL     1      23.400   3.783   9.891  1.00  0.00     0.146 C 
ENDBRANCH  13  14
ENDBRANCH  12  13
ENDBRANCH  10  12
ENDBRANCH   4  10
BRANCH   7  21
HETATM   21  C12 UNL     1      17.073   3.168  14.960  1.00  0.00     0.057 C 
HETATM   22  C13 UNL     1      15.857   4.058  14.837  1.00  0.00     0.013 C 
HETATM   23  C14 UNL     1      14.695   3.253  15.384  1.00  0.00     0.001 C 
HETATM   24  C15 UNL     1      15.279   2.164  16.244  1.00  0.00     0.005 C 
HETATM   25  C16 UNL     1      16.763   2.150  16.010  1.00  0.00    -0.007 C 
HETATM   26  C17 UNL     1      17.262   0.774  15.752  1.00  0.00     0.011 C 
ENDBRANCH   7  21
TORSDOF 5
ENDMDL
MODEL 3
REMARK VINA RESULT: -6.171786387      1.885      2.747
REMARK  5 active torsions:
REMARK  status: ('A' for Active; 'I' for Inactive)
REMARK    1  A    between atoms: C4_4  and  N1_5 
REMARK    2  A    between atoms: N1_5  and  C5_7 
REMARK    3  A    between atoms: C5_7  and  C6_8 
REMARK    4  A    between atoms: C6_8  and  N2_9 
REMARK    5  A    between atoms: C11_18  and  C12_19 
ROOT
HETATM    1  C1  UNL     1      16.015   0.585  10.828  1.00  0.00     0.068 C 
HETATM    2  C2  UNL     1      16.924   1.385  11.688  1.00  0.00     0.010 A 
HETATM    3  C3  UNL     1      18.195   1.613  11.198  1.00  0.00     0.072 A 
HETATM    4  C4  UNL     1      19.073   2.356  11.970  1.00  0.00     0.104 A 
HETATM    5  N4  UNL     1      18.678   2.834  13.165  1.00  0.00    -0.332 N 
ATOM      6  H4  UNL     1      19.337   3.378  13.720  1.00  0.00     0.168 HD
HETATM    7  C11 UNL     1      17.423   2.613  13.658  1.00  0.00     0.087 A 
HETATM    8  N5  UNL     1      16.606   1.888  12.875  1.00  0.00    -0.349 N 
ATOM      9  H5  UNL     1      15.663   1.709  13.222  1.00  0.00     0.167 HD
ENDROOT
BRANCH   4  10
HETATM   10  N1  UNL     1      20.281   2.626  11.607  1.00  0.00    -0.371 N 
ATOM     11  H1  UNL     1      20.934   2.946  12.322  1.00  0.00     0.161 HD
BRANCH  10  12
HETATM   12  C5  UNL     1      20.764   2.503  10.259  1.00  0.00     0.166 C 
BRANCH  12  13
HETATM   13  C6  UNL     1      20.878   3.861   9.649  1.00  0.00     0.082 C 
BRANCH  13  14
HETATM   14  N2  UNL     1      21.996   4.628  10.010  1.00  0.00    -0.369 N 
HETATM   15  C7  UNL     1      23.224   3.990  10.254  1.00  0.00     0.082 C 
HETATM   16  C8  UNL     1      24.116   4.641  11.254  1.00  0.00     0.158 C 
HETATM   17  N3  UNL     1      23.490   5.460  12.229  1.00  0.00    -0.415 N 
HETATM   18  C9  UNL     1      22.079   5.602  12.148  1.00  0.00     0.134 C 
ATOM     19  H3  UNL     1      24.031   5.928  12.956  1.00  0.00     0.153 HD
HETATM   20  C10 UNL     1      21.744   5.864  10.673  1.00  0.00     0.146 C 
ENDBRANCH  13  14
ENDBRANCH  12  13
ENDBRANCH  10  12
ENDBRANCH   4  10
BRANCH   7  21
HETATM   21  C12 UNL     1      17.010   3.147  14.960  1.00  0.00     0.057 C 
HETATM   22  C13 UNL     1      15.774   4.010  14.849  1.00  0.00     0.013 C 
HETATM   23  C14 UNL     1      14.636   3.182  15.412  1.00  0.00     0.001 C 
HETATM   24  C15 UNL     1      15.252   2.108  16.267  1.00  0.00     0.005 C 
HETATM   25  C16 UNL     1      16.733   2.125  16.016  1.00  0.00    -0.007 C 
HETATM   26  C17 UNL     1      17.259   0.759  15.756  1.00  0.00     0.011 C 
ENDBRANCH   7  21
TORSDOF 5
ENDMDL
MODEL 4
REMARK VINA RESULT: -6.092791786      1.134      1.444
REMARK  5 active torsions:
REMARK  status: ('A' for Active; 'I' for Inactive)
REMARK    1  A    between atoms: C4_4  and  N1_5 
REMARK    2  A    between atoms: N1_5  and  C5_7 
REMARK    3  A    between atoms: C5_7  and  C6_8 
REMARK    4  A    between atoms: C6_8  and  N2_9 
REMARK    5  A    between atoms: C11_18  and  C12_19 
ROOT
HETATM    1  C1  UNL     1      16.107   0.621  10.894  1.00  0.00     0.068 C 
HETATM    2  C2  UNL     1      16.956   1.451  11.786  1.00  0.00     0.010 A 
HETATM    3  C3  UNL     1      18.207   1.788  11.308  1.00  0.00     0.072 A 
HETATM    4  C4  UNL     1      19.030   2.562  12.110  1.00  0.00     0.104 A 
HETATM    5  N4  UNL     1      18.602   2.965  13.321  1.00  0.00    -0.332 N 
ATOM      6  H4  UNL     1      19.221   3.534  13.898  1.00  0.00     0.168 HD
HETATM    7  C11 UNL     1      17.367   2.636  13.802  1.00  0.00     0.087 A 
HETATM    8  N5  UNL     1      16.603   1.885  12.991  1.00  0.00    -0.349 N 
ATOM      9  H5  UNL     1      15.676   1.626  13.328  1.00  0.00     0.167 HD
ENDROOT
BRANCH   4  10
HETATM   10  N1  UNL     1      20.216   2.931  11.760  1.00  0.00    -0.371 N 
ATOM     11  H1  UNL     1      20.815   2.243  11.303  1.00  0.00     0.161 HD
BRANCH  10  12
HETATM   12  C5  UNL     1      20.746   4.250  11.974  1.00  0.00     0.166 C 
BRANCH  12  13
HETATM   13  C6  UNL     1      19.888   5.248  11.270  1.00  0.00     0.082 C 
BRANCH  13  14
HETATM   14  N2  UNL     1      19.636   6.455  11.940  1.00  0.00    -0.369 N 
HETATM   15  C7  UNL     1      20.674   7.082  12.652  1.00  0.00     0.082 C 
HETATM   16  C8  UNL     1      20.267   7.872  13.847  1.00  0.00     0.158 C 
HETATM   17  N3  UNL     1      19.047   7.503  14.470  1.00  0.00    -0.415 N 
HETATM   18  C9  UNL     1      18.317   6.434  13.886  1.00  0.00     0.134 C 
ATOM     19  H3  UNL     1      18.708   7.986  15.302  1.00  0.00     0.153 HD
HETATM   20  C10 UNL     1      18.298   6.686  12.372  1.00  0.00     0.146 C 
ENDBRANCH  13  14
ENDBRANCH  12  13
ENDBRANCH  10  12
ENDBRANCH   4  10
BRANCH   7  21
HETATM   21  C12 UNL     1      16.917   3.089  15.122  1.00  0.00     0.057 C 
HETATM   22  C13 UNL     1      15.652   3.911  15.036  1.00  0.00     0.013 C 
HETATM   23  C14 UNL     1      14.537   3.016  15.539  1.00  0.00     0.001 C 
HETATM   24  C15 UNL     1      15.181   1.924  16.350  1.00  0.00     0.005 C 
HETATM   25  C16 UNL     1      16.664   2.006  16.122  1.00  0.00    -0.007 C 
HETATM   26  C17 UNL     1      17.243   0.676  15.803  1.00  0.00     0.011 C 
ENDBRANCH   7  21
TORSDOF 5
ENDMDL
MODEL 5
REMARK VINA RESULT: -6.081421517      1.812      4.025
REMARK  5 active torsions:
REMARK  status: ('A' for Active; 'I' for Inactive)
REMARK    1  A    between atoms: C4_4  and  N1_5 
REMARK    2  A    between atoms: N1_5  and  C5_7 
REMARK    3  A    between atoms: C5_7  and  C6_8 
REMARK    4  A    between atoms: C6_8  and  N2_9 
REMARK    5  A    between atoms: C11_18  and  C12_19 
ROOT
HETATM    1  C1  UNL     1      18.283   7.058  15.074  1.00  0.00     0.068 C 
HETATM    2  C2  UNL     1      18.249   5.656  14.585  1.00  0.00     0.010 A 
HETATM    3  C3  UNL     1      19.357   5.218  13.889  1.00  0.00     0.072 A 
HETATM    4  C4  UNL     1      19.364   3.916  13.416  1.00  0.00     0.104 A 
HETATM    5  N4  UNL     1      18.306   3.114  13.640  1.00  0.00    -0.332 N 
ATOM      6  H4  UNL     1      18.328   2.159  13.285  1.00  0.00     0.168 HD
HETATM    7  C11 UNL     1      17.205   3.539  14.327  1.00  0.00     0.087 A 
HETATM    8  N5  UNL     1      17.242   4.808  14.767  1.00  0.00    -0.349 N 
ATOM      9  H5  UNL     1      16.431   5.148  15.283  1.00  0.00     0.167 HD
ENDROOT
BRANCH   4  10
HETATM   10  N1  UNL     1      20.348   3.408  12.754  1.00  0.00    -0.371 N 
ATOM     11  H1  UNL     1      21.206   3.195  13.262  1.00  0.00     0.161 HD
BRANCH  10  12
HETATM   12  C5  UNL     1      20.310   3.125  11.345  1.00  0.00     0.166 C 
BRANCH  12  13
HETATM   13  C6  UNL     1      20.107   1.660  11.139  1.00  0.00     0.082 C 
BRANCH  13  14
HETATM   14  N2  UNL     1      18.835   1.248  10.716  1.00  0.00    -0.369 N 
HETATM   15  C7  UNL     1      17.798   2.191  10.620  1.00  0.00     0.082 C 
HETATM   16  C8  UNL     1      16.421   1.681  10.869  1.00  0.00     0.158 C 
HETATM   17  N3  UNL     1      16.307   0.522  11.679  1.00  0.00    -0.415 N 
HETATM   18  C9  UNL     1      17.512  -0.057  12.157  1.00  0.00     0.134 C 
ATOM     19  H3  UNL     1      15.397   0.121  11.908  1.00  0.00     0.153 HD
HETATM   20  C10 UNL     1      18.480  -0.110  10.967  1.00  0.00     0.146 C 
ENDBRANCH  13  14
ENDBRANCH  12  13
ENDBRANCH  10  12
ENDBRANCH   4  10
BRANCH   7  21
HETATM   21  C12 UNL     1      16.065   2.648  14.566  1.00  0.00     0.057 C 
HETATM   22  C13 UNL     1      16.427   1.498  15.477  1.00  0.00     0.013 C 
HETATM   23  C14 UNL     1      15.796   1.813  16.818  1.00  0.00     0.001 C 
HETATM   24  C15 UNL     1      14.707   2.821  16.567  1.00  0.00     0.005 C 
HETATM   25  C16 UNL     1      14.852   3.299  15.150  1.00  0.00    -0.007 C 
HETATM   26  C17 UNL     1      14.803   4.782  15.067  1.00  0.00     0.011 C 
ENDBRANCH   7  21
TORSDOF 5
ENDMDL
