MODEL 1
REMARK VINA RESULT: -6.602721296      0.000      0.000
REMARK  5 active torsions:
REMARK  status: ('A' for Active; 'I' for Inactive)
REMARK    1  A    between atoms: N1_2  and  C2_4 
REMARK    2  A    between atoms: C5_9  and  C6_10 
REMARK    3  A    between atoms: C6_10  and  N3_11 
REMARK    4  A    between atoms: N3_11  and  C7_14 
REMARK    5  A    between atoms: C7_14  and  C8_15 
ROOT
HETATM    1  C2  UNL     1      19.789   2.626  10.159  1.00  0.00     0.678 A 
HETATM    2  N2  UNL     1      19.480   1.328  10.300  1.00  0.00    -0.195 N 
ATOM      3  H2  UNL     1      19.915   0.661   9.663  1.00  0.00     0.184 HD
HETATM    4  C3  UNL     1      18.642   0.855  11.220  1.00  0.00     0.033 A 
HETATM    5  C4  UNL     1      18.335  -0.607  11.339  1.00  0.00     0.069 C 
HETATM    6  C5  UNL     1      18.048   1.786  12.091  1.00  0.00     0.025 A 
HETATM    7  C12 UNL     1      18.339   3.122  11.979  1.00  0.00     0.105 A 
HETATM    8 BR1  UNL     1      17.619   4.452  13.155  1.00  0.00    -0.030 Br
HETATM    9  N4  UNL     1      19.211   3.486  11.002  1.00  0.00    -0.185 N 
ATOM     10  H4  UNL     1      19.437   4.476  10.906  1.00  0.00     0.185 HD
ENDROOT
BRANCH   6  11
HETATM   11  C6  UNL     1      17.147   1.229  13.084  1.00  0.00     0.275 C 
BRANCH  11  12
HETATM   12  N3  UNL     1      17.585   1.234  14.450  1.00  0.00    -0.069 N 
ATOM     13  H32 UNL     1      18.582   1.050  14.552  1.00  0.00     0.277 HD
ATOM     14  H31 UNL     1      17.582   2.164  14.869  1.00  0.00     0.277 HD
BRANCH  12  15
HETATM   15  C7  UNL     1      16.740   0.269  15.173  1.00  0.00     0.264 C 
BRANCH  15  16
HETATM   16  C8  UNL     1      15.832   0.876  16.166  1.00  0.00     0.147 C 
HETATM   17  C9  UNL     1      15.351   2.260  15.909  1.00  0.00     0.036 C 
HETATM   18  C10 UNL     1      14.214   2.376  16.940  1.00  0.00     0.029 C 
HETATM   19  C11 UNL     1      14.048   0.929  17.372  1.00  0.00     0.168 C 
HETATM   20  O1  UNL     1      14.626   0.177  16.317  1.00  0.00    -0.384 OA
ENDBRANCH  15  16
ENDBRANCH  12  15
ENDBRANCH  11  12
ENDBRANCH   6  11
BRANCH   1  21
HETATM   21  N1  UNL     1      20.603   3.038   9.235  1.00  0.00    -0.230 N 
HETATM   22  C1  UNL     1      21.884   3.555   9.694  1.00  0.00     0.165 C 
ATOM     23  H1  UNL     1      20.359   3.002   8.246  1.00  0.00     0.177 HD
ENDBRANCH   1  21
TORSDOF 5
ENDMDL
MODEL 2
REMARK VINA RESULT: -6.550720089      1.650      2.262
REMARK  5 active torsions:
REMARK  status: ('A' for Active; 'I' for Inactive)
REMARK    1  A    between atoms: N1_2  and  C2_4 
REMARK    2  A    between atoms: C5_9  and  C6_10 
REMARK    3  A    between atoms: C6_10  and  N3_11 
REMARK    4  A    between atoms: N3_11  and  C7_14 
REMARK    5  A    between atoms: C7_14  and  C8_15 
ROOT
HETATM    1  C2  UNL     1      20.183   2.363  11.134  1.00  0.00     0.678 A 
HETATM    2  N2  UNL     1      19.538   3.175  11.987  1.00  0.00    -0.195 N 
ATOM      3  H2  UNL     1      19.912   4.113  12.130  1.00  0.00     0.184 HD
HETATM    4  C3  UNL     1      18.440   2.832  12.659  1.00  0.00     0.033 A 
HETATM    5  C4  UNL     1      17.755   3.779  13.597  1.00  0.00     0.069 C 
HETATM    6  C5  UNL     1      17.938   1.535  12.453  1.00  0.00     0.025 A 
HETATM    7  C12 UNL     1      18.568   0.677  11.589  1.00  0.00     0.105 A 
HETATM    8 BR1  UNL     1      17.924  -1.087  11.208  1.00  0.00    -0.030 Br
HETATM    9  N4  UNL     1      19.680   1.139  10.959  1.00  0.00    -0.185 N 
ATOM     10  H4  UNL     1      20.160   0.513  10.313  1.00  0.00     0.185 HD
ENDROOT
BRANCH   6  11
HETATM   11  C6  UNL     1      16.736   1.204  13.199  1.00  0.00     0.275 C 
BRANCH  11  12
HETATM   12  N3  UNL     1      16.834   0.159  14.177  1.00  0.00    -0.069 N 
ATOM     13  H32 UNL     1      15.997  -0.421  14.230  1.00  0.00     0.277 HD
ATOM     14  H31 UNL     1      17.486  -0.579  13.914  1.00  0.00     0.277 HD
BRANCH  12  15
HETATM   15  C7  UNL     1      17.174   0.804  15.457  1.00  0.00     0.264 C 
BRANCH  15  16
HETATM   16  C8  UNL     1      16.013   1.106  16.316  1.00  0.00     0.147 C 
HETATM   17  C9  UNL     1      15.282   2.378  16.069  1.00  0.00     0.036 C 
HETATM   18  C10 UNL     1      14.003   2.151  16.894  1.00  0.00     0.029 C 
HETATM   19  C11 UNL     1      14.097   0.666  17.198  1.00  0.00     0.168 C 
HETATM   20  O1  UNL     1      14.983   0.160  16.212  1.00  0.00    -0.384 OA
ENDBRANCH  15  16
ENDBRANCH  12  15
ENDBRANCH  11  12
ENDBRANCH   6  11
BRANCH   1  21
HETATM   21  N1  UNL     1      21.258   2.742  10.513  1.00  0.00    -0.230 N 
HETATM   22  C1  UNL     1      21.987   3.851  11.111  1.00  0.00     0.165 C 
ATOM     23  H1  UNL     1      21.574   2.288   9.657  1.00  0.00     0.177 HD
ENDBRANCH   1  21
TORSDOF 5
ENDMDL
MODEL 3
REMARK VINA RESULT: -6.338699058      3.052      7.335
REMARK  5 active torsions:
REMARK  status: ('A' for Active; 'I' for Inactive)
REMARK    1  A    between atoms: N1_2  and  C2_4 
REMARK    2  A    between atoms: C5_9  and  C6_10 
REMARK    3  A    between atoms: C6_10  and  N3_11 
REMARK    4  A    between atoms: N3_11  and  C7_14 
REMARK    5  A    between atoms: C7_14  and  C8_15 
ROOT
HETATM    1  C2  UNL     1      16.492   0.739  15.745  1.00  0.00     0.678 A 
HETATM    2  N2  UNL     1      16.899   2.018  15.709  1.00  0.00    -0.195 N 
ATOM      3  H2  UNL     1      16.834   2.564  16.568  1.00  0.00     0.184 HD
HETATM    4  C3  UNL     1      17.381   2.618  14.623  1.00  0.00     0.033 A 
HETATM    5  C4  UNL     1      17.827   4.049  14.638  1.00  0.00     0.069 C 
HETATM    6  C5  UNL     1      17.463   1.853  13.446  1.00  0.00     0.025 A 
HETATM    7  C12 UNL     1      17.058   0.542  13.443  1.00  0.00     0.105 A 
HETATM    8 BR1  UNL     1      17.183  -0.588  11.902  1.00  0.00    -0.030 Br
HETATM    9  N4  UNL     1      16.584   0.038  14.613  1.00  0.00    -0.185 N 
ATOM     10  H4  UNL     1      16.280  -0.935  14.626  1.00  0.00     0.185 HD
ENDROOT
BRANCH   6  11
HETATM   11  C6  UNL     1      18.001   2.543  12.287  1.00  0.00     0.275 C 
BRANCH  11  12
HETATM   12  N3  UNL     1      19.409   2.418  12.040  1.00  0.00    -0.069 N 
ATOM     13  H32 UNL     1      19.929   3.270  12.247  1.00  0.00     0.277 HD
ATOM     14  H31 UNL     1      19.882   1.812  12.710  1.00  0.00     0.277 HD
BRANCH  12  15
HETATM   15  C7  UNL     1      19.559   1.971  10.645  1.00  0.00     0.264 C 
BRANCH  15  16
HETATM   16  C8  UNL     1      20.271   2.924   9.772  1.00  0.00     0.147 C 
HETATM   17  C9  UNL     1      21.666   3.288  10.136  1.00  0.00     0.036 C 
HETATM   18  C10 UNL     1      22.138   3.985   8.848  1.00  0.00     0.029 C 
HETATM   19  C11 UNL     1      21.035   3.605   7.876  1.00  0.00     0.168 C 
HETATM   20  O1  UNL     1      20.430   2.461   8.458  1.00  0.00    -0.384 OA
ENDBRANCH  15  16
ENDBRANCH  12  15
ENDBRANCH  11  12
ENDBRANCH   6  11
BRANCH   1  21
HETATM   21  N1  UNL     1      16.016   0.204  16.828  1.00  0.00    -0.230 N 
HETATM   22  C1  UNL     1      14.666   0.599  17.198  1.00  0.00     0.165 C 
ATOM     23  H1  UNL     1      16.558  -0.454  17.387  1.00  0.00     0.177 HD
ENDBRANCH   1  21
TORSDOF 5
ENDMDL
MODEL 4
REMARK VINA RESULT: -6.326533853      1.645      2.357
REMARK  5 active torsions:
REMARK  status: ('A' for Active; 'I' for Inactive)
REMARK    1  A    between atoms: N1_2  and  C2_4 
REMARK    2  A    between atoms: C5_9  and  C6_10 
REMARK    3  A    between atoms: C6_10  and  N3_11 
REMARK    4  A    between atoms: N3_11  and  C7_14 
REMARK    5  A    between atoms: C7_14  and  C8_15 
ROOT
HETATM    1  C2  UNL     1      20.209   2.932  10.390  1.00  0.00     0.678 A 
HETATM    2  N2  UNL     1      19.753   3.849  11.257  1.00  0.00    -0.195 N 
ATOM      3  H2  UNL     1      20.152   4.787  11.216  1.00  0.00     0.184 HD
HETATM    4  C3  UNL     1      18.812   3.612  12.169  1.00  0.00     0.033 A 
HETATM    5  C4  UNL     1      18.334   4.674  13.112  1.00  0.00     0.069 C 
HETATM    6  C5  UNL     1      18.272   2.315  12.216  1.00  0.00     0.025 A 
HETATM    7  C12 UNL     1      18.711   1.350  11.345  1.00  0.00     0.105 A 
HETATM    8 BR1  UNL     1      17.994  -0.426  11.302  1.00  0.00    -0.030 Br
HETATM    9  N4  UNL     1      19.675   1.710  10.457  1.00  0.00    -0.185 N 
ATOM     10  H4  UNL     1      20.011   1.004   9.803  1.00  0.00     0.185 HD
ENDROOT
BRANCH   6  11
HETATM   11  C6  UNL     1      17.243   2.100  13.219  1.00  0.00     0.275 C 
BRANCH  11  12
HETATM   12  N3  UNL     1      17.612   1.365  14.394  1.00  0.00    -0.069 N 
ATOM     13  H32 UNL     1      17.168   0.448  14.450  1.00  0.00     0.277 HD
ATOM     14  H31 UNL     1      18.578   1.040  14.379  1.00  0.00     0.277 HD
BRANCH  12  15
HETATM   15  C7  UNL     1      17.308   2.227  15.549  1.00  0.00     0.264 C 
BRANCH  15  16
HETATM   16  C8  UNL     1      16.299   1.675  16.474  1.00  0.00     0.147 C 
HETATM   17  C9  UNL     1      14.870   1.991  16.209  1.00  0.00     0.036 C 
HETATM   18  C10 UNL     1      14.166   0.989  17.140  1.00  0.00     0.029 C 
HETATM   19  C11 UNL     1      15.314   0.072  17.524  1.00  0.00     0.168 C 
HETATM   20  O1  UNL     1      16.281   0.273  16.506  1.00  0.00    -0.384 OA
ENDBRANCH  15  16
ENDBRANCH  12  15
ENDBRANCH  11  12
ENDBRANCH   6  11
BRANCH   1  21
HETATM   21  N1  UNL     1      21.139   3.210   9.528  1.00  0.00    -0.230 N 
HETATM   22  C1  UNL     1      20.695   3.468   8.166  1.00  0.00     0.165 C 
ATOM     23  H1  UNL     1      22.123   3.247   9.790  1.00  0.00     0.177 HD
ENDBRANCH   1  21
TORSDOF 5
ENDMDL
MODEL 5
REMARK VINA RESULT: -6.279269536      2.760      7.053
REMARK  5 active torsions:
REMARK  status: ('A' for Active; 'I' for Inactive)
REMARK    1  A    between atoms: N1_2  and  C2_4 
REMARK    2  A    between atoms: C5_9  and  C6_10 
REMARK    3  A    between atoms: C6_10  and  N3_11 
REMARK    4  A    between atoms: N3_11  and  C7_14 
REMARK    5  A    between atoms: C7_14  and  C8_15 
ROOT
HETATM    1  C2  UNL     1      16.448   0.717  15.660  1.00  0.00     0.678 A 
HETATM    2  N2  UNL     1      16.601  -0.010  14.542  1.00  0.00    -0.195 N 
ATOM      3  H2  UNL     1      16.342  -0.996  14.575  1.00  0.00     0.184 HD
HETATM    4  C3  UNL     1      17.070   0.474  13.394  1.00  0.00     0.033 A 
HETATM    5  C4  UNL     1      17.217  -0.382  12.173  1.00  0.00     0.069 C 
HETATM    6  C5  UNL     1      17.425   1.834  13.365  1.00  0.00     0.025 A 
HETATM    7  C12 UNL     1      17.282   2.611  14.486  1.00  0.00     0.105 A 
HETATM    8 BR1  UNL     1      17.689   4.483  14.521  1.00  0.00    -0.030 Br
HETATM    9  N4  UNL     1      16.791   2.006  15.600  1.00  0.00    -0.185 N 
ATOM     10  H4  UNL     1      16.679   2.572  16.441  1.00  0.00     0.185 HD
ENDROOT
BRANCH   6  11
HETATM   11  C6  UNL     1      17.925   2.324  12.092  1.00  0.00     0.275 C 
BRANCH  11  12
HETATM   12  N3  UNL     1      19.345   2.475  11.956  1.00  0.00    -0.069 N 
ATOM     13  H32 UNL     1      19.662   3.434  12.095  1.00  0.00     0.277 HD
ATOM     14  H31 UNL     1      19.870   2.053  12.722  1.00  0.00     0.277 HD
BRANCH  12  15
HETATM   15  C7  UNL     1      19.707   1.931  10.636  1.00  0.00     0.264 C 
BRANCH  15  16
HETATM   16  C8  UNL     1      20.337   2.906   9.725  1.00  0.00     0.147 C 
HETATM   17  C9  UNL     1      21.728   3.338  10.028  1.00  0.00     0.036 C 
HETATM   18  C10 UNL     1      22.114   4.041   8.715  1.00  0.00     0.029 C 
HETATM   19  C11 UNL     1      20.990   3.601   7.793  1.00  0.00     0.168 C 
HETATM   20  O1  UNL     1      20.463   2.437   8.410  1.00  0.00    -0.384 OA
ENDBRANCH  15  16
ENDBRANCH  12  15
ENDBRANCH  11  12
ENDBRANCH   6  11
BRANCH   1  21
HETATM   21  N1  UNL     1      15.998   0.194  16.759  1.00  0.00    -0.230 N 
HETATM   22  C1  UNL     1      14.672   0.622  17.177  1.00  0.00     0.165 C 
ATOM     23  H1  UNL     1      16.543  -0.478  17.298  1.00  0.00     0.177 HD
ENDBRANCH   1  21
TORSDOF 5
ENDMDL
