MODEL 1
REMARK VINA RESULT: -6.962146516      0.000      0.000
REMARK  4 active torsions:
REMARK  status: ('A' for Active; 'I' for Inactive)
REMARK    1  A    between atoms: C2_2  and  C3_3 
REMARK    2  A    between atoms: C3_3  and  C4_4 
REMARK    3  A    between atoms: C4_4  and  C8_14 
REMARK    4  A    between atoms: C5_5  and  C6_6 
ROOT
HETATM    1  C4  UNL     1       5.725  -4.588  16.638  1.00  0.00    -0.070 C 
HETATM    2  C5  UNL     1       5.360  -5.137  15.507  1.00  0.00     0.042 C 
ENDROOT
BRANCH   2   3
HETATM    3  C6  UNL     1       3.978  -5.185  14.972  1.00  0.00     0.091 A 
HETATM    4  N1  UNL     1       2.936  -5.918  15.251  1.00  0.00    -0.292 N 
HETATM    5  N2  UNL     1       1.836  -5.780  14.642  1.00  0.00    -0.284 N 
ATOM      6  H1  UNL     1       3.011  -6.626  15.982  1.00  0.00     0.187 HD
HETATM    7  C7  UNL     1       1.747  -4.851  13.685  1.00  0.00     0.159 A 
ATOM      8  H2  UNL     1       1.034  -6.364  14.876  1.00  0.00     0.188 HD
HETATM    9  S1  UNL     1       0.430  -4.481  12.752  1.00  0.00    -0.051 SA
HETATM   10  S2  UNL     1       3.322  -4.187  13.705  1.00  0.00    -0.040 SA
ENDBRANCH   2   3
BRANCH   1  11
HETATM   11  C3  UNL     1       4.716  -3.970  17.459  1.00  0.00     0.034 C 
BRANCH  11  12
HETATM   12  C2  UNL     1       4.567  -2.490  17.432  1.00  0.00    -0.000 C 
HETATM   13  C1  UNL     1       4.474  -2.030  18.885  1.00  0.00     0.005 C 
ENDBRANCH  11  12
ENDBRANCH   1  11
BRANCH   1  14
HETATM   14  C8  UNL     1       7.174  -4.676  16.952  1.00  0.00    -0.028 C 
HETATM   15  C9  UNL     1       7.493  -4.527  18.411  1.00  0.00     0.019 C 
HETATM   16  C10 UNL     1       7.884  -5.858  16.412  1.00  0.00     0.019 C 
HETATM   17  C11 UNL     1       7.830  -3.451  16.287  1.00  0.00     0.019 C 
ENDBRANCH   1  14
TORSDOF 4
ENDMDL
MODEL 2
REMARK VINA RESULT: -6.944322146      0.358      1.217
REMARK  4 active torsions:
REMARK  status: ('A' for Active; 'I' for Inactive)
REMARK    1  A    between atoms: C2_2  and  C3_3 
REMARK    2  A    between atoms: C3_3  and  C4_4 
REMARK    3  A    between atoms: C4_4  and  C8_14 
REMARK    4  A    between atoms: C5_5  and  C6_6 
ROOT
HETATM    1  C4  UNL     1       5.670  -4.443  16.732  1.00  0.00    -0.070 C 
HETATM    2  C5  UNL     1       5.349  -4.996  15.590  1.00  0.00     0.042 C 
ENDROOT
BRANCH   2   3
HETATM    3  C6  UNL     1       3.980  -5.102  15.031  1.00  0.00     0.091 A 
HETATM    4  N1  UNL     1       2.981  -5.907  15.261  1.00  0.00    -0.292 N 
HETATM    5  N2  UNL     1       1.883  -5.807  14.641  1.00  0.00    -0.284 N 
ATOM      6  H1  UNL     1       3.087  -6.641  15.962  1.00  0.00     0.187 HD
HETATM    7  C7  UNL     1       1.751  -4.844  13.724  1.00  0.00     0.159 A 
ATOM      8  H2  UNL     1       1.114  -6.448  14.837  1.00  0.00     0.188 HD
HETATM    9  S1  UNL     1       0.427  -4.512  12.787  1.00  0.00    -0.051 SA
HETATM   10  S2  UNL     1       3.283  -4.089  13.798  1.00  0.00    -0.040 SA
ENDBRANCH   2   3
BRANCH   1  11
HETATM   11  C3  UNL     1       4.621  -3.882  17.543  1.00  0.00     0.034 C 
BRANCH  11  12
HETATM   12  C2  UNL     1       4.682  -2.441  17.911  1.00  0.00    -0.000 C 
HETATM   13  C1  UNL     1       4.233  -1.654  16.682  1.00  0.00     0.005 C 
ENDBRANCH  11  12
ENDBRANCH   1  11
BRANCH   1  14
HETATM   14  C8  UNL     1       7.117  -4.467  17.070  1.00  0.00    -0.028 C 
HETATM   15  C9  UNL     1       7.901  -3.333  16.477  1.00  0.00     0.019 C 
HETATM   16  C10 UNL     1       7.445  -4.593  18.507  1.00  0.00     0.019 C 
HETATM   17  C11 UNL     1       7.691  -5.727  16.394  1.00  0.00     0.019 C 
ENDBRANCH   1  14
TORSDOF 4
ENDMDL
MODEL 3
REMARK VINA RESULT: -6.578900401      1.341      1.667
REMARK  4 active torsions:
REMARK  status: ('A' for Active; 'I' for Inactive)
REMARK    1  A    between atoms: C2_2  and  C3_3 
REMARK    2  A    between atoms: C3_3  and  C4_4 
REMARK    3  A    between atoms: C4_4  and  C8_14 
REMARK    4  A    between atoms: C5_5  and  C6_6 
ROOT
HETATM    1  C4  UNL     1       6.180  -4.201  18.180  1.00  0.00    -0.070 C 
HETATM    2  C5  UNL     1       6.109  -4.615  16.940  1.00  0.00     0.042 C 
ENDROOT
BRANCH   2   3
HETATM    3  C6  UNL     1       4.868  -4.755  16.142  1.00  0.00     0.091 A 
HETATM    4  N1  UNL     1       4.054  -5.750  15.924  1.00  0.00    -0.292 N 
HETATM    5  N2  UNL     1       3.036  -5.633  15.182  1.00  0.00    -0.284 N 
ATOM      6  H1  UNL     1       4.243  -6.650  16.364  1.00  0.00     0.187 HD
HETATM    7  C7  UNL     1       2.794  -4.450  14.609  1.00  0.00     0.159 A 
ATOM      8  H2  UNL     1       2.412  -6.424  15.025  1.00  0.00     0.188 HD
HETATM    9  S1  UNL     1       1.540  -4.048  13.605  1.00  0.00    -0.051 SA
HETATM   10  S2  UNL     1       4.103  -3.515  15.190  1.00  0.00    -0.040 SA
ENDBRANCH   2   3
BRANCH   1  11
HETATM   11  C3  UNL     1       4.960  -3.847  18.858  1.00  0.00     0.034 C 
BRANCH  11  12
HETATM   12  C2  UNL     1       4.524  -2.424  18.869  1.00  0.00    -0.000 C 
HETATM   13  C1  UNL     1       4.509  -1.980  20.330  1.00  0.00     0.005 C 
ENDBRANCH  11  12
ENDBRANCH   1  11
BRANCH   1  14
HETATM   14  C8  UNL     1       7.547  -4.151  18.760  1.00  0.00    -0.028 C 
HETATM   15  C9  UNL     1       7.578  -4.228  20.259  1.00  0.00     0.019 C 
HETATM   16  C10 UNL     1       8.525  -5.112  18.199  1.00  0.00     0.019 C 
HETATM   17  C11 UNL     1       8.098  -2.750  18.434  1.00  0.00     0.019 C 
ENDBRANCH   1  14
TORSDOF 4
ENDMDL
MODEL 4
REMARK VINA RESULT: -6.523856055      1.448      3.054
REMARK  4 active torsions:
REMARK  status: ('A' for Active; 'I' for Inactive)
REMARK    1  A    between atoms: C2_2  and  C3_3 
REMARK    2  A    between atoms: C3_3  and  C4_4 
REMARK    3  A    between atoms: C4_4  and  C8_14 
REMARK    4  A    between atoms: C5_5  and  C6_6 
ROOT
HETATM    1  C4  UNL     1       6.933  -4.209  17.778  1.00  0.00    -0.070 C 
HETATM    2  C5  UNL     1       5.627  -4.276  17.850  1.00  0.00     0.042 C 
ENDROOT
BRANCH   2   3
HETATM    3  C6  UNL     1       4.706  -4.502  16.710  1.00  0.00     0.091 A 
HETATM    4  N1  UNL     1       4.181  -5.573  16.184  1.00  0.00    -0.292 N 
HETATM    5  N2  UNL     1       3.408  -5.519  15.185  1.00  0.00    -0.284 N 
ATOM      6  H1  UNL     1       4.399  -6.482  16.592  1.00  0.00     0.187 HD
HETATM    7  C7  UNL     1       3.126  -4.324  14.657  1.00  0.00     0.159 A 
ATOM      8  H2  UNL     1       3.007  -6.370  14.789  1.00  0.00     0.188 HD
HETATM    9  S1  UNL     1       2.152  -3.993  13.359  1.00  0.00    -0.051 SA
HETATM   10  S2  UNL     1       4.027  -3.282  15.670  1.00  0.00    -0.040 SA
ENDBRANCH   2   3
BRANCH   1  11
HETATM   11  C3  UNL     1       7.559  -4.359  16.490  1.00  0.00     0.034 C 
BRANCH  11  12
HETATM   12  C2  UNL     1       8.041  -5.704  16.072  1.00  0.00    -0.000 C 
HETATM   13  C1  UNL     1       9.521  -5.552  15.725  1.00  0.00     0.005 C 
ENDBRANCH  11  12
ENDBRANCH   1  11
BRANCH   1  14
HETATM   14  C8  UNL     1       7.632  -3.971  19.067  1.00  0.00    -0.028 C 
HETATM   15  C9  UNL     1       6.709  -3.790  20.237  1.00  0.00     0.019 C 
HETATM   16  C10 UNL     1       8.689  -4.945  19.422  1.00  0.00     0.019 C 
HETATM   17  C11 UNL     1       8.342  -2.612  18.922  1.00  0.00     0.019 C 
ENDBRANCH   1  14
TORSDOF 4
ENDMDL
MODEL 5
REMARK VINA RESULT: -6.416391482      1.847      3.313
REMARK  4 active torsions:
REMARK  status: ('A' for Active; 'I' for Inactive)
REMARK    1  A    between atoms: C2_2  and  C3_3 
REMARK    2  A    between atoms: C3_3  and  C4_4 
REMARK    3  A    between atoms: C4_4  and  C8_14 
REMARK    4  A    between atoms: C5_5  and  C6_6 
ROOT
HETATM    1  C4  UNL     1       7.061  -3.925  17.832  1.00  0.00    -0.070 C 
HETATM    2  C5  UNL     1       5.762  -3.769  17.854  1.00  0.00     0.042 C 
ENDROOT
BRANCH   2   3
HETATM    3  C6  UNL     1       4.870  -3.753  16.670  1.00  0.00     0.091 A 
HETATM    4  N1  UNL     1       4.393  -2.797  15.923  1.00  0.00    -0.292 N 
HETATM    5  N2  UNL     1       3.625  -3.029  14.945  1.00  0.00    -0.284 N 
ATOM      6  H1  UNL     1       4.646  -1.831  16.134  1.00  0.00     0.187 HD
HETATM    7  C7  UNL     1       3.299  -4.297  14.675  1.00  0.00     0.159 A 
ATOM      8  H2  UNL     1       3.264  -2.265  14.374  1.00  0.00     0.188 HD
HETATM    9  S1  UNL     1       2.319  -4.854  13.461  1.00  0.00    -0.051 SA
HETATM   10  S2  UNL     1       4.150  -5.137  15.896  1.00  0.00    -0.040 SA
ENDBRANCH   2   3
BRANCH   1  11
HETATM   11  C3  UNL     1       7.713  -4.093  16.559  1.00  0.00     0.034 C 
BRANCH  11  12
HETATM   12  C2  UNL     1       8.007  -5.469  16.073  1.00  0.00    -0.000 C 
HETATM   13  C1  UNL     1       9.496  -5.507  15.736  1.00  0.00     0.005 C 
ENDBRANCH  11  12
ENDBRANCH   1  11
BRANCH   1  14
HETATM   14  C8  UNL     1       7.730  -3.900  19.159  1.00  0.00    -0.028 C 
HETATM   15  C9  UNL     1       6.780  -3.843  20.320  1.00  0.00     0.019 C 
HETATM   16  C10 UNL     1       8.735  -4.960  19.399  1.00  0.00     0.019 C 
HETATM   17  C11 UNL     1       8.498  -2.567  19.224  1.00  0.00     0.019 C 
ENDBRANCH   1  14
TORSDOF 4
ENDMDL
