MODEL 1
REMARK VINA RESULT: -7.850578921      0.000      0.000
REMARK  3 active torsions:
REMARK  status: ('A' for Active; 'I' for Inactive)
REMARK    1  A    between atoms: C2_2  and  C3_3 
REMARK    2  A    between atoms: C3_3  and  C4_4 
REMARK    3  A    between atoms: C5_5  and  C6_6 
ROOT
HETATM    1  C4  UNL     1       5.363  -2.747  18.864  1.00  0.00    -0.011 A 
HETATM    2  C5  UNL     1       5.042  -2.740  20.204  1.00  0.00     0.062 A 
HETATM    3  O1  UNL     1       5.955  -3.392  20.893  1.00  0.00    -0.297 OA
HETATM    4  C8  UNL     1       6.876  -3.837  20.075  1.00  0.00     0.161 A 
HETATM    5  N1  UNL     1       8.027  -4.531  20.036  1.00  0.00    -0.337 N 
ATOM      6  H1  UNL     1       8.496  -4.930  20.850  1.00  0.00     0.168 HD
HETATM    7  C9  UNL     1       8.472  -4.623  18.770  1.00  0.00     0.040 A 
HETATM    8  C10 UNL     1       7.559  -3.959  17.990  1.00  0.00     0.085 A 
HETATM    9  C11 UNL     1       6.558  -3.463  18.793  1.00  0.00     0.054 A 
HETATM   10  N2  UNL     1       7.608  -3.791  16.587  1.00  0.00    -0.302 N 
ATOM     11  H2  UNL     1       6.954  -3.103  16.213  1.00  0.00     0.186 HD
HETATM   12  N3  UNL     1       8.339  -4.361  15.719  1.00  0.00    -0.336 N 
ATOM     13  H3  UNL     1       8.207  -4.084  14.747  1.00  0.00     0.180 HD
HETATM   14  C12 UNL     1       9.343  -5.370  15.984  1.00  0.00     0.139 C 
HETATM   15  C13 UNL     1      10.273  -5.024  17.102  1.00  0.00     0.027 C 
HETATM   16  C14 UNL     1       9.724  -5.341  18.468  1.00  0.00     0.061 C 
ENDROOT
BRANCH   1  17
HETATM   17  C3  UNL     1       4.661  -2.166  17.700  1.00  0.00     0.042 C 
BRANCH  17  18
HETATM   18  C2  UNL     1       4.099  -3.196  16.768  1.00  0.00     0.000 C 
HETATM   19  C1  UNL     1       3.892  -2.554  15.409  1.00  0.00     0.005 C 
ENDBRANCH  17  18
ENDBRANCH   1  17
BRANCH   2  20
HETATM   20  C6  UNL     1       3.825  -2.080  20.775  1.00  0.00     0.061 C 
HETATM   21  C7  UNL     1       2.817  -3.189  21.071  1.00  0.00     0.012 C 
ENDBRANCH   2  20
TORSDOF 3
ENDMDL
MODEL 2
REMARK VINA RESULT: -7.826947991      1.861      3.796
REMARK  3 active torsions:
REMARK  status: ('A' for Active; 'I' for Inactive)
REMARK    1  A    between atoms: C2_2  and  C3_3 
REMARK    2  A    between atoms: C3_3  and  C4_4 
REMARK    3  A    between atoms: C5_5  and  C6_6 
ROOT
HETATM    1  C4  UNL     1       5.127  -2.934  17.000  1.00  0.00    -0.011 A 
HETATM    2  C5  UNL     1       4.642  -3.362  15.784  1.00  0.00     0.062 A 
HETATM    3  O1  UNL     1       5.466  -4.237  15.249  1.00  0.00    -0.297 OA
HETATM    4  C8  UNL     1       6.485  -4.416  16.051  1.00  0.00     0.161 A 
HETATM    5  N1  UNL     1       7.637  -5.098  16.181  1.00  0.00    -0.337 N 
ATOM      6  H1  UNL     1       8.003  -5.761  15.498  1.00  0.00     0.168 HD
HETATM    7  C9  UNL     1       8.237  -4.780  17.343  1.00  0.00     0.040 A 
HETATM    8  C10 UNL     1       7.424  -3.863  17.960  1.00  0.00     0.085 A 
HETATM    9  C11 UNL     1       6.327  -3.628  17.164  1.00  0.00     0.054 A 
HETATM   10  N2  UNL     1       7.646  -3.241  19.210  1.00  0.00    -0.302 N 
ATOM     11  H2  UNL     1       6.841  -2.745  19.592  1.00  0.00     0.186 HD
HETATM   12  N3  UNL     1       8.690  -3.203  19.931  1.00  0.00    -0.336 N 
ATOM     13  H3  UNL     1       8.628  -2.690  20.811  1.00  0.00     0.180 HD
HETATM   14  C12 UNL     1       9.961  -3.822  19.620  1.00  0.00     0.139 C 
HETATM   15  C13 UNL     1       9.853  -5.245  19.175  1.00  0.00     0.027 C 
HETATM   16  C14 UNL     1       9.522  -5.401  17.714  1.00  0.00     0.061 C 
ENDROOT
BRANCH   1  17
HETATM   17  C3  UNL     1       4.579  -1.964  17.973  1.00  0.00     0.042 C 
BRANCH  17  18
HETATM   18  C2  UNL     1       4.182  -2.587  19.276  1.00  0.00     0.000 C 
HETATM   19  C1  UNL     1       4.279  -1.533  20.363  1.00  0.00     0.005 C 
ENDBRANCH  17  18
ENDBRANCH   1  17
BRANCH   2  20
HETATM   20  C6  UNL     1       3.357  -2.888  15.177  1.00  0.00     0.061 C 
HETATM   21  C7  UNL     1       3.299  -3.462  13.762  1.00  0.00     0.012 C 
ENDBRANCH   2  20
TORSDOF 3
ENDMDL
MODEL 3
REMARK VINA RESULT: -7.617614989      1.566      3.390
REMARK  3 active torsions:
REMARK  status: ('A' for Active; 'I' for Inactive)
REMARK    1  A    between atoms: C2_2  and  C3_3 
REMARK    2  A    between atoms: C3_3  and  C4_4 
REMARK    3  A    between atoms: C5_5  and  C6_6 
ROOT
HETATM    1  C4  UNL     1       5.778  -3.290  20.358  1.00  0.00    -0.011 A 
HETATM    2  C5  UNL     1       4.680  -2.490  20.127  1.00  0.00     0.062 A 
HETATM    3  O1  UNL     1       4.577  -2.220  18.843  1.00  0.00    -0.297 OA
HETATM    4  C8  UNL     1       5.557  -2.803  18.200  1.00  0.00     0.161 A 
HETATM    5  N1  UNL     1       6.077  -2.976  16.972  1.00  0.00    -0.337 N 
ATOM      6  H1  UNL     1       5.694  -2.578  16.114  1.00  0.00     0.168 HD
HETATM    7  C9  UNL     1       7.175  -3.752  17.037  1.00  0.00     0.040 A 
HETATM    8  C10 UNL     1       7.344  -4.073  18.360  1.00  0.00     0.085 A 
HETATM    9  C11 UNL     1       6.340  -3.488  19.096  1.00  0.00     0.054 A 
HETATM   10  N2  UNL     1       8.370  -4.874  18.912  1.00  0.00    -0.302 N 
ATOM     11  H2  UNL     1       8.216  -5.164  19.878  1.00  0.00     0.186 HD
HETATM   12  N3  UNL     1       9.452  -5.289  18.394  1.00  0.00    -0.336 N 
ATOM     13  H3  UNL     1      10.057  -5.864  18.981  1.00  0.00     0.180 HD
HETATM   14  C12 UNL     1       9.907  -5.022  17.046  1.00  0.00     0.139 C 
HETATM   15  C13 UNL     1       8.867  -5.249  15.996  1.00  0.00     0.027 C 
HETATM   16  C14 UNL     1       7.926  -4.087  15.813  1.00  0.00     0.061 C 
ENDROOT
BRANCH   1  17
HETATM   17  C3  UNL     1       6.318  -3.851  21.615  1.00  0.00     0.042 C 
BRANCH  17  18
HETATM   18  C2  UNL     1       7.546  -3.145  22.103  1.00  0.00     0.000 C 
HETATM   19  C1  UNL     1       8.601  -4.185  22.430  1.00  0.00     0.005 C 
ENDBRANCH  17  18
ENDBRANCH   1  17
BRANCH   2  20
HETATM   20  C6  UNL     1       3.749  -2.008  21.198  1.00  0.00     0.061 C 
HETATM   21  C7  UNL     1       2.623  -3.034  21.299  1.00  0.00     0.012 C 
ENDBRANCH   2  20
TORSDOF 3
ENDMDL
MODEL 4
REMARK VINA RESULT: -7.600505278      1.738      3.697
REMARK  3 active torsions:
REMARK  status: ('A' for Active; 'I' for Inactive)
REMARK    1  A    between atoms: C2_2  and  C3_3 
REMARK    2  A    between atoms: C3_3  and  C4_4 
REMARK    3  A    between atoms: C5_5  and  C6_6 
ROOT
HETATM    1  C4  UNL     1       5.473  -4.071  17.720  1.00  0.00    -0.011 A 
HETATM    2  C5  UNL     1       5.191  -4.187  16.377  1.00  0.00     0.062 A 
HETATM    3  O1  UNL     1       6.272  -4.541  15.715  1.00  0.00    -0.297 OA
HETATM    4  C8  UNL     1       7.268  -4.668  16.554  1.00  0.00     0.161 A 
HETATM    5  N1  UNL     1       8.576  -4.977  16.622  1.00  0.00    -0.337 N 
ATOM      6  H1  UNL     1       9.159  -5.229  15.824  1.00  0.00     0.168 HD
HETATM    7  C9  UNL     1       9.004  -4.906  17.896  1.00  0.00     0.040 A 
HETATM    8  C10 UNL     1       7.918  -4.538  18.650  1.00  0.00     0.085 A 
HETATM    9  C11 UNL     1       6.828  -4.387  17.823  1.00  0.00     0.054 A 
HETATM   10  N2  UNL     1       7.887  -4.339  20.049  1.00  0.00    -0.302 N 
ATOM     11  H2  UNL     1       6.953  -4.265  20.452  1.00  0.00     0.186 HD
HETATM   12  N3  UNL     1       8.840  -4.236  20.882  1.00  0.00    -0.336 N 
ATOM     13  H3  UNL     1       8.587  -4.094  21.860  1.00  0.00     0.180 HD
HETATM   14  C12 UNL     1      10.251  -4.305  20.572  1.00  0.00     0.139 C 
HETATM   15  C13 UNL     1      10.628  -5.457  19.697  1.00  0.00     0.027 C 
HETATM   16  C14 UNL     1      10.410  -5.202  18.229  1.00  0.00     0.061 C 
ENDROOT
BRANCH   1  17
HETATM   17  C3  UNL     1       4.609  -3.696  18.861  1.00  0.00     0.042 C 
BRANCH  17  18
HETATM   18  C2  UNL     1       4.515  -2.216  19.075  1.00  0.00     0.000 C 
HETATM   19  C1  UNL     1       4.276  -1.957  20.551  1.00  0.00     0.005 C 
ENDBRANCH  17  18
ENDBRANCH   1  17
BRANCH   2  20
HETATM   20  C6  UNL     1       3.840  -3.942  15.777  1.00  0.00     0.061 C 
HETATM   21  C7  UNL     1       3.771  -2.455  15.435  1.00  0.00     0.012 C 
ENDBRANCH   2  20
TORSDOF 3
ENDMDL
MODEL 5
REMARK VINA RESULT: -7.499876875      2.243      3.948
REMARK  3 active torsions:
REMARK  status: ('A' for Active; 'I' for Inactive)
REMARK    1  A    between atoms: C2_2  and  C3_3 
REMARK    2  A    between atoms: C3_3  and  C4_4 
REMARK    3  A    between atoms: C5_5  and  C6_6 
ROOT
HETATM    1  C4  UNL     1       5.916  -4.306  17.579  1.00  0.00    -0.011 A 
HETATM    2  C5  UNL     1       6.118  -4.698  16.274  1.00  0.00     0.062 A 
HETATM    3  O1  UNL     1       7.353  -5.123  16.113  1.00  0.00    -0.297 OA
HETATM    4  C8  UNL     1       7.990  -5.035  17.253  1.00  0.00     0.161 A 
HETATM    5  N1  UNL     1       9.183  -5.261  17.831  1.00  0.00    -0.337 N 
ATOM      6  H1  UNL     1      10.002  -5.637  17.353  1.00  0.00     0.168 HD
HETATM    7  C9  UNL     1       9.141  -4.920  19.133  1.00  0.00     0.040 A 
HETATM    8  C10 UNL     1       7.870  -4.464  19.372  1.00  0.00     0.085 A 
HETATM    9  C11 UNL     1       7.142  -4.531  18.207  1.00  0.00     0.054 A 
HETATM   10  N2  UNL     1       7.357  -3.995  20.604  1.00  0.00    -0.302 N 
ATOM     11  H2  UNL     1       6.343  -3.888  20.634  1.00  0.00     0.186 HD
HETATM   12  N3  UNL     1       7.961  -3.685  21.677  1.00  0.00    -0.336 N 
ATOM     13  H3  UNL     1       7.386  -3.365  22.456  1.00  0.00     0.180 HD
HETATM   14  C12 UNL     1       9.390  -3.745  21.896  1.00  0.00     0.139 C 
HETATM   15  C13 UNL     1      10.020  -5.028  21.457  1.00  0.00     0.027 C 
HETATM   16  C14 UNL     1      10.335  -5.078  19.985  1.00  0.00     0.061 C 
ENDROOT
BRANCH   1  17
HETATM   17  C3  UNL     1       4.718  -3.756  18.249  1.00  0.00     0.042 C 
BRANCH  17  18
HETATM   18  C2  UNL     1       4.757  -2.267  18.411  1.00  0.00     0.000 C 
HETATM   19  C1  UNL     1       4.281  -1.629  17.119  1.00  0.00     0.005 C 
ENDBRANCH  17  18
ENDBRANCH   1  17
BRANCH   2  20
HETATM   20  C6  UNL     1       5.068  -4.641  15.206  1.00  0.00     0.061 C 
HETATM   21  C7  UNL     1       4.339  -5.983  15.231  1.00  0.00     0.012 C 
ENDBRANCH   2  20
TORSDOF 3
ENDMDL
