MODEL 1
REMARK VINA RESULT: -6.721568712      0.000      0.000
REMARK  4 active torsions:
REMARK  status: ('A' for Active; 'I' for Inactive)
REMARK    1  A    between atoms: C4_4  and  C5_5 
REMARK    2  A    between atoms: C5_5  and  C6_6 
REMARK    3  A    between atoms: C6_6  and  C8_8 
REMARK    4  A    between atoms: C8_8  and  C9_9 
ROOT
HETATM    1  C6  UNL     1       4.769  -4.234  15.747  1.00  0.00    -0.050 C 
HETATM    2  C7  UNL     1       4.450  -5.612  15.882  1.00  0.00     0.049 C 
ENDROOT
BRANCH   1   3
HETATM    3  C5  UNL     1       4.243  -3.309  15.142  1.00  0.00     0.008 C 
BRANCH   3   4
HETATM    4  C4  UNL     1       2.827  -3.399  14.680  1.00  0.00     0.002 C 
HETATM    5  C2  UNL     1       2.521  -3.703  13.459  1.00  0.00    -0.088 C 
HETATM    6  C1  UNL     1       1.083  -3.768  13.108  1.00  0.00     0.043 C 
HETATM    7  C3  UNL     1       3.528  -3.992  12.430  1.00  0.00     0.043 C 
ENDBRANCH   3   4
ENDBRANCH   1   3
BRANCH   1   8
HETATM    8  C8  UNL     1       6.132  -3.832  16.823  1.00  0.00    -0.005 C 
HETATM    9  C11 UNL     1       5.311  -3.630  17.742  1.00  0.00     0.070 A 
HETATM   10  S2  UNL     1       4.250  -3.291  19.204  1.00  0.00    -0.043 SA
HETATM   11  S3  UNL     1       5.873  -2.943  19.613  1.00  0.00    -0.043 SA
BRANCH   8  12
HETATM   12  C9  UNL     1       7.044  -4.057  15.804  1.00  0.00     0.021 C 
HETATM   13  C10 UNL     1       8.270  -4.612  16.017  1.00  0.00     0.058 C 
HETATM   14  S1  UNL     1       8.637  -5.049  17.725  1.00  0.00    -0.065 SA
ENDBRANCH   8  12
ENDBRANCH   1   8
TORSDOF 4
ENDMDL
MODEL 2
REMARK VINA RESULT: -6.616559924      0.911      2.687
REMARK  4 active torsions:
REMARK  status: ('A' for Active; 'I' for Inactive)
REMARK    1  A    between atoms: C4_4  and  C5_5 
REMARK    2  A    between atoms: C5_5  and  C6_6 
REMARK    3  A    between atoms: C6_6  and  C8_8 
REMARK    4  A    between atoms: C8_8  and  C9_9 
ROOT
HETATM    1  C6  UNL     1       4.551  -4.000  15.835  1.00  0.00    -0.050 C 
HETATM    2  C7  UNL     1       4.173  -5.302  16.259  1.00  0.00     0.049 C 
ENDROOT
BRANCH   1   3
HETATM    3  C5  UNL     1       4.197  -3.287  14.905  1.00  0.00     0.008 C 
BRANCH   3   4
HETATM    4  C4  UNL     1       2.806  -3.356  14.370  1.00  0.00     0.002 C 
HETATM    5  C2  UNL     1       2.550  -3.787  13.176  1.00  0.00    -0.088 C 
HETATM    6  C1  UNL     1       1.132  -3.817  12.747  1.00  0.00     0.043 C 
HETATM    7  C3  UNL     1       3.593  -4.249  12.251  1.00  0.00     0.043 C 
ENDBRANCH   3   4
ENDBRANCH   1   3
BRANCH   1   8
HETATM    8  C8  UNL     1       5.653  -3.281  17.038  1.00  0.00    -0.005 C 
HETATM    9  C11 UNL     1       6.535  -4.084  16.668  1.00  0.00     0.070 A 
HETATM   10  S2  UNL     1       7.946  -5.186  16.251  1.00  0.00    -0.043 SA
HETATM   11  S3  UNL     1       8.393  -4.201  17.574  1.00  0.00    -0.043 SA
BRANCH   8  12
HETATM   12  C9  UNL     1       4.675  -2.389  17.449  1.00  0.00     0.021 C 
HETATM   13  C10 UNL     1       4.455  -2.085  18.758  1.00  0.00     0.058 C 
HETATM   14  S1  UNL     1       5.530  -2.918  19.940  1.00  0.00    -0.065 SA
ENDBRANCH   8  12
ENDBRANCH   1   8
TORSDOF 4
ENDMDL
MODEL 3
REMARK VINA RESULT: -6.500991126      2.796      4.785
REMARK  4 active torsions:
REMARK  status: ('A' for Active; 'I' for Inactive)
REMARK    1  A    between atoms: C4_4  and  C5_5 
REMARK    2  A    between atoms: C5_5  and  C6_6 
REMARK    3  A    between atoms: C6_6  and  C8_8 
REMARK    4  A    between atoms: C8_8  and  C9_9 
ROOT
HETATM    1  C6  UNL     1       5.098  -2.642  17.527  1.00  0.00    -0.050 C 
HETATM    2  C7  UNL     1       4.329  -1.689  16.804  1.00  0.00     0.049 C 
ENDROOT
BRANCH   1   3
HETATM    3  C5  UNL     1       5.240  -2.870  18.721  1.00  0.00     0.008 C 
BRANCH   3   4
HETATM    4  C4  UNL     1       4.090  -3.319  19.559  1.00  0.00     0.002 C 
HETATM    5  C2  UNL     1       3.625  -2.598  20.530  1.00  0.00    -0.088 C 
HETATM    6  C1  UNL     1       2.478  -3.138  21.296  1.00  0.00     0.043 C 
HETATM    7  C3  UNL     1       4.176  -1.284  20.885  1.00  0.00     0.043 C 
ENDBRANCH   3   4
ENDBRANCH   1   3
BRANCH   1   8
HETATM    8  C8  UNL     1       5.858  -3.780  16.384  1.00  0.00    -0.005 C 
HETATM    9  C11 UNL     1       4.727  -4.256  16.151  1.00  0.00     0.070 A 
HETATM   10  S2  UNL     1       3.148  -5.074  15.686  1.00  0.00    -0.043 SA
HETATM   11  S3  UNL     1       4.434  -5.882  14.902  1.00  0.00    -0.043 SA
BRANCH   8  12
HETATM   12  C9  UNL     1       7.113  -3.253  16.643  1.00  0.00     0.021 C 
HETATM   13  C10 UNL     1       8.239  -4.016  16.697  1.00  0.00     0.058 C 
HETATM   14  S1  UNL     1       7.998  -5.777  16.403  1.00  0.00    -0.065 SA
ENDBRANCH   8  12
ENDBRANCH   1   8
TORSDOF 4
ENDMDL
MODEL 4
REMARK VINA RESULT: -6.468578399      3.816      6.078
REMARK  4 active torsions:
REMARK  status: ('A' for Active; 'I' for Inactive)
REMARK    1  A    between atoms: C4_4  and  C5_5 
REMARK    2  A    between atoms: C5_5  and  C6_6 
REMARK    3  A    between atoms: C6_6  and  C8_8 
REMARK    4  A    between atoms: C8_8  and  C9_9 
ROOT
HETATM    1  C6  UNL     1       4.056  -2.367  20.315  1.00  0.00    -0.050 C 
HETATM    2  C7  UNL     1       4.201  -1.040  20.802  1.00  0.00     0.049 C 
ENDROOT
BRANCH   1   3
HETATM    3  C5  UNL     1       3.203  -3.230  20.479  1.00  0.00     0.008 C 
BRANCH   3   4
HETATM    4  C4  UNL     1       2.519  -3.394  21.795  1.00  0.00     0.002 C 
HETATM    5  C2  UNL     1       2.611  -4.485  22.487  1.00  0.00    -0.088 C 
HETATM    6  C1  UNL     1       1.894  -4.539  23.782  1.00  0.00     0.043 C 
HETATM    7  C3  UNL     1       3.395  -5.647  22.048  1.00  0.00     0.043 C 
ENDBRANCH   3   4
ENDBRANCH   1   3
BRANCH   1   8
HETATM    8  C8  UNL     1       5.337  -2.705  19.122  1.00  0.00    -0.005 C 
HETATM    9  C11 UNL     1       6.042  -3.156  20.049  1.00  0.00     0.070 A 
HETATM   10  S2  UNL     1       7.212  -3.854  21.282  1.00  0.00    -0.043 SA
HETATM   11  S3  UNL     1       7.988  -3.803  19.760  1.00  0.00    -0.043 SA
BRANCH   8  12
HETATM   12  C9  UNL     1       4.554  -2.205  18.093  1.00  0.00     0.021 C 
HETATM   13  C10 UNL     1       4.704  -2.591  16.795  1.00  0.00     0.058 C 
HETATM   14  S1  UNL     1       5.994  -3.811  16.492  1.00  0.00    -0.065 SA
ENDBRANCH   8  12
ENDBRANCH   1   8
TORSDOF 4
ENDMDL
MODEL 5
REMARK VINA RESULT: -6.451267106      0.755      1.170
REMARK  4 active torsions:
REMARK  status: ('A' for Active; 'I' for Inactive)
REMARK    1  A    between atoms: C4_4  and  C5_5 
REMARK    2  A    between atoms: C5_5  and  C6_6 
REMARK    3  A    between atoms: C6_6  and  C8_8 
REMARK    4  A    between atoms: C8_8  and  C9_9 
ROOT
HETATM    1  C6  UNL     1       4.464  -3.234  16.166  1.00  0.00    -0.050 C 
HETATM    2  C7  UNL     1       4.234  -1.838  16.307  1.00  0.00     0.049 C 
ENDROOT
BRANCH   1   3
HETATM    3  C5  UNL     1       3.964  -4.097  15.456  1.00  0.00     0.008 C 
BRANCH   3   4
HETATM    4  C4  UNL     1       2.615  -3.904  14.847  1.00  0.00     0.002 C 
HETATM    5  C2  UNL     1       2.430  -3.930  13.565  1.00  0.00    -0.088 C 
HETATM    6  C1  UNL     1       1.049  -3.731  13.068  1.00  0.00     0.043 C 
HETATM    7  C3  UNL     1       3.517  -4.156  12.604  1.00  0.00     0.043 C 
ENDBRANCH   3   4
ENDBRANCH   1   3
BRANCH   1   8
HETATM    8  C8  UNL     1       5.873  -3.706  17.150  1.00  0.00    -0.005 C 
HETATM    9  C11 UNL     1       5.170  -3.568  18.173  1.00  0.00     0.070 A 
HETATM   10  S2  UNL     1       4.286  -3.417  19.777  1.00  0.00    -0.043 SA
HETATM   11  S3  UNL     1       5.924  -3.795  20.088  1.00  0.00    -0.043 SA
BRANCH   8  12
HETATM   12  C9  UNL     1       6.655  -3.858  16.016  1.00  0.00     0.021 C 
HETATM   13  C10 UNL     1       7.883  -4.446  16.037  1.00  0.00     0.058 C 
HETATM   14  S1  UNL     1       8.437  -5.026  17.650  1.00  0.00    -0.065 SA
ENDBRANCH   8  12
ENDBRANCH   1   8
TORSDOF 4
ENDMDL
