MODEL 1
REMARK VINA RESULT: -7.715989742      0.000      0.000
REMARK  5 active torsions:
REMARK  status: ('A' for Active; 'I' for Inactive)
REMARK    1  A    between atoms: O1_1  and  C1_3 
REMARK    2  A    between atoms: C3_5  and  C4_6 
REMARK    3  A    between atoms: C4_6  and  C5_7 
REMARK    4  A    between atoms: C5_7  and  C6_8 
REMARK    5  A    between atoms: C7_9  and  C8_10 
ROOT
HETATM    1  C4  UNL     1       3.452  -2.812  14.489  1.00  0.00     0.006 C 
ENDROOT
BRANCH   1   2
HETATM    2  C3  UNL     1       2.351  -3.746  14.290  1.00  0.00     0.023 A 
HETATM    3  C2  UNL     1       1.953  -4.786  15.086  1.00  0.00     0.076 A 
HETATM    4  C1  UNL     1       0.917  -5.510  14.659  1.00  0.00     0.147 A 
HETATM    5  N1  UNL     1       0.346  -5.179  13.507  1.00  0.00    -0.307 N 
HETATM    6  S1  UNL     1       1.254  -3.835  12.988  1.00  0.00    -0.013 SA
ATOM      7  H1  UNL     1      -0.446  -5.624  13.044  1.00  0.00     0.176 HD
BRANCH   4   8
HETATM    8  O1  UNL     1       0.391  -6.624  15.375  1.00  0.00    -0.346 OA
ATOM      9  H1  UNL     1      -0.490  -6.649  15.729  1.00  0.00     0.219 HD
ENDBRANCH   4   8
ENDBRANCH   1   2
BRANCH   1  10
HETATM   10  C5  UNL     1       3.906  -2.503  15.678  1.00  0.00     0.122 C 
BRANCH  10  11
HETATM   11  C6  UNL     1       5.138  -3.361  16.130  1.00  0.00    -0.102 C 
HETATM   12  C7  UNL     1       5.966  -3.938  16.434  1.00  0.00    -0.102 C 
BRANCH  12  13
HETATM   13  C8  UNL     1       7.102  -4.735  16.851  1.00  0.00     0.065 C 
HETATM   14  C9  UNL     1       8.261  -4.401  15.855  1.00  0.00     0.017 C 
HETATM   15  C10 UNL     1       9.399  -5.307  16.238  1.00  0.00     0.001 C 
HETATM   16  C11 UNL     1       9.919  -4.799  17.586  1.00  0.00     0.000 C 
HETATM   17  C12 UNL     1       8.824  -5.084  18.605  1.00  0.00     0.001 C 
HETATM   18  C13 UNL     1       7.565  -4.288  18.238  1.00  0.00     0.017 C 
ENDBRANCH  12  13
ENDBRANCH  10  11
ENDBRANCH   1  10
TORSDOF 5
ENDMDL
MODEL 2
REMARK VINA RESULT: -7.709948315      1.144      1.183
REMARK  5 active torsions:
REMARK  status: ('A' for Active; 'I' for Inactive)
REMARK    1  A    between atoms: O1_1  and  C1_3 
REMARK    2  A    between atoms: C3_5  and  C4_6 
REMARK    3  A    between atoms: C4_6  and  C5_7 
REMARK    4  A    between atoms: C5_7  and  C6_8 
REMARK    5  A    between atoms: C7_9  and  C8_10 
ROOT
HETATM    1  C4  UNL     1       3.670  -2.251  15.456  1.00  0.00     0.006 C 
ENDROOT
BRANCH   1   2
HETATM    2  C3  UNL     1       3.205  -3.545  14.971  1.00  0.00     0.023 A 
HETATM    3  C2  UNL     1       2.125  -4.278  15.383  1.00  0.00     0.076 A 
HETATM    4  C1  UNL     1       1.932  -5.455  14.785  1.00  0.00     0.147 A 
HETATM    5  N1  UNL     1       2.786  -5.832  13.841  1.00  0.00    -0.307 N 
HETATM    6  S1  UNL     1       3.891  -4.539  13.767  1.00  0.00    -0.013 SA
ATOM      7  H1  UNL     1       2.781  -6.691  13.291  1.00  0.00     0.176 HD
BRANCH   4   8
HETATM    8  O1  UNL     1       0.856  -6.331  15.108  1.00  0.00    -0.346 OA
ATOM      9  H1  UNL     1       0.979  -7.239  15.356  1.00  0.00     0.219 HD
ENDBRANCH   4   8
ENDBRANCH   1   2
BRANCH   1  10
HETATM   10  C5  UNL     1       4.268  -2.106  16.612  1.00  0.00     0.122 C 
BRANCH  10  11
HETATM   11  C6  UNL     1       5.477  -3.081  16.827  1.00  0.00    -0.102 C 
HETATM   12  C7  UNL     1       6.289  -3.737  16.971  1.00  0.00    -0.102 C 
BRANCH  12  13
HETATM   13  C8  UNL     1       7.405  -4.642  17.167  1.00  0.00     0.065 C 
HETATM   14  C9  UNL     1       8.364  -4.424  15.951  1.00  0.00     0.017 C 
HETATM   15  C10 UNL     1       9.464  -5.437  16.116  1.00  0.00     0.001 C 
HETATM   16  C11 UNL     1      10.292  -4.982  17.320  1.00  0.00     0.000 C 
HETATM   17  C12 UNL     1       9.404  -5.157  18.545  1.00  0.00     0.001 C 
HETATM   18  C13 UNL     1       8.180  -4.241  18.423  1.00  0.00     0.017 C 
ENDBRANCH  12  13
ENDBRANCH  10  11
ENDBRANCH   1  10
TORSDOF 5
ENDMDL
MODEL 3
REMARK VINA RESULT: -7.704956443      1.255      1.281
REMARK  5 active torsions:
REMARK  status: ('A' for Active; 'I' for Inactive)
REMARK    1  A    between atoms: O1_1  and  C1_3 
REMARK    2  A    between atoms: C3_5  and  C4_6 
REMARK    3  A    between atoms: C4_6  and  C5_7 
REMARK    4  A    between atoms: C5_7  and  C6_8 
REMARK    5  A    between atoms: C7_9  and  C8_10 
ROOT
HETATM    1  C4  UNL     1       3.691  -2.776  14.787  1.00  0.00     0.006 C 
ENDROOT
BRANCH   1   2
HETATM    2  C3  UNL     1       2.735  -3.848  14.538  1.00  0.00     0.023 A 
HETATM    3  C2  UNL     1       1.631  -3.842  13.729  1.00  0.00     0.076 A 
HETATM    4  C1  UNL     1       0.901  -4.959  13.696  1.00  0.00     0.147 A 
HETATM    5  N1  UNL     1       1.289  -5.989  14.439  1.00  0.00    -0.307 N 
HETATM    6  S1  UNL     1       2.695  -5.415  15.209  1.00  0.00    -0.013 SA
ATOM      7  H1  UNL     1       0.850  -6.905  14.528  1.00  0.00     0.176 HD
BRANCH   4   8
HETATM    8  O1  UNL     1      -0.275  -5.104  12.907  1.00  0.00    -0.346 OA
ATOM      9  H1  UNL     1      -1.012  -5.646  13.162  1.00  0.00     0.219 HD
ENDBRANCH   4   8
ENDBRANCH   1   2
BRANCH   1  10
HETATM   10  C5  UNL     1       4.171  -2.522  15.978  1.00  0.00     0.122 C 
BRANCH  10  11
HETATM   11  C6  UNL     1       5.411  -3.401  16.363  1.00  0.00    -0.102 C 
HETATM   12  C7  UNL     1       6.244  -3.992  16.621  1.00  0.00    -0.102 C 
BRANCH  12  13
HETATM   13  C8  UNL     1       7.393  -4.804  16.972  1.00  0.00     0.065 C 
HETATM   14  C9  UNL     1       8.509  -4.457  15.932  1.00  0.00     0.017 C 
HETATM   15  C10 UNL     1       9.657  -5.377  16.247  1.00  0.00     0.001 C 
HETATM   16  C11 UNL     1      10.239  -4.899  17.580  1.00  0.00     0.000 C 
HETATM   17  C12 UNL     1       9.188  -5.197  18.641  1.00  0.00     0.001 C 
HETATM   18  C13 UNL     1       7.919  -4.387  18.345  1.00  0.00     0.017 C 
ENDBRANCH  12  13
ENDBRANCH  10  11
ENDBRANCH   1  10
TORSDOF 5
ENDMDL
MODEL 4
REMARK VINA RESULT: -7.698577415      1.371      1.867
REMARK  5 active torsions:
REMARK  status: ('A' for Active; 'I' for Inactive)
REMARK    1  A    between atoms: O1_1  and  C1_3 
REMARK    2  A    between atoms: C3_5  and  C4_6 
REMARK    3  A    between atoms: C4_6  and  C5_7 
REMARK    4  A    between atoms: C5_7  and  C6_8 
REMARK    5  A    between atoms: C7_9  and  C8_10 
ROOT
HETATM    1  C4  UNL     1       3.715  -2.697  14.961  1.00  0.00     0.006 C 
ENDROOT
BRANCH   1   2
HETATM    2  C3  UNL     1       2.825  -3.819  14.686  1.00  0.00     0.023 A 
HETATM    3  C2  UNL     1       1.629  -3.821  14.022  1.00  0.00     0.076 A 
HETATM    4  C1  UNL     1       0.994  -4.991  13.927  1.00  0.00     0.147 A 
HETATM    5  N1  UNL     1       1.556  -6.062  14.475  1.00  0.00    -0.307 N 
HETATM    6  S1  UNL     1       3.000  -5.453  15.142  1.00  0.00    -0.013 SA
ATOM      7  H1  UNL     1       1.208  -7.020  14.492  1.00  0.00     0.176 HD
BRANCH   4   8
HETATM    8  O1  UNL     1      -0.260  -5.151  13.270  1.00  0.00    -0.346 OA
ATOM      9  H1  UNL     1      -0.582  -4.552  12.607  1.00  0.00     0.219 HD
ENDBRANCH   4   8
ENDBRANCH   1   2
BRANCH   1  10
HETATM   10  C5  UNL     1       4.020  -2.321  16.178  1.00  0.00     0.122 C 
BRANCH  10  11
HETATM   11  C6  UNL     1       5.446  -2.775  16.644  1.00  0.00    -0.102 C 
HETATM   12  C7  UNL     1       6.405  -3.081  16.956  1.00  0.00    -0.102 C 
BRANCH  12  13
HETATM   13  C8  UNL     1       7.726  -3.501  17.382  1.00  0.00     0.065 C 
HETATM   14  C9  UNL     1       7.520  -4.331  18.692  1.00  0.00     0.017 C 
HETATM   15  C10 UNL     1       8.902  -4.675  19.176  1.00  0.00     0.001 C 
HETATM   16  C11 UNL     1       9.464  -5.695  18.182  1.00  0.00     0.000 C 
HETATM   17  C12 UNL     1       9.676  -4.949  16.872  1.00  0.00     0.001 C 
HETATM   18  C13 UNL     1       8.325  -4.450  16.344  1.00  0.00     0.017 C 
ENDBRANCH  12  13
ENDBRANCH  10  11
ENDBRANCH   1  10
TORSDOF 5
ENDMDL
MODEL 5
REMARK VINA RESULT: -7.554980281      2.047      2.162
REMARK  5 active torsions:
REMARK  status: ('A' for Active; 'I' for Inactive)
REMARK    1  A    between atoms: O1_1  and  C1_3 
REMARK    2  A    between atoms: C3_5  and  C4_6 
REMARK    3  A    between atoms: C4_6  and  C5_7 
REMARK    4  A    between atoms: C5_7  and  C6_8 
REMARK    5  A    between atoms: C7_9  and  C8_10 
ROOT
HETATM    1  C4  UNL     1       3.198  -2.523  15.872  1.00  0.00     0.006 C 
ENDROOT
BRANCH   1   2
HETATM    2  C3  UNL     1       3.285  -3.556  14.848  1.00  0.00     0.023 A 
HETATM    3  C2  UNL     1       3.632  -3.431  13.530  1.00  0.00     0.076 A 
HETATM    4  C1  UNL     1       3.610  -4.543  12.792  1.00  0.00     0.147 A 
HETATM    5  N1  UNL     1       3.261  -5.682  13.376  1.00  0.00    -0.307 N 
HETATM    6  S1  UNL     1       2.950  -5.223  14.986  1.00  0.00    -0.013 SA
ATOM      7  H1  UNL     1       3.194  -6.611  12.961  1.00  0.00     0.176 HD
BRANCH   4   8
HETATM    8  O1  UNL     1       3.941  -4.570  11.407  1.00  0.00    -0.346 OA
ATOM      9  H1  UNL     1       3.816  -3.830  10.825  1.00  0.00     0.219 HD
ENDBRANCH   4   8
ENDBRANCH   1   2
BRANCH   1  10
HETATM   10  C5  UNL     1       4.258  -1.960  16.397  1.00  0.00     0.122 C 
BRANCH  10  11
HETATM   11  C6  UNL     1       5.435  -2.958  16.672  1.00  0.00    -0.102 C 
HETATM   12  C7  UNL     1       6.226  -3.629  16.856  1.00  0.00    -0.102 C 
BRANCH  12  13
HETATM   13  C8  UNL     1       7.313  -4.555  17.108  1.00  0.00     0.065 C 
HETATM   14  C9  UNL     1       8.321  -4.380  15.924  1.00  0.00     0.017 C 
HETATM   15  C10 UNL     1       9.390  -5.415  16.146  1.00  0.00     0.001 C 
HETATM   16  C11 UNL     1      10.185  -4.957  17.372  1.00  0.00     0.000 C 
HETATM   17  C12 UNL     1       9.250  -5.090  18.566  1.00  0.00     0.001 C 
HETATM   18  C13 UNL     1       8.052  -4.149  18.384  1.00  0.00     0.017 C 
ENDBRANCH  12  13
ENDBRANCH  10  11
ENDBRANCH   1  10
TORSDOF 5
ENDMDL
