MODEL 1
REMARK VINA RESULT: -5.505592262      0.000      0.000
REMARK  3 active torsions:
REMARK  status: ('A' for Active; 'I' for Inactive)
REMARK    1  A    between atoms: S1_2  and  C2_3 
REMARK    2  A    between atoms: C2_3  and  C3_4 
REMARK    3  A    between atoms: N3_11  and  C5_12 
ROOT
HETATM    1  C3  UNL     1      54.983  34.829  85.931  1.00  0.00     0.111 A 
HETATM    2  N1  UNL     1      55.074  33.498  85.770  1.00  0.00    -0.286 N 
ATOM      3  H1  UNL     1      54.849  32.814  86.492  1.00  0.00     0.188 HD
HETATM    4  N2  UNL     1      55.489  33.195  84.569  1.00  0.00    -0.275 N 
ATOM      5  H2  UNL     1      55.637  32.252  84.208  1.00  0.00     0.189 HD
HETATM    6  C4  UNL     1      55.689  34.354  83.880  1.00  0.00     0.196 A 
HETATM    7  S2  UNL     1      56.218  34.366  82.330  1.00  0.00    -0.039 SA
HETATM    8  N3  UNL     1      55.377  35.342  84.724  1.00  0.00    -0.287 N 
ENDROOT
BRANCH   8   9
HETATM    9  C5  UNL     1      55.453  36.735  84.445  1.00  0.00     0.111 C 
HETATM   10  C6  UNL     1      55.669  37.626  85.656  1.00  0.00     0.056 C 
HETATM   11  C7  UNL     1      54.225  37.319  83.779  1.00  0.00     0.056 C 
HETATM   12 CL1  UNL     1      56.883  37.017  83.384  1.00  0.00    -0.096 Cl
ENDBRANCH   8   9
BRANCH   1  13
HETATM   13  C2  UNL     1      54.565  35.532  87.170  1.00  0.00     0.151 C 
BRANCH  13  14
HETATM   14  S1  UNL     1      53.894  34.411  88.418  1.00  0.00    -0.166 SA
HETATM   15  C1  UNL     1      55.240  33.711  89.404  1.00  0.00     0.090 C 
ENDBRANCH  13  14
ENDBRANCH   1  13
TORSDOF 3
ENDMDL
MODEL 2
REMARK VINA RESULT: -5.425146029      1.241      1.485
REMARK  3 active torsions:
REMARK  status: ('A' for Active; 'I' for Inactive)
REMARK    1  A    between atoms: S1_2  and  C2_3 
REMARK    2  A    between atoms: C2_3  and  C3_4 
REMARK    3  A    between atoms: N3_11  and  C5_12 
ROOT
HETATM    1  C3  UNL     1      54.778  34.630  85.625  1.00  0.00     0.111 A 
HETATM    2  N1  UNL     1      54.835  33.318  85.342  1.00  0.00    -0.286 N 
ATOM      3  H1  UNL     1      54.498  32.580  85.960  1.00  0.00     0.188 HD
HETATM    4  N2  UNL     1      55.380  33.110  84.173  1.00  0.00    -0.275 N 
ATOM      5  H2  UNL     1      55.534  32.200  83.739  1.00  0.00     0.189 HD
HETATM    6  C4  UNL     1      55.708  34.317  83.632  1.00  0.00     0.196 A 
HETATM    7  S2  UNL     1      56.420  34.450  82.163  1.00  0.00    -0.039 SA
HETATM    8  N3  UNL     1      55.334  35.235  84.530  1.00  0.00    -0.287 N 
ENDROOT
BRANCH   8   9
HETATM    9  C5  UNL     1      55.498  36.643  84.403  1.00  0.00     0.111 C 
HETATM   10  C6  UNL     1      54.300  37.384  83.836  1.00  0.00     0.056 C 
HETATM   11  C7  UNL     1      56.645  37.072  83.515  1.00  0.00     0.056 C 
HETATM   12 CL1  UNL     1      55.746  37.329  86.052  1.00  0.00    -0.096 Cl
ENDBRANCH   8   9
BRANCH   1  13
HETATM   13  C2  UNL     1      54.241  35.232  86.871  1.00  0.00     0.151 C 
BRANCH  13  14
HETATM   14  S1  UNL     1      54.298  34.098  88.277  1.00  0.00    -0.166 SA
HETATM   15  C1  UNL     1      52.825  33.047  88.279  1.00  0.00     0.090 C 
ENDBRANCH  13  14
ENDBRANCH   1  13
TORSDOF 3
ENDMDL
MODEL 3
REMARK VINA RESULT: -5.417565323      1.244      1.504
REMARK  3 active torsions:
REMARK  status: ('A' for Active; 'I' for Inactive)
REMARK    1  A    between atoms: S1_2  and  C2_3 
REMARK    2  A    between atoms: C2_3  and  C3_4 
REMARK    3  A    between atoms: N3_11  and  C5_12 
ROOT
HETATM    1  C3  UNL     1      54.781  34.634  85.634  1.00  0.00     0.111 A 
HETATM    2  N1  UNL     1      54.821  33.324  85.338  1.00  0.00    -0.286 N 
ATOM      3  H1  UNL     1      54.478  32.585  85.951  1.00  0.00     0.188 HD
HETATM    4  N2  UNL     1      55.357  33.121  84.164  1.00  0.00    -0.275 N 
ATOM      5  H2  UNL     1      55.497  32.213  83.720  1.00  0.00     0.189 HD
HETATM    6  C4  UNL     1      55.696  34.329  83.633  1.00  0.00     0.196 A 
HETATM    7  S2  UNL     1      56.402  34.467  82.161  1.00  0.00    -0.039 SA
HETATM    8  N3  UNL     1      55.339  35.243  84.541  1.00  0.00    -0.287 N 
ENDROOT
BRANCH   8   9
HETATM    9  C5  UNL     1      55.520  36.650  84.427  1.00  0.00     0.111 C 
HETATM   10  C6  UNL     1      56.690  37.083  83.561  1.00  0.00     0.056 C 
HETATM   11  C7  UNL     1      55.751  37.370  85.738  1.00  0.00     0.056 C 
HETATM   12 CL1  UNL     1      54.057  37.340  83.631  1.00  0.00    -0.096 Cl
ENDBRANCH   8   9
BRANCH   1  13
HETATM   13  C2  UNL     1      54.259  35.231  86.888  1.00  0.00     0.151 C 
BRANCH  13  14
HETATM   14  S1  UNL     1      54.259  34.066  88.270  1.00  0.00    -0.166 SA
HETATM   15  C1  UNL     1      52.783  33.022  88.194  1.00  0.00     0.090 C 
ENDBRANCH  13  14
ENDBRANCH   1  13
TORSDOF 3
ENDMDL
MODEL 4
REMARK VINA RESULT: -5.389274693      2.856      4.879
REMARK  3 active torsions:
REMARK  status: ('A' for Active; 'I' for Inactive)
REMARK    1  A    between atoms: S1_2  and  C2_3 
REMARK    2  A    between atoms: C2_3  and  C3_4 
REMARK    3  A    between atoms: N3_11  and  C5_12 
ROOT
HETATM    1  C3  UNL     1      53.615  34.067  86.686  1.00  0.00     0.111 A 
HETATM    2  N1  UNL     1      52.638  33.145  86.640  1.00  0.00    -0.286 N 
ATOM      3  H1  UNL     1      52.208  32.804  85.780  1.00  0.00     0.188 HD
HETATM    4  N2  UNL     1      52.311  32.743  87.840  1.00  0.00    -0.275 N 
ATOM      5  H2  UNL     1      51.597  32.050  88.063  1.00  0.00     0.189 HD
HETATM    6  C4  UNL     1      53.088  33.408  88.741  1.00  0.00     0.196 A 
HETATM    7  S2  UNL     1      52.954  33.163  90.355  1.00  0.00    -0.039 SA
HETATM    8  N3  UNL     1      53.878  34.212  88.022  1.00  0.00    -0.287 N 
ENDROOT
BRANCH   8   9
HETATM    9  C5  UNL     1      54.846  35.115  88.543  1.00  0.00     0.111 C 
HETATM   10  C6  UNL     1      54.787  35.330  90.045  1.00  0.00     0.056 C 
HETATM   11  C7  UNL     1      54.782  36.516  87.972  1.00  0.00     0.056 C 
HETATM   12 CL1  UNL     1      56.482  34.428  88.223  1.00  0.00    -0.096 Cl
ENDBRANCH   8   9
BRANCH   1  13
HETATM   13  C2  UNL     1      54.220  34.756  85.519  1.00  0.00     0.151 C 
BRANCH  13  14
HETATM   14  S1  UNL     1      55.331  33.689  84.575  1.00  0.00    -0.166 SA
HETATM   15  C1  UNL     1      55.779  34.492  83.017  1.00  0.00     0.090 C 
ENDBRANCH  13  14
ENDBRANCH   1  13
TORSDOF 3
ENDMDL
MODEL 5
REMARK VINA RESULT: -5.368256350      3.000      4.965
REMARK  3 active torsions:
REMARK  status: ('A' for Active; 'I' for Inactive)
REMARK    1  A    between atoms: S1_2  and  C2_3 
REMARK    2  A    between atoms: C2_3  and  C3_4 
REMARK    3  A    between atoms: N3_11  and  C5_12 
ROOT
HETATM    1  C3  UNL     1      53.649  34.013  86.523  1.00  0.00     0.111 A 
HETATM    2  N1  UNL     1      52.605  33.167  86.538  1.00  0.00    -0.286 N 
ATOM      3  H1  UNL     1      52.084  32.880  85.710  1.00  0.00     0.188 HD
HETATM    4  N2  UNL     1      52.344  32.761  87.753  1.00  0.00    -0.275 N 
ATOM      5  H2  UNL     1      51.600  32.118  88.020  1.00  0.00     0.189 HD
HETATM    6  C4  UNL     1      53.237  33.346  88.601  1.00  0.00     0.196 A 
HETATM    7  S2  UNL     1      53.213  33.072  90.216  1.00  0.00    -0.039 SA
HETATM    8  N3  UNL     1      54.027  34.106  87.836  1.00  0.00    -0.287 N 
ENDROOT
BRANCH   8   9
HETATM    9  C5  UNL     1      55.098  34.923  88.294  1.00  0.00     0.111 C 
HETATM   10  C6  UNL     1      55.506  36.042  87.352  1.00  0.00     0.056 C 
HETATM   11  C7  UNL     1      56.392  34.184  88.561  1.00  0.00     0.056 C 
HETATM   12 CL1  UNL     1      54.570  35.743  89.809  1.00  0.00    -0.096 Cl
ENDBRANCH   8   9
BRANCH   1  13
HETATM   13  C2  UNL     1      54.211  34.685  85.324  1.00  0.00     0.151 C 
BRANCH  13  14
HETATM   14  S1  UNL     1      55.396  33.650  84.435  1.00  0.00    -0.166 SA
HETATM   15  C1  UNL     1      55.905  34.474  82.906  1.00  0.00     0.090 C 
ENDBRANCH  13  14
ENDBRANCH   1  13
TORSDOF 3
ENDMDL
