MODEL 1
REMARK VINA RESULT: -6.483240438      0.000      0.000
REMARK  3 active torsions:
REMARK  status: ('A' for Active; 'I' for Inactive)
REMARK    1  A    between atoms: O1_2  and  C2_3 
REMARK    2  A    between atoms: C2_3  and  C3_5 
REMARK    3  A    between atoms: C4_6  and  C5_7 
ROOT
HETATM    1  C5  UNL     1      54.771  37.234  86.174  1.00  0.00     0.015 C 
HETATM    2  C6  UNL     1      55.137  36.284  85.329  1.00  0.00    -0.013 C 
HETATM    3  C7  UNL     1      54.609  34.931  85.486  1.00  0.00     0.083 C 
HETATM    4  C8  UNL     1      55.371  33.883  84.720  1.00  0.00     0.180 C 
HETATM    5  F1  UNL     1      54.619  32.705  84.811  1.00  0.00    -0.249 F 
HETATM    6  C9  UNL     1      55.533  34.187  83.263  1.00  0.00     0.101 C 
HETATM    7  C10 UNL     1      56.476  35.296  83.020  1.00  0.00     0.047 C 
HETATM    8  N1  UNL     1      57.392  35.261  82.151  1.00  0.00    -0.397 N 
ATOM      9  H11 UNL     1      58.044  36.027  81.983  1.00  0.00     0.156 HD
ATOM     10  H12 UNL     1      57.505  34.429  81.571  1.00  0.00     0.156 HD
HETATM   11  S1  UNL     1      56.280  36.748  84.031  1.00  0.00    -0.082 SA
ENDROOT
BRANCH   1  12
HETATM   12  C4  UNL     1      55.261  38.593  86.069  1.00  0.00     0.007 C 
HETATM   13  C3  UNL     1      56.031  39.187  86.921  1.00  0.00     0.082 C 
BRANCH  13  14
HETATM   14  C2  UNL     1      56.607  38.725  88.155  1.00  0.00     0.282 C 
HETATM   15  O2  UNL     1      55.915  38.619  89.224  1.00  0.00    -0.260 OA
BRANCH  14  16
HETATM   16  O1  UNL     1      57.919  38.370  88.280  1.00  0.00    -0.323 OA
HETATM   17  C1  UNL     1      58.842  39.103  89.059  1.00  0.00     0.213 C 
ENDBRANCH  14  16
ENDBRANCH  13  14
ENDBRANCH   1  12
TORSDOF 3
ENDMDL
MODEL 2
REMARK VINA RESULT: -6.466447118      2.107      2.479
REMARK  3 active torsions:
REMARK  status: ('A' for Active; 'I' for Inactive)
REMARK    1  A    between atoms: O1_2  and  C2_3 
REMARK    2  A    between atoms: C2_3  and  C3_5 
REMARK    3  A    between atoms: C4_6  and  C5_7 
ROOT
HETATM    1  C5  UNL     1      55.509  38.007  85.145  1.00  0.00     0.015 C 
HETATM    2  C6  UNL     1      55.580  36.784  84.646  1.00  0.00    -0.013 C 
HETATM    3  C7  UNL     1      56.433  36.522  83.490  1.00  0.00     0.083 C 
HETATM    4  C8  UNL     1      56.145  35.217  82.799  1.00  0.00     0.180 C 
HETATM    5  F1  UNL     1      57.171  35.030  81.864  1.00  0.00    -0.249 F 
HETATM    6  C9  UNL     1      56.162  34.027  83.708  1.00  0.00     0.101 C 
HETATM    7  C10 UNL     1      55.001  33.998  84.620  1.00  0.00     0.047 C 
HETATM    8  N1  UNL     1      54.300  32.969  84.832  1.00  0.00    -0.397 N 
ATOM      9  H11 UNL     1      53.498  32.950  85.461  1.00  0.00     0.156 HD
ATOM     10  H12 UNL     1      54.530  32.096  84.356  1.00  0.00     0.156 HD
HETATM   11  S1  UNL     1      54.599  35.521  85.449  1.00  0.00    -0.082 SA
ENDROOT
BRANCH   1  12
HETATM   12  C4  UNL     1      54.681  38.328  86.289  1.00  0.00     0.007 C 
HETATM   13  C3  UNL     1      55.108  38.705  87.450  1.00  0.00     0.082 C 
BRANCH  13  14
HETATM   14  C2  UNL     1      56.443  38.911  87.944  1.00  0.00     0.282 C 
HETATM   15  O2  UNL     1      56.938  40.081  88.085  1.00  0.00    -0.260 OA
BRANCH  14  16
HETATM   16  O1  UNL     1      57.276  37.887  88.294  1.00  0.00    -0.323 OA
HETATM   17  C1  UNL     1      56.810  36.670  88.838  1.00  0.00     0.213 C 
ENDBRANCH  14  16
ENDBRANCH  13  14
ENDBRANCH   1  12
TORSDOF 3
ENDMDL
MODEL 3
REMARK VINA RESULT: -6.381385479      2.042      2.401
REMARK  3 active torsions:
REMARK  status: ('A' for Active; 'I' for Inactive)
REMARK    1  A    between atoms: O1_2  and  C2_3 
REMARK    2  A    between atoms: C2_3  and  C3_5 
REMARK    3  A    between atoms: C4_6  and  C5_7 
ROOT
HETATM    1  C5  UNL     1      55.522  38.006  85.124  1.00  0.00     0.015 C 
HETATM    2  C6  UNL     1      55.589  36.779  84.631  1.00  0.00    -0.013 C 
HETATM    3  C7  UNL     1      56.441  36.508  83.477  1.00  0.00     0.083 C 
HETATM    4  C8  UNL     1      56.149  35.199  82.794  1.00  0.00     0.180 C 
HETATM    5  F1  UNL     1      57.175  35.004  81.861  1.00  0.00    -0.249 F 
HETATM    6  C9  UNL     1      56.161  34.015  83.710  1.00  0.00     0.101 C 
HETATM    7  C10 UNL     1      55.000  33.995  84.622  1.00  0.00     0.047 C 
HETATM    8  N1  UNL     1      54.296  32.970  84.839  1.00  0.00    -0.397 N 
ATOM      9  H11 UNL     1      53.494  32.956  85.469  1.00  0.00     0.156 HD
ATOM     10  H12 UNL     1      54.524  32.093  84.369  1.00  0.00     0.156 HD
HETATM   11  S1  UNL     1      54.603  35.524  85.442  1.00  0.00    -0.082 SA
ENDROOT
BRANCH   1  12
HETATM   12  C4  UNL     1      54.695  38.336  86.266  1.00  0.00     0.007 C 
HETATM   13  C3  UNL     1      55.122  38.721  87.424  1.00  0.00     0.082 C 
BRANCH  13  14
HETATM   14  C2  UNL     1      56.458  38.931  87.914  1.00  0.00     0.282 C 
HETATM   15  O2  UNL     1      57.241  37.956  88.179  1.00  0.00    -0.260 OA
BRANCH  14  16
HETATM   16  O1  UNL     1      56.987  40.171  88.135  1.00  0.00    -0.323 OA
HETATM   17  C1  UNL     1      58.128  40.386  88.938  1.00  0.00     0.213 C 
ENDBRANCH  14  16
ENDBRANCH  13  14
ENDBRANCH   1  12
TORSDOF 3
ENDMDL
MODEL 4
REMARK VINA RESULT: -6.231571759      3.560      4.632
REMARK  3 active torsions:
REMARK  status: ('A' for Active; 'I' for Inactive)
REMARK    1  A    between atoms: O1_2  and  C2_3 
REMARK    2  A    between atoms: C2_3  and  C3_5 
REMARK    3  A    between atoms: C4_6  and  C5_7 
ROOT
HETATM    1  C5  UNL     1      54.109  34.768  87.242  1.00  0.00     0.015 C 
HETATM    2  C6  UNL     1      54.589  35.065  86.045  1.00  0.00    -0.013 C 
HETATM    3  C7  UNL     1      54.725  36.463  85.647  1.00  0.00     0.083 C 
HETATM    4  C8  UNL     1      54.918  36.662  84.167  1.00  0.00     0.180 C 
HETATM    5  F1  UNL     1      55.238  38.014  83.990  1.00  0.00    -0.249 F 
HETATM    6  C9  UNL     1      56.045  35.867  83.585  1.00  0.00     0.101 C 
HETATM    7  C10 UNL     1      55.745  34.423  83.526  1.00  0.00     0.047 C 
HETATM    8  N1  UNL     1      55.959  33.703  82.510  1.00  0.00    -0.397 N 
ATOM      9  H11 UNL     1      55.751  32.705  82.470  1.00  0.00     0.156 HD
ATOM     10  H12 UNL     1      56.361  34.121  81.672  1.00  0.00     0.156 HD
HETATM   11  S1  UNL     1      55.042  33.693  84.989  1.00  0.00    -0.082 SA
ENDROOT
BRANCH   1  12
HETATM   12  C4  UNL     1      53.951  33.401  87.694  1.00  0.00     0.007 C 
HETATM   13  C3  UNL     1      53.798  33.022  88.921  1.00  0.00     0.082 C 
BRANCH  13  14
HETATM   14  C2  UNL     1      53.741  33.780  90.142  1.00  0.00     0.282 C 
HETATM   15  O2  UNL     1      54.798  34.146  90.759  1.00  0.00    -0.260 OA
BRANCH  14  16
HETATM   16  O1  UNL     1      52.569  34.161  90.730  1.00  0.00    -0.323 OA
HETATM   17  C1  UNL     1      52.298  35.496  91.106  1.00  0.00     0.213 C 
ENDBRANCH  14  16
ENDBRANCH  13  14
ENDBRANCH   1  12
TORSDOF 3
ENDMDL
MODEL 5
REMARK VINA RESULT: -6.226325905      2.910      3.713
REMARK  3 active torsions:
REMARK  status: ('A' for Active; 'I' for Inactive)
REMARK    1  A    between atoms: O1_2  and  C2_3 
REMARK    2  A    between atoms: C2_3  and  C3_5 
REMARK    3  A    between atoms: C4_6  and  C5_7 
ROOT
HETATM    1  C5  UNL     1      56.393  39.593  87.701  1.00  0.00     0.015 C 
HETATM    2  C6  UNL     1      55.967  38.556  86.998  1.00  0.00    -0.013 C 
HETATM    3  C7  UNL     1      55.514  38.749  85.624  1.00  0.00     0.083 C 
HETATM    4  C8  UNL     1      54.720  37.595  85.073  1.00  0.00     0.180 C 
HETATM    5  F1  UNL     1      54.550  37.851  83.706  1.00  0.00    -0.249 F 
HETATM    6  C9  UNL     1      55.407  36.270  85.187  1.00  0.00     0.101 C 
HETATM    7  C10 UNL     1      55.469  35.785  86.580  1.00  0.00     0.047 C 
HETATM    8  N1  UNL     1      55.179  34.606  86.926  1.00  0.00    -0.397 N 
ATOM      9  H11 UNL     1      55.222  34.271  87.889  1.00  0.00     0.156 HD
ATOM     10  H12 UNL     1      54.884  33.931  86.220  1.00  0.00     0.156 HD
HETATM   11  S1  UNL     1      55.984  36.962  87.813  1.00  0.00    -0.082 SA
ENDROOT
BRANCH   1  12
HETATM   12  C4  UNL     1      56.855  39.464  89.067  1.00  0.00     0.007 C 
HETATM   13  C3  UNL     1      57.958  39.943  89.542  1.00  0.00     0.082 C 
BRANCH  13  14
HETATM   14  C2  UNL     1      59.005  40.702  88.912  1.00  0.00     0.282 C 
HETATM   15  O2  UNL     1      58.896  41.958  88.702  1.00  0.00    -0.260 OA
BRANCH  14  16
HETATM   16  O1  UNL     1      60.182  40.148  88.495  1.00  0.00    -0.323 OA
HETATM   17  C1  UNL     1      60.638  38.888  88.942  1.00  0.00     0.213 C 
ENDBRANCH  14  16
ENDBRANCH  13  14
ENDBRANCH   1  12
TORSDOF 3
ENDMDL
