MODEL 1
REMARK VINA RESULT: -7.440064750      0.000      0.000
REMARK  5 active torsions:
REMARK  status: ('A' for Active; 'I' for Inactive)
REMARK    1  A    between atoms: S1_2  and  C2_3 
REMARK    2  A    between atoms: C4_8  and  C5_9 
REMARK    3  A    between atoms: C5_9  and  N2_10 
REMARK       I    between atoms: N2_10  and  C6_12 
REMARK    4  A    between atoms: C6_12  and  C7_14 
REMARK    5  A    between atoms: C7_14  and  C8_15 
ROOT
HETATM    1  N2  UNL     1       9.007  -1.983  54.730  1.00  0.00    -0.355 N 
ATOM      2  H2  UNL     1       8.333  -2.423  54.104  1.00  0.00     0.162 HD
HETATM    3  C6  UNL     1      10.260  -1.446  54.252  1.00  0.00     0.218 C 
HETATM    4  O1  UNL     1      10.967  -0.817  55.106  1.00  0.00    -0.274 OA
ENDROOT
BRANCH   1   5
HETATM    5  C5  UNL     1       8.767  -1.857  56.147  1.00  0.00     0.191 C 
BRANCH   5   6
HETATM    6  C4  UNL     1       8.427  -3.154  56.806  1.00  0.00     0.112 A 
HETATM    7  C3  UNL     1       7.059  -3.401  57.191  1.00  0.00     0.137 A 
HETATM    8  N1  UNL     1       7.109  -4.605  57.705  1.00  0.00    -0.319 N 
HETATM    9 CL1  UNL     1       5.764  -2.276  56.985  1.00  0.00    -0.062 Cl
HETATM   10  C2  UNL     1       8.363  -5.131  57.676  1.00  0.00     0.188 A 
ATOM     11  H1  UNL     1       6.298  -5.094  58.083  1.00  0.00     0.169 HD
HETATM   12  O2  UNL     1       9.101  -4.152  57.108  1.00  0.00    -0.287 OA
BRANCH  10  13
HETATM   13  S1  UNL     1       8.937  -6.715  58.217  1.00  0.00    -0.091 SA
HETATM   14  C1  UNL     1       8.236  -8.070  57.294  1.00  0.00     0.099 C 
ENDBRANCH  10  13
ENDBRANCH   5   6
ENDBRANCH   1   5
BRANCH   3  15
HETATM   15  C7  UNL     1      10.746  -1.617  52.906  1.00  0.00     0.113 C 
BRANCH  15  16
HETATM   16  C8  UNL     1      12.111  -1.218  52.594  1.00  0.00     0.067 C 
HETATM   17  C9  UNL     1      13.251  -2.134  52.989  1.00  0.00     0.011 C 
HETATM   18  C10 UNL     1      14.538  -1.421  52.699  1.00  0.00     0.001 C 
HETATM   19  C11 UNL     1      14.645  -0.908  51.313  1.00  0.00     0.006 C 
HETATM   20  C12 UNL     1      13.354  -0.428  50.688  1.00  0.00     0.079 C 
HETATM   21  C13 UNL     1      12.185  -1.309  51.017  1.00  0.00     0.247 C 
HETATM   22  F1  UNL     1      12.500  -2.636  50.709  1.00  0.00    -0.206 F 
HETATM   23  F2  UNL     1      11.036  -0.864  50.461  1.00  0.00    -0.206 F 
ENDBRANCH  15  16
ENDBRANCH   3  15
TORSDOF 5
ENDMDL
MODEL 2
REMARK VINA RESULT: -7.285620248      6.931      8.320
REMARK  5 active torsions:
REMARK  status: ('A' for Active; 'I' for Inactive)
REMARK    1  A    between atoms: S1_2  and  C2_3 
REMARK    2  A    between atoms: C4_8  and  C5_9 
REMARK    3  A    between atoms: C5_9  and  N2_10 
REMARK       I    between atoms: N2_10  and  C6_12 
REMARK    4  A    between atoms: C6_12  and  C7_14 
REMARK    5  A    between atoms: C7_14  and  C8_15 
ROOT
HETATM    1  N2  UNL     1      16.312  -3.533  50.766  1.00  0.00    -0.355 N 
ATOM      2  H2  UNL     1      15.469  -3.636  51.331  1.00  0.00     0.162 HD
HETATM    3  C6  UNL     1      16.505  -2.413  49.876  1.00  0.00     0.218 C 
HETATM    4  O1  UNL     1      17.645  -2.331  49.311  1.00  0.00    -0.274 OA
ENDROOT
BRANCH   1   5
HETATM    5  C5  UNL     1      17.383  -4.498  50.808  1.00  0.00     0.191 C 
BRANCH   5   6
HETATM    6  C4  UNL     1      17.847  -4.805  52.195  1.00  0.00     0.112 A 
HETATM    7  C3  UNL     1      17.556  -6.101  52.755  1.00  0.00     0.137 A 
HETATM    8  N1  UNL     1      18.110  -6.043  53.941  1.00  0.00    -0.319 N 
HETATM    9 CL1  UNL     1      16.657  -7.338  51.950  1.00  0.00    -0.062 Cl
HETATM   10  C2  UNL     1      18.716  -4.848  54.173  1.00  0.00     0.188 A 
ATOM     11  H1  UNL     1      18.090  -6.809  54.614  1.00  0.00     0.169 HD
HETATM   12  O2  UNL     1      18.489  -4.154  53.036  1.00  0.00    -0.287 OA
BRANCH  10  13
HETATM   13  S1  UNL     1      19.616  -4.294  55.593  1.00  0.00    -0.091 SA
HETATM   14  C1  UNL     1      19.383  -5.333  57.022  1.00  0.00     0.099 C 
ENDBRANCH  10  13
ENDBRANCH   5   6
ENDBRANCH   1   5
BRANCH   3  15
HETATM   15  C7  UNL     1      15.488  -1.435  49.579  1.00  0.00     0.113 C 
BRANCH  15  16
HETATM   16  C8  UNL     1      14.187  -1.557  50.219  1.00  0.00     0.067 C 
HETATM   17  C9  UNL     1      14.015  -1.043  51.634  1.00  0.00     0.011 C 
HETATM   18  C10 UNL     1      12.644  -1.431  52.103  1.00  0.00     0.001 C 
HETATM   19  C11 UNL     1      11.554  -1.019  51.187  1.00  0.00     0.006 C 
HETATM   20  C12 UNL     1      11.888  -1.047  49.713  1.00  0.00     0.079 C 
HETATM   21  C13 UNL     1      13.271  -0.546  49.419  1.00  0.00     0.247 C 
HETATM   22  F1  UNL     1      13.449   0.707  50.013  1.00  0.00    -0.206 F 
HETATM   23  F2  UNL     1      13.561  -0.585  48.100  1.00  0.00    -0.206 F 
ENDBRANCH  15  16
ENDBRANCH   3  15
TORSDOF 5
ENDMDL
MODEL 3
REMARK VINA RESULT: -7.277159666      6.815      8.135
REMARK  5 active torsions:
REMARK  status: ('A' for Active; 'I' for Inactive)
REMARK    1  A    between atoms: S1_2  and  C2_3 
REMARK    2  A    between atoms: C4_8  and  C5_9 
REMARK    3  A    between atoms: C5_9  and  N2_10 
REMARK       I    between atoms: N2_10  and  C6_12 
REMARK    4  A    between atoms: C6_12  and  C7_14 
REMARK    5  A    between atoms: C7_14  and  C8_15 
ROOT
HETATM    1  N2  UNL     1      16.356  -3.539  50.499  1.00  0.00    -0.355 N 
ATOM      2  H2  UNL     1      15.495  -3.744  51.005  1.00  0.00     0.162 HD
HETATM    3  C6  UNL     1      16.539  -2.310  49.763  1.00  0.00     0.218 C 
HETATM    4  O1  UNL     1      17.697  -2.115  49.268  1.00  0.00    -0.274 OA
ENDROOT
BRANCH   1   5
HETATM    5  C5  UNL     1      17.466  -4.460  50.474  1.00  0.00     0.191 C 
BRANCH   5   6
HETATM    6  C4  UNL     1      17.447  -5.439  51.603  1.00  0.00     0.112 A 
HETATM    7  C3  UNL     1      17.737  -4.970  52.936  1.00  0.00     0.137 A 
HETATM    8  N1  UNL     1      17.614  -6.053  53.664  1.00  0.00    -0.319 N 
HETATM    9 CL1  UNL     1      18.156  -3.342  53.333  1.00  0.00    -0.062 Cl
HETATM   10  C2  UNL     1      17.276  -7.142  52.922  1.00  0.00     0.188 A 
ATOM     11  H1  UNL     1      17.756  -6.076  54.673  1.00  0.00     0.169 HD
HETATM   12  O2  UNL     1      17.205  -6.655  51.663  1.00  0.00    -0.287 OA
BRANCH  10  13
HETATM   13  S1  UNL     1      16.971  -8.808  53.435  1.00  0.00    -0.091 SA
HETATM   14  C1  UNL     1      18.242  -9.947  52.919  1.00  0.00     0.099 C 
ENDBRANCH  10  13
ENDBRANCH   5   6
ENDBRANCH   1   5
BRANCH   3  15
HETATM   15  C7  UNL     1      15.493  -1.344  49.540  1.00  0.00     0.113 C 
BRANCH  15  16
HETATM   16  C8  UNL     1      14.222  -1.509  50.229  1.00  0.00     0.067 C 
HETATM   17  C9  UNL     1      14.092  -1.015  51.656  1.00  0.00     0.011 C 
HETATM   18  C10 UNL     1      12.752  -1.447  52.173  1.00  0.00     0.001 C 
HETATM   19  C11 UNL     1      11.615  -1.057  51.306  1.00  0.00     0.006 C 
HETATM   20  C12 UNL     1      11.891  -1.061  49.819  1.00  0.00     0.079 C 
HETATM   21  C13 UNL     1      13.247  -0.517  49.477  1.00  0.00     0.247 C 
HETATM   22  F1  UNL     1      13.412   0.735  50.077  1.00  0.00    -0.206 F 
HETATM   23  F2  UNL     1      13.485  -0.534  48.147  1.00  0.00    -0.206 F 
ENDBRANCH  15  16
ENDBRANCH   3  15
TORSDOF 5
ENDMDL
MODEL 4
REMARK VINA RESULT: -7.153697523      6.211      8.328
REMARK  5 active torsions:
REMARK  status: ('A' for Active; 'I' for Inactive)
REMARK    1  A    between atoms: S1_2  and  C2_3 
REMARK    2  A    between atoms: C4_8  and  C5_9 
REMARK    3  A    between atoms: C5_9  and  N2_10 
REMARK       I    between atoms: N2_10  and  C6_12 
REMARK    4  A    between atoms: C6_12  and  C7_14 
REMARK    5  A    between atoms: C7_14  and  C8_15 
ROOT
HETATM    1  N2  UNL     1      13.396   0.026  50.816  1.00  0.00    -0.355 N 
ATOM      2  H2  UNL     1      13.659   0.522  51.668  1.00  0.00     0.162 HD
HETATM    3  C6  UNL     1      12.255  -0.857  50.765  1.00  0.00     0.218 C 
HETATM    4  O1  UNL     1      11.957  -1.328  49.619  1.00  0.00    -0.274 OA
ENDROOT
BRANCH   1   5
HETATM    5  C5  UNL     1      14.141   0.166  49.589  1.00  0.00     0.191 C 
BRANCH   5   6
HETATM    6  C4  UNL     1      15.390  -0.653  49.560  1.00  0.00     0.112 A 
HETATM    7  C3  UNL     1      16.657   0.017  49.392  1.00  0.00     0.137 A 
HETATM    8  N1  UNL     1      17.520  -0.969  49.433  1.00  0.00    -0.319 N 
HETATM    9 CL1  UNL     1      16.845   1.720  49.174  1.00  0.00    -0.062 Cl
HETATM   10  C2  UNL     1      16.921  -2.177  49.612  1.00  0.00     0.188 A 
ATOM     11  H1  UNL     1      18.528  -0.843  49.342  1.00  0.00     0.169 HD
HETATM   12  O2  UNL     1      15.607  -1.871  49.671  1.00  0.00    -0.287 OA
BRANCH  10  13
HETATM   13  S1  UNL     1      17.644  -3.786  49.760  1.00  0.00    -0.091 SA
HETATM   14  C1  UNL     1      17.147  -4.646  51.240  1.00  0.00     0.099 C 
ENDBRANCH  10  13
ENDBRANCH   5   6
ENDBRANCH   1   5
BRANCH   3  15
HETATM   15  C7  UNL     1      11.486  -1.245  51.921  1.00  0.00     0.113 C 
BRANCH  15  16
HETATM   16  C8  UNL     1      11.961  -2.346  52.746  1.00  0.00     0.067 C 
HETATM   17  C9  UNL     1      13.135  -3.172  52.261  1.00  0.00     0.011 C 
HETATM   18  C10 UNL     1      13.314  -4.321  53.209  1.00  0.00     0.001 C 
HETATM   19  C11 UNL     1      13.421  -3.919  54.631  1.00  0.00     0.006 C 
HETATM   20  C12 UNL     1      12.595  -2.720  55.040  1.00  0.00     0.079 C 
HETATM   21  C13 UNL     1      12.597  -1.632  54.006  1.00  0.00     0.247 C 
HETATM   22  F1  UNL     1      13.915  -1.317  53.663  1.00  0.00    -0.206 F 
HETATM   23  F2  UNL     1      11.848  -0.571  54.379  1.00  0.00    -0.206 F 
ENDBRANCH  15  16
ENDBRANCH   3  15
TORSDOF 5
ENDMDL
MODEL 5
REMARK VINA RESULT: -7.072153302      6.193      8.363
REMARK  5 active torsions:
REMARK  status: ('A' for Active; 'I' for Inactive)
REMARK    1  A    between atoms: S1_2  and  C2_3 
REMARK    2  A    between atoms: C4_8  and  C5_9 
REMARK    3  A    between atoms: C5_9  and  N2_10 
REMARK       I    between atoms: N2_10  and  C6_12 
REMARK    4  A    between atoms: C6_12  and  C7_14 
REMARK    5  A    between atoms: C7_14  and  C8_15 
ROOT
HETATM    1  N2  UNL     1      13.397   0.008  50.638  1.00  0.00    -0.355 N 
ATOM      2  H2  UNL     1      13.613   0.596  51.443  1.00  0.00     0.162 HD
HETATM    3  C6  UNL     1      12.308  -0.940  50.652  1.00  0.00     0.218 C 
HETATM    4  O1  UNL     1      12.062  -1.532  49.550  1.00  0.00    -0.274 OA
ENDROOT
BRANCH   1   5
HETATM    5  C5  UNL     1      14.160   0.075  49.416  1.00  0.00     0.191 C 
BRANCH   5   6
HETATM    6  C4  UNL     1      15.423  -0.721  49.464  1.00  0.00     0.112 A 
HETATM    7  C3  UNL     1      16.686  -0.024  49.439  1.00  0.00     0.137 A 
HETATM    8  N1  UNL     1      17.562  -0.996  49.516  1.00  0.00    -0.319 N 
HETATM    9 CL1  UNL     1      16.857   1.690  49.310  1.00  0.00    -0.062 Cl
HETATM   10  C2  UNL     1      16.975  -2.221  49.590  1.00  0.00     0.188 A 
ATOM     11  H1  UNL     1      18.571  -0.850  49.521  1.00  0.00     0.169 HD
HETATM   12  O2  UNL     1      15.654  -1.939  49.543  1.00  0.00    -0.287 OA
BRANCH  10  13
HETATM   13  S1  UNL     1      17.714  -3.822  49.735  1.00  0.00    -0.091 SA
HETATM   14  C1  UNL     1      17.304  -4.651  51.259  1.00  0.00     0.099 C 
ENDBRANCH  10  13
ENDBRANCH   5   6
ENDBRANCH   1   5
BRANCH   3  15
HETATM   15  C7  UNL     1      11.536  -1.261  51.826  1.00  0.00     0.113 C 
BRANCH  15  16
HETATM   16  C8  UNL     1      12.206  -1.314  53.117  1.00  0.00     0.067 C 
HETATM   17  C9  UNL     1      11.475  -0.806  54.343  1.00  0.00     0.011 C 
HETATM   18  C10 UNL     1      12.437  -0.827  55.495  1.00  0.00     0.001 C 
HETATM   19  C11 UNL     1      13.102  -2.135  55.701  1.00  0.00     0.006 C 
HETATM   20  C12 UNL     1      13.403  -2.926  54.448  1.00  0.00     0.079 C 
HETATM   21  C13 UNL     1      12.295  -2.860  53.438  1.00  0.00     0.247 C 
HETATM   22  F1  UNL     1      11.087  -3.210  54.048  1.00  0.00    -0.206 F 
HETATM   23  F2  UNL     1      12.579  -3.562  52.320  1.00  0.00    -0.206 F 
ENDBRANCH  15  16
ENDBRANCH   3  15
TORSDOF 5
ENDMDL
