MODEL 1
REMARK VINA RESULT: -6.357129862      0.000      0.000
REMARK  6 active torsions:
REMARK  status: ('A' for Active; 'I' for Inactive)
REMARK    1  A    between atoms: C2_2  and  N1_4 
REMARK    2  A    between atoms: C2_2  and  C11_18 
REMARK    3  A    between atoms: N1_4  and  C4_6 
REMARK    4  A    between atoms: C7_9  and  O1_10 
REMARK    5  A    between atoms: O1_10  and  C8_11 
REMARK    6  A    between atoms: C8_11  and  C9_12 
ROOT
HETATM    1  C4  UNL     1      17.179  -3.357  51.180  1.00  0.00     0.105 A 
HETATM    2  C5  UNL     1      16.837  -2.234  51.904  1.00  0.00     0.040 A 
HETATM    3  C6  UNL     1      16.320  -1.128  51.232  1.00  0.00     0.066 A 
HETATM    4  C7  UNL     1      16.138  -1.115  49.868  1.00  0.00     0.189 A 
HETATM    5  O2  UNL     1      16.475  -2.193  49.226  1.00  0.00    -0.250 OA
HETATM    6  C10 UNL     1      16.969  -3.269  49.818  1.00  0.00     0.316 A 
HETATM    7  O3  UNL     1      17.263  -4.264  49.097  1.00  0.00    -0.257 OA
ENDROOT
BRANCH   1   8
HETATM    8  N1  UNL     1      17.715  -4.543  51.740  1.00  0.00    -0.374 N 
ATOM      9  H1  UNL     1      18.704  -4.732  51.578  1.00  0.00     0.160 HD
BRANCH   8  10
HETATM   10  C2  UNL     1      16.976  -5.506  52.522  1.00  0.00     0.053 C 
HETATM   11  C1  UNL     1      17.197  -6.919  52.091  1.00  0.00     0.041 C 
HETATM   12  C3  UNL     1      15.483  -5.216  52.476  1.00  0.00     0.041 C 
BRANCH  10  13
HETATM   13  C11 UNL     1      17.462  -5.381  53.973  1.00  0.00     0.205 C 
HETATM   14 CL3  UNL     1      19.094  -4.675  53.991  1.00  0.00    -0.106 Cl
HETATM   15 CL4  UNL     1      16.351  -4.311  54.867  1.00  0.00    -0.106 Cl
ENDBRANCH  10  13
ENDBRANCH   8  10
ENDBRANCH   1   8
BRANCH   4  16
HETATM   16  O1  UNL     1      15.628  -0.041  49.155  1.00  0.00    -0.328 OA
BRANCH  16  17
HETATM   17  C8  UNL     1      16.453   1.029  48.765  1.00  0.00     0.213 C 
BRANCH  17  18
HETATM   18  C9  UNL     1      16.019   2.295  49.476  1.00  0.00     0.202 C 
HETATM   19 CL1  UNL     1      16.138   3.690  48.396  1.00  0.00    -0.106 Cl
HETATM   20 CL2  UNL     1      14.340   2.155  50.016  1.00  0.00    -0.106 Cl
ENDBRANCH  17  18
ENDBRANCH  16  17
ENDBRANCH   4  16
TORSDOF 6
ENDMDL
MODEL 2
REMARK VINA RESULT: -6.302907553      6.679      8.778
REMARK  6 active torsions:
REMARK  status: ('A' for Active; 'I' for Inactive)
REMARK    1  A    between atoms: C2_2  and  N1_4 
REMARK    2  A    between atoms: C2_2  and  C11_18 
REMARK    3  A    between atoms: N1_4  and  C4_6 
REMARK    4  A    between atoms: C7_9  and  O1_10 
REMARK    5  A    between atoms: O1_10  and  C8_11 
REMARK    6  A    between atoms: C8_11  and  C9_12 
ROOT
HETATM    1  C4  UNL     1      11.594  -0.960  53.130  1.00  0.00     0.105 A 
HETATM    2  C5  UNL     1      10.330  -1.368  52.761  1.00  0.00     0.040 A 
HETATM    3  C6  UNL     1       9.376  -1.596  53.752  1.00  0.00     0.066 A 
HETATM    4  C7  UNL     1       9.652  -1.427  55.090  1.00  0.00     0.189 A 
HETATM    5  O2  UNL     1      10.855  -1.043  55.392  1.00  0.00    -0.250 OA
HETATM    6  C10 UNL     1      11.795  -0.814  54.488  1.00  0.00     0.316 A 
HETATM    7  O3  UNL     1      12.933  -0.442  54.893  1.00  0.00    -0.257 OA
ENDROOT
BRANCH   1   8
HETATM    8  N1  UNL     1      12.652  -0.699  52.224  1.00  0.00    -0.374 N 
ATOM      9  H1  UNL     1      12.768   0.263  51.905  1.00  0.00     0.160 HD
BRANCH   8  10
HETATM   10  C2  UNL     1      13.578  -1.683  51.716  1.00  0.00     0.053 C 
HETATM   11  C1  UNL     1      13.153  -3.091  51.974  1.00  0.00     0.041 C 
HETATM   12  C3  UNL     1      14.966  -1.483  52.306  1.00  0.00     0.041 C 
BRANCH  10  13
HETATM   13  C11 UNL     1      13.654  -1.491  50.194  1.00  0.00     0.205 C 
HETATM   14 CL3  UNL     1      12.041  -1.077  49.570  1.00  0.00    -0.106 Cl
HETATM   15 CL4  UNL     1      14.782  -0.158  49.833  1.00  0.00    -0.106 Cl
ENDBRANCH  10  13
ENDBRANCH   8  10
ENDBRANCH   1   8
BRANCH   4  16
HETATM   16  O1  UNL     1       8.739  -1.640  56.111  1.00  0.00    -0.328 OA
BRANCH  16  17
HETATM   17  C8  UNL     1       8.822  -2.777  56.934  1.00  0.00     0.213 C 
BRANCH  17  18
HETATM   18  C9  UNL     1       7.549  -3.589  56.815  1.00  0.00     0.202 C 
HETATM   19 CL1  UNL     1       7.602  -4.995  57.886  1.00  0.00    -0.106 Cl
HETATM   20 CL2  UNL     1       6.146  -2.607  57.261  1.00  0.00    -0.106 Cl
ENDBRANCH  17  18
ENDBRANCH  16  17
ENDBRANCH   4  16
TORSDOF 6
ENDMDL
MODEL 3
REMARK VINA RESULT: -6.294777549      5.203      6.104
REMARK  6 active torsions:
REMARK  status: ('A' for Active; 'I' for Inactive)
REMARK    1  A    between atoms: C2_2  and  N1_4 
REMARK    2  A    between atoms: C2_2  and  C11_18 
REMARK    3  A    between atoms: N1_4  and  C4_6 
REMARK    4  A    between atoms: C7_9  and  O1_10 
REMARK    5  A    between atoms: O1_10  and  C8_11 
REMARK    6  A    between atoms: C8_11  and  C9_12 
ROOT
HETATM    1  C4  UNL     1      11.559  -2.625  53.050  1.00  0.00     0.105 A 
HETATM    2  C5  UNL     1      11.204  -1.506  52.326  1.00  0.00     0.040 A 
HETATM    3  C6  UNL     1      12.018  -1.098  51.270  1.00  0.00     0.066 A 
HETATM    4  C7  UNL     1      13.165  -1.773  50.923  1.00  0.00     0.189 A 
HETATM    5  O2  UNL     1      13.462  -2.821  51.632  1.00  0.00    -0.250 OA
HETATM    6  C10 UNL     1      12.722  -3.248  52.643  1.00  0.00     0.316 A 
HETATM    7  O3  UNL     1      13.103  -4.280  53.265  1.00  0.00    -0.257 OA
ENDROOT
BRANCH   1   8
HETATM    8  N1  UNL     1      10.822  -3.142  54.144  1.00  0.00    -0.374 N 
ATOM      9  H1  UNL     1      10.364  -4.045  54.016  1.00  0.00     0.160 HD
BRANCH   8  10
HETATM   10  C2  UNL     1      10.667  -2.496  55.426  1.00  0.00     0.053 C 
HETATM   11  C1  UNL     1      11.766  -1.536  55.747  1.00  0.00     0.041 C 
HETATM   12  C3  UNL     1      10.579  -3.519  56.548  1.00  0.00     0.041 C 
BRANCH  10  13
HETATM   13  C11 UNL     1       9.355  -1.699  55.376  1.00  0.00     0.205 C 
HETATM   14 CL3  UNL     1       8.380  -2.073  56.815  1.00  0.00    -0.106 Cl
HETATM   15 CL4  UNL     1       9.734   0.043  55.361  1.00  0.00    -0.106 Cl
ENDBRANCH  10  13
ENDBRANCH   8  10
ENDBRANCH   1   8
BRANCH   4  16
HETATM   16  O1  UNL     1      14.006  -1.407  49.883  1.00  0.00    -0.328 OA
BRANCH  16  17
HETATM   17  C8  UNL     1      15.210  -0.724  50.129  1.00  0.00     0.213 C 
BRANCH  17  18
HETATM   18  C9  UNL     1      15.220   0.585  49.367  1.00  0.00     0.202 C 
HETATM   19 CL1  UNL     1      14.056   1.722  50.061  1.00  0.00    -0.106 Cl
HETATM   20 CL2  UNL     1      16.825   1.327  49.434  1.00  0.00    -0.106 Cl
ENDBRANCH  17  18
ENDBRANCH  16  17
ENDBRANCH   4  16
TORSDOF 6
ENDMDL
MODEL 4
REMARK VINA RESULT: -6.189563764      1.814      2.046
REMARK  6 active torsions:
REMARK  status: ('A' for Active; 'I' for Inactive)
REMARK    1  A    between atoms: C2_2  and  N1_4 
REMARK    2  A    between atoms: C2_2  and  C11_18 
REMARK    3  A    between atoms: N1_4  and  C4_6 
REMARK    4  A    between atoms: C7_9  and  O1_10 
REMARK    5  A    between atoms: O1_10  and  C8_11 
REMARK    6  A    between atoms: C8_11  and  C9_12 
ROOT
HETATM    1  C4  UNL     1      17.182  -3.401  51.181  1.00  0.00     0.105 A 
HETATM    2  C5  UNL     1      16.903  -2.303  51.967  1.00  0.00     0.040 A 
HETATM    3  C6  UNL     1      16.352  -1.168  51.373  1.00  0.00     0.066 A 
HETATM    4  C7  UNL     1      16.077  -1.104  50.026  1.00  0.00     0.189 A 
HETATM    5  O2  UNL     1      16.357  -2.161  49.323  1.00  0.00    -0.250 OA
HETATM    6  C10 UNL     1      16.880  -3.262  49.842  1.00  0.00     0.316 A 
HETATM    7  O3  UNL     1      17.112  -4.233  49.066  1.00  0.00    -0.257 OA
ENDROOT
BRANCH   1   8
HETATM    8  N1  UNL     1      17.742  -4.611  51.660  1.00  0.00    -0.374 N 
ATOM      9  H1  UNL     1      18.714  -4.806  51.417  1.00  0.00     0.160 HD
BRANCH   8  10
HETATM   10  C2  UNL     1      17.051  -5.591  52.464  1.00  0.00     0.053 C 
HETATM   11  C1  UNL     1      17.276  -6.997  52.014  1.00  0.00     0.041 C 
HETATM   12  C3  UNL     1      15.554  -5.325  52.483  1.00  0.00     0.041 C 
BRANCH  10  13
HETATM   13  C11 UNL     1      17.595  -5.469  53.895  1.00  0.00     0.205 C 
HETATM   14 CL3  UNL     1      19.193  -4.689  53.856  1.00  0.00    -0.106 Cl
HETATM   15 CL4  UNL     1      16.478  -4.467  54.857  1.00  0.00    -0.106 Cl
ENDBRANCH  10  13
ENDBRANCH   8  10
ENDBRANCH   1   8
BRANCH   4  16
HETATM   16  O1  UNL     1      15.531  -0.001  49.388  1.00  0.00    -0.328 OA
BRANCH  16  17
HETATM   17  C8  UNL     1      14.246   0.465  49.717  1.00  0.00     0.213 C 
BRANCH  17  18
HETATM   18  C9  UNL     1      13.322  -0.711  49.956  1.00  0.00     0.202 C 
HETATM   19 CL1  UNL     1      12.484  -0.544  51.504  1.00  0.00    -0.106 Cl
HETATM   20 CL2  UNL     1      12.103  -0.809  48.676  1.00  0.00    -0.106 Cl
ENDBRANCH  17  18
ENDBRANCH  16  17
ENDBRANCH   4  16
TORSDOF 6
ENDMDL
MODEL 5
REMARK VINA RESULT: -6.189141130      1.489      1.757
REMARK  6 active torsions:
REMARK  status: ('A' for Active; 'I' for Inactive)
REMARK    1  A    between atoms: C2_2  and  N1_4 
REMARK    2  A    between atoms: C2_2  and  C11_18 
REMARK    3  A    between atoms: N1_4  and  C4_6 
REMARK    4  A    between atoms: C7_9  and  O1_10 
REMARK    5  A    between atoms: O1_10  and  C8_11 
REMARK    6  A    between atoms: C8_11  and  C9_12 
ROOT
HETATM    1  C4  UNL     1      16.647  -3.446  51.067  1.00  0.00     0.105 A 
HETATM    2  C5  UNL     1      16.211  -2.331  51.751  1.00  0.00     0.040 A 
HETATM    3  C6  UNL     1      16.468  -1.068  51.219  1.00  0.00     0.066 A 
HETATM    4  C7  UNL     1      17.142  -0.894  50.032  1.00  0.00     0.189 A 
HETATM    5  O2  UNL     1      17.534  -1.971  49.422  1.00  0.00    -0.250 OA
HETATM    6  C10 UNL     1      17.315  -3.192  49.886  1.00  0.00     0.316 A 
HETATM    7  O3  UNL     1      17.741  -4.171  49.210  1.00  0.00    -0.257 OA
ENDROOT
BRANCH   1   8
HETATM    8  N1  UNL     1      16.453  -4.781  51.499  1.00  0.00    -0.374 N 
ATOM      9  H1  UNL     1      15.900  -5.393  50.898  1.00  0.00     0.160 HD
BRANCH   8  10
HETATM   10  C2  UNL     1      16.974  -5.347  52.721  1.00  0.00     0.053 C 
HETATM   11  C1  UNL     1      16.059  -5.184  53.891  1.00  0.00     0.041 C 
HETATM   12  C3  UNL     1      18.322  -4.737  53.076  1.00  0.00     0.041 C 
BRANCH  10  13
HETATM   13  C11 UNL     1      17.158  -6.853  52.481  1.00  0.00     0.205 C 
HETATM   14 CL3  UNL     1      17.796  -7.614  53.956  1.00  0.00    -0.106 Cl
HETATM   15 CL4  UNL     1      15.577  -7.575  52.086  1.00  0.00    -0.106 Cl
ENDBRANCH  10  13
ENDBRANCH   8  10
ENDBRANCH   1   8
BRANCH   4  16
HETATM   16  O1  UNL     1      17.421   0.339  49.463  1.00  0.00    -0.328 OA
BRANCH  16  17
HETATM   17  C8  UNL     1      16.451   1.029  48.713  1.00  0.00     0.213 C 
BRANCH  17  18
HETATM   18  C9  UNL     1      15.986   2.250  49.480  1.00  0.00     0.202 C 
HETATM   19 CL1  UNL     1      16.076   3.696  48.466  1.00  0.00    -0.106 Cl
HETATM   20 CL2  UNL     1      14.308   2.047  50.006  1.00  0.00    -0.106 Cl
ENDBRANCH  17  18
ENDBRANCH  16  17
ENDBRANCH   4  16
TORSDOF 6
ENDMDL
