MODEL 1
REMARK VINA RESULT: -7.420433562      0.000      0.000
REMARK  5 active torsions:
REMARK  status: ('A' for Active; 'I' for Inactive)
REMARK    1  A    between atoms: C4_5  and  C5_6 
REMARK    2  A    between atoms: C8_10  and  N2_11 
REMARK    3  A    between atoms: N2_11  and  C9_13 
REMARK    4  A    between atoms: C13_18  and  O2_19 
REMARK    5  A    between atoms: O2_19  and  C14_20 
ROOT
HETATM    1  C1  UNL     1      17.730  -6.524  53.102  1.00  0.00     0.060 C 
HETATM    2  C2  UNL     1      17.472  -5.138  52.649  1.00  0.00     0.019 C 
HETATM    3  C3  UNL     1      18.080  -4.074  53.370  1.00  0.00     0.094 C 
HETATM    4  N1  UNL     1      18.576  -3.203  53.998  1.00  0.00    -0.192 NA
HETATM    5  C4  UNL     1      16.668  -4.919  51.651  1.00  0.00     0.031 C 
ENDROOT
BRANCH   5   6
HETATM    6  C5  UNL     1      16.324  -3.604  51.092  1.00  0.00    -0.007 A 
HETATM    7  C6  UNL     1      17.242  -2.945  50.304  1.00  0.00     0.058 A 
HETATM    8  C7  UNL     1      16.994  -1.680  49.768  1.00  0.00     0.146 A 
HETATM    9  F1  UNL     1      17.940  -1.127  48.993  1.00  0.00    -0.204 F 
HETATM   10  C8  UNL     1      15.810  -1.020  50.004  1.00  0.00     0.104 A 
HETATM   11  C13 UNL     1      14.891  -1.681  50.794  1.00  0.00     0.127 A 
HETATM   12  C15 UNL     1      15.148  -2.949  51.328  1.00  0.00     0.080 A 
HETATM   13 CL1  UNL     1      13.956  -3.685  52.375  1.00  0.00    -0.080 Cl
BRANCH  10  14
HETATM   14  N2  UNL     1      15.523   0.289  49.512  1.00  0.00    -0.359 N 
ATOM     15  H2  UNL     1      14.913   0.329  48.695  1.00  0.00     0.162 HD
BRANCH  14  16
HETATM   16  C9  UNL     1      15.969   1.541  50.005  1.00  0.00     0.221 C 
HETATM   17  C10 UNL     1      14.966   2.628  49.735  1.00  0.00     0.056 C 
HETATM   18  C11 UNL     1      15.602   3.450  48.672  1.00  0.00     0.031 C 
HETATM   19  C12 UNL     1      16.816   2.655  48.270  1.00  0.00     0.170 C 
HETATM   20  O1  UNL     1      17.159   1.878  49.363  1.00  0.00    -0.367 OA
ENDBRANCH  14  16
ENDBRANCH  10  14
BRANCH  11  21
HETATM   21  O2  UNL     1      13.653  -1.081  51.080  1.00  0.00    -0.286 OA
BRANCH  21  22
HETATM   22  C14 UNL     1      12.491  -1.353  50.289  1.00  0.00     0.505 C 
HETATM   23  F2  UNL     1      11.348  -1.031  51.026  1.00  0.00    -0.184 F 
HETATM   24  F3  UNL     1      12.472  -0.511  49.210  1.00  0.00    -0.184 F 
ENDBRANCH  21  22
ENDBRANCH  11  21
ENDBRANCH   5   6
TORSDOF 5
ENDMDL
MODEL 2
REMARK VINA RESULT: -7.403824992      2.492      3.668
REMARK  5 active torsions:
REMARK  status: ('A' for Active; 'I' for Inactive)
REMARK    1  A    between atoms: C4_5  and  C5_6 
REMARK    2  A    between atoms: C8_10  and  N2_11 
REMARK    3  A    between atoms: N2_11  and  C9_13 
REMARK    4  A    between atoms: C13_18  and  O2_19 
REMARK    5  A    between atoms: O2_19  and  C14_20 
ROOT
HETATM    1  C1  UNL     1      17.781  -7.429  53.246  1.00  0.00     0.060 C 
HETATM    2  C2  UNL     1      17.458  -6.003  53.012  1.00  0.00     0.019 C 
HETATM    3  C3  UNL     1      18.319  -5.021  53.574  1.00  0.00     0.094 C 
HETATM    4  N1  UNL     1      19.034  -4.220  54.071  1.00  0.00    -0.192 NA
HETATM    5  C4  UNL     1      16.385  -5.679  52.354  1.00  0.00     0.031 C 
ENDROOT
BRANCH   5   6
HETATM    6  C5  UNL     1      15.943  -4.312  52.043  1.00  0.00    -0.007 A 
HETATM    7  C6  UNL     1      15.096  -3.662  52.915  1.00  0.00     0.058 A 
HETATM    8  C7  UNL     1      14.612  -2.377  52.666  1.00  0.00     0.146 A 
HETATM    9  F1  UNL     1      13.810  -1.817  53.585  1.00  0.00    -0.204 F 
HETATM   10  C8  UNL     1      14.958  -1.688  51.527  1.00  0.00     0.104 A 
HETATM   11  C13 UNL     1      15.806  -2.340  50.655  1.00  0.00     0.127 A 
HETATM   12  C15 UNL     1      16.286  -3.628  50.911  1.00  0.00     0.080 A 
HETATM   13 CL1  UNL     1      17.302  -4.407  49.719  1.00  0.00    -0.080 Cl
BRANCH  10  14
HETATM   14  N2  UNL     1      14.460  -0.388  51.207  1.00  0.00    -0.359 N 
ATOM     15  H2  UNL     1      15.121   0.379  51.330  1.00  0.00     0.162 HD
BRANCH  14  16
HETATM   16  C9  UNL     1      13.173  -0.020  50.742  1.00  0.00     0.221 C 
HETATM   17  C10 UNL     1      12.296  -1.223  50.536  1.00  0.00     0.056 C 
HETATM   18  C11 UNL     1      12.184  -1.340  49.059  1.00  0.00     0.031 C 
HETATM   19  C12 UNL     1      13.169  -0.329  48.534  1.00  0.00     0.170 C 
HETATM   20  O1  UNL     1      13.308   0.634  49.518  1.00  0.00    -0.367 OA
ENDBRANCH  14  16
ENDBRANCH  10  14
BRANCH  11  21
HETATM   21  O2  UNL     1      16.214  -1.705  49.469  1.00  0.00    -0.286 OA
BRANCH  21  22
HETATM   22  C14 UNL     1      17.312  -0.785  49.454  1.00  0.00     0.505 C 
HETATM   23  F2  UNL     1      16.838   0.489  49.129  1.00  0.00    -0.184 F 
HETATM   24  F3  UNL     1      17.820  -0.668  50.719  1.00  0.00    -0.184 F 
ENDBRANCH  21  22
ENDBRANCH  11  21
ENDBRANCH   5   6
TORSDOF 5
ENDMDL
MODEL 3
REMARK VINA RESULT: -7.235035085      3.662      5.646
REMARK  5 active torsions:
REMARK  status: ('A' for Active; 'I' for Inactive)
REMARK    1  A    between atoms: C4_5  and  C5_6 
REMARK    2  A    between atoms: C8_10  and  N2_11 
REMARK    3  A    between atoms: N2_11  and  C9_13 
REMARK    4  A    between atoms: C13_18  and  O2_19 
REMARK    5  A    between atoms: O2_19  and  C14_20 
ROOT
HETATM    1  C1  UNL     1       9.374  -1.232  55.610  1.00  0.00     0.060 C 
HETATM    2  C2  UNL     1      10.734  -0.971  55.086  1.00  0.00     0.019 C 
HETATM    3  C3  UNL     1      11.379   0.239  55.468  1.00  0.00     0.094 C 
HETATM    4  N1  UNL     1      11.886   1.261  55.778  1.00  0.00    -0.192 NA
HETATM    5  C4  UNL     1      11.285  -1.811  54.261  1.00  0.00     0.031 C 
ENDROOT
BRANCH   5   6
HETATM    6  C5  UNL     1      12.624  -1.685  53.667  1.00  0.00    -0.007 A 
HETATM    7  C6  UNL     1      13.735  -1.855  54.465  1.00  0.00     0.058 A 
HETATM    8  C7  UNL     1      15.034  -1.718  53.974  1.00  0.00     0.146 A 
HETATM    9  F1  UNL     1      16.053  -1.926  54.823  1.00  0.00    -0.204 F 
HETATM   10  C8  UNL     1      15.274  -1.401  52.657  1.00  0.00     0.104 A 
HETATM   11  C13 UNL     1      14.161  -1.230  51.859  1.00  0.00     0.127 A 
HETATM   12  C15 UNL     1      12.862  -1.369  52.359  1.00  0.00     0.080 A 
HETATM   13 CL1  UNL     1      11.507  -1.068  51.294  1.00  0.00    -0.080 Cl
BRANCH  10  14
HETATM   14  N2  UNL     1      16.581  -1.212  52.115  1.00  0.00    -0.359 N 
ATOM     15  H2  UNL     1      16.926  -0.252  52.121  1.00  0.00     0.162 HD
BRANCH  14  16
HETATM   16  C9  UNL     1      17.466  -2.176  51.570  1.00  0.00     0.221 C 
HETATM   17  C10 UNL     1      17.348  -2.248  50.073  1.00  0.00     0.056 C 
HETATM   18  C11 UNL     1      16.670  -3.547  49.825  1.00  0.00     0.031 C 
HETATM   19  C12 UNL     1      16.266  -4.018  51.198  1.00  0.00     0.170 C 
HETATM   20  O1  UNL     1      17.142  -3.428  52.092  1.00  0.00    -0.367 OA
ENDBRANCH  14  16
ENDBRANCH  10  14
BRANCH  11  21
HETATM   21  O2  UNL     1      14.316  -0.911  50.500  1.00  0.00    -0.286 OA
BRANCH  21  22
HETATM   22  C14 UNL     1      14.479   0.444  50.064  1.00  0.00     0.505 C 
HETATM   23  F2  UNL     1      15.497   0.500  49.109  1.00  0.00    -0.184 F 
HETATM   24  F3  UNL     1      13.347   0.846  49.408  1.00  0.00    -0.184 F 
ENDBRANCH  21  22
ENDBRANCH  11  21
ENDBRANCH   5   6
TORSDOF 5
ENDMDL
MODEL 4
REMARK VINA RESULT: -7.064362603      3.521      5.631
REMARK  5 active torsions:
REMARK  status: ('A' for Active; 'I' for Inactive)
REMARK    1  A    between atoms: C4_5  and  C5_6 
REMARK    2  A    between atoms: C8_10  and  N2_11 
REMARK    3  A    between atoms: N2_11  and  C9_13 
REMARK    4  A    between atoms: C13_18  and  O2_19 
REMARK    5  A    between atoms: O2_19  and  C14_20 
ROOT
HETATM    1  C1  UNL     1       9.192  -1.425  55.711  1.00  0.00     0.060 C 
HETATM    2  C2  UNL     1      10.446  -1.041  55.024  1.00  0.00     0.019 C 
HETATM    3  C3  UNL     1      11.114   0.138  55.458  1.00  0.00     0.094 C 
HETATM    4  N1  UNL     1      11.640   1.134  55.817  1.00  0.00    -0.192 NA
HETATM    5  C4  UNL     1      10.880  -1.746  54.022  1.00  0.00     0.031 C 
ENDROOT
BRANCH   5   6
HETATM    6  C5  UNL     1      12.106  -1.489  53.253  1.00  0.00    -0.007 A 
HETATM    7  C6  UNL     1      12.007  -0.964  51.982  1.00  0.00     0.058 A 
HETATM    8  C7  UNL     1      13.128  -0.725  51.184  1.00  0.00     0.146 A 
HETATM    9  F1  UNL     1      12.933  -0.190  49.969  1.00  0.00    -0.204 F 
HETATM   10  C8  UNL     1      14.399  -1.007  51.629  1.00  0.00     0.104 A 
HETATM   11  C13 UNL     1      14.496  -1.533  52.902  1.00  0.00     0.127 A 
HETATM   12  C15 UNL     1      13.369  -1.770  53.695  1.00  0.00     0.080 A 
HETATM   13 CL1  UNL     1      13.578  -2.503  55.269  1.00  0.00    -0.080 Cl
BRANCH  10  14
HETATM   14  N2  UNL     1      15.573  -0.818  50.839  1.00  0.00    -0.359 N 
ATOM     15  H2  UNL     1      16.282  -0.205  51.242  1.00  0.00     0.162 HD
BRANCH  14  16
HETATM   16  C9  UNL     1      15.888  -1.367  49.571  1.00  0.00     0.221 C 
HETATM   17  C10 UNL     1      16.173  -2.840  49.664  1.00  0.00     0.056 C 
HETATM   18  C11 UNL     1      17.640  -2.939  49.449  1.00  0.00     0.031 C 
HETATM   19  C12 UNL     1      18.110  -1.507  49.460  1.00  0.00     0.170 C 
HETATM   20  O1  UNL     1      17.028  -0.734  49.078  1.00  0.00    -0.367 OA
ENDBRANCH  14  16
ENDBRANCH  10  14
BRANCH  11  21
HETATM   21  O2  UNL     1      15.758  -1.844  53.436  1.00  0.00    -0.286 OA
BRANCH  21  22
HETATM   22  C14 UNL     1      16.281  -3.177  53.391  1.00  0.00     0.505 C 
HETATM   23  F2  UNL     1      15.459  -3.965  52.582  1.00  0.00    -0.184 F 
HETATM   24  F3  UNL     1      17.497  -3.163  52.763  1.00  0.00    -0.184 F 
ENDBRANCH  21  22
ENDBRANCH  11  21
ENDBRANCH   5   6
TORSDOF 5
ENDMDL
MODEL 5
REMARK VINA RESULT: -7.061999290      3.890      6.434
REMARK  5 active torsions:
REMARK  status: ('A' for Active; 'I' for Inactive)
REMARK    1  A    between atoms: C4_5  and  C5_6 
REMARK    2  A    between atoms: C8_10  and  N2_11 
REMARK    3  A    between atoms: N2_11  and  C9_13 
REMARK    4  A    between atoms: C13_18  and  O2_19 
REMARK    5  A    between atoms: O2_19  and  C14_20 
ROOT
HETATM    1  C1  UNL     1       9.199  -1.162  55.122  1.00  0.00     0.060 C 
HETATM    2  C2  UNL     1      10.660  -1.001  54.944  1.00  0.00     0.019 C 
HETATM    3  C3  UNL     1      11.261   0.205  55.400  1.00  0.00     0.094 C 
HETATM    4  N1  UNL     1      11.736   1.225  55.764  1.00  0.00    -0.192 NA
HETATM    5  C4  UNL     1      11.347  -1.923  54.339  1.00  0.00     0.031 C 
ENDROOT
BRANCH   5   6
HETATM    6  C5  UNL     1      12.797  -1.900  54.097  1.00  0.00    -0.007 A 
HETATM    7  C6  UNL     1      13.656  -2.272  55.108  1.00  0.00     0.058 A 
HETATM    8  C7  UNL     1      15.043  -2.243  54.957  1.00  0.00     0.146 A 
HETATM    9  F1  UNL     1      15.798  -2.645  55.991  1.00  0.00    -0.204 F 
HETATM   10  C8  UNL     1      15.629  -1.836  53.781  1.00  0.00     0.104 A 
HETATM   11  C13 UNL     1      14.767  -1.464  52.769  1.00  0.00     0.127 A 
HETATM   12  C15 UNL     1      13.378  -1.495  52.928  1.00  0.00     0.080 A 
HETATM   13 CL1  UNL     1      12.362  -0.941  51.616  1.00  0.00    -0.080 Cl
BRANCH  10  14
HETATM   14  N2  UNL     1      17.041  -1.751  53.588  1.00  0.00    -0.359 N 
ATOM     15  H2  UNL     1      17.458  -0.840  53.777  1.00  0.00     0.162 HD
BRANCH  14  16
HETATM   16  C9  UNL     1      17.943  -2.762  53.171  1.00  0.00     0.221 C 
HETATM   17  C10 UNL     1      17.251  -4.087  53.015  1.00  0.00     0.056 C 
HETATM   18  C11 UNL     1      17.751  -4.894  54.159  1.00  0.00     0.031 C 
HETATM   19  C12 UNL     1      18.522  -3.906  54.995  1.00  0.00     0.170 C 
HETATM   20  O1  UNL     1      18.938  -2.903  54.137  1.00  0.00    -0.367 OA
ENDBRANCH  14  16
ENDBRANCH  10  14
BRANCH  11  21
HETATM   21  O2  UNL     1      15.282  -1.041  51.531  1.00  0.00    -0.286 OA
BRANCH  21  22
HETATM   22  C14 UNL     1      15.452  -1.954  50.441  1.00  0.00     0.505 C 
HETATM   23  F2  UNL     1      14.815  -1.439  49.309  1.00  0.00    -0.184 F 
HETATM   24  F3  UNL     1      16.778  -2.019  50.109  1.00  0.00    -0.184 F 
ENDBRANCH  21  22
ENDBRANCH  11  21
ENDBRANCH   5   6
TORSDOF 5
ENDMDL
