MODEL 1
REMARK VINA RESULT: -6.880908518      0.000      0.000
REMARK  6 active torsions:
REMARK  status: ('A' for Active; 'I' for Inactive)
REMARK    1  A    between atoms: C2_2  and  C3_3 
REMARK    2  A    between atoms: C3_3  and  C4_4 
REMARK    3  A    between atoms: C3_3  and  N2_11 
REMARK    4  A    between atoms: C4_4  and  C5_5 
REMARK    5  A    between atoms: N1_7  and  O1_9 
REMARK    6  A    between atoms: C7_14  and  C8_15 
ROOT
HETATM    1  N2  UNL     1      14.890  -1.491  51.147  1.00  0.00    -0.290 N 
HETATM    2  N3  UNL     1      15.803  -2.270  50.596  1.00  0.00    -0.295 N 
ATOM      3  H3  UNL     1      16.164  -2.140  49.650  1.00  0.00     0.187 HD
HETATM    4  C7  UNL     1      16.198  -3.241  51.408  1.00  0.00     0.116 A 
HETATM    5  C10 UNL     1      15.472  -3.054  52.566  1.00  0.00     0.064 A 
HETATM    6 BR1  UNL     1      15.566  -4.127  54.158  1.00  0.00    -0.047 Br
HETATM    7  C11 UNL     1      14.658  -1.956  52.385  1.00  0.00     0.044 A 
HETATM    8  C12 UNL     1      13.725  -1.444  53.422  1.00  0.00     0.071 C 
ENDROOT
BRANCH   1   9
HETATM    9  C3  UNL     1      14.240  -0.344  50.554  1.00  0.00     0.113 C 
BRANCH   9  10
HETATM   10  C2  UNL     1      12.775  -0.613  50.281  1.00  0.00     0.023 C 
HETATM   11  C1  UNL     1      12.499  -0.725  48.804  1.00  0.00     0.007 C 
ENDBRANCH   9  10
BRANCH   9  12
HETATM   12  C4  UNL     1      14.975   0.012  49.265  1.00  0.00     0.081 C 
BRANCH  12  13
HETATM   13  C5  UNL     1      15.857   1.185  49.466  1.00  0.00     0.008 C 
HETATM   14  C6  UNL     1      15.308   2.544  49.685  1.00  0.00     0.065 C 
HETATM   15  N1  UNL     1      17.126   1.031  49.453  1.00  0.00    -0.278 N 
ATOM     16  H1  UNL     1      17.746   1.830  49.590  1.00  0.00     0.193 HD
BRANCH  15  17
HETATM   17  O1  UNL     1      17.640  -0.220  49.252  1.00  0.00    -0.290 OA
ATOM     18  H1  UNL     1      18.426  -0.316  48.729  1.00  0.00     0.244 HD
ENDBRANCH  15  17
ENDBRANCH  12  13
ENDBRANCH   9  12
ENDBRANCH   1   9
BRANCH   4  19
HETATM   19  C8  UNL     1      17.187  -4.335  51.226  1.00  0.00     0.284 C 
HETATM   20  C9  UNL     1      17.798  -4.253  49.836  1.00  0.00     0.097 C 
HETATM   21  F1  UNL     1      18.227  -4.064  52.125  1.00  0.00    -0.200 F 
HETATM   22  F2  UNL     1      16.657  -5.569  51.418  1.00  0.00    -0.200 F 
ENDBRANCH   4  19
TORSDOF 6
ENDMDL
MODEL 2
REMARK VINA RESULT: -6.644232413      3.911      5.611
REMARK  6 active torsions:
REMARK  status: ('A' for Active; 'I' for Inactive)
REMARK    1  A    between atoms: C2_2  and  C3_3 
REMARK    2  A    between atoms: C3_3  and  C4_4 
REMARK    3  A    between atoms: C3_3  and  N2_11 
REMARK    4  A    between atoms: C4_4  and  C5_5 
REMARK    5  A    between atoms: N1_7  and  O1_9 
REMARK    6  A    between atoms: C7_14  and  C8_15 
ROOT
HETATM    1  N2  UNL     1      13.128  -1.424  52.984  1.00  0.00    -0.290 N 
HETATM    2  N3  UNL     1      12.711  -1.062  51.784  1.00  0.00    -0.295 N 
ATOM      3  H3  UNL     1      11.731  -0.907  51.546  1.00  0.00     0.187 HD
HETATM    4  C7  UNL     1      13.708  -0.922  50.922  1.00  0.00     0.116 A 
HETATM    5  C10 UNL     1      14.846  -1.220  51.641  1.00  0.00     0.064 A 
HETATM    6 BR1  UNL     1      16.651  -1.209  50.981  1.00  0.00    -0.047 Br
HETATM    7  C11 UNL     1      14.465  -1.533  52.929  1.00  0.00     0.044 A 
HETATM    8  C12 UNL     1      15.422  -1.910  54.002  1.00  0.00     0.071 C 
ENDROOT
BRANCH   1   9
HETATM    9  C3  UNL     1      12.320  -1.667  54.158  1.00  0.00     0.113 C 
BRANCH   9  10
HETATM   10  C2  UNL     1      11.009  -2.336  53.804  1.00  0.00     0.023 C 
HETATM   11  C1  UNL     1       9.849  -1.381  53.929  1.00  0.00     0.007 C 
ENDBRANCH   9  10
BRANCH   9  12
HETATM   12  C4  UNL     1      12.077  -0.332  54.858  1.00  0.00     0.081 C 
BRANCH  12  13
HETATM   13  C5  UNL     1      12.782  -0.282  56.160  1.00  0.00     0.008 C 
HETATM   14  C6  UNL     1      13.283  -1.509  56.823  1.00  0.00     0.065 C 
HETATM   15  N1  UNL     1      12.969   0.844  56.734  1.00  0.00    -0.278 N 
ATOM     16  H1  UNL     1      13.453   0.894  57.631  1.00  0.00     0.193 HD
BRANCH  15  17
HETATM   17  O1  UNL     1      12.510   1.981  56.129  1.00  0.00    -0.290 OA
ATOM     18  H1  UNL     1      13.121   2.521  55.641  1.00  0.00     0.244 HD
ENDBRANCH  15  17
ENDBRANCH  12  13
ENDBRANCH   9  12
ENDBRANCH   1   9
BRANCH   4  19
HETATM   19  C8  UNL     1      13.722  -0.536  49.487  1.00  0.00     0.284 C 
HETATM   20  C9  UNL     1      12.341  -0.739  48.883  1.00  0.00     0.097 C 
HETATM   21  F1  UNL     1      13.957   0.845  49.464  1.00  0.00    -0.200 F 
HETATM   22  F2  UNL     1      14.641  -1.221  48.760  1.00  0.00    -0.200 F 
ENDBRANCH   4  19
TORSDOF 6
ENDMDL
MODEL 3
REMARK VINA RESULT: -6.366019376      3.768      5.445
REMARK  6 active torsions:
REMARK  status: ('A' for Active; 'I' for Inactive)
REMARK    1  A    between atoms: C2_2  and  C3_3 
REMARK    2  A    between atoms: C3_3  and  C4_4 
REMARK    3  A    between atoms: C3_3  and  N2_11 
REMARK    4  A    between atoms: C4_4  and  C5_5 
REMARK    5  A    between atoms: N1_7  and  O1_9 
REMARK    6  A    between atoms: C7_14  and  C8_15 
ROOT
HETATM    1  N2  UNL     1      12.817  -1.546  52.660  1.00  0.00    -0.290 N 
HETATM    2  N3  UNL     1      13.018  -0.550  51.815  1.00  0.00    -0.295 N 
ATOM      3  H3  UNL     1      12.445   0.293  51.786  1.00  0.00     0.187 HD
HETATM    4  C7  UNL     1      14.048  -0.769  51.009  1.00  0.00     0.116 A 
HETATM    5  C10 UNL     1      14.534  -2.005  51.380  1.00  0.00     0.064 A 
HETATM    6 BR1  UNL     1      16.034  -2.923  50.602  1.00  0.00    -0.047 Br
HETATM    7  C11 UNL     1      13.752  -2.478  52.413  1.00  0.00     0.044 A 
HETATM    8  C12 UNL     1      13.972  -3.788  53.078  1.00  0.00     0.071 C 
ENDROOT
BRANCH   1   9
HETATM    9  C3  UNL     1      11.791  -1.645  53.673  1.00  0.00     0.113 C 
BRANCH   9  10
HETATM   10  C2  UNL     1      10.428  -1.898  53.062  1.00  0.00     0.023 C 
HETATM   11  C1  UNL     1       9.344  -1.162  53.806  1.00  0.00     0.007 C 
ENDBRANCH   9  10
BRANCH   9  12
HETATM   12  C4  UNL     1      11.790  -0.353  54.485  1.00  0.00     0.081 C 
BRANCH  12  13
HETATM   13  C5  UNL     1      12.551  -0.520  55.744  1.00  0.00     0.008 C 
HETATM   14  C6  UNL     1      13.007  -1.851  56.208  1.00  0.00     0.065 C 
HETATM   15  N1  UNL     1      12.828   0.505  56.456  1.00  0.00    -0.278 N 
ATOM     16  H1  UNL     1      13.351   0.405  57.327  1.00  0.00     0.193 HD
BRANCH  15  17
HETATM   17  O1  UNL     1      12.411   1.736  56.034  1.00  0.00    -0.290 OA
ATOM     18  H1  UNL     1      13.038   2.449  56.004  1.00  0.00     0.244 HD
ENDBRANCH  15  17
ENDBRANCH  12  13
ENDBRANCH   9  12
ENDBRANCH   1   9
BRANCH   4  19
HETATM   19  C8  UNL     1      14.638   0.053  49.921  1.00  0.00     0.284 C 
HETATM   20  C9  UNL     1      14.061   1.459  49.964  1.00  0.00     0.097 C 
HETATM   21  F1  UNL     1      15.998   0.180  50.231  1.00  0.00    -0.200 F 
HETATM   22  F2  UNL     1      14.444  -0.480  48.687  1.00  0.00    -0.200 F 
ENDBRANCH   4  19
TORSDOF 6
ENDMDL
MODEL 4
REMARK VINA RESULT: -6.305709887      3.084      5.324
REMARK  6 active torsions:
REMARK  status: ('A' for Active; 'I' for Inactive)
REMARK    1  A    between atoms: C2_2  and  C3_3 
REMARK    2  A    between atoms: C3_3  and  C4_4 
REMARK    3  A    between atoms: C3_3  and  N2_11 
REMARK    4  A    between atoms: C4_4  and  C5_5 
REMARK    5  A    between atoms: N1_7  and  O1_9 
REMARK    6  A    between atoms: C7_14  and  C8_15 
ROOT
HETATM    1  N2  UNL     1      15.747  -2.274  52.024  1.00  0.00    -0.290 N 
HETATM    2  N3  UNL     1      16.130  -1.241  51.296  1.00  0.00    -0.295 N 
ATOM      3  H3  UNL     1      17.095  -0.911  51.242  1.00  0.00     0.187 HD
HETATM    4  C7  UNL     1      15.123  -0.679  50.642  1.00  0.00     0.116 A 
HETATM    5  C10 UNL     1      14.014  -1.423  50.989  1.00  0.00     0.064 A 
HETATM    6 BR1  UNL     1      12.213  -1.138  50.382  1.00  0.00    -0.047 Br
HETATM    7  C11 UNL     1      14.422  -2.416  51.855  1.00  0.00     0.044 A 
HETATM    8  C12 UNL     1      13.501  -3.421  52.446  1.00  0.00     0.071 C 
ENDROOT
BRANCH   1   9
HETATM    9  C3  UNL     1      16.573  -3.115  52.860  1.00  0.00     0.113 C 
BRANCH   9  10
HETATM   10  C2  UNL     1      17.020  -2.390  54.112  1.00  0.00     0.023 C 
HETATM   11  C1  UNL     1      18.290  -2.978  54.670  1.00  0.00     0.007 C 
ENDBRANCH   9  10
BRANCH   9  12
HETATM   12  C4  UNL     1      17.776  -3.573  52.041  1.00  0.00     0.081 C 
BRANCH  12  13
HETATM   13  C5  UNL     1      17.427  -4.738  51.195  1.00  0.00     0.008 C 
HETATM   14  C6  UNL     1      17.112  -6.061  51.783  1.00  0.00     0.065 C 
HETATM   15  N1  UNL     1      17.393  -4.609  49.924  1.00  0.00    -0.278 N 
ATOM     16  H1  UNL     1      17.154  -5.403  49.329  1.00  0.00     0.193 HD
BRANCH  15  17
HETATM   17  O1  UNL     1      17.681  -3.391  49.374  1.00  0.00    -0.290 OA
ATOM     18  H1  UNL     1      18.589  -3.161  49.214  1.00  0.00     0.244 HD
ENDBRANCH  15  17
ENDBRANCH  12  13
ENDBRANCH   9  12
ENDBRANCH   1   9
BRANCH   4  19
HETATM   19  C8  UNL     1      15.076   0.484  49.719  1.00  0.00     0.284 C 
HETATM   20  C9  UNL     1      16.487   0.965  49.421  1.00  0.00     0.097 C 
HETATM   21  F1  UNL     1      14.568  -0.007  48.509  1.00  0.00    -0.200 F 
HETATM   22  F2  UNL     1      14.337   1.516  50.201  1.00  0.00    -0.200 F 
ENDBRANCH   4  19
TORSDOF 6
ENDMDL
MODEL 5
REMARK VINA RESULT: -6.246523860      3.066      4.268
REMARK  6 active torsions:
REMARK  status: ('A' for Active; 'I' for Inactive)
REMARK    1  A    between atoms: C2_2  and  C3_3 
REMARK    2  A    between atoms: C3_3  and  C4_4 
REMARK    3  A    between atoms: C3_3  and  N2_11 
REMARK    4  A    between atoms: C4_4  and  C5_5 
REMARK    5  A    between atoms: N1_7  and  O1_9 
REMARK    6  A    between atoms: C7_14  and  C8_15 
ROOT
HETATM    1  N2  UNL     1      14.045  -1.014  51.786  1.00  0.00    -0.290 N 
HETATM    2  N3  UNL     1      12.747  -1.109  52.012  1.00  0.00    -0.295 N 
ATOM      3  H3  UNL     1      12.032  -0.800  51.352  1.00  0.00     0.187 HD
HETATM    4  C7  UNL     1      12.475  -1.650  53.192  1.00  0.00     0.116 A 
HETATM    5  C10 UNL     1      13.706  -1.918  53.753  1.00  0.00     0.064 A 
HETATM    6 BR1  UNL     1      14.028  -2.712  55.473  1.00  0.00    -0.047 Br
HETATM    7  C11 UNL     1      14.677  -1.513  52.861  1.00  0.00     0.044 A 
HETATM    8  C12 UNL     1      16.135  -1.643  53.117  1.00  0.00     0.071 C 
ENDROOT
BRANCH   1   9
HETATM    9  C3  UNL     1      14.696  -0.478  50.612  1.00  0.00     0.113 C 
BRANCH   9  10
HETATM   10  C2  UNL     1      13.734   0.322  49.759  1.00  0.00     0.023 C 
HETATM   11  C1  UNL     1      13.133  -0.522  48.664  1.00  0.00     0.007 C 
ENDBRANCH   9  10
BRANCH   9  12
HETATM   12  C4  UNL     1      15.289  -1.639  49.820  1.00  0.00     0.081 C 
BRANCH  12  13
HETATM   13  C5  UNL     1      16.753  -1.478  49.662  1.00  0.00     0.008 C 
HETATM   14  C6  UNL     1      17.419  -0.170  49.864  1.00  0.00     0.065 C 
HETATM   15  N1  UNL     1      17.469  -2.488  49.346  1.00  0.00    -0.278 N 
ATOM     16  H1  UNL     1      18.479  -2.393  49.234  1.00  0.00     0.193 HD
BRANCH  15  17
HETATM   17  O1  UNL     1      16.861  -3.699  49.159  1.00  0.00    -0.290 OA
ATOM     18  H1  UNL     1      16.809  -4.057  48.280  1.00  0.00     0.244 HD
ENDBRANCH  15  17
ENDBRANCH  12  13
ENDBRANCH   9  12
ENDBRANCH   1   9
BRANCH   4  19
HETATM   19  C8  UNL     1      11.183  -1.950  53.863  1.00  0.00     0.284 C 
HETATM   20  C9  UNL     1      10.027  -1.532  52.969  1.00  0.00     0.097 C 
HETATM   21  F1  UNL     1      11.117  -3.346  53.959  1.00  0.00    -0.200 F 
HETATM   22  F2  UNL     1      11.061  -1.350  55.074  1.00  0.00    -0.200 F 
ENDBRANCH   4  19
TORSDOF 6
ENDMDL
