MODEL 1
REMARK VINA RESULT: -6.905547564      0.000      0.000
REMARK  6 active torsions:
REMARK  status: ('A' for Active; 'I' for Inactive)
REMARK    1  A    between atoms: C2_2  and  C3_3 
REMARK    2  A    between atoms: C3_3  and  C4_5 
REMARK    3  A    between atoms: C5_6  and  N1_7 
REMARK    4  A    between atoms: N1_7  and  C6_9 
REMARK    5  A    between atoms: C12_15  and  C13_16 
REMARK    6  A    between atoms: N3_22  and  C14_23 
ROOT
HETATM    1  C4  UNL     1      15.613  -1.031  50.645  1.00  0.00     0.125 A 
HETATM    2  C5  UNL     1      15.714  -1.405  52.003  1.00  0.00     0.092 A 
HETATM    3  C12 UNL     1      14.418  -1.636  52.406  1.00  0.00     0.143 A 
HETATM    4  N2  UNL     1      13.615  -1.412  51.367  1.00  0.00    -0.293 N 
ATOM      5  H2  UNL     1      12.600  -1.508  51.387  1.00  0.00     0.187 HD
HETATM    6  N3  UNL     1      14.325  -1.042  50.288  1.00  0.00    -0.286 N 
ENDROOT
BRANCH   2   7
HETATM    7  N1  UNL     1      16.903  -1.486  52.800  1.00  0.00    -0.382 N 
ATOM      8  H1  UNL     1      17.222  -0.618  53.230  1.00  0.00     0.160 HD
BRANCH   7   9
HETATM    9  C6  UNL     1      17.686  -2.640  53.054  1.00  0.00     0.082 C 
HETATM   10  C7  UNL     1      17.246  -3.925  52.413  1.00  0.00     0.025 C 
HETATM   11  C8  UNL     1      18.020  -5.061  53.088  1.00  0.00     0.002 C 
HETATM   12  C9  UNL     1      19.254  -4.573  53.800  1.00  0.00     0.000 C 
HETATM   13  C10 UNL     1      18.869  -3.670  54.964  1.00  0.00     0.002 C 
HETATM   14  C11 UNL     1      17.629  -2.924  54.576  1.00  0.00     0.025 C 
ENDBRANCH   7   9
ENDBRANCH   2   7
BRANCH   1  15
HETATM   15  C3  UNL     1      16.756  -0.784  49.818  1.00  0.00     0.179 C 
HETATM   16  O1  UNL     1      17.356  -1.821  49.315  1.00  0.00    -0.291 OA
BRANCH  15  17
HETATM   17  C2  UNL     1      17.390   0.480  49.428  1.00  0.00     0.081 C 
HETATM   18  C1  UNL     1      16.394   1.616  49.318  1.00  0.00     0.013 C 
ENDBRANCH  15  17
ENDBRANCH   1  15
BRANCH   3  19
HETATM   19  C13 UNL     1      13.973  -2.051  53.765  1.00  0.00     0.367 C 
HETATM   20  F1  UNL     1      14.294  -3.340  54.056  1.00  0.00    -0.181 F 
HETATM   21  F2  UNL     1      14.328  -1.120  54.707  1.00  0.00    -0.181 F 
HETATM   22 CL1  UNL     1      12.158  -2.007  53.756  1.00  0.00    -0.041 Cl
ENDBRANCH   3  19
BRANCH   6  23
HETATM   23  C14 UNL     1      13.634  -0.733  49.060  1.00  0.00     0.145 C 
HETATM   24  C15 UNL     1      12.129  -0.996  49.229  1.00  0.00     0.028 C 
ENDBRANCH   6  23
TORSDOF 6
ENDMDL
MODEL 2
REMARK VINA RESULT: -6.785955491      3.069      6.078
REMARK  6 active torsions:
REMARK  status: ('A' for Active; 'I' for Inactive)
REMARK    1  A    between atoms: C2_2  and  C3_3 
REMARK    2  A    between atoms: C3_3  and  C4_5 
REMARK    3  A    between atoms: C5_6  and  N1_7 
REMARK    4  A    between atoms: N1_7  and  C6_9 
REMARK    5  A    between atoms: C12_15  and  C13_16 
REMARK    6  A    between atoms: N3_22  and  C14_23 
ROOT
HETATM    1  C4  UNL     1      13.232  -1.795  54.099  1.00  0.00     0.125 A 
HETATM    2  C5  UNL     1      14.232  -2.042  53.133  1.00  0.00     0.092 A 
HETATM    3  C12 UNL     1      15.421  -1.779  53.776  1.00  0.00     0.143 A 
HETATM    4  N2  UNL     1      15.143  -1.403  55.023  1.00  0.00    -0.293 N 
ATOM      5  H2  UNL     1      15.841  -1.148  55.721  1.00  0.00     0.187 HD
HETATM    6  N3  UNL     1      13.816  -1.407  55.237  1.00  0.00    -0.286 N 
ENDROOT
BRANCH   2   7
HETATM    7  N1  UNL     1      14.048  -2.439  51.768  1.00  0.00    -0.382 N 
ATOM      8  H1  UNL     1      14.078  -3.441  51.578  1.00  0.00     0.160 HD
BRANCH   7   9
HETATM    9  C6  UNL     1      13.828  -1.593  50.653  1.00  0.00     0.082 C 
HETATM   10  C7  UNL     1      14.357  -0.190  50.739  1.00  0.00     0.025 C 
HETATM   11  C8  UNL     1      13.720   0.610  49.599  1.00  0.00     0.002 C 
HETATM   12  C9  UNL     1      13.171  -0.276  48.512  1.00  0.00     0.000 C 
HETATM   13  C10 UNL     1      12.015  -1.110  49.045  1.00  0.00     0.002 C 
HETATM   14  C11 UNL     1      12.298  -1.423  50.482  1.00  0.00     0.025 C 
ENDBRANCH   7   9
ENDBRANCH   2   7
BRANCH   1  15
HETATM   15  C3  UNL     1      11.841  -2.034  53.859  1.00  0.00     0.179 C 
HETATM   16  O1  UNL     1      11.503  -3.234  53.492  1.00  0.00    -0.291 OA
BRANCH  15  17
HETATM   17  C2  UNL     1      10.691  -1.129  53.956  1.00  0.00     0.081 C 
HETATM   18  C1  UNL     1       9.587  -1.490  52.983  1.00  0.00     0.013 C 
ENDBRANCH  15  17
ENDBRANCH   1  15
BRANCH   3  19
HETATM   19  C13 UNL     1      16.787  -1.879  53.191  1.00  0.00     0.367 C 
HETATM   20  F1  UNL     1      16.917  -1.183  52.030  1.00  0.00    -0.181 F 
HETATM   21  F2  UNL     1      17.748  -1.645  54.138  1.00  0.00    -0.181 F 
HETATM   22 CL1  UNL     1      17.030  -3.617  52.729  1.00  0.00    -0.041 Cl
ENDBRANCH   3  19
BRANCH   6  23
HETATM   23  C14 UNL     1      13.308  -1.009  56.527  1.00  0.00     0.145 C 
HETATM   24  C15 UNL     1      12.849   0.456  56.478  1.00  0.00     0.028 C 
ENDBRANCH   6  23
TORSDOF 6
ENDMDL
MODEL 3
REMARK VINA RESULT: -6.776385448      2.837      4.153
REMARK  6 active torsions:
REMARK  status: ('A' for Active; 'I' for Inactive)
REMARK    1  A    between atoms: C2_2  and  C3_3 
REMARK    2  A    between atoms: C3_3  and  C4_5 
REMARK    3  A    between atoms: C5_6  and  N1_7 
REMARK    4  A    between atoms: N1_7  and  C6_9 
REMARK    5  A    between atoms: C12_15  and  C13_16 
REMARK    6  A    between atoms: N3_22  and  C14_23 
ROOT
HETATM    1  C4  UNL     1      14.130  -1.544  51.941  1.00  0.00     0.125 A 
HETATM    2  C5  UNL     1      15.520  -1.393  51.743  1.00  0.00     0.092 A 
HETATM    3  C12 UNL     1      15.647  -0.908  50.461  1.00  0.00     0.143 A 
HETATM    4  N2  UNL     1      14.427  -0.784  49.942  1.00  0.00    -0.293 N 
ATOM      5  H2  UNL     1      14.228  -0.445  49.001  1.00  0.00     0.187 HD
HETATM    6  N3  UNL     1      13.492  -1.168  50.828  1.00  0.00    -0.286 N 
ENDROOT
BRANCH   2   7
HETATM    7  N1  UNL     1      16.572  -1.716  52.662  1.00  0.00    -0.382 N 
ATOM      8  H1  UNL     1      17.044  -0.929  53.107  1.00  0.00     0.160 HD
BRANCH   7   9
HETATM    9  C6  UNL     1      17.028  -3.009  53.020  1.00  0.00     0.082 C 
HETATM   10  C7  UNL     1      18.277  -3.092  53.851  1.00  0.00     0.025 C 
HETATM   11  C8  UNL     1      18.749  -4.549  53.822  1.00  0.00     0.002 C 
HETATM   12  C9  UNL     1      17.656  -5.500  53.412  1.00  0.00     0.000 C 
HETATM   13  C10 UNL     1      17.241  -5.236  51.971  1.00  0.00     0.002 C 
HETATM   14  C11 UNL     1      17.377  -3.767  51.715  1.00  0.00     0.025 C 
ENDBRANCH   7   9
ENDBRANCH   2   7
BRANCH   1  15
HETATM   15  C3  UNL     1      13.560  -1.950  53.190  1.00  0.00     0.179 C 
HETATM   16  O1  UNL     1      13.685  -1.130  54.189  1.00  0.00    -0.291 OA
BRANCH  15  17
HETATM   17  C2  UNL     1      12.837  -3.174  53.550  1.00  0.00     0.081 C 
HETATM   18  C1  UNL     1      13.495  -4.420  52.993  1.00  0.00     0.013 C 
ENDBRANCH  15  17
ENDBRANCH   1  15
BRANCH   3  19
HETATM   19  C13 UNL     1      16.920  -0.584  49.757  1.00  0.00     0.367 C 
HETATM   20  F1  UNL     1      17.869  -0.077  50.588  1.00  0.00    -0.181 F 
HETATM   21  F2  UNL     1      17.319  -1.622  48.956  1.00  0.00    -0.181 F 
HETATM   22 CL1  UNL     1      16.546   0.758  48.594  1.00  0.00    -0.041 Cl
ENDBRANCH   3  19
BRANCH   6  23
HETATM   23  C14 UNL     1      12.101  -1.127  50.448  1.00  0.00     0.145 C 
HETATM   24  C15 UNL     1      11.981  -0.977  48.923  1.00  0.00     0.028 C 
ENDBRANCH   6  23
TORSDOF 6
ENDMDL
MODEL 4
REMARK VINA RESULT: -6.765282754      1.391      1.857
REMARK  6 active torsions:
REMARK  status: ('A' for Active; 'I' for Inactive)
REMARK    1  A    between atoms: C2_2  and  C3_3 
REMARK    2  A    between atoms: C3_3  and  C4_5 
REMARK    3  A    between atoms: C5_6  and  N1_7 
REMARK    4  A    between atoms: N1_7  and  C6_9 
REMARK    5  A    between atoms: C12_15  and  C13_16 
REMARK    6  A    between atoms: N3_22  and  C14_23 
ROOT
HETATM    1  C4  UNL     1      15.281  -2.316  50.393  1.00  0.00     0.125 A 
HETATM    2  C5  UNL     1      14.927  -3.115  51.503  1.00  0.00     0.092 A 
HETATM    3  C12 UNL     1      13.656  -2.709  51.843  1.00  0.00     0.143 A 
HETATM    4  N2  UNL     1      13.290  -1.744  51.000  1.00  0.00    -0.293 N 
ATOM      5  H2  UNL     1      12.392  -1.263  51.025  1.00  0.00     0.187 HD
HETATM    6  N3  UNL     1      14.267  -1.492  50.113  1.00  0.00    -0.286 N 
ENDROOT
BRANCH   2   7
HETATM    7  N1  UNL     1      15.732  -4.103  52.159  1.00  0.00    -0.382 N 
ATOM      8  H1  UNL     1      15.573  -5.074  51.886  1.00  0.00     0.160 HD
BRANCH   7   9
HETATM    9  C6  UNL     1      16.725  -3.881  53.144  1.00  0.00     0.082 C 
HETATM   10  C7  UNL     1      16.959  -2.462  53.579  1.00  0.00     0.025 C 
HETATM   11  C8  UNL     1      18.269  -2.435  54.370  1.00  0.00     0.002 C 
HETATM   12  C9  UNL     1      18.669  -3.800  54.867  1.00  0.00     0.000 C 
HETATM   13  C10 UNL     1      18.985  -4.716  53.693  1.00  0.00     0.002 C 
HETATM   14  C11 UNL     1      18.085  -4.337  52.558  1.00  0.00     0.025 C 
ENDBRANCH   7   9
ENDBRANCH   2   7
BRANCH   1  15
HETATM   15  C3  UNL     1      16.508  -2.482  49.674  1.00  0.00     0.179 C 
HETATM   16  O1  UNL     1      16.755  -3.664  49.194  1.00  0.00    -0.291 OA
BRANCH  15  17
HETATM   17  C2  UNL     1      17.571  -1.517  49.376  1.00  0.00     0.081 C 
HETATM   18  C1  UNL     1      17.449  -0.250  50.198  1.00  0.00     0.013 C 
ENDBRANCH  15  17
ENDBRANCH   1  15
BRANCH   3  19
HETATM   19  C13 UNL     1      12.826  -3.237  52.961  1.00  0.00     0.367 C 
HETATM   20  F1  UNL     1      12.406  -4.513  52.751  1.00  0.00    -0.181 F 
HETATM   21  F2  UNL     1      13.419  -2.995  54.173  1.00  0.00    -0.181 F 
HETATM   22 CL1  UNL     1      11.309  -2.241  53.001  1.00  0.00    -0.041 Cl
ENDBRANCH   3  19
BRANCH   6  23
HETATM   23  C14 UNL     1      14.071  -0.461  49.123  1.00  0.00     0.145 C 
HETATM   24  C15 UNL     1      12.611  -0.468  48.644  1.00  0.00     0.028 C 
ENDBRANCH   6  23
TORSDOF 6
ENDMDL
MODEL 5
REMARK VINA RESULT: -6.725434919      2.363      4.763
REMARK  6 active torsions:
REMARK  status: ('A' for Active; 'I' for Inactive)
REMARK    1  A    between atoms: C2_2  and  C3_3 
REMARK    2  A    between atoms: C3_3  and  C4_5 
REMARK    3  A    between atoms: C5_6  and  N1_7 
REMARK    4  A    between atoms: N1_7  and  C6_9 
REMARK    5  A    between atoms: C12_15  and  C13_16 
REMARK    6  A    between atoms: N3_22  and  C14_23 
ROOT
HETATM    1  C4  UNL     1      15.163  -0.672  50.755  1.00  0.00     0.125 A 
HETATM    2  C5  UNL     1      15.148  -1.504  51.897  1.00  0.00     0.092 A 
HETATM    3  C12 UNL     1      16.475  -1.714  52.202  1.00  0.00     0.143 A 
HETATM    4  N2  UNL     1      17.213  -1.059  51.308  1.00  0.00    -0.293 N 
ATOM      5  H2  UNL     1      18.233  -1.044  51.298  1.00  0.00     0.187 HD
HETATM    6  N3  UNL     1      16.432  -0.421  50.420  1.00  0.00    -0.286 N 
ENDROOT
BRANCH   2   7
HETATM    7  N1  UNL     1      14.003  -2.047  52.566  1.00  0.00    -0.382 N 
ATOM      8  H1  UNL     1      13.725  -2.991  52.298  1.00  0.00     0.160 HD
BRANCH   7   9
HETATM    9  C6  UNL     1      13.214  -1.415  53.559  1.00  0.00     0.082 C 
HETATM   10  C7  UNL     1      13.737  -1.431  54.967  1.00  0.00     0.025 C 
HETATM   11  C8  UNL     1      12.589  -1.006  55.887  1.00  0.00     0.002 C 
HETATM   12  C9  UNL     1      11.496  -0.281  55.145  1.00  0.00     0.000 C 
HETATM   13  C10 UNL     1      10.823  -1.217  54.151  1.00  0.00     0.002 C 
HETATM   14  C11 UNL     1      11.861  -2.166  53.638  1.00  0.00     0.025 C 
ENDBRANCH   7   9
ENDBRANCH   2   7
BRANCH   1  15
HETATM   15  C3  UNL     1      13.972  -0.145  50.161  1.00  0.00     0.179 C 
HETATM   16  O1  UNL     1      13.341   0.778  50.823  1.00  0.00    -0.291 OA
BRANCH  15  17
HETATM   17  C2  UNL     1      13.317  -0.477  48.891  1.00  0.00     0.081 C 
HETATM   18  C1  UNL     1      11.964  -1.129  49.092  1.00  0.00     0.013 C 
ENDBRANCH  15  17
ENDBRANCH   1  15
BRANCH   3  19
HETATM   19  C13 UNL     1      17.007  -2.537  53.324  1.00  0.00     0.367 C 
HETATM   20  F1  UNL     1      16.125  -3.478  53.754  1.00  0.00    -0.181 F 
HETATM   21  F2  UNL     1      18.273  -2.985  53.049  1.00  0.00    -0.181 F 
HETATM   22 CL1  UNL     1      17.227  -1.415  54.734  1.00  0.00    -0.041 Cl
ENDBRANCH   3  19
BRANCH   6  23
HETATM   23  C14 UNL     1      17.046   0.333  49.354  1.00  0.00     0.145 C 
HETATM   24  C15 UNL     1      16.529   1.779  49.374  1.00  0.00     0.028 C 
ENDBRANCH   6  23
TORSDOF 6
ENDMDL
