MODEL 1
REMARK VINA RESULT: -9.629668547      0.000      0.000
REMARK  8 active torsions:
REMARK  status: ('A' for Active; 'I' for Inactive)
REMARK    1  A    between atoms: O1_2  and  C2_3 
REMARK    2  A    between atoms: C3_6  and  N2_7 
REMARK    3  A    between atoms: N2_7  and  C4_9 
REMARK    4  A    between atoms: C4_9  and  C6_11 
REMARK    5  A    between atoms: C7_16  and  S1_17 
REMARK    6  A    between atoms: S1_17  and  C8_18 
REMARK    7  A    between atoms: C10_25  and  C11_26 
REMARK    8  A    between atoms: C13_28  and  C14_29 
ROOT
HETATM    1  C2  UNL     1      11.343  -2.055  54.527  1.00  0.00     0.171 A 
HETATM    2  N1  UNL     1      10.210  -2.191  55.282  1.00  0.00    -0.170 N 
ATOM      3  H1  UNL     1      10.304  -2.458  56.262  1.00  0.00     0.186 HD
HETATM    4  C3  UNL     1       8.986  -1.988  54.790  1.00  0.00     0.680 A 
HETATM    5  N5  UNL     1       8.888  -1.630  53.476  1.00  0.00    -0.201 N 
ATOM      6  H5  UNL     1       7.969  -1.468  53.065  1.00  0.00     0.183 HD
HETATM    7  C9  UNL     1       9.981  -1.492  52.723  1.00  0.00     0.124 A 
HETATM    8  C10 UNL     1      11.280  -1.700  53.223  1.00  0.00     0.058 A 
ENDROOT
BRANCH   8   9
HETATM    9  C11 UNL     1      12.421  -1.555  52.362  1.00  0.00     0.050 A 
HETATM   10  C12 UNL     1      12.728  -0.542  51.519  1.00  0.00     0.038 A 
HETATM   11  C13 UNL     1      13.854  -0.516  50.681  1.00  0.00    -0.047 A 
HETATM   12  C19 UNL     1      14.668  -1.610  50.753  1.00  0.00     0.069 A 
HETATM   13  C20 UNL     1      14.390  -2.672  51.603  1.00  0.00     0.189 A 
HETATM   14  F3  UNL     1      15.213  -3.763  51.665  1.00  0.00    -0.186 F 
HETATM   15  N7  UNL     1      13.304  -2.612  52.359  1.00  0.00    -0.332 N 
ATOM     16  H7  UNL     1      13.110  -3.398  52.980  1.00  0.00     0.168 HD
BRANCH  11  17
HETATM   17  C14 UNL     1      14.135   0.616  49.799  1.00  0.00     0.031 A 
HETATM   18  C15 UNL     1      15.412   0.725  49.180  1.00  0.00     0.026 A 
HETATM   19  C16 UNL     1      16.794   0.980  49.595  1.00  0.00     0.238 C 
HETATM   20  C18 UNL     1      14.829   1.766  50.225  1.00  0.00     0.026 A 
HETATM   21  N6  UNL     1      16.855   2.454  49.481  1.00  0.00    -0.074 N 
HETATM   22  C17 UNL     1      15.453   2.910  49.560  1.00  0.00     0.238 C 
ATOM     23  H62 UNL     1      17.470   2.894  50.165  1.00  0.00     0.277 HD
ATOM     24  H61 UNL     1      17.348   2.782  48.650  1.00  0.00     0.277 HD
ENDBRANCH  11  17
ENDBRANCH   8   9
BRANCH   1  25
HETATM   25  O1  UNL     1      12.542  -2.308  55.174  1.00  0.00    -0.340 OA
HETATM   26  C1  UNL     1      12.969  -1.261  56.068  1.00  0.00     0.211 C 
ENDBRANCH   1  25
BRANCH   4  27
HETATM   27  N2  UNL     1       7.916  -2.111  55.496  1.00  0.00    -0.216 N 
ATOM     28  H2  UNL     1       7.016  -1.836  55.100  1.00  0.00     0.178 HD
BRANCH  27  29
HETATM   29  C4  UNL     1       7.974  -2.624  56.820  1.00  0.00     0.154 C 
HETATM   30  C5  UNL     1       6.753  -2.265  57.643  1.00  0.00     0.040 C 
BRANCH  29  31
HETATM   31  C6  UNL     1       8.019  -4.132  56.821  1.00  0.00     0.091 A 
HETATM   32  N3  UNL     1       7.179  -4.996  56.259  1.00  0.00    -0.294 N 
HETATM   33  N4  UNL     1       7.391  -6.237  56.374  1.00  0.00    -0.287 N 
ATOM     34  H3  UNL     1       6.368  -4.660  55.739  1.00  0.00     0.187 HD
HETATM   35  C7  UNL     1       8.448  -6.669  57.052  1.00  0.00     0.133 A 
ATOM     36  H4  UNL     1       6.751  -6.906  55.945  1.00  0.00     0.188 HD
HETATM   37  S2  UNL     1       9.154  -5.190  57.538  1.00  0.00    -0.047 SA
BRANCH  35  38
HETATM   38  S1  UNL     1       8.925  -8.375  57.329  1.00  0.00    -0.034 SA
BRANCH  38  39
HETATM   39  C8  UNL     1       8.991  -8.698  59.121  1.00  0.00     0.422 C 
HETATM   40  F1  UNL     1       8.625 -10.001  59.416  1.00  0.00    -0.202 F 
HETATM   41  F2  UNL     1       8.022  -7.882  59.706  1.00  0.00    -0.202 F 
ENDBRANCH  38  39
ENDBRANCH  35  38
ENDBRANCH  29  31
ENDBRANCH  27  29
ENDBRANCH   4  27
TORSDOF 8
ENDMDL
MODEL 2
REMARK VINA RESULT: -8.958498088      2.354      3.105
REMARK  8 active torsions:
REMARK  status: ('A' for Active; 'I' for Inactive)
REMARK    1  A    between atoms: O1_2  and  C2_3 
REMARK    2  A    between atoms: C3_6  and  N2_7 
REMARK    3  A    between atoms: N2_7  and  C4_9 
REMARK    4  A    between atoms: C4_9  and  C6_11 
REMARK    5  A    between atoms: C7_16  and  S1_17 
REMARK    6  A    between atoms: S1_17  and  C8_18 
REMARK    7  A    between atoms: C10_25  and  C11_26 
REMARK    8  A    between atoms: C13_28  and  C14_29 
ROOT
HETATM    1  C2  UNL     1      11.946  -0.598  55.215  1.00  0.00     0.171 A 
HETATM    2  N1  UNL     1      10.604  -0.802  55.389  1.00  0.00    -0.170 N 
ATOM      3  H1  UNL     1       9.999   0.008  55.521  1.00  0.00     0.186 HD
HETATM    4  C3  UNL     1      10.055  -2.018  55.395  1.00  0.00     0.680 A 
HETATM    5  N5  UNL     1      10.888  -3.085  55.217  1.00  0.00    -0.201 N 
ATOM      6  H5  UNL     1      10.504  -4.030  55.217  1.00  0.00     0.183 HD
HETATM    7  C9  UNL     1      12.199  -2.907  55.045  1.00  0.00     0.124 A 
HETATM    8  C10 UNL     1      12.798  -1.633  55.034  1.00  0.00     0.058 A 
ENDROOT
BRANCH   8   9
HETATM    9  C11 UNL     1      14.218  -1.500  54.863  1.00  0.00     0.050 A 
HETATM   10  C12 UNL     1      14.972  -1.764  53.771  1.00  0.00     0.038 A 
HETATM   11  C13 UNL     1      16.370  -1.642  53.719  1.00  0.00    -0.047 A 
HETATM   12  C19 UNL     1      16.968  -1.227  54.874  1.00  0.00     0.069 A 
HETATM   13  C20 UNL     1      16.233  -0.947  56.017  1.00  0.00     0.189 A 
HETATM   14  F3  UNL     1      16.845  -0.532  57.168  1.00  0.00    -0.186 F 
HETATM   15  N7  UNL     1      14.917  -1.088  55.976  1.00  0.00    -0.332 N 
ATOM     16  H7  UNL     1      14.387  -0.880  56.822  1.00  0.00     0.168 HD
BRANCH  11  17
HETATM   17  C14 UNL     1      17.126  -1.934  52.502  1.00  0.00     0.031 A 
HETATM   18  C15 UNL     1      16.922  -1.138  51.339  1.00  0.00     0.026 A 
HETATM   19  C16 UNL     1      15.854  -0.906  50.364  1.00  0.00     0.238 C 
HETATM   20  C18 UNL     1      16.599  -2.688  51.434  1.00  0.00     0.026 A 
HETATM   21  N6  UNL     1      16.177  -1.925  49.343  1.00  0.00    -0.074 N 
HETATM   22  C17 UNL     1      16.989  -2.939  50.047  1.00  0.00     0.238 C 
ATOM     23  H62 UNL     1      15.359  -2.309  48.871  1.00  0.00     0.277 HD
ATOM     24  H61 UNL     1      16.627  -1.544  48.510  1.00  0.00     0.277 HD
ENDBRANCH  11  17
ENDBRANCH   8   9
BRANCH   1  25
HETATM   25  O1  UNL     1      12.372   0.721  55.242  1.00  0.00    -0.340 OA
HETATM   26  C1  UNL     1      12.399   1.311  56.558  1.00  0.00     0.211 C 
ENDBRANCH   1  25
BRANCH   4  27
HETATM   27  N2  UNL     1       8.793  -2.218  55.556  1.00  0.00    -0.216 N 
ATOM     28  H2  UNL     1       8.151  -2.038  54.783  1.00  0.00     0.178 HD
BRANCH  27  29
HETATM   29  C4  UNL     1       8.284  -2.686  56.797  1.00  0.00     0.154 C 
HETATM   30  C5  UNL     1       6.857  -2.244  57.051  1.00  0.00     0.040 C 
BRANCH  29  31
HETATM   31  C6  UNL     1       8.241  -4.193  56.838  1.00  0.00     0.091 A 
HETATM   32  N3  UNL     1       7.352  -5.022  56.298  1.00  0.00    -0.294 N 
HETATM   33  N4  UNL     1       7.492  -6.270  56.446  1.00  0.00    -0.287 N 
ATOM     34  H3  UNL     1       6.562  -4.653  55.769  1.00  0.00     0.187 HD
HETATM   35  C7  UNL     1       8.523  -6.744  57.137  1.00  0.00     0.133 A 
ATOM     36  H4  UNL     1       6.814  -6.912  56.035  1.00  0.00     0.188 HD
HETATM   37  S2  UNL     1       9.313  -5.296  57.584  1.00  0.00    -0.047 SA
BRANCH  35  38
HETATM   38  S1  UNL     1       8.899  -8.467  57.459  1.00  0.00    -0.034 SA
BRANCH  38  39
HETATM   39  C8  UNL     1       8.959  -8.744  59.259  1.00  0.00     0.422 C 
HETATM   40  F1  UNL     1       8.554 -10.027  59.589  1.00  0.00    -0.202 F 
HETATM   41  F2  UNL     1       8.017  -7.883  59.822  1.00  0.00    -0.202 F 
ENDBRANCH  38  39
ENDBRANCH  35  38
ENDBRANCH  29  31
ENDBRANCH  27  29
ENDBRANCH   4  27
TORSDOF 8
ENDMDL
MODEL 3
REMARK VINA RESULT: -8.875202349      1.873      2.625
REMARK  8 active torsions:
REMARK  status: ('A' for Active; 'I' for Inactive)
REMARK    1  A    between atoms: O1_2  and  C2_3 
REMARK    2  A    between atoms: C3_6  and  N2_7 
REMARK    3  A    between atoms: N2_7  and  C4_9 
REMARK    4  A    between atoms: C4_9  and  C6_11 
REMARK    5  A    between atoms: C7_16  and  S1_17 
REMARK    6  A    between atoms: S1_17  and  C8_18 
REMARK    7  A    between atoms: C10_25  and  C11_26 
REMARK    8  A    between atoms: C13_28  and  C14_29 
ROOT
HETATM    1  C2  UNL     1      11.287  -1.988  54.533  1.00  0.00     0.171 A 
HETATM    2  N1  UNL     1      10.168  -2.218  55.287  1.00  0.00    -0.170 N 
ATOM      3  H1  UNL     1      10.283  -2.540  56.248  1.00  0.00     0.186 HD
HETATM    4  C3  UNL     1       8.932  -2.040  54.817  1.00  0.00     0.680 A 
HETATM    5  N5  UNL     1       8.806  -1.608  53.528  1.00  0.00    -0.201 N 
ATOM      6  H5  UNL     1       7.877  -1.461  53.134  1.00  0.00     0.183 HD
HETATM    7  C9  UNL     1       9.884  -1.377  52.776  1.00  0.00     0.124 A 
HETATM    8  C10 UNL     1      11.196  -1.557  53.254  1.00  0.00     0.058 A 
ENDROOT
BRANCH   8   9
HETATM    9  C11 UNL     1      12.321  -1.311  52.395  1.00  0.00     0.050 A 
HETATM   10  C12 UNL     1      13.640  -1.334  52.694  1.00  0.00     0.038 A 
HETATM   11  C13 UNL     1      14.668  -1.034  51.786  1.00  0.00    -0.047 A 
HETATM   12  C19 UNL     1      14.263  -0.697  50.527  1.00  0.00     0.069 A 
HETATM   13  C20 UNL     1      12.920  -0.660  50.177  1.00  0.00     0.189 A 
HETATM   14  F3  UNL     1      12.526  -0.321  48.912  1.00  0.00    -0.186 F 
HETATM   15  N7  UNL     1      12.016  -0.960  51.099  1.00  0.00    -0.332 N 
ATOM     16  H7  UNL     1      11.033  -0.929  50.831  1.00  0.00     0.168 HD
BRANCH  11  17
HETATM   17  C14 UNL     1      16.078  -1.087  52.170  1.00  0.00     0.031 A 
HETATM   18  C15 UNL     1      16.917  -2.101  51.628  1.00  0.00     0.026 A 
HETATM   19  C16 UNL     1      17.054  -3.557  51.729  1.00  0.00     0.238 C 
HETATM   20  C18 UNL     1      16.569  -1.954  53.168  1.00  0.00     0.026 A 
HETATM   21  N6  UNL     1      18.010  -3.672  52.851  1.00  0.00    -0.074 N 
HETATM   22  C17 UNL     1      17.893  -2.402  53.596  1.00  0.00     0.238 C 
ATOM     23  H62 UNL     1      17.870  -4.502  53.428  1.00  0.00     0.277 HD
ATOM     24  H61 UNL     1      18.963  -3.891  52.559  1.00  0.00     0.277 HD
ENDBRANCH  11  17
ENDBRANCH   8   9
BRANCH   1  25
HETATM   25  O1  UNL     1      12.502  -2.227  55.155  1.00  0.00    -0.340 OA
HETATM   26  C1  UNL     1      12.768  -1.378  56.290  1.00  0.00     0.211 C 
ENDBRANCH   1  25
BRANCH   4  27
HETATM   27  N2  UNL     1       7.875  -2.252  55.522  1.00  0.00    -0.216 N 
ATOM     28  H2  UNL     1       6.956  -2.054  55.125  1.00  0.00     0.178 HD
BRANCH  27  29
HETATM   29  C4  UNL     1       7.974  -2.759  56.846  1.00  0.00     0.154 C 
HETATM   30  C5  UNL     1       6.775  -2.405  57.702  1.00  0.00     0.040 C 
BRANCH  29  31
HETATM   31  C6  UNL     1       8.030  -4.266  56.852  1.00  0.00     0.091 A 
HETATM   32  N3  UNL     1       7.214  -5.138  56.267  1.00  0.00    -0.294 N 
HETATM   33  N4  UNL     1       7.431  -6.377  56.392  1.00  0.00    -0.287 N 
ATOM     34  H3  UNL     1       6.417  -4.809  55.722  1.00  0.00     0.187 HD
HETATM   35  C7  UNL     1       8.471  -6.800  57.103  1.00  0.00     0.133 A 
ATOM     36  H4  UNL     1       6.809  -7.052  55.946  1.00  0.00     0.188 HD
HETATM   37  S2  UNL     1       9.150  -5.314  57.606  1.00  0.00    -0.047 SA
BRANCH  35  38
HETATM   38  S1  UNL     1       8.950  -8.501  57.399  1.00  0.00    -0.034 SA
BRANCH  38  39
HETATM   39  C8  UNL     1       8.992  -8.812  59.194  1.00  0.00     0.422 C 
HETATM   40  F1  UNL     1       8.599 -10.105  59.495  1.00  0.00    -0.202 F 
HETATM   41  F2  UNL     1       8.033  -7.973  59.762  1.00  0.00    -0.202 F 
ENDBRANCH  38  39
ENDBRANCH  35  38
ENDBRANCH  29  31
ENDBRANCH  27  29
ENDBRANCH   4  27
TORSDOF 8
ENDMDL
MODEL 4
REMARK VINA RESULT: -8.847588522      2.155      2.545
REMARK  8 active torsions:
REMARK  status: ('A' for Active; 'I' for Inactive)
REMARK    1  A    between atoms: O1_2  and  C2_3 
REMARK    2  A    between atoms: C3_6  and  N2_7 
REMARK    3  A    between atoms: N2_7  and  C4_9 
REMARK    4  A    between atoms: C4_9  and  C6_11 
REMARK    5  A    between atoms: C7_16  and  S1_17 
REMARK    6  A    between atoms: S1_17  and  C8_18 
REMARK    7  A    between atoms: C10_25  and  C11_26 
REMARK    8  A    between atoms: C13_28  and  C14_29 
ROOT
HETATM    1  C2  UNL     1      11.858  -1.014  55.750  1.00  0.00     0.171 A 
HETATM    2  N1  UNL     1      10.547  -1.155  56.116  1.00  0.00    -0.170 N 
ATOM      3  H1  UNL     1      10.237  -0.739  56.995  1.00  0.00     0.186 HD
HETATM    4  C3  UNL     1       9.657  -1.815  55.373  1.00  0.00     0.680 A 
HETATM    5  N5  UNL     1      10.098  -2.362  54.202  1.00  0.00    -0.201 N 
ATOM      6  H5  UNL     1       9.447  -2.875  53.608  1.00  0.00     0.183 HD
HETATM    7  C9  UNL     1      11.373  -2.235  53.827  1.00  0.00     0.124 A 
HETATM    8  C10 UNL     1      12.326  -1.542  54.596  1.00  0.00     0.058 A 
ENDROOT
BRANCH   8   9
HETATM    9  C11 UNL     1      13.689  -1.451  54.153  1.00  0.00     0.050 A 
HETATM   10  C12 UNL     1      14.167  -1.285  52.898  1.00  0.00     0.038 A 
HETATM   11  C13 UNL     1      15.530  -1.253  52.561  1.00  0.00    -0.047 A 
HETATM   12  C19 UNL     1      16.398  -1.407  53.604  1.00  0.00     0.069 A 
HETATM   13  C20 UNL     1      15.951  -1.581  54.907  1.00  0.00     0.189 A 
HETATM   14  F3  UNL     1      16.832  -1.735  55.942  1.00  0.00    -0.186 F 
HETATM   15  N7  UNL     1      14.646  -1.598  55.133  1.00  0.00    -0.332 N 
ATOM     16  H7  UNL     1      14.330  -1.727  56.093  1.00  0.00     0.168 HD
BRANCH  11  17
HETATM   17  C14 UNL     1      15.981  -1.059  51.184  1.00  0.00     0.031 A 
HETATM   18  C15 UNL     1      16.075  -2.179  50.310  1.00  0.00     0.026 A 
HETATM   19  C16 UNL     1      16.899  -3.384  50.185  1.00  0.00     0.238 C 
HETATM   20  C18 UNL     1      17.308  -1.295  50.771  1.00  0.00     0.026 A 
HETATM   21  N6  UNL     1      17.989  -2.891  49.315  1.00  0.00    -0.074 N 
HETATM   22  C17 UNL     1      17.989  -1.424  49.484  1.00  0.00     0.238 C 
ATOM     23  H62 UNL     1      18.892  -3.327  49.501  1.00  0.00     0.277 HD
ATOM     24  H61 UNL     1      17.909  -3.194  48.344  1.00  0.00     0.277 HD
ENDBRANCH  11  17
ENDBRANCH   8   9
BRANCH   1  25
HETATM   25  O1  UNL     1      12.665  -0.310  56.630  1.00  0.00    -0.340 OA
HETATM   26  C1  UNL     1      12.564   1.123  56.515  1.00  0.00     0.211 C 
ENDBRANCH   1  25
BRANCH   4  27
HETATM   27  N2  UNL     1       8.421  -1.950  55.710  1.00  0.00    -0.216 N 
ATOM     28  H2  UNL     1       7.688  -1.642  55.071  1.00  0.00     0.178 HD
BRANCH  27  29
HETATM   29  C4  UNL     1       8.068  -2.521  56.962  1.00  0.00     0.154 C 
HETATM   30  C5  UNL     1       6.657  -2.173  57.390  1.00  0.00     0.040 C 
BRANCH  29  31
HETATM   31  C6  UNL     1       8.101  -4.028  56.905  1.00  0.00     0.091 A 
HETATM   32  N3  UNL     1       7.298  -4.860  56.247  1.00  0.00    -0.294 N 
HETATM   33  N4  UNL     1       7.491  -6.107  56.327  1.00  0.00    -0.287 N 
ATOM     34  H3  UNL     1       6.532  -4.494  55.682  1.00  0.00     0.187 HD
HETATM   35  C7  UNL     1       8.491  -6.577  57.064  1.00  0.00     0.133 A 
ATOM     36  H4  UNL     1       6.880  -6.751  55.824  1.00  0.00     0.188 HD
HETATM   37  S2  UNL     1       9.170  -5.127  57.661  1.00  0.00    -0.047 SA
BRANCH  35  38
HETATM   38  S1  UNL     1       8.931  -8.298  57.306  1.00  0.00    -0.034 SA
BRANCH  38  39
HETATM   39  C8  UNL     1       8.959  -8.668  59.090  1.00  0.00     0.422 C 
HETATM   40  F1  UNL     1       8.672 -10.000  59.337  1.00  0.00    -0.202 F 
HETATM   41  F2  UNL     1       7.918  -7.935  59.661  1.00  0.00    -0.202 F 
ENDBRANCH  38  39
ENDBRANCH  35  38
ENDBRANCH  29  31
ENDBRANCH  27  29
ENDBRANCH   4  27
TORSDOF 8
ENDMDL
MODEL 5
REMARK VINA RESULT: -8.840232078      2.575      2.784
REMARK  8 active torsions:
REMARK  status: ('A' for Active; 'I' for Inactive)
REMARK    1  A    between atoms: O1_2  and  C2_3 
REMARK    2  A    between atoms: C3_6  and  N2_7 
REMARK    3  A    between atoms: N2_7  and  C4_9 
REMARK    4  A    between atoms: C4_9  and  C6_11 
REMARK    5  A    between atoms: C7_16  and  S1_17 
REMARK    6  A    between atoms: S1_17  and  C8_18 
REMARK    7  A    between atoms: C10_25  and  C11_26 
REMARK    8  A    between atoms: C13_28  and  C14_29 
ROOT
HETATM    1  C2  UNL     1      11.934  -0.900  55.042  1.00  0.00     0.171 A 
HETATM    2  N1  UNL     1      10.945  -0.883  55.988  1.00  0.00    -0.170 N 
ATOM      3  H1  UNL     1      11.192  -0.652  56.950  1.00  0.00     0.186 HD
HETATM    4  C3  UNL     1       9.670  -1.157  55.704  1.00  0.00     0.680 A 
HETATM    5  N5  UNL     1       9.367  -1.464  54.409  1.00  0.00    -0.201 N 
ATOM      6  H5  UNL     1       8.403  -1.680  54.154  1.00  0.00     0.183 HD
HETATM    7  C9  UNL     1      10.317  -1.485  53.471  1.00  0.00     0.124 A 
HETATM    8  C10 UNL     1      11.666  -1.197  53.750  1.00  0.00     0.058 A 
ENDROOT
BRANCH   8   9
HETATM    9  C11 UNL     1      12.650  -1.253  52.706  1.00  0.00     0.050 A 
HETATM   10  C12 UNL     1      12.960  -0.318  51.778  1.00  0.00     0.038 A 
HETATM   11  C13 UNL     1      13.917  -0.488  50.764  1.00  0.00    -0.047 A 
HETATM   12  C19 UNL     1      14.552  -1.697  50.750  1.00  0.00     0.069 A 
HETATM   13  C20 UNL     1      14.264  -2.684  51.682  1.00  0.00     0.189 A 
HETATM   14  F3  UNL     1      14.908  -3.891  51.656  1.00  0.00    -0.186 F 
HETATM   15  N7  UNL     1      13.347  -2.437  52.605  1.00  0.00    -0.332 N 
ATOM     16  H7  UNL     1      13.144  -3.170  53.284  1.00  0.00     0.168 HD
BRANCH  11  17
HETATM   17  C14 UNL     1      14.213   0.567  49.797  1.00  0.00     0.031 A 
HETATM   18  C15 UNL     1      15.516   0.657  49.230  1.00  0.00     0.026 A 
HETATM   19  C16 UNL     1      16.870   0.987  49.683  1.00  0.00     0.238 C 
HETATM   20  C18 UNL     1      14.858   1.770  50.147  1.00  0.00     0.026 A 
HETATM   21  N6  UNL     1      16.901   2.445  49.438  1.00  0.00    -0.074 N 
HETATM   22  C17 UNL     1      15.485   2.867  49.410  1.00  0.00     0.238 C 
ATOM     23  H62 UNL     1      17.471   2.963  50.107  1.00  0.00     0.277 HD
ATOM     24  H61 UNL     1      17.425   2.711  48.604  1.00  0.00     0.277 HD
ENDBRANCH  11  17
ENDBRANCH   8   9
BRANCH   1  25
HETATM   25  O1  UNL     1      13.211  -0.603  55.490  1.00  0.00    -0.340 OA
HETATM   26  C1  UNL     1      13.805  -1.623  56.318  1.00  0.00     0.211 C 
ENDBRANCH   1  25
BRANCH   4  27
HETATM   27  N2  UNL     1       8.734  -1.141  56.588  1.00  0.00    -0.216 N 
ATOM     28  H2  UNL     1       8.253  -0.265  56.798  1.00  0.00     0.178 HD
BRANCH  27  29
HETATM   29  C4  UNL     1       8.363  -2.328  57.276  1.00  0.00     0.154 C 
HETATM   30  C5  UNL     1       7.090  -2.946  56.733  1.00  0.00     0.040 C 
BRANCH  29  31
HETATM   31  C6  UNL     1       9.415  -3.399  57.126  1.00  0.00     0.091 A 
HETATM   32  N3  UNL     1       9.450  -4.428  56.284  1.00  0.00    -0.294 N 
HETATM   33  N4  UNL     1      10.430  -5.225  56.314  1.00  0.00    -0.287 N 
ATOM     34  H3  UNL     1       8.690  -4.574  55.619  1.00  0.00     0.187 HD
HETATM   35  C7  UNL     1      11.417  -5.031  57.182  1.00  0.00     0.133 A 
ATOM     36  H4  UNL     1      10.464  -6.017  55.672  1.00  0.00     0.188 HD
HETATM   37  S2  UNL     1      10.877  -3.620  57.983  1.00  0.00    -0.047 SA
BRANCH  35  38
HETATM   38  S1  UNL     1      12.886  -6.038  57.383  1.00  0.00    -0.034 SA
BRANCH  38  39
HETATM   39  C8  UNL     1      14.074  -5.641  56.060  1.00  0.00     0.422 C 
HETATM   40  F1  UNL     1      15.014  -4.715  56.481  1.00  0.00    -0.202 F 
HETATM   41  F2  UNL     1      13.343  -5.019  55.047  1.00  0.00    -0.202 F 
ENDBRANCH  38  39
ENDBRANCH  35  38
ENDBRANCH  29  31
ENDBRANCH  27  29
ENDBRANCH   4  27
TORSDOF 8
ENDMDL
