MODEL 1
REMARK VINA RESULT: -7.773985409      0.000      0.000
REMARK  10 active torsions:
REMARK  status: ('A' for Active; 'I' for Inactive)
REMARK    1  A    between atoms: C2_2  and  C3_3 
REMARK    2  A    between atoms: C3_3  and  O1_4 
REMARK    3  A    between atoms: C3_3  and  C4_6 
REMARK    4  A    between atoms: C4_6  and  N1_7 
REMARK    5  A    between atoms: N1_7  and  C5_9 
REMARK    6  A    between atoms: C7_11  and  N2_12 
REMARK    7  A    between atoms: N2_12  and  S1_14 
REMARK    8  A    between atoms: C14_22  and  C15_23 
REMARK    9  A    between atoms: N3_28  and  C19_29 
REMARK   10  A    between atoms: C21_31  and  C22_32 
ROOT
HETATM    1  C5  UNL     1      13.690  -1.578  54.312  1.00  0.00     0.042 A 
HETATM    2  C6  UNL     1      13.291  -1.059  53.103  1.00  0.00     0.060 A 
HETATM    3  C7  UNL     1      13.005  -1.879  52.008  1.00  0.00     0.041 A 
HETATM    4  C12 UNL     1      13.129  -3.226  52.156  1.00  0.00     0.031 A 
HETATM    5  C13 UNL     1      13.532  -3.745  53.374  1.00  0.00     0.014 A 
HETATM    6  C14 UNL     1      13.826  -2.974  54.481  1.00  0.00    -0.006 A 
ENDROOT
BRANCH   6   7
HETATM    7  C15 UNL     1      14.285  -3.501  55.740  1.00  0.00     0.145 C 
HETATM    8  C16 UNL     1      14.892  -4.933  55.597  1.00  0.00     0.198 C 
HETATM    9  O3  UNL     1      15.179  -5.414  56.874  1.00  0.00    -0.387 OA
HETATM   10  C17 UNL     1      15.286  -4.455  57.870  1.00  0.00     0.187 C 
HETATM   11  C18 UNL     1      13.954  -3.708  58.122  1.00  0.00     0.152 C 
HETATM   12  N3  UNL     1      13.328  -3.740  56.795  1.00  0.00    -0.347 N 
BRANCH  12  13
HETATM   13  C19 UNL     1      11.958  -4.040  56.678  1.00  0.00     0.171 A 
HETATM   14  C20 UNL     1      10.907  -3.204  57.112  1.00  0.00     0.094 A 
HETATM   15  C21 UNL     1       9.734  -3.837  56.840  1.00  0.00     0.142 A 
HETATM   16  N4  UNL     1      10.090  -4.993  56.269  1.00  0.00    -0.254 N 
HETATM   17  O4  UNL     1      11.371  -5.091  56.185  1.00  0.00    -0.220 OA
ATOM     18  H4  UNL     1       9.433  -5.702  55.943  1.00  0.00     0.195 HD
BRANCH  15  19
HETATM   19  C22 UNL     1       8.399  -3.274  57.183  1.00  0.00     0.434 C 
HETATM   20  F1  UNL     1       7.840  -2.719  56.051  1.00  0.00    -0.165 F 
HETATM   21  F2  UNL     1       8.508  -2.323  58.196  1.00  0.00    -0.165 F 
HETATM   22  F3  UNL     1       7.618  -4.312  57.590  1.00  0.00    -0.165 F 
ENDBRANCH  15  19
ENDBRANCH  12  13
ENDBRANCH   6   7
BRANCH   1  23
HETATM   23  N1  UNL     1      13.949  -0.696  55.392  1.00  0.00    -0.366 N 
ATOM     24  H1  UNL     1      14.889  -0.299  55.391  1.00  0.00     0.165 HD
BRANCH  23  25
HETATM   25  C4  UNL     1      13.143  -0.272  56.463  1.00  0.00     0.092 C 
BRANCH  25  26
HETATM   26  C3  UNL     1      11.991   0.624  56.267  1.00  0.00     0.156 C 
BRANCH  26  27
HETATM   27  C2  UNL     1      11.076  -0.004  55.159  1.00  0.00     0.032 C 
HETATM   28  C1  UNL     1       9.646   0.025  55.619  1.00  0.00     0.008 C 
ENDBRANCH  26  27
BRANCH  26  29
HETATM   29  O1  UNL     1      12.413   1.848  55.721  1.00  0.00    -0.390 OA
ATOM     30  H1  UNL     1      12.824   1.610  54.898  1.00  0.00     0.210 HD
ENDBRANCH  26  29
ENDBRANCH  25  26
ENDBRANCH  23  25
ENDBRANCH   1  23
BRANCH   3  31
HETATM   31  N2  UNL     1      12.615  -1.256  50.750  1.00  0.00    -0.317 N 
ATOM     32  H2  UNL     1      11.639  -1.180  50.461  1.00  0.00     0.175 HD
BRANCH  31  33
HETATM   33  S1  UNL     1      13.753  -0.725  49.894  1.00  0.00     0.025 S 
HETATM   34  O2  UNL     1      13.421  -0.858  48.447  1.00  0.00    -0.250 OA
HETATM   35  C8  UNL     1      14.271   0.949  50.308  1.00  0.00     0.117 C 
HETATM   36  C9  UNL     1      15.603   0.882  49.542  1.00  0.00     0.014 C 
HETATM   37  C10 UNL     1      16.317  -0.365  49.957  1.00  0.00     0.014 C 
HETATM   38  C11 UNL     1      15.347  -1.483  50.221  1.00  0.00     0.117 C 
ENDBRANCH  31  33
ENDBRANCH   3  31
TORSDOF 10
ENDMDL
MODEL 2
REMARK VINA RESULT: -7.755595591      4.284      7.494
REMARK  10 active torsions:
REMARK  status: ('A' for Active; 'I' for Inactive)
REMARK    1  A    between atoms: C2_2  and  C3_3 
REMARK    2  A    between atoms: C3_3  and  O1_4 
REMARK    3  A    between atoms: C3_3  and  C4_6 
REMARK    4  A    between atoms: C4_6  and  N1_7 
REMARK    5  A    between atoms: N1_7  and  C5_9 
REMARK    6  A    between atoms: C7_11  and  N2_12 
REMARK    7  A    between atoms: N2_12  and  S1_14 
REMARK    8  A    between atoms: C14_22  and  C15_23 
REMARK    9  A    between atoms: N3_28  and  C19_29 
REMARK   10  A    between atoms: C21_31  and  C22_32 
ROOT
HETATM    1  C5  UNL     1      14.481  -1.745  53.702  1.00  0.00     0.042 A 
HETATM    2  C6  UNL     1      13.646  -2.395  54.580  1.00  0.00     0.060 A 
HETATM    3  C7  UNL     1      12.557  -3.151  54.136  1.00  0.00     0.041 A 
HETATM    4  C12 UNL     1      12.329  -3.237  52.798  1.00  0.00     0.031 A 
HETATM    5  C13 UNL     1      13.171  -2.580  51.918  1.00  0.00     0.014 A 
HETATM    6  C14 UNL     1      14.256  -1.822  52.309  1.00  0.00    -0.006 A 
ENDROOT
BRANCH   6   7
HETATM    7  C15 UNL     1      15.113  -1.101  51.405  1.00  0.00     0.145 C 
HETATM    8  C16 UNL     1      14.481  -0.948  49.985  1.00  0.00     0.198 C 
HETATM    9  O3  UNL     1      15.431  -0.366  49.146  1.00  0.00    -0.387 OA
HETATM   10  C17 UNL     1      16.465   0.306  49.780  1.00  0.00     0.187 C 
HETATM   11  C18 UNL     1      17.351  -0.634  50.631  1.00  0.00     0.152 C 
HETATM   12  N3  UNL     1      16.395  -1.665  51.048  1.00  0.00    -0.347 N 
BRANCH  12  13
HETATM   13  C19 UNL     1      16.769  -3.022  51.006  1.00  0.00     0.171 A 
HETATM   14  C20 UNL     1      16.670  -3.922  52.088  1.00  0.00     0.094 A 
HETATM   15  C21 UNL     1      17.135  -5.128  51.668  1.00  0.00     0.142 A 
HETATM   16  N4  UNL     1      17.487  -4.938  50.393  1.00  0.00    -0.254 N 
HETATM   17  O4  UNL     1      17.270  -3.721  50.031  1.00  0.00    -0.220 OA
ATOM     18  H4  UNL     1      17.877  -5.660  49.786  1.00  0.00     0.195 HD
BRANCH  15  19
HETATM   19  C22 UNL     1      17.215  -6.328  52.546  1.00  0.00     0.434 C 
HETATM   20  F1  UNL     1      18.386  -6.276  53.273  1.00  0.00    -0.165 F 
HETATM   21  F2  UNL     1      17.154  -7.499  51.793  1.00  0.00    -0.165 F 
HETATM   22  F3  UNL     1      16.164  -6.265  53.410  1.00  0.00    -0.165 F 
ENDBRANCH  15  19
ENDBRANCH  12  13
ENDBRANCH   6   7
BRANCH   1  23
HETATM   23  N1  UNL     1      15.580  -1.007  54.211  1.00  0.00    -0.366 N 
ATOM     24  H1  UNL     1      15.431   0.002  54.237  1.00  0.00     0.165 HD
BRANCH  23  25
HETATM   25  C4  UNL     1      16.838  -1.417  54.685  1.00  0.00     0.092 C 
BRANCH  25  26
HETATM   26  C3  UNL     1      17.172  -1.415  56.120  1.00  0.00     0.156 C 
BRANCH  26  27
HETATM   27  C2  UNL     1      16.638  -2.753  56.739  1.00  0.00     0.032 C 
HETATM   28  C1  UNL     1      17.033  -3.903  55.854  1.00  0.00     0.008 C 
ENDBRANCH  26  27
BRANCH  26  29
HETATM   29  O1  UNL     1      16.452  -0.409  56.785  1.00  0.00    -0.390 OA
ATOM     30  H1  UNL     1      16.980  -0.206  57.548  1.00  0.00     0.210 HD
ENDBRANCH  26  29
ENDBRANCH  25  26
ENDBRANCH  23  25
ENDBRANCH   1  23
BRANCH   3  31
HETATM   31  N2  UNL     1      11.699  -3.789  55.127  1.00  0.00    -0.317 N 
ATOM     32  H2  UNL     1      11.643  -4.803  55.223  1.00  0.00     0.175 HD
BRANCH  31  33
HETATM   33  S1  UNL     1      10.894  -2.849  56.008  1.00  0.00     0.025 S 
HETATM   34  O2  UNL     1      11.754  -2.288  57.090  1.00  0.00    -0.250 OA
HETATM   35  C8  UNL     1      10.026  -1.553  55.108  1.00  0.00     0.117 C 
HETATM   36  C9  UNL     1       9.096  -1.167  56.270  1.00  0.00     0.014 C 
HETATM   37  C10 UNL     1       8.466  -2.417  56.798  1.00  0.00     0.014 C 
HETATM   38  C11 UNL     1       9.419  -3.578  56.724  1.00  0.00     0.117 C 
ENDBRANCH  31  33
ENDBRANCH   3  31
TORSDOF 10
ENDMDL
MODEL 3
REMARK VINA RESULT: -7.737752842      4.235      7.456
REMARK  10 active torsions:
REMARK  status: ('A' for Active; 'I' for Inactive)
REMARK    1  A    between atoms: C2_2  and  C3_3 
REMARK    2  A    between atoms: C3_3  and  O1_4 
REMARK    3  A    between atoms: C3_3  and  C4_6 
REMARK    4  A    between atoms: C4_6  and  N1_7 
REMARK    5  A    between atoms: N1_7  and  C5_9 
REMARK    6  A    between atoms: C7_11  and  N2_12 
REMARK    7  A    between atoms: N2_12  and  S1_14 
REMARK    8  A    between atoms: C14_22  and  C15_23 
REMARK    9  A    between atoms: N3_28  and  C19_29 
REMARK   10  A    between atoms: C21_31  and  C22_32 
ROOT
HETATM    1  C5  UNL     1      12.737  -1.144  54.612  1.00  0.00     0.042 A 
HETATM    2  C6  UNL     1      11.941  -1.467  55.686  1.00  0.00     0.060 A 
HETATM    3  C7  UNL     1      10.598  -1.819  55.526  1.00  0.00     0.041 A 
HETATM    4  C12 UNL     1      10.077  -1.840  54.270  1.00  0.00     0.031 A 
HETATM    5  C13 UNL     1      10.881  -1.514  53.191  1.00  0.00     0.014 A 
HETATM    6  C14 UNL     1      12.210  -1.158  53.301  1.00  0.00    -0.006 A 
ENDROOT
BRANCH   6   7
HETATM    7  C15 UNL     1      13.044  -0.777  52.190  1.00  0.00     0.145 C 
HETATM    8  C16 UNL     1      12.295  -0.879  50.824  1.00  0.00     0.198 C 
HETATM    9  O3  UNL     1      13.212  -0.628  49.805  1.00  0.00    -0.387 OA
HETATM   10  C17 UNL     1      14.367   0.038  50.183  1.00  0.00     0.187 C 
HETATM   11  C18 UNL     1      15.232  -0.782  51.170  1.00  0.00     0.152 C 
HETATM   12  N3  UNL     1      14.219  -1.563  51.890  1.00  0.00    -0.347 N 
BRANCH  12  13
HETATM   13  C19 UNL     1      14.445  -2.928  52.148  1.00  0.00     0.171 A 
HETATM   14  C20 UNL     1      15.697  -3.572  52.051  1.00  0.00     0.094 A 
HETATM   15  C21 UNL     1      15.514  -4.883  52.364  1.00  0.00     0.142 A 
HETATM   16  N4  UNL     1      14.210  -4.994  52.635  1.00  0.00    -0.254 N 
HETATM   17  O4  UNL     1      13.613  -3.860  52.506  1.00  0.00    -0.220 OA
ATOM     18  H4  UNL     1      13.748  -5.862  52.909  1.00  0.00     0.195 HD
BRANCH  15  19
HETATM   19  C22 UNL     1      16.608  -5.892  52.342  1.00  0.00     0.434 C 
HETATM   20  F1  UNL     1      16.070  -7.135  52.083  1.00  0.00    -0.165 F 
HETATM   21  F2  UNL     1      17.301  -5.898  53.552  1.00  0.00    -0.165 F 
HETATM   22  F3  UNL     1      17.443  -5.558  51.321  1.00  0.00    -0.165 F 
ENDBRANCH  15  19
ENDBRANCH  12  13
ENDBRANCH   6   7
BRANCH   1  23
HETATM   23  N1  UNL     1      14.097  -0.811  54.835  1.00  0.00    -0.366 N 
ATOM     24  H1  UNL     1      14.357   0.122  54.516  1.00  0.00     0.165 HD
BRANCH  23  25
HETATM   25  C4  UNL     1      15.151  -1.538  55.416  1.00  0.00     0.092 C 
BRANCH  25  26
HETATM   26  C3  UNL     1      16.555  -1.331  55.021  1.00  0.00     0.156 C 
BRANCH  26  27
HETATM   27  C2  UNL     1      17.338  -2.656  55.318  1.00  0.00     0.032 C 
HETATM   28  C1  UNL     1      18.458  -2.805  54.326  1.00  0.00     0.008 C 
ENDBRANCH  26  27
BRANCH  26  29
HETATM   29  O1  UNL     1      17.158  -0.373  55.853  1.00  0.00    -0.390 OA
ATOM     30  H1  UNL     1      16.820  -0.566  56.719  1.00  0.00     0.210 HD
ENDBRANCH  26  29
ENDBRANCH  25  26
ENDBRANCH  23  25
ENDBRANCH   1  23
BRANCH   3  31
HETATM   31  N2  UNL     1       9.808  -2.121  56.714  1.00  0.00    -0.317 N 
ATOM     32  H2  UNL     1       9.109  -1.474  57.079  1.00  0.00     0.175 HD
BRANCH  31  33
HETATM   33  S1  UNL     1      10.093  -3.460  57.373  1.00  0.00     0.025 S 
HETATM   34  O2  UNL     1      10.975  -3.276  58.562  1.00  0.00    -0.250 OA
HETATM   35  C8  UNL     1       8.620  -4.413  57.778  1.00  0.00     0.117 C 
HETATM   36  C9  UNL     1       9.363  -5.741  57.999  1.00  0.00     0.014 C 
HETATM   37  C10 UNL     1      10.246  -5.985  56.816  1.00  0.00     0.014 C 
HETATM   38  C11 UNL     1      10.801  -4.694  56.280  1.00  0.00     0.117 C 
ENDBRANCH  31  33
ENDBRANCH   3  31
TORSDOF 10
ENDMDL
MODEL 4
REMARK VINA RESULT: -7.715424131      1.911      2.416
REMARK  10 active torsions:
REMARK  status: ('A' for Active; 'I' for Inactive)
REMARK    1  A    between atoms: C2_2  and  C3_3 
REMARK    2  A    between atoms: C3_3  and  O1_4 
REMARK    3  A    between atoms: C3_3  and  C4_6 
REMARK    4  A    between atoms: C4_6  and  N1_7 
REMARK    5  A    between atoms: N1_7  and  C5_9 
REMARK    6  A    between atoms: C7_11  and  N2_12 
REMARK    7  A    between atoms: N2_12  and  S1_14 
REMARK    8  A    between atoms: C14_22  and  C15_23 
REMARK    9  A    between atoms: N3_28  and  C19_29 
REMARK   10  A    between atoms: C21_31  and  C22_32 
ROOT
HETATM    1  C5  UNL     1      12.648  -1.392  55.823  1.00  0.00     0.042 A 
HETATM    2  C6  UNL     1      12.537  -0.719  54.629  1.00  0.00     0.060 A 
HETATM    3  C7  UNL     1      12.355  -1.393  53.419  1.00  0.00     0.041 A 
HETATM    4  C12 UNL     1      12.286  -2.751  53.436  1.00  0.00     0.031 A 
HETATM    5  C13 UNL     1      12.399  -3.426  54.639  1.00  0.00     0.014 A 
HETATM    6  C14 UNL     1      12.582  -2.803  55.858  1.00  0.00    -0.006 A 
ENDROOT
BRANCH   6   7
HETATM    7  C15 UNL     1      12.742  -3.497  57.109  1.00  0.00     0.145 C 
HETATM    8  C16 UNL     1      13.378  -4.911  56.926  1.00  0.00     0.198 C 
HETATM    9  O3  UNL     1      13.366  -5.557  58.161  1.00  0.00    -0.387 OA
HETATM   10  C17 UNL     1      13.230  -4.737  59.270  1.00  0.00     0.187 C 
HETATM   11  C18 UNL     1      11.870  -4.000  59.303  1.00  0.00     0.152 C 
HETATM   12  N3  UNL     1      11.568  -3.848  57.875  1.00  0.00    -0.347 N 
BRANCH  12  13
HETATM   13  C19 UNL     1      10.265  -4.102  57.407  1.00  0.00     0.171 A 
HETATM   14  C20 UNL     1       9.185  -3.198  57.492  1.00  0.00     0.094 A 
HETATM   15  C21 UNL     1       8.095  -3.801  56.947  1.00  0.00     0.142 A 
HETATM   16  N4  UNL     1       8.525  -5.005  56.558  1.00  0.00    -0.254 N 
HETATM   17  O4  UNL     1       9.774  -5.159  56.831  1.00  0.00    -0.220 OA
ATOM     18  H4  UNL     1       7.941  -5.709  56.105  1.00  0.00     0.195 HD
BRANCH  15  19
HETATM   19  C22 UNL     1       6.751  -3.164  56.883  1.00  0.00     0.434 C 
HETATM   20  F1  UNL     1       6.881  -1.811  57.119  1.00  0.00    -0.165 F 
HETATM   21  F2  UNL     1       5.884  -3.744  57.808  1.00  0.00    -0.165 F 
HETATM   22  F3  UNL     1       6.281  -3.342  55.618  1.00  0.00    -0.165 F 
ENDBRANCH  15  19
ENDBRANCH  12  13
ENDBRANCH   6   7
BRANCH   1  23
HETATM   23  N1  UNL     1      12.814  -0.653  57.022  1.00  0.00    -0.366 N 
ATOM     24  H1  UNL     1      12.251  -0.989  57.803  1.00  0.00     0.165 HD
BRANCH  23  25
HETATM   25  C4  UNL     1      13.617   0.461  57.326  1.00  0.00     0.092 C 
BRANCH  25  26
HETATM   26  C3  UNL     1      14.749   0.376  58.263  1.00  0.00     0.156 C 
BRANCH  26  27
HETATM   27  C2  UNL     1      14.810   1.721  59.066  1.00  0.00     0.032 C 
HETATM   28  C1  UNL     1      13.823   2.694  58.483  1.00  0.00     0.008 C 
ENDBRANCH  26  27
BRANCH  26  29
HETATM   29  O1  UNL     1      15.963   0.335  57.556  1.00  0.00    -0.390 OA
ATOM     30  H1  UNL     1      15.903  -0.452  57.028  1.00  0.00     0.210 HD
ENDBRANCH  26  29
ENDBRANCH  25  26
ENDBRANCH  23  25
ENDBRANCH   1  23
BRANCH   3  31
HETATM   31  N2  UNL     1      12.274  -0.613  52.190  1.00  0.00    -0.317 N 
ATOM     32  H2  UNL     1      11.520   0.053  52.018  1.00  0.00     0.175 HD
BRANCH  31  33
HETATM   33  S1  UNL     1      13.384  -0.854  51.180  1.00  0.00     0.025 S 
HETATM   34  O2  UNL     1      12.988  -1.924  50.220  1.00  0.00    -0.250 OA
HETATM   35  C8  UNL     1      13.945   0.630  50.329  1.00  0.00     0.117 C 
HETATM   36  C9  UNL     1      15.242   0.005  49.789  1.00  0.00     0.014 C 
HETATM   37  C10 UNL     1      15.953  -0.652  50.929  1.00  0.00     0.014 C 
HETATM   38  C11 UNL     1      14.977  -1.250  51.904  1.00  0.00     0.117 C 
ENDBRANCH  31  33
ENDBRANCH   3  31
TORSDOF 10
ENDMDL
MODEL 5
REMARK VINA RESULT: -7.703914762      2.497      3.090
REMARK  10 active torsions:
REMARK  status: ('A' for Active; 'I' for Inactive)
REMARK    1  A    between atoms: C2_2  and  C3_3 
REMARK    2  A    between atoms: C3_3  and  O1_4 
REMARK    3  A    between atoms: C3_3  and  C4_6 
REMARK    4  A    between atoms: C4_6  and  N1_7 
REMARK    5  A    between atoms: N1_7  and  C5_9 
REMARK    6  A    between atoms: C7_11  and  N2_12 
REMARK    7  A    between atoms: N2_12  and  S1_14 
REMARK    8  A    between atoms: C14_22  and  C15_23 
REMARK    9  A    between atoms: N3_28  and  C19_29 
REMARK   10  A    between atoms: C21_31  and  C22_32 
ROOT
HETATM    1  C5  UNL     1      15.842  -1.874  55.011  1.00  0.00     0.042 A 
HETATM    2  C6  UNL     1      16.501  -1.309  53.945  1.00  0.00     0.060 A 
HETATM    3  C7  UNL     1      16.843  -2.054  52.813  1.00  0.00     0.041 A 
HETATM    4  C12 UNL     1      16.508  -3.372  52.777  1.00  0.00     0.031 A 
HETATM    5  C13 UNL     1      15.846  -3.938  53.853  1.00  0.00     0.014 A 
HETATM    6  C14 UNL     1      15.490  -3.243  54.991  1.00  0.00    -0.006 A 
ENDROOT
BRANCH   6   7
HETATM    7  C15 UNL     1      14.838  -3.831  56.132  1.00  0.00     0.145 C 
HETATM    8  C16 UNL     1      14.683  -5.378  55.993  1.00  0.00     0.198 C 
HETATM    9  O3  UNL     1      13.924  -5.838  57.069  1.00  0.00    -0.387 OA
HETATM   10  C17 UNL     1      13.858  -4.993  58.166  1.00  0.00     0.187 C 
HETATM   11  C18 UNL     1      13.147  -3.656  57.846  1.00  0.00     0.152 C 
HETATM   12  N3  UNL     1      13.471  -3.468  56.427  1.00  0.00    -0.347 N 
BRANCH  12  13
HETATM   13  C19 UNL     1      12.471  -3.039  55.534  1.00  0.00     0.171 A 
HETATM   14  C20 UNL     1      11.456  -2.109  55.844  1.00  0.00     0.094 A 
HETATM   15  C21 UNL     1      10.679  -1.959  54.738  1.00  0.00     0.142 A 
HETATM   16  N4  UNL     1      11.223  -2.767  53.822  1.00  0.00    -0.254 N 
HETATM   17  O4  UNL     1      12.251  -3.379  54.298  1.00  0.00    -0.220 OA
ATOM     18  H4  UNL     1      10.870  -2.884  52.872  1.00  0.00     0.195 HD
BRANCH  15  19
HETATM   19  C22 UNL     1       9.482  -1.076  54.690  1.00  0.00     0.434 C 
HETATM   20  F1  UNL     1       8.502  -1.600  55.507  1.00  0.00    -0.165 F 
HETATM   21  F2  UNL     1       9.015  -0.944  53.383  1.00  0.00    -0.165 F 
HETATM   22  F3  UNL     1       9.856   0.136  55.183  1.00  0.00    -0.165 F 
ENDBRANCH  15  19
ENDBRANCH  12  13
ENDBRANCH   6   7
BRANCH   1  23
HETATM   23  N1  UNL     1      15.507  -1.064  56.126  1.00  0.00    -0.366 N 
ATOM     24  H1  UNL     1      14.613  -0.581  56.038  1.00  0.00     0.165 HD
BRANCH  23  25
HETATM   25  C4  UNL     1      16.187  -0.808  57.330  1.00  0.00     0.092 C 
BRANCH  25  26
HETATM   26  C3  UNL     1      15.735   0.223  58.279  1.00  0.00     0.156 C 
BRANCH  26  27
HETATM   27  C2  UNL     1      14.187   0.395  58.101  1.00  0.00     0.032 C 
HETATM   28  C1  UNL     1      13.840   1.857  58.148  1.00  0.00     0.008 C 
ENDBRANCH  26  27
BRANCH  26  29
HETATM   29  O1  UNL     1      16.269   1.474  57.928  1.00  0.00    -0.390 OA
ATOM     30  H1  UNL     1      15.591   1.881  57.401  1.00  0.00     0.210 HD
ENDBRANCH  26  29
ENDBRANCH  25  26
ENDBRANCH  23  25
ENDBRANCH   1  23
BRANCH   3  31
HETATM   31  N2  UNL     1      17.566  -1.393  51.733  1.00  0.00    -0.317 N 
ATOM     32  H2  UNL     1      18.560  -1.173  51.802  1.00  0.00     0.175 HD
BRANCH  31  33
HETATM   33  S1  UNL     1      16.746  -1.052  50.500  1.00  0.00     0.025 S 
HETATM   34  O2  UNL     1      16.878  -2.127  49.475  1.00  0.00    -0.250 OA
HETATM   35  C8  UNL     1      15.021  -0.667  50.843  1.00  0.00     0.117 C 
HETATM   36  C9  UNL     1      14.742  -0.023  49.474  1.00  0.00     0.014 C 
HETATM   37  C10 UNL     1      15.812   0.988  49.207  1.00  0.00     0.014 C 
HETATM   38  C11 UNL     1      17.135   0.538  49.763  1.00  0.00     0.117 C 
ENDBRANCH  31  33
ENDBRANCH   3  31
TORSDOF 10
ENDMDL
