MODEL 1
REMARK VINA RESULT: -4.825036242      0.000      0.000
REMARK  3 active torsions:
REMARK  status: ('A' for Active; 'I' for Inactive)
REMARK       I    between atoms: C2_2  and  N1_4 
REMARK       I    between atoms: N1_4  and  C3_6 
REMARK    1  A    between atoms: C3_6  and  C4_8 
REMARK    2  A    between atoms: N4_13  and  N5_14 
REMARK    3  A    between atoms: C5_17  and  N6_18 
ROOT
HETATM    1  C4  UNL     1      26.134  70.964  56.625  1.00  0.00     0.165 A 
HETATM    2  N2  UNL     1      27.001  71.780  55.926  1.00  0.00    -0.276 N 
ATOM      3  H2  UNL     1      26.723  72.513  55.274  1.00  0.00     0.189 HD
HETATM    4  N3  UNL     1      28.235  71.467  56.233  1.00  0.00    -0.219 N 
ATOM      5  H3  UNL     1      29.057  71.930  55.846  1.00  0.00     0.210 HD
HETATM    6  N4  UNL     1      28.280  70.484  57.099  1.00  0.00    -0.170 N 
HETATM    7  C5  UNL     1      26.949  70.150  57.361  1.00  0.00     0.174 A 
ENDROOT
BRANCH   1   8
HETATM    8  C3  UNL     1      24.692  71.071  56.494  1.00  0.00     0.280 C 
HETATM    9  N1  UNL     1      23.952  71.559  55.421  1.00  0.00    -0.292 N 
HETATM   10  C2  UNL     1      22.527  71.593  55.456  1.00  0.00     0.220 C 
ATOM     11  H1  UNL     1      24.440  71.900  54.593  1.00  0.00     0.172 HD
HETATM   12  C1  UNL     1      21.672  71.147  56.559  1.00  0.00     0.117 C 
HETATM   13  O1  UNL     1      21.943  72.062  54.413  1.00  0.00    -0.274 OA
HETATM   14  O2  UNL     1      24.002  70.655  57.507  1.00  0.00    -0.265 OA
ENDBRANCH   1   8
BRANCH   7  15
HETATM   15  N6  UNL     1      26.662  69.235  58.159  1.00  0.00    -0.381 N 
ATOM     16  H62 UNL     1      25.819  69.283  58.732  1.00  0.00     0.157 HD
ATOM     17  H61 UNL     1      27.155  68.367  58.369  1.00  0.00     0.157 HD
ENDBRANCH   7  15
BRANCH   6  18
HETATM   18  N5  UNL     1      29.375  69.857  57.679  1.00  0.00    -0.321 N 
ATOM     19  H52 UNL     1      29.540  68.851  57.661  1.00  0.00     0.179 HD
ATOM     20  H51 UNL     1      30.159  70.256  58.196  1.00  0.00     0.179 HD
ENDBRANCH   6  18
TORSDOF 3
ENDMDL
MODEL 2
REMARK VINA RESULT: -4.778350917      4.694      6.543
REMARK  3 active torsions:
REMARK  status: ('A' for Active; 'I' for Inactive)
REMARK       I    between atoms: C2_2  and  N1_4 
REMARK       I    between atoms: N1_4  and  C3_6 
REMARK    1  A    between atoms: C3_6  and  C4_8 
REMARK    2  A    between atoms: N4_13  and  N5_14 
REMARK    3  A    between atoms: C5_17  and  N6_18 
ROOT
HETATM    1  C4  UNL     1      20.777  71.112  59.152  1.00  0.00     0.165 A 
HETATM    2  N2  UNL     1      20.605  69.819  59.603  1.00  0.00    -0.276 N 
ATOM      3  H2  UNL     1      20.853  68.976  59.085  1.00  0.00     0.189 HD
HETATM    4  N3  UNL     1      20.073  69.844  60.800  1.00  0.00    -0.219 N 
ATOM      5  H3  UNL     1      19.849  69.012  61.346  1.00  0.00     0.210 HD
HETATM    6  N4  UNL     1      19.864  71.073  61.207  1.00  0.00    -0.170 N 
HETATM    7  C5  UNL     1      20.308  71.895  60.169  1.00  0.00     0.174 A 
ENDROOT
BRANCH   1   8
HETATM    8  C3  UNL     1      21.347  71.410  57.850  1.00  0.00     0.280 C 
HETATM    9  N1  UNL     1      22.249  70.657  57.105  1.00  0.00    -0.292 N 
HETATM   10  C2  UNL     1      22.712  71.099  55.830  1.00  0.00     0.220 C 
ATOM     11  H1  UNL     1      22.586  69.769  57.478  1.00  0.00     0.172 HD
HETATM   12  C1  UNL     1      22.334  72.340  55.150  1.00  0.00     0.117 C 
HETATM   13  O1  UNL     1      23.542  70.326  55.227  1.00  0.00    -0.274 OA
HETATM   14  O2  UNL     1      20.966  72.522  57.309  1.00  0.00    -0.265 OA
ENDBRANCH   1   8
BRANCH   7  15
HETATM   15  N6  UNL     1      20.239  73.138  60.260  1.00  0.00    -0.381 N 
ATOM     16  H62 UNL     1      19.362  73.630  60.085  1.00  0.00     0.157 HD
ATOM     17  H61 UNL     1      20.959  73.820  60.498  1.00  0.00     0.157 HD
ENDBRANCH   7  15
BRANCH   6  18
HETATM   18  N5  UNL     1      19.326  71.536  62.400  1.00  0.00    -0.321 N 
ATOM     19  H52 UNL     1      18.500  71.142  62.852  1.00  0.00     0.179 HD
ATOM     20  H51 UNL     1      19.630  72.302  63.002  1.00  0.00     0.179 HD
ENDBRANCH   6  18
TORSDOF 3
ENDMDL
MODEL 3
REMARK VINA RESULT: -4.762233568      0.784      1.687
REMARK  3 active torsions:
REMARK  status: ('A' for Active; 'I' for Inactive)
REMARK       I    between atoms: C2_2  and  N1_4 
REMARK       I    between atoms: N1_4  and  C3_6 
REMARK    1  A    between atoms: C3_6  and  C4_8 
REMARK    2  A    between atoms: N4_13  and  N5_14 
REMARK    3  A    between atoms: C5_17  and  N6_18 
ROOT
HETATM    1  C4  UNL     1      25.897  70.893  56.682  1.00  0.00     0.165 A 
HETATM    2  N2  UNL     1      26.433  69.872  57.440  1.00  0.00    -0.276 N 
ATOM      3  H2  UNL     1      25.894  69.177  57.957  1.00  0.00     0.189 HD
HETATM    4  N3  UNL     1      27.740  69.935  57.392  1.00  0.00    -0.219 N 
ATOM      5  H3  UNL     1      28.364  69.287  57.873  1.00  0.00     0.210 HD
HETATM    6  N4  UNL     1      28.146  70.936  56.649  1.00  0.00    -0.170 N 
HETATM    7  C5  UNL     1      26.984  71.558  56.187  1.00  0.00     0.174 A 
ENDROOT
BRANCH   1   8
HETATM    8  C3  UNL     1      24.465  71.086  56.541  1.00  0.00     0.280 C 
HETATM    9  N1  UNL     1      23.757  71.558  55.440  1.00  0.00    -0.292 N 
HETATM   10  C2  UNL     1      22.337  71.687  55.468  1.00  0.00     0.220 C 
ATOM     11  H1  UNL     1      24.265  71.817  54.594  1.00  0.00     0.172 HD
HETATM   12  C1  UNL     1      21.457  71.364  56.593  1.00  0.00     0.117 C 
HETATM   13  O1  UNL     1      21.784  72.131  54.398  1.00  0.00    -0.274 OA
HETATM   14  O2  UNL     1      23.750  70.778  57.575  1.00  0.00    -0.265 OA
ENDBRANCH   1   8
BRANCH   7  15
HETATM   15  N6  UNL     1      27.043  72.560  55.444  1.00  0.00    -0.381 N 
ATOM     16  H62 UNL     1      27.906  72.798  54.953  1.00  0.00     0.157 HD
ATOM     17  H61 UNL     1      26.329  73.250  55.213  1.00  0.00     0.157 HD
ENDBRANCH   7  15
BRANCH   6  18
HETATM   18  N5  UNL     1      29.434  71.350  56.339  1.00  0.00    -0.321 N 
ATOM     19  H52 UNL     1      29.657  72.099  55.682  1.00  0.00     0.179 HD
ATOM     20  H51 UNL     1      30.332  71.009  56.682  1.00  0.00     0.179 HD
ENDBRANCH   6  18
TORSDOF 3
ENDMDL
MODEL 4
REMARK VINA RESULT: -4.677352699      9.313     10.947
REMARK  3 active torsions:
REMARK  status: ('A' for Active; 'I' for Inactive)
REMARK       I    between atoms: C2_2  and  N1_4 
REMARK       I    between atoms: N1_4  and  C3_6 
REMARK    1  A    between atoms: C3_6  and  C4_8 
REMARK    2  A    between atoms: N4_13  and  N5_14 
REMARK    3  A    between atoms: C5_17  and  N6_18 
ROOT
HETATM    1  C4  UNL     1      19.595  64.246  51.153  1.00  0.00     0.165 A 
HETATM    2  N2  UNL     1      18.977  65.365  50.632  1.00  0.00    -0.276 N 
ATOM      3  H2  UNL     1      18.690  66.183  51.169  1.00  0.00     0.189 HD
HETATM    4  N3  UNL     1      18.819  65.212  49.341  1.00  0.00    -0.219 N 
ATOM      5  H3  UNL     1      18.385  65.904  48.730  1.00  0.00     0.210 HD
HETATM    6  N4  UNL     1      19.286  64.057  48.932  1.00  0.00    -0.170 N 
HETATM    7  C5  UNL     1      19.787  63.427  50.075  1.00  0.00     0.174 A 
ENDROOT
BRANCH   1   8
HETATM    8  C3  UNL     1      19.906  64.119  52.565  1.00  0.00     0.280 C 
HETATM    9  N1  UNL     1      20.440  65.073  53.426  1.00  0.00    -0.292 N 
HETATM   10  C2  UNL     1      20.686  64.781  54.800  1.00  0.00     0.220 C 
ATOM     11  H1  UNL     1      20.660  66.002  53.066  1.00  0.00     0.172 HD
HETATM   12  C1  UNL     1      20.431  63.507  55.477  1.00  0.00     0.117 C 
HETATM   13  O1  UNL     1      21.179  65.733  55.506  1.00  0.00    -0.274 OA
HETATM   14  O2  UNL     1      19.653  62.966  53.096  1.00  0.00    -0.265 OA
ENDBRANCH   1   8
BRANCH   7  15
HETATM   15  N6  UNL     1      20.305  62.294  50.009  1.00  0.00    -0.381 N 
ATOM     16  H62 UNL     1      21.160  62.077  50.522  1.00  0.00     0.157 HD
ATOM     17  H61 UNL     1      20.011  61.466  49.490  1.00  0.00     0.157 HD
ENDBRANCH   7  15
BRANCH   6  18
HETATM   18  N5  UNL     1      19.317  63.509  47.657  1.00  0.00    -0.321 N 
ATOM     19  H52 UNL     1      19.329  64.054  46.795  1.00  0.00     0.179 HD
ATOM     20  H51 UNL     1      19.329  62.531  47.366  1.00  0.00     0.179 HD
ENDBRANCH   6  18
TORSDOF 3
ENDMDL
MODEL 5
REMARK VINA RESULT: -4.607328881      3.909      5.565
REMARK  3 active torsions:
REMARK  status: ('A' for Active; 'I' for Inactive)
REMARK       I    between atoms: C2_2  and  N1_4 
REMARK       I    between atoms: N1_4  and  C3_6 
REMARK    1  A    between atoms: C3_6  and  C4_8 
REMARK    2  A    between atoms: N4_13  and  N5_14 
REMARK    3  A    between atoms: C5_17  and  N6_18 
ROOT
HETATM    1  C4  UNL     1      22.028  70.578  56.833  1.00  0.00     0.165 A 
HETATM    2  N2  UNL     1      21.251  71.633  57.269  1.00  0.00    -0.276 N 
ATOM      3  H2  UNL     1      20.624  71.609  58.073  1.00  0.00     0.189 HD
HETATM    4  N3  UNL     1      21.446  72.667  56.490  1.00  0.00    -0.219 N 
ATOM      5  H3  UNL     1      20.985  73.570  56.608  1.00  0.00     0.210 HD
HETATM    6  N4  UNL     1      22.308  72.398  55.540  1.00  0.00    -0.170 N 
HETATM    7  C5  UNL     1      22.690  71.069  55.743  1.00  0.00     0.174 A 
ENDROOT
BRANCH   1   8
HETATM    8  C3  UNL     1      22.027  69.287  57.497  1.00  0.00     0.280 C 
HETATM    9  N1  UNL     1      21.022  68.707  58.264  1.00  0.00    -0.292 N 
HETATM   10  C2  UNL     1      21.185  67.417  58.850  1.00  0.00     0.220 C 
ATOM     11  H1  UNL     1      20.149  69.215  58.410  1.00  0.00     0.172 HD
HETATM   12  C1  UNL     1      22.365  66.556  58.743  1.00  0.00     0.117 C 
HETATM   13  O1  UNL     1      20.195  66.974  59.538  1.00  0.00    -0.274 OA
HETATM   14  O2  UNL     1      23.102  68.581  57.357  1.00  0.00    -0.265 OA
ENDBRANCH   1   8
BRANCH   7  15
HETATM   15  N6  UNL     1      23.514  70.515  54.987  1.00  0.00    -0.381 N 
ATOM     16  H62 UNL     1      23.404  70.554  53.973  1.00  0.00     0.157 HD
ATOM     17  H61 UNL     1      24.355  69.981  55.209  1.00  0.00     0.157 HD
ENDBRANCH   7  15
BRANCH   6  18
HETATM   18  N5  UNL     1      22.789  73.205  54.518  1.00  0.00    -0.321 N 
ATOM     19  H52 UNL     1      22.676  74.219  54.482  1.00  0.00     0.179 HD
ATOM     20  H51 UNL     1      23.304  72.955  53.674  1.00  0.00     0.179 HD
ENDBRANCH   6  18
TORSDOF 3
ENDMDL
