MODEL 1
REMARK VINA RESULT: -5.171190668      0.000      0.000
REMARK  3 active torsions:
REMARK  status: ('A' for Active; 'I' for Inactive)
REMARK    1  A    between atoms: N1_1  and  N2_4 
REMARK    2  A    between atoms: N2_4  and  C1_6 
REMARK    3  A    between atoms: C2_8  and  N3_9 
ROOT
HETATM    1  N3  UNL     1      22.400  70.882  56.665  1.00  0.00    -0.210 N 
HETATM    2  N4  UNL     1      23.651  70.518  57.034  1.00  0.00    -0.241 N 
ATOM      3  H4  UNL     1      23.893  69.957  57.851  1.00  0.00     0.192 HD
HETATM    4  C3  UNL     1      24.514  71.021  56.145  1.00  0.00     0.343 A 
HETATM    5  O1  UNL     1      25.788  70.908  56.132  1.00  0.00    -0.245 OA
HETATM    6  N5  UNL     1      23.848  71.707  55.202  1.00  0.00    -0.258 N 
ATOM      7  H5  UNL     1      24.237  72.200  54.399  1.00  0.00     0.175 HD
HETATM    8  C4  UNL     1      22.544  71.598  55.556  1.00  0.00     0.349 A 
HETATM    9  O2  UNL     1      21.644  72.134  54.870  1.00  0.00    -0.245 OA
ENDROOT
BRANCH   1  10
HETATM   10  C2  UNL     1      21.229  70.522  57.420  1.00  0.00     0.164 C 
HETATM   11  C1  UNL     1      21.103  71.092  58.744  1.00  0.00     0.132 C 
HETATM   12  S1  UNL     1      21.712  70.181  59.994  1.00  0.00    -0.058 SA
BRANCH  11  13
HETATM   13  N2  UNL     1      20.528  72.319  59.079  1.00  0.00    -0.296 N 
ATOM     14  H2  UNL     1      20.317  72.967  58.321  1.00  0.00     0.187 HD
BRANCH  13  15
HETATM   15  N1  UNL     1      20.221  72.721  60.388  1.00  0.00    -0.344 N 
ATOM     16  H12 UNL     1      19.420  73.343  60.500  1.00  0.00     0.176 HD
ATOM     17  H11 UNL     1      20.740  72.435  61.218  1.00  0.00     0.176 HD
ENDBRANCH  13  15
ENDBRANCH  11  13
ENDBRANCH   1  10
TORSDOF 3
ENDMDL
MODEL 2
REMARK VINA RESULT: -4.955601604      1.334      1.355
REMARK  3 active torsions:
REMARK  status: ('A' for Active; 'I' for Inactive)
REMARK    1  A    between atoms: N1_1  and  N2_4 
REMARK    2  A    between atoms: N2_4  and  C1_6 
REMARK    3  A    between atoms: C2_8  and  N3_9 
ROOT
HETATM    1  N3  UNL     1      22.345  71.228  56.786  1.00  0.00    -0.210 N 
HETATM    2  N4  UNL     1      23.564  70.802  57.196  1.00  0.00    -0.241 N 
ATOM      3  H4  UNL     1      23.780  70.396  58.107  1.00  0.00     0.192 HD
HETATM    4  C3  UNL     1      24.436  71.006  56.202  1.00  0.00     0.343 A 
HETATM    5  O1  UNL     1      25.687  70.742  56.185  1.00  0.00    -0.245 OA
HETATM    6  N5  UNL     1      23.807  71.557  55.152  1.00  0.00    -0.258 N 
ATOM      7  H5  UNL     1      24.211  71.825  54.255  1.00  0.00     0.175 HD
HETATM    8  C4  UNL     1      22.517  71.678  55.550  1.00  0.00     0.349 A 
HETATM    9  O2  UNL     1      21.651  72.164  54.787  1.00  0.00    -0.245 OA
ENDROOT
BRANCH   1  10
HETATM   10  C2  UNL     1      21.178  71.171  57.626  1.00  0.00     0.164 C 
HETATM   11  C1  UNL     1      21.296  70.429  58.863  1.00  0.00     0.132 C 
HETATM   12  S1  UNL     1      20.851  68.829  58.801  1.00  0.00    -0.058 SA
BRANCH  11  13
HETATM   13  N2  UNL     1      21.743  70.912  60.093  1.00  0.00    -0.296 N 
ATOM     14  H2  UNL     1      21.135  71.558  60.598  1.00  0.00     0.187 HD
BRANCH  13  15
HETATM   15  N1  UNL     1      22.969  70.571  60.684  1.00  0.00    -0.344 N 
ATOM     16  H12 UNL     1      23.812  70.804  60.158  1.00  0.00     0.176 HD
ATOM     17  H11 UNL     1      23.067  70.112  61.589  1.00  0.00     0.176 HD
ENDBRANCH  13  15
ENDBRANCH  11  13
ENDBRANCH   1  10
TORSDOF 3
ENDMDL
MODEL 3
REMARK VINA RESULT: -4.891560756      1.844      2.833
REMARK  3 active torsions:
REMARK  status: ('A' for Active; 'I' for Inactive)
REMARK    1  A    between atoms: N1_1  and  N2_4 
REMARK    2  A    between atoms: N2_4  and  C1_6 
REMARK    3  A    between atoms: C2_8  and  N3_9 
ROOT
HETATM    1  N3  UNL     1      23.507  70.358  56.873  1.00  0.00    -0.210 N 
HETATM    2  N4  UNL     1      22.312  70.753  56.373  1.00  0.00    -0.241 N 
ATOM      3  H4  UNL     1      21.395  70.475  56.725  1.00  0.00     0.192 HD
HETATM    4  C3  UNL     1      22.539  71.570  55.338  1.00  0.00     0.343 A 
HETATM    5  O1  UNL     1      21.680  72.157  54.595  1.00  0.00    -0.245 OA
HETATM    6  N5  UNL     1      23.861  71.714  55.155  1.00  0.00    -0.258 N 
ATOM      7  H5  UNL     1      24.334  72.273  54.445  1.00  0.00     0.175 HD
HETATM    8  C4  UNL     1      24.426  70.951  56.122  1.00  0.00     0.349 A 
HETATM    9  O2  UNL     1      25.672  70.867  56.231  1.00  0.00    -0.245 OA
ENDROOT
BRANCH   1  10
HETATM   10  C2  UNL     1      23.625  69.453  57.986  1.00  0.00     0.164 C 
HETATM   11  C1  UNL     1      23.750  70.045  59.301  1.00  0.00     0.132 C 
HETATM   12  S1  UNL     1      25.300  70.298  59.844  1.00  0.00    -0.058 SA
BRANCH  11  13
HETATM   13  N2  UNL     1      22.713  70.424  60.153  1.00  0.00    -0.296 N 
ATOM     14  H2  UNL     1      22.806  70.198  61.144  1.00  0.00     0.187 HD
BRANCH  13  15
HETATM   15  N1  UNL     1      21.551  71.095  59.742  1.00  0.00    -0.344 N 
ATOM     16  H12 UNL     1      21.652  71.758  58.974  1.00  0.00     0.176 HD
ATOM     17  H11 UNL     1      20.629  70.963  60.158  1.00  0.00     0.176 HD
ENDBRANCH  13  15
ENDBRANCH  11  13
ENDBRANCH   1  10
TORSDOF 3
ENDMDL
MODEL 4
REMARK VINA RESULT: -4.805998520      1.764      2.935
REMARK  3 active torsions:
REMARK  status: ('A' for Active; 'I' for Inactive)
REMARK    1  A    between atoms: N1_1  and  N2_4 
REMARK    2  A    between atoms: N2_4  and  C1_6 
REMARK    3  A    between atoms: C2_8  and  N3_9 
ROOT
HETATM    1  N3  UNL     1      22.961  70.869  57.142  1.00  0.00    -0.210 N 
HETATM    2  N4  UNL     1      21.951  71.459  56.460  1.00  0.00    -0.241 N 
ATOM      3  H4  UNL     1      21.010  71.632  56.816  1.00  0.00     0.192 HD
HETATM    4  C3  UNL     1      22.398  71.776  55.240  1.00  0.00     0.343 A 
HETATM    5  O1  UNL     1      21.758  72.345  54.290  1.00  0.00    -0.245 OA
HETATM    6  N5  UNL     1      23.681  71.403  55.114  1.00  0.00    -0.258 N 
ATOM      7  H5  UNL     1      24.285  71.513  54.301  1.00  0.00     0.175 HD
HETATM    8  C4  UNL     1      23.994  70.847  56.310  1.00  0.00     0.349 A 
HETATM    9  O2  UNL     1      25.141  70.392  56.528  1.00  0.00    -0.245 OA
ENDROOT
BRANCH   1  10
HETATM   10  C2  UNL     1      22.812  70.383  58.489  1.00  0.00     0.164 C 
HETATM   11  C1  UNL     1      21.474  70.029  58.913  1.00  0.00     0.132 C 
HETATM   12  S1  UNL     1      20.603  71.230  59.664  1.00  0.00    -0.058 SA
BRANCH  11  13
HETATM   13  N2  UNL     1      20.843  68.795  58.758  1.00  0.00    -0.296 N 
ATOM     14  H2  UNL     1      20.424  68.369  59.585  1.00  0.00     0.187 HD
BRANCH  13  15
HETATM   15  N1  UNL     1      20.744  68.100  57.543  1.00  0.00    -0.344 N 
ATOM     16  H12 UNL     1      20.944  68.629  56.694  1.00  0.00     0.176 HD
ATOM     17  H11 UNL     1      20.490  67.115  57.459  1.00  0.00     0.176 HD
ENDBRANCH  13  15
ENDBRANCH  11  13
ENDBRANCH   1  10
TORSDOF 3
ENDMDL
MODEL 5
REMARK VINA RESULT: -4.779734283      2.072      3.727
REMARK  3 active torsions:
REMARK  status: ('A' for Active; 'I' for Inactive)
REMARK    1  A    between atoms: N1_1  and  N2_4 
REMARK    2  A    between atoms: N2_4  and  C1_6 
REMARK    3  A    between atoms: C2_8  and  N3_9 
ROOT
HETATM    1  N3  UNL     1      23.300  70.755  57.165  1.00  0.00    -0.210 N 
HETATM    2  N4  UNL     1      22.176  71.240  56.586  1.00  0.00    -0.241 N 
ATOM      3  H4  UNL     1      21.249  71.270  57.012  1.00  0.00     0.192 HD
HETATM    4  C3  UNL     1      22.488  71.671  55.359  1.00  0.00     0.343 A 
HETATM    5  O1  UNL     1      21.714  72.198  54.487  1.00  0.00    -0.245 OA
HETATM    6  N5  UNL     1      23.796  71.477  55.128  1.00  0.00    -0.258 N 
ATOM      7  H5  UNL     1      24.321  71.705  54.284  1.00  0.00     0.175 HD
HETATM    8  C4  UNL     1      24.264  70.909  56.266  1.00  0.00     0.349 A 
HETATM    9  O2  UNL     1      25.472  70.598  56.381  1.00  0.00    -0.245 OA
ENDROOT
BRANCH   1  10
HETATM   10  C2  UNL     1      23.312  70.189  58.488  1.00  0.00     0.164 C 
HETATM   11  C1  UNL     1      23.666  68.790  58.598  1.00  0.00     0.132 C 
HETATM   12  S1  UNL     1      22.402  67.712  58.572  1.00  0.00    -0.058 SA
BRANCH  11  13
HETATM   13  N2  UNL     1      24.948  68.255  58.723  1.00  0.00    -0.296 N 
ATOM     14  H2  UNL     1      25.039  67.239  58.749  1.00  0.00     0.187 HD
BRANCH  13  15
HETATM   15  N1  UNL     1      26.123  69.018  58.816  1.00  0.00    -0.344 N 
ATOM     16  H12 UNL     1      26.291  69.692  58.068  1.00  0.00     0.176 HD
ATOM     17  H11 UNL     1      26.805  68.941  59.570  1.00  0.00     0.176 HD
ENDBRANCH  13  15
ENDBRANCH  11  13
ENDBRANCH   1  10
TORSDOF 3
ENDMDL
