MODEL 1
REMARK VINA RESULT: -5.118176205      0.000      0.000
REMARK  2 active torsions:
REMARK  status: ('A' for Active; 'I' for Inactive)
REMARK    1  A    between atoms: C1_2  and  N1_3 
REMARK    2  A    between atoms: N1_3  and  C2_5 
ROOT
HETATM    1  C2  UNL     1      -5.087   3.955 -21.934  1.00  0.00     0.154 C 
HETATM    2  C3  UNL     1      -6.275   3.163 -22.504  1.00  0.00     0.040 C 
HETATM    3  C4  UNL     1      -6.717   4.555 -22.982  1.00  0.00     0.083 C 
HETATM    4  C5  UNL     1      -6.054   5.061 -21.758  1.00  0.00     0.149 C 
HETATM    5  O2  UNL     1      -6.254   5.971 -20.998  1.00  0.00    -0.296 OA
ENDROOT
BRANCH   1   6
HETATM    6  N1  UNL     1      -4.540   3.393 -20.726  1.00  0.00    -0.357 N 
ATOM      7  H1  UNL     1      -5.152   2.841 -20.125  1.00  0.00     0.162 HD
BRANCH   6   8
HETATM    8  C1  UNL     1      -3.199   3.572 -20.338  1.00  0.00     0.349 C 
HETATM    9  O1  UNL     1      -2.407   2.615 -20.435  1.00  0.00    -0.284 OA
ENDBRANCH   6   8
ENDBRANCH   1   6
TORSDOF 2
ENDMDL
MODEL 2
REMARK VINA RESULT: -4.904395416      1.577      1.992
REMARK  2 active torsions:
REMARK  status: ('A' for Active; 'I' for Inactive)
REMARK    1  A    between atoms: C1_2  and  N1_3 
REMARK    2  A    between atoms: N1_3  and  C2_5 
ROOT
HETATM    1  C2  UNL     1      -5.511   3.595 -20.526  1.00  0.00     0.154 C 
HETATM    2  C3  UNL     1      -5.438   4.734 -19.497  1.00  0.00     0.040 C 
HETATM    3  C4  UNL     1      -6.722   5.191 -20.208  1.00  0.00     0.083 C 
HETATM    4  C5  UNL     1      -6.124   4.597 -21.425  1.00  0.00     0.149 C 
HETATM    5  O2  UNL     1      -6.154   4.856 -22.599  1.00  0.00    -0.296 OA
ENDROOT
BRANCH   1   6
HETATM    6  N1  UNL     1      -4.223   3.090 -20.925  1.00  0.00    -0.357 N 
ATOM      7  H1  UNL     1      -4.167   2.145 -21.305  1.00  0.00     0.162 HD
BRANCH   6   8
HETATM    8  C1  UNL     1      -3.038   3.841 -20.813  1.00  0.00     0.349 C 
HETATM    9  O1  UNL     1      -2.431   4.175 -21.849  1.00  0.00    -0.284 OA
ENDBRANCH   6   8
ENDBRANCH   1   6
TORSDOF 2
ENDMDL
MODEL 3
REMARK VINA RESULT: -4.864258545      2.352      3.382
REMARK  2 active torsions:
REMARK  status: ('A' for Active; 'I' for Inactive)
REMARK    1  A    between atoms: C1_2  and  N1_3 
REMARK    2  A    between atoms: N1_3  and  C2_5 
ROOT
HETATM    1  C2  UNL     1      -6.091   5.374 -21.060  1.00  0.00     0.154 C 
HETATM    2  C3  UNL     1      -6.471   4.384 -19.949  1.00  0.00     0.040 C 
HETATM    3  C4  UNL     1      -5.084   4.766 -19.408  1.00  0.00     0.083 C 
HETATM    4  C5  UNL     1      -4.699   4.927 -20.829  1.00  0.00     0.149 C 
HETATM    5  O2  UNL     1      -3.690   4.755 -21.460  1.00  0.00    -0.296 OA
ENDROOT
BRANCH   1   6
HETATM    6  N1  UNL     1      -6.654   5.050 -22.345  1.00  0.00    -0.357 N 
ATOM      7  H1  UNL     1      -7.367   5.667 -22.734  1.00  0.00     0.162 HD
BRANCH   6   8
HETATM    8  C1  UNL     1      -6.266   3.920 -23.088  1.00  0.00     0.349 C 
HETATM    9  O1  UNL     1      -6.881   2.848 -22.930  1.00  0.00    -0.284 OA
ENDBRANCH   6   8
ENDBRANCH   1   6
TORSDOF 2
ENDMDL
MODEL 4
REMARK VINA RESULT: -4.740965660      1.931      2.061
REMARK  2 active torsions:
REMARK  status: ('A' for Active; 'I' for Inactive)
REMARK    1  A    between atoms: C1_2  and  N1_3 
REMARK    2  A    between atoms: N1_3  and  C2_5 
ROOT
HETATM    1  C2  UNL     1      -4.875   3.959 -20.838  1.00  0.00     0.154 C 
HETATM    2  C3  UNL     1      -6.255   3.296 -20.705  1.00  0.00     0.040 C 
HETATM    3  C4  UNL     1      -6.606   4.623 -20.015  1.00  0.00     0.083 C 
HETATM    4  C5  UNL     1      -5.198   4.626 -19.557  1.00  0.00     0.149 C 
HETATM    5  O2  UNL     1      -4.626   5.012 -18.572  1.00  0.00    -0.296 OA
ENDROOT
BRANCH   1   6
HETATM    6  N1  UNL     1      -3.778   3.027 -20.807  1.00  0.00    -0.357 N 
ATOM      7  H1  UNL     1      -3.986   2.028 -20.830  1.00  0.00     0.162 HD
BRANCH   6   8
HETATM    8  C1  UNL     1      -2.432   3.431 -20.748  1.00  0.00     0.349 C 
HETATM    9  O1  UNL     1      -1.949   4.078 -21.698  1.00  0.00    -0.284 OA
ENDBRANCH   6   8
ENDBRANCH   1   6
TORSDOF 2
ENDMDL
MODEL 5
REMARK VINA RESULT: -4.738960303      2.041      2.314
REMARK  2 active torsions:
REMARK  status: ('A' for Active; 'I' for Inactive)
REMARK    1  A    between atoms: C1_2  and  N1_3 
REMARK    2  A    between atoms: N1_3  and  C2_5 
ROOT
HETATM    1  C2  UNL     1      -4.722   3.456 -21.038  1.00  0.00     0.154 C 
HETATM    2  C3  UNL     1      -5.509   4.312 -20.034  1.00  0.00     0.040 C 
HETATM    3  C4  UNL     1      -6.677   3.428 -20.498  1.00  0.00     0.083 C 
HETATM    4  C5  UNL     1      -5.985   3.397 -21.807  1.00  0.00     0.149 C 
HETATM    5  O2  UNL     1      -6.341   3.348 -22.955  1.00  0.00    -0.296 OA
ENDROOT
BRANCH   1   6
HETATM    6  N1  UNL     1      -3.630   4.153 -21.666  1.00  0.00    -0.357 N 
ATOM      7  H1  UNL     1      -3.748   4.481 -22.624  1.00  0.00     0.162 HD
BRANCH   6   8
HETATM    8  C1  UNL     1      -2.407   4.404 -21.015  1.00  0.00     0.349 C 
HETATM    9  O1  UNL     1      -2.179   5.545 -20.570  1.00  0.00    -0.284 OA
ENDBRANCH   6   8
ENDBRANCH   1   6
TORSDOF 2
ENDMDL
