MODEL 1
REMARK VINA RESULT: -5.569449744      0.000      0.000
REMARK  1 active torsions:
REMARK  status: ('A' for Active; 'I' for Inactive)
REMARK    1  A    between atoms: C2_2  and  C3_3 
ROOT
HETATM    1  C3  UNL     1      -5.398   3.276 -21.411  1.00  0.00     0.101 C 
HETATM    2  C4  UNL     1      -6.434   3.493 -20.329  1.00  0.00     0.037 C 
HETATM    3  C5  UNL     1      -5.895   4.679 -19.581  1.00  0.00     0.123 C 
HETATM    4  N1  UNL     1      -4.441   4.541 -19.699  1.00  0.00    -0.360 N 
ATOM      5  H1  UNL     1      -3.755   5.088 -19.180  1.00  0.00     0.162 HD
HETATM    6  C6  UNL     1      -4.133   3.526 -20.649  1.00  0.00     0.225 C 
HETATM    7  O1  UNL     1      -3.008   2.981 -20.783  1.00  0.00    -0.273 OA
ENDROOT
BRANCH   1   8
HETATM    8  C2  UNL     1      -5.473   4.284 -22.479  1.00  0.00    -0.023 C 
HETATM    9  C1  UNL     1      -6.552   4.347 -23.238  1.00  0.00     0.008 C 
ENDBRANCH   1   8
TORSDOF 1
ENDMDL
MODEL 2
REMARK VINA RESULT: -5.386872092      1.963      2.471
REMARK  1 active torsions:
REMARK  status: ('A' for Active; 'I' for Inactive)
REMARK    1  A    between atoms: C2_2  and  C3_3 
ROOT
HETATM    1  C3  UNL     1      -5.357   4.454 -21.556  1.00  0.00     0.101 C 
HETATM    2  C4  UNL     1      -3.856   4.548 -21.384  1.00  0.00     0.037 C 
HETATM    3  C5  UNL     1      -3.649   4.077 -19.973  1.00  0.00     0.123 C 
HETATM    4  N1  UNL     1      -4.865   4.506 -19.276  1.00  0.00    -0.360 N 
ATOM      5  H1  UNL     1      -5.000   4.487 -18.265  1.00  0.00     0.162 HD
HETATM    6  C6  UNL     1      -5.827   4.951 -20.225  1.00  0.00     0.225 C 
HETATM    7  O1  UNL     1      -6.853   5.625 -19.949  1.00  0.00    -0.273 OA
ENDROOT
BRANCH   1   8
HETATM    8  C2  UNL     1      -5.826   3.068 -21.698  1.00  0.00    -0.023 C 
HETATM    9  C1  UNL     1      -6.736   2.780 -22.609  1.00  0.00     0.008 C 
ENDBRANCH   1   8
TORSDOF 1
ENDMDL
MODEL 3
REMARK VINA RESULT: -5.378932533      2.278      3.198
REMARK  1 active torsions:
REMARK  status: ('A' for Active; 'I' for Inactive)
REMARK    1  A    between atoms: C2_2  and  C3_3 
ROOT
HETATM    1  C3  UNL     1      -5.384   3.909 -20.794  1.00  0.00     0.101 C 
HETATM    2  C4  UNL     1      -5.899   2.996 -21.885  1.00  0.00     0.037 C 
HETATM    3  C5  UNL     1      -6.305   3.959 -22.965  1.00  0.00     0.123 C 
HETATM    4  N1  UNL     1      -6.740   5.150 -22.231  1.00  0.00    -0.360 N 
ATOM      5  H1  UNL     1      -7.226   5.948 -22.640  1.00  0.00     0.162 HD
HETATM    6  C6  UNL     1      -6.383   5.023 -20.859  1.00  0.00     0.225 C 
HETATM    7  O1  UNL     1      -6.840   5.731 -19.926  1.00  0.00    -0.273 OA
ENDROOT
BRANCH   1   8
HETATM    8  C2  UNL     1      -4.067   4.481 -21.108  1.00  0.00    -0.023 C 
HETATM    9  C1  UNL     1      -2.977   3.886 -20.660  1.00  0.00     0.008 C 
ENDBRANCH   1   8
TORSDOF 1
ENDMDL
MODEL 4
REMARK VINA RESULT: -5.371147070      2.108      2.780
REMARK  1 active torsions:
REMARK  status: ('A' for Active; 'I' for Inactive)
REMARK    1  A    between atoms: C2_2  and  C3_3 
ROOT
HETATM    1  C3  UNL     1      -5.311   4.327 -21.909  1.00  0.00     0.101 C 
HETATM    2  C4  UNL     1      -5.907   5.475 -21.124  1.00  0.00     0.037 C 
HETATM    3  C5  UNL     1      -6.659   4.778 -20.026  1.00  0.00     0.123 C 
HETATM    4  N1  UNL     1      -7.096   3.522 -20.640  1.00  0.00    -0.360 N 
ATOM      5  H1  UNL     1      -7.763   2.868 -20.230  1.00  0.00     0.162 HD
HETATM    6  C6  UNL     1      -6.448   3.353 -21.896  1.00  0.00     0.225 C 
HETATM    7  O1  UNL     1      -6.798   2.534 -22.784  1.00  0.00    -0.273 OA
ENDROOT
BRANCH   1   8
HETATM    8  C2  UNL     1      -4.181   3.692 -21.215  1.00  0.00    -0.023 C 
HETATM    9  C1  UNL     1      -3.011   4.304 -21.183  1.00  0.00     0.008 C 
ENDBRANCH   1   8
TORSDOF 1
ENDMDL
MODEL 5
REMARK VINA RESULT: -5.179269967      1.410      2.534
REMARK  1 active torsions:
REMARK  status: ('A' for Active; 'I' for Inactive)
REMARK    1  A    between atoms: C2_2  and  C3_3 
ROOT
HETATM    1  C3  UNL     1      -5.381   4.721 -21.900  1.00  0.00     0.101 C 
HETATM    2  C4  UNL     1      -6.193   4.120 -23.027  1.00  0.00     0.037 C 
HETATM    3  C5  UNL     1      -6.678   2.825 -22.438  1.00  0.00     0.123 C 
HETATM    4  N1  UNL     1      -5.604   2.429 -21.524  1.00  0.00    -0.360 N 
ATOM      5  H1  UNL     1      -5.526   1.520 -21.068  1.00  0.00     0.162 HD
HETATM    6  C6  UNL     1      -4.685   3.505 -21.370  1.00  0.00     0.225 C 
HETATM    7  O1  UNL     1      -3.532   3.405 -20.880  1.00  0.00    -0.273 OA
ENDROOT
BRANCH   1   8
HETATM    8  C2  UNL     1      -6.221   5.253 -20.817  1.00  0.00    -0.023 C 
HETATM    9  C1  UNL     1      -5.881   5.028 -19.561  1.00  0.00     0.008 C 
ENDBRANCH   1   8
TORSDOF 1
ENDMDL
