MODEL 1
REMARK VINA RESULT: -5.161794093      0.000      0.000
REMARK  3 active torsions:
REMARK  status: ('A' for Active; 'I' for Inactive)
REMARK    1  A    between atoms: C1_2  and  N1_3 
REMARK    2  A    between atoms: C2_5  and  N2_6 
REMARK    3  A    between atoms: N2_6  and  C3_8 
ROOT
HETATM    1  N1  UNL     1      -2.424   2.671 -19.980  1.00  0.00    -0.331 N 
ATOM      2  H1  UNL     1      -2.547   1.659 -19.995  1.00  0.00     0.168 HD
HETATM    3  C2  UNL     1      -3.331   3.374 -20.523  1.00  0.00     0.178 C 
ENDROOT
BRANCH   3   4
HETATM    4  N2  UNL     1      -4.437   2.722 -21.104  1.00  0.00    -0.381 N 
ATOM      5  H2  UNL     1      -4.374   1.737 -21.361  1.00  0.00     0.160 HD
BRANCH   4   6
HETATM    6  C3  UNL     1      -5.650   3.448 -21.331  1.00  0.00     0.082 A 
HETATM    7  C4  UNL     1      -5.737   4.254 -22.576  1.00  0.00     0.027 A 
HETATM    8  C5  UNL     1      -6.564   3.009 -22.475  1.00  0.00     0.027 A 
ENDBRANCH   4   6
ENDBRANCH   3   4
BRANCH   1   9
HETATM    9  C1  UNL     1      -1.261   3.170 -19.361  1.00  0.00     0.353 C 
HETATM   10  O1  UNL     1      -1.192   3.083 -18.103  1.00  0.00    -0.283 OA
ENDBRANCH   1   9
TORSDOF 3
ENDMDL
MODEL 2
REMARK VINA RESULT: -5.016571791      1.510      1.510
REMARK  3 active torsions:
REMARK  status: ('A' for Active; 'I' for Inactive)
REMARK    1  A    between atoms: C1_2  and  N1_3 
REMARK    2  A    between atoms: C2_5  and  N2_6 
REMARK    3  A    between atoms: N2_6  and  C3_8 
ROOT
HETATM    1  N1  UNL     1      -2.248   3.607 -20.999  1.00  0.00    -0.331 N 
ATOM      2  H1  UNL     1      -2.111   2.795 -21.601  1.00  0.00     0.168 HD
HETATM    3  C2  UNL     1      -3.426   3.825 -20.578  1.00  0.00     0.178 C 
ENDROOT
BRANCH   3   4
HETATM    4  N2  UNL     1      -4.457   2.945 -20.963  1.00  0.00    -0.381 N 
ATOM      5  H2  UNL     1      -4.283   1.940 -21.008  1.00  0.00     0.160 HD
BRANCH   4   6
HETATM    6  C3  UNL     1      -5.750   3.465 -21.290  1.00  0.00     0.082 A 
HETATM    7  C4  UNL     1      -5.875   4.225 -22.560  1.00  0.00     0.027 A 
HETATM    8  C5  UNL     1      -6.502   2.867 -22.478  1.00  0.00     0.027 A 
ENDBRANCH   4   6
ENDBRANCH   3   4
BRANCH   1   9
HETATM    9  C1  UNL     1      -1.115   4.391 -20.706  1.00  0.00     0.353 C 
HETATM   10  O1  UNL     1      -1.289   5.635 -20.578  1.00  0.00    -0.283 OA
ENDBRANCH   1   9
TORSDOF 3
ENDMDL
MODEL 3
REMARK VINA RESULT: -4.775559934      1.369      1.534
REMARK  3 active torsions:
REMARK  status: ('A' for Active; 'I' for Inactive)
REMARK    1  A    between atoms: C1_2  and  N1_3 
REMARK    2  A    between atoms: C2_5  and  N2_6 
REMARK    3  A    between atoms: N2_6  and  C3_8 
ROOT
HETATM    1  N1  UNL     1      -2.578   2.351 -20.310  1.00  0.00    -0.331 N 
ATOM      2  H1  UNL     1      -3.112   1.526 -20.585  1.00  0.00     0.168 HD
HETATM    3  C2  UNL     1      -3.181   3.469 -20.339  1.00  0.00     0.178 C 
ENDROOT
BRANCH   3   4
HETATM    4  N2  UNL     1      -4.529   3.501 -20.745  1.00  0.00    -0.381 N 
ATOM      5  H2  UNL     1      -5.239   3.009 -20.202  1.00  0.00     0.160 HD
BRANCH   4   6
HETATM    6  C3  UNL     1      -4.900   4.227 -21.922  1.00  0.00     0.082 A 
HETATM    7  C4  UNL     1      -6.121   3.781 -22.640  1.00  0.00     0.027 A 
HETATM    8  C5  UNL     1      -6.170   5.077 -21.889  1.00  0.00     0.027 A 
ENDBRANCH   4   6
ENDBRANCH   3   4
BRANCH   1   9
HETATM    9  C1  UNL     1      -1.236   2.153 -19.929  1.00  0.00     0.353 C 
HETATM   10  O1  UNL     1      -0.552   1.347 -20.619  1.00  0.00    -0.283 OA
ENDBRANCH   1   9
TORSDOF 3
ENDMDL
MODEL 4
REMARK VINA RESULT: -4.368822832      2.662      4.568
REMARK  3 active torsions:
REMARK  status: ('A' for Active; 'I' for Inactive)
REMARK    1  A    between atoms: C1_2  and  N1_3 
REMARK    2  A    between atoms: C2_5  and  N2_6 
REMARK    3  A    between atoms: N2_6  and  C3_8 
ROOT
HETATM    1  N1  UNL     1      -5.500   3.614 -20.027  1.00  0.00    -0.331 N 
ATOM      2  H1  UNL     1      -5.288   3.157 -19.140  1.00  0.00     0.168 HD
HETATM    3  C2  UNL     1      -4.619   3.546 -20.940  1.00  0.00     0.178 C 
ENDROOT
BRANCH   3   4
HETATM    4  N2  UNL     1      -3.421   2.854 -20.675  1.00  0.00    -0.381 N 
ATOM      5  H2  UNL     1      -3.315   1.882 -20.967  1.00  0.00     0.160 HD
BRANCH   4   6
HETATM    6  C3  UNL     1      -2.351   3.521 -19.996  1.00  0.00     0.082 A 
HETATM    7  C4  UNL     1      -1.469   2.690 -19.138  1.00  0.00     0.027 A 
HETATM    8  C5  UNL     1      -0.914   3.224 -20.423  1.00  0.00     0.027 A 
ENDBRANCH   4   6
ENDBRANCH   3   4
BRANCH   1   9
HETATM    9  C1  UNL     1      -6.743   4.266 -20.135  1.00  0.00     0.353 C 
HETATM   10  O1  UNL     1      -6.763   5.512 -19.936  1.00  0.00    -0.283 OA
ENDBRANCH   1   9
TORSDOF 3
ENDMDL
MODEL 5
REMARK VINA RESULT: -4.295282232      2.964      4.971
REMARK  3 active torsions:
REMARK  status: ('A' for Active; 'I' for Inactive)
REMARK    1  A    between atoms: C1_2  and  N1_3 
REMARK    2  A    between atoms: C2_5  and  N2_6 
REMARK    3  A    between atoms: N2_6  and  C3_8 
ROOT
HETATM    1  N1  UNL     1      -2.853   2.815 -20.258  1.00  0.00    -0.331 N 
ATOM      2  H1  UNL     1      -3.675   2.305 -19.935  1.00  0.00     0.168 HD
HETATM    3  C2  UNL     1      -1.718   2.384 -19.884  1.00  0.00     0.178 C 
ENDROOT
BRANCH   3   4
HETATM    4  N2  UNL     1      -1.665   1.245 -19.057  1.00  0.00    -0.381 N 
ATOM      5  H2  UNL     1      -2.114   1.255 -18.141  1.00  0.00     0.160 HD
BRANCH   4   6
HETATM    6  C3  UNL     1      -0.977   0.073 -19.507  1.00  0.00     0.082 A 
HETATM    7  C4  UNL     1      -0.721  -0.992 -18.503  1.00  0.00     0.027 A 
HETATM    8  C5  UNL     1      -1.743  -1.248 -19.568  1.00  0.00     0.027 A 
ENDBRANCH   4   6
ENDBRANCH   3   4
BRANCH   1   9
HETATM    9  C1  UNL     1      -3.073   3.937 -21.081  1.00  0.00     0.353 C 
HETATM   10  O1  UNL     1      -2.180   4.218 -21.927  1.00  0.00    -0.283 OA
ENDBRANCH   1   9
TORSDOF 3
ENDMDL
