MODEL 1
REMARK VINA RESULT: -8.009971275      0.000      0.000
REMARK  9 active torsions:
REMARK  status: ('A' for Active; 'I' for Inactive)
REMARK    1  A    between atoms: C2_2  and  C3_4 
REMARK    2  A    between atoms: C3_4  and  N1_5 
REMARK    3  A    between atoms: C3_4  and  C27_41 
REMARK       I    between atoms: N1_5  and  C4_7 
REMARK    4  A    between atoms: C4_7  and  C5_9 
REMARK    5  A    between atoms: C7_11  and  N2_12 
REMARK       I    between atoms: N3_20  and  C15_21 
REMARK    6  A    between atoms: C15_21  and  O4_23 
REMARK    7  A    between atoms: O4_23  and  C16_24 
REMARK       I    between atoms: N4_27  and  C19_28 
REMARK       I    between atoms: C19_28  and  N5_30 
REMARK    8  A    between atoms: N5_30  and  C20_32 
REMARK    9  A    between atoms: N6_35  and  C23_36 
ROOT
HETATM    1  C23 UNL     1       2.570  -7.415 -19.656  1.00  0.00     0.246 C 
HETATM    2  C24 UNL     1       2.840  -7.184 -21.076  1.00  0.00     0.078 C 
HETATM    3  N7  UNL     1       3.077  -7.005 -22.199  1.00  0.00    -0.196 NA
ENDROOT
BRANCH   1   4
HETATM    4  N6  UNL     1       1.842  -6.298 -19.120  1.00  0.00    -0.376 N 
HETATM    5  C22 UNL     1       2.046  -4.895 -19.349  1.00  0.00     0.084 C 
HETATM    6  C21 UNL     1       1.613  -4.222 -18.288  1.00  0.00     0.017 C 
HETATM    7  C20 UNL     1       1.093  -5.167 -17.296  1.00  0.00     0.128 C 
HETATM    8  C25 UNL     1       0.720  -6.365 -18.204  1.00  0.00     0.152 C 
BRANCH   7   9
HETATM    9  N5  UNL     1      -0.054  -4.696 -16.550  1.00  0.00    -0.334 N 
HETATM   10  C19 UNL     1       0.011  -3.923 -15.395  1.00  0.00     0.319 C 
HETATM   11  N4  UNL     1      -1.138  -3.482 -14.721  1.00  0.00    -0.332 N 
HETATM   12  O5  UNL     1       1.137  -3.601 -14.924  1.00  0.00    -0.247 OA
HETATM   13  C18 UNL     1      -2.539  -3.698 -15.119  1.00  0.00     0.130 C 
HETATM   14  C26 UNL     1      -1.275  -2.734 -13.485  1.00  0.00     0.160 C 
HETATM   15  C17 UNL     1      -3.153  -2.298 -14.899  1.00  0.00     0.054 C 
HETATM   16  C16 UNL     1      -2.278  -1.650 -13.912  1.00  0.00     0.153 C 
ATOM     17  H5  UNL     1      -0.979  -4.948 -16.898  1.00  0.00     0.165 HD
BRANCH  16  18
HETATM   18  O4  UNL     1      -2.879  -1.073 -12.796  1.00  0.00    -0.297 OA
BRANCH  18  19
HETATM   19  C15 UNL     1      -4.174  -0.644 -12.644  1.00  0.00     0.363 C 
HETATM   20  N3  UNL     1      -5.206  -1.538 -12.170  1.00  0.00    -0.314 N 
HETATM   21  C5  UNL     1      -6.521  -1.120 -11.848  1.00  0.00     0.183 C 
HETATM   22  C14 UNL     1      -4.840  -2.948 -12.089  1.00  0.00     0.131 C 
HETATM   23  C6  UNL     1      -7.617  -2.120 -11.910  1.00  0.00     0.071 C 
HETATM   24  C7  UNL     1      -7.159  -3.526 -11.982  1.00  0.00     0.227 C 
HETATM   25  C13 UNL     1      -5.975  -3.635 -12.898  1.00  0.00     0.056 C 
HETATM   26  O3  UNL     1      -4.400   0.562 -12.933  1.00  0.00    -0.238 OA
BRANCH  21  27
HETATM   27  C4  UNL     1      -6.549  -0.445 -10.490  1.00  0.00     0.241 C 
HETATM   28  N1  UNL     1      -6.864   0.908 -10.303  1.00  0.00    -0.348 N 
ATOM     29  H1  UNL     1      -7.093   1.472 -11.121  1.00  0.00     0.163 HD
HETATM   30  O2  UNL     1      -6.270  -1.141  -9.473  1.00  0.00    -0.271 OA
BRANCH  28  31
HETATM   31  C3  UNL     1      -6.881   1.546  -8.990  1.00  0.00     0.157 C 
BRANCH  31  32
HETATM   32  C2  UNL     1      -6.231   2.882  -9.070  1.00  0.00     0.145 C 
HETATM   33  C1  UNL     1      -6.399   3.767 -10.231  1.00  0.00     0.093 C 
HETATM   34  O1  UNL     1      -5.533   3.284  -8.159  1.00  0.00    -0.296 OA
ENDBRANCH  31  32
BRANCH  31  35
HETATM   35  C27 UNL     1      -8.311   1.583  -8.529  1.00  0.00     0.007 C 
HETATM   36  C28 UNL     1      -8.828   2.929  -8.149  1.00  0.00     0.012 C 
HETATM   37  C29 UNL     1      -8.432   0.710  -7.270  1.00  0.00     0.012 C 
ENDBRANCH  31  35
ENDBRANCH  28  31
ENDBRANCH  21  27
BRANCH  24  38
HETATM   38  N2  UNL     1      -8.192  -4.511 -12.229  1.00  0.00     0.093 N 
HETATM   39  C8  UNL     1      -9.042  -4.057 -13.327  1.00  0.00     0.273 C 
HETATM   40  C9  UNL     1      -9.998  -5.163 -13.734  1.00  0.00     0.030 C 
HETATM   41  C10 UNL     1      -9.149  -6.110 -14.591  1.00  0.00     0.003 C 
HETATM   42  C11 UNL     1      -7.734  -6.118 -14.064  1.00  0.00     0.030 C 
HETATM   43  C12 UNL     1      -7.616  -5.797 -12.614  1.00  0.00     0.273 C 
ENDBRANCH  24  38
ENDBRANCH  18  19
ENDBRANCH  16  18
ENDBRANCH   7   9
ENDBRANCH   1   4
TORSDOF 9
ENDMDL
MODEL 2
REMARK VINA RESULT: -7.901938193      1.957      2.432
REMARK  9 active torsions:
REMARK  status: ('A' for Active; 'I' for Inactive)
REMARK    1  A    between atoms: C2_2  and  C3_4 
REMARK    2  A    between atoms: C3_4  and  N1_5 
REMARK    3  A    between atoms: C3_4  and  C27_41 
REMARK       I    between atoms: N1_5  and  C4_7 
REMARK    4  A    between atoms: C4_7  and  C5_9 
REMARK    5  A    between atoms: C7_11  and  N2_12 
REMARK       I    between atoms: N3_20  and  C15_21 
REMARK    6  A    between atoms: C15_21  and  O4_23 
REMARK    7  A    between atoms: O4_23  and  C16_24 
REMARK       I    between atoms: N4_27  and  C19_28 
REMARK       I    between atoms: C19_28  and  N5_30 
REMARK    8  A    between atoms: N5_30  and  C20_32 
REMARK    9  A    between atoms: N6_35  and  C23_36 
ROOT
HETATM    1  C23 UNL     1       0.106  -9.625 -19.202  1.00  0.00     0.246 C 
HETATM    2  C24 UNL     1       0.528 -10.920 -18.670  1.00  0.00     0.078 C 
HETATM    3  N7  UNL     1       0.850 -11.960 -18.262  1.00  0.00    -0.196 NA
ENDROOT
BRANCH   1   4
HETATM    4  N6  UNL     1      -0.358  -8.793 -18.126  1.00  0.00    -0.376 N 
HETATM    5  C22 UNL     1      -1.448  -9.018 -17.218  1.00  0.00     0.084 C 
HETATM    6  C21 UNL     1      -1.909  -7.843 -16.805  1.00  0.00     0.017 C 
HETATM    7  C20 UNL     1      -1.129  -6.771 -17.431  1.00  0.00     0.128 C 
HETATM    8  C25 UNL     1       0.197  -7.514 -17.729  1.00  0.00     0.152 C 
BRANCH   7   9
HETATM    9  N5  UNL     1      -0.906  -5.613 -16.593  1.00  0.00    -0.334 N 
HETATM   10  C19 UNL     1      -1.905  -4.763 -16.128  1.00  0.00     0.319 C 
HETATM   11  N4  UNL     1      -1.630  -3.661 -15.305  1.00  0.00    -0.332 N 
HETATM   12  O5  UNL     1      -3.106  -4.979 -16.451  1.00  0.00    -0.247 OA
HETATM   13  C18 UNL     1      -0.319  -3.257 -14.770  1.00  0.00     0.130 C 
HETATM   14  C26 UNL     1      -2.512  -2.637 -14.778  1.00  0.00     0.160 C 
HETATM   15  C17 UNL     1      -0.658  -2.937 -13.299  1.00  0.00     0.054 C 
HETATM   16  C16 UNL     1      -2.095  -2.627 -13.298  1.00  0.00     0.153 C 
ATOM     17  H5  UNL     1       0.054  -5.404 -16.323  1.00  0.00     0.165 HD
BRANCH  16  18
HETATM   18  O4  UNL     1      -2.502  -1.446 -12.683  1.00  0.00    -0.297 OA
BRANCH  18  19
HETATM   19  C15 UNL     1      -3.743  -0.860 -12.685  1.00  0.00     0.363 C 
HETATM   20  N3  UNL     1      -4.901  -1.563 -12.180  1.00  0.00    -0.314 N 
HETATM   21  C5  UNL     1      -6.174  -0.963 -12.015  1.00  0.00     0.183 C 
HETATM   22  C14 UNL     1      -4.712  -2.980 -11.891  1.00  0.00     0.131 C 
HETATM   23  C6  UNL     1      -7.376  -1.835 -12.031  1.00  0.00     0.071 C 
HETATM   24  C7  UNL     1      -7.085  -3.280 -11.887  1.00  0.00     0.227 C 
HETATM   25  C13 UNL     1      -5.869  -3.642 -12.690  1.00  0.00     0.056 C 
HETATM   26  O3  UNL     1      -3.806   0.312 -13.143  1.00  0.00    -0.238 OA
BRANCH  21  27
HETATM   27  C4  UNL     1      -6.204  -0.110 -10.762  1.00  0.00     0.241 C 
HETATM   28  N1  UNL     1      -7.182  -0.228  -9.765  1.00  0.00    -0.348 N 
ATOM     29  H1  UNL     1      -7.915  -0.928  -9.883  1.00  0.00     0.163 HD
HETATM   30  O2  UNL     1      -5.296   0.757 -10.609  1.00  0.00    -0.271 OA
BRANCH  28  31
HETATM   31  C3  UNL     1      -7.202   0.604  -8.567  1.00  0.00     0.157 C 
BRANCH  31  32
HETATM   32  C2  UNL     1      -7.199   2.042  -8.949  1.00  0.00     0.145 C 
HETATM   33  C1  UNL     1      -8.179   2.604  -9.888  1.00  0.00     0.093 C 
HETATM   34  O1  UNL     1      -6.372   2.802  -8.484  1.00  0.00    -0.296 OA
ENDBRANCH  31  32
BRANCH  31  35
HETATM   35  C27 UNL     1      -8.392   0.185  -7.750  1.00  0.00     0.007 C 
HETATM   36  C28 UNL     1      -8.849   1.172  -6.729  1.00  0.00     0.012 C 
HETATM   37  C29 UNL     1      -8.019  -1.088  -6.975  1.00  0.00     0.012 C 
ENDBRANCH  31  35
ENDBRANCH  28  31
ENDBRANCH  21  27
BRANCH  24  38
HETATM   38  N2  UNL     1      -8.211  -4.170 -12.083  1.00  0.00     0.093 N 
HETATM   39  C8  UNL     1      -9.011  -3.698 -13.212  1.00  0.00     0.273 C 
HETATM   40  C9  UNL     1     -10.072  -4.726 -13.560  1.00  0.00     0.030 C 
HETATM   41  C10 UNL     1      -9.321  -5.800 -14.355  1.00  0.00     0.003 C 
HETATM   42  C11 UNL     1      -7.914  -5.919 -13.819  1.00  0.00     0.030 C 
HETATM   43  C12 UNL     1      -7.766  -5.527 -12.389  1.00  0.00     0.273 C 
ENDBRANCH  24  38
ENDBRANCH  18  19
ENDBRANCH  16  18
ENDBRANCH   7   9
ENDBRANCH   1   4
TORSDOF 9
ENDMDL
MODEL 3
REMARK VINA RESULT: -7.747563209      4.091     11.087
REMARK  9 active torsions:
REMARK  status: ('A' for Active; 'I' for Inactive)
REMARK    1  A    between atoms: C2_2  and  C3_4 
REMARK    2  A    between atoms: C3_4  and  N1_5 
REMARK    3  A    between atoms: C3_4  and  C27_41 
REMARK       I    between atoms: N1_5  and  C4_7 
REMARK    4  A    between atoms: C4_7  and  C5_9 
REMARK    5  A    between atoms: C7_11  and  N2_12 
REMARK       I    between atoms: N3_20  and  C15_21 
REMARK    6  A    between atoms: C15_21  and  O4_23 
REMARK    7  A    between atoms: O4_23  and  C16_24 
REMARK       I    between atoms: N4_27  and  C19_28 
REMARK       I    between atoms: C19_28  and  N5_30 
REMARK    8  A    between atoms: N5_30  and  C20_32 
REMARK    9  A    between atoms: N6_35  and  C23_36 
ROOT
HETATM    1  C23 UNL     1      -8.519  -5.367 -12.182  1.00  0.00     0.246 C 
HETATM    2  C24 UNL     1      -7.825  -4.099 -11.949  1.00  0.00     0.078 C 
HETATM    3  N7  UNL     1      -7.296  -3.082 -11.760  1.00  0.00    -0.196 NA
ENDROOT
BRANCH   1   4
HETATM    4  N6  UNL     1      -8.075  -5.933 -13.425  1.00  0.00    -0.376 N 
HETATM    5  C22 UNL     1      -8.851  -6.304 -14.576  1.00  0.00     0.084 C 
HETATM    6  C21 UNL     1      -8.219  -7.277 -15.221  1.00  0.00     0.017 C 
HETATM    7  C20 UNL     1      -6.975  -7.597 -14.515  1.00  0.00     0.128 C 
HETATM    8  C25 UNL     1      -6.708  -6.261 -13.779  1.00  0.00     0.152 C 
BRANCH   7   9
HETATM    9  N5  UNL     1      -5.866  -7.957 -15.371  1.00  0.00    -0.334 N 
HETATM   10  C19 UNL     1      -4.719  -7.191 -15.554  1.00  0.00     0.319 C 
HETATM   11  N4  UNL     1      -3.668  -7.599 -16.387  1.00  0.00    -0.332 N 
HETATM   12  O5  UNL     1      -4.608  -6.085 -14.955  1.00  0.00    -0.247 OA
HETATM   13  C18 UNL     1      -3.566  -8.864 -17.135  1.00  0.00     0.130 C 
HETATM   14  C26 UNL     1      -2.438  -6.921 -16.752  1.00  0.00     0.160 C 
HETATM   15  C17 UNL     1      -2.109  -9.286 -16.853  1.00  0.00     0.054 C 
HETATM   16  C16 UNL     1      -1.409  -8.039 -16.517  1.00  0.00     0.153 C 
ATOM     17  H5  UNL     1      -5.929  -8.840 -15.879  1.00  0.00     0.165 HD
BRANCH  16  18
HETATM   18  O4  UNL     1      -0.222  -7.761 -17.191  1.00  0.00    -0.297 OA
BRANCH  18  19
HETATM   19  C15 UNL     1       0.860  -7.034 -16.761  1.00  0.00     0.363 C 
HETATM   20  N3  UNL     1       1.330  -5.885 -17.502  1.00  0.00    -0.314 N 
HETATM   21  C5  UNL     1       2.339  -5.007 -17.035  1.00  0.00     0.183 C 
HETATM   22  C14 UNL     1       0.741  -5.695 -18.824  1.00  0.00     0.131 C 
HETATM   23  C6  UNL     1       3.121  -4.233 -18.031  1.00  0.00     0.071 C 
HETATM   24  C7  UNL     1       2.534  -4.217 -19.391  1.00  0.00     0.227 C 
HETATM   25  C13 UNL     1       1.995  -5.575 -19.734  1.00  0.00     0.056 C 
HETATM   26  O3  UNL     1       1.403  -7.422 -15.692  1.00  0.00    -0.238 OA
BRANCH  21  27
HETATM   27  C4  UNL     1       1.777  -4.051 -16.001  1.00  0.00     0.241 C 
HETATM   28  N1  UNL     1       0.910  -4.442 -14.971  1.00  0.00    -0.348 N 
ATOM     29  H1  UNL     1       0.644  -5.424 -14.907  1.00  0.00     0.163 HD
HETATM   30  O2  UNL     1       2.107  -2.833 -16.075  1.00  0.00    -0.271 OA
BRANCH  28  31
HETATM   31  C3  UNL     1       0.372  -3.509 -13.987  1.00  0.00     0.157 C 
BRANCH  31  32
HETATM   32  C2  UNL     1      -1.017  -3.126 -14.360  1.00  0.00     0.145 C 
HETATM   33  C1  UNL     1      -1.625  -1.863 -13.921  1.00  0.00     0.093 C 
HETATM   34  O1  UNL     1      -1.695  -3.861 -15.050  1.00  0.00    -0.296 OA
ENDBRANCH  31  32
BRANCH  31  35
HETATM   35  C27 UNL     1       0.491  -4.163 -12.639  1.00  0.00     0.007 C 
HETATM   36  C28 UNL     1       0.856  -3.252 -11.515  1.00  0.00     0.012 C 
HETATM   37  C29 UNL     1       1.607  -5.216 -12.713  1.00  0.00     0.012 C 
ENDBRANCH  31  35
ENDBRANCH  28  31
ENDBRANCH  21  27
BRANCH  24  38
HETATM   38  N2  UNL     1       3.362  -3.629 -20.424  1.00  0.00     0.093 N 
HETATM   39  C8  UNL     1       4.309  -2.698 -19.816  1.00  0.00     0.273 C 
HETATM   40  C9  UNL     1       5.315  -2.231 -20.853  1.00  0.00     0.030 C 
HETATM   41  C10 UNL     1       6.311  -3.391 -20.973  1.00  0.00     0.003 C 
HETATM   42  C11 UNL     1       5.577  -4.696 -20.768  1.00  0.00     0.030 C 
HETATM   43  C12 UNL     1       4.132  -4.651 -21.130  1.00  0.00     0.273 C 
ENDBRANCH  24  38
ENDBRANCH  18  19
ENDBRANCH  16  18
ENDBRANCH   7   9
ENDBRANCH   1   4
TORSDOF 9
ENDMDL
MODEL 4
REMARK VINA RESULT: -7.734763356      5.873     13.731
REMARK  9 active torsions:
REMARK  status: ('A' for Active; 'I' for Inactive)
REMARK    1  A    between atoms: C2_2  and  C3_4 
REMARK    2  A    between atoms: C3_4  and  N1_5 
REMARK    3  A    between atoms: C3_4  and  C27_41 
REMARK       I    between atoms: N1_5  and  C4_7 
REMARK    4  A    between atoms: C4_7  and  C5_9 
REMARK    5  A    between atoms: C7_11  and  N2_12 
REMARK       I    between atoms: N3_20  and  C15_21 
REMARK    6  A    between atoms: C15_21  and  O4_23 
REMARK    7  A    between atoms: O4_23  and  C16_24 
REMARK       I    between atoms: N4_27  and  C19_28 
REMARK       I    between atoms: C19_28  and  N5_30 
REMARK    8  A    between atoms: N5_30  and  C20_32 
REMARK    9  A    between atoms: N6_35  and  C23_36 
ROOT
HETATM    1  C23 UNL     1      -8.411  -6.816 -13.404  1.00  0.00     0.246 C 
HETATM    2  C24 UNL     1      -8.970  -5.464 -13.415  1.00  0.00     0.078 C 
HETATM    3  N7  UNL     1      -9.429  -4.397 -13.440  1.00  0.00    -0.196 NA
ENDROOT
BRANCH   1   4
HETATM    4  N6  UNL     1      -6.985  -6.746 -13.568  1.00  0.00    -0.376 N 
HETATM    5  C22 UNL     1      -6.060  -5.796 -13.016  1.00  0.00     0.084 C 
HETATM    6  C21 UNL     1      -5.011  -5.701 -13.826  1.00  0.00     0.017 C 
HETATM    7  C20 UNL     1      -5.199  -6.601 -14.967  1.00  0.00     0.128 C 
HETATM    8  C25 UNL     1      -6.166  -7.646 -14.357  1.00  0.00     0.152 C 
BRANCH   7   9
HETATM    9  N5  UNL     1      -3.989  -7.227 -15.454  1.00  0.00    -0.334 N 
HETATM   10  C19 UNL     1      -3.873  -7.900 -16.666  1.00  0.00     0.319 C 
HETATM   11  N4  UNL     1      -2.667  -8.475 -17.093  1.00  0.00    -0.332 N 
HETATM   12  O5  UNL     1      -4.882  -8.006 -17.418  1.00  0.00    -0.247 OA
HETATM   13  C18 UNL     1      -1.367  -8.428 -16.403  1.00  0.00     0.130 C 
HETATM   14  C26 UNL     1      -2.366  -9.261 -18.275  1.00  0.00     0.160 C 
HETATM   15  C17 UNL     1      -0.401  -8.100 -17.562  1.00  0.00     0.054 C 
HETATM   16  C16 UNL     1      -1.094  -8.557 -18.775  1.00  0.00     0.153 C 
ATOM     17  H5  UNL     1      -3.158  -7.169 -14.865  1.00  0.00     0.165 HD
BRANCH  16  18
HETATM   18  O4  UNL     1      -0.390  -9.382 -19.650  1.00  0.00    -0.297 OA
BRANCH  18  19
HETATM   19  C15 UNL     1       0.909  -9.268 -20.078  1.00  0.00     0.363 C 
HETATM   20  N3  UNL     1       1.219  -8.761 -21.396  1.00  0.00    -0.314 N 
HETATM   21  C5  UNL     1       2.534  -8.477 -21.840  1.00  0.00     0.183 C 
HETATM   22  C14 UNL     1       0.085  -8.601 -22.301  1.00  0.00     0.131 C 
HETATM   23  C6  UNL     1       2.810  -8.500 -23.299  1.00  0.00     0.071 C 
HETATM   24  C7  UNL     1       1.598  -8.492 -24.150  1.00  0.00     0.227 C 
HETATM   25  C13 UNL     1       0.548  -9.387 -23.559  1.00  0.00     0.056 C 
HETATM   26  O3  UNL     1       1.800  -9.623 -19.260  1.00  0.00    -0.238 OA
BRANCH  21  27
HETATM   27  C4  UNL     1       3.017  -7.158 -21.270  1.00  0.00     0.241 C 
HETATM   28  N1  UNL     1       2.194  -6.035 -21.108  1.00  0.00    -0.348 N 
ATOM     29  H1  UNL     1       1.215  -6.105 -21.384  1.00  0.00     0.163 HD
HETATM   30  O2  UNL     1       4.229  -7.066 -20.924  1.00  0.00    -0.271 OA
BRANCH  28  31
HETATM   31  C3  UNL     1       2.674  -4.768 -20.564  1.00  0.00     0.157 C 
BRANCH  31  32
HETATM   32  C2  UNL     1       2.874  -3.788 -21.665  1.00  0.00     0.145 C 
HETATM   33  C1  UNL     1       3.866  -2.707 -21.580  1.00  0.00     0.093 C 
HETATM   34  O1  UNL     1       2.211  -3.858 -22.682  1.00  0.00    -0.296 OA
ENDBRANCH  31  32
BRANCH  31  35
HETATM   35  C27 UNL     1       1.688  -4.329 -19.518  1.00  0.00     0.007 C 
HETATM   36  C28 UNL     1       2.067  -4.641 -18.109  1.00  0.00     0.012 C 
HETATM   37  C29 UNL     1       0.361  -5.057 -19.773  1.00  0.00     0.012 C 
ENDBRANCH  31  35
ENDBRANCH  28  31
ENDBRANCH  21  27
BRANCH  24  38
HETATM   38  N2  UNL     1       1.824  -8.700 -25.566  1.00  0.00     0.093 N 
HETATM   39  C8  UNL     1       3.258  -8.645 -25.841  1.00  0.00     0.273 C 
HETATM   40  C9  UNL     1       3.527  -9.062 -27.275  1.00  0.00     0.030 C 
HETATM   41  C10 UNL     1       3.444 -10.593 -27.252  1.00  0.00     0.003 C 
HETATM   42  C11 UNL     1       2.409 -11.017 -26.237  1.00  0.00     0.030 C 
HETATM   43  C12 UNL     1       1.338 -10.010 -25.993  1.00  0.00     0.273 C 
ENDBRANCH  24  38
ENDBRANCH  18  19
ENDBRANCH  16  18
ENDBRANCH   7   9
ENDBRANCH   1   4
TORSDOF 9
ENDMDL
MODEL 5
REMARK VINA RESULT: -7.732162806      3.635     11.598
REMARK  9 active torsions:
REMARK  status: ('A' for Active; 'I' for Inactive)
REMARK    1  A    between atoms: C2_2  and  C3_4 
REMARK    2  A    between atoms: C3_4  and  N1_5 
REMARK    3  A    between atoms: C3_4  and  C27_41 
REMARK       I    between atoms: N1_5  and  C4_7 
REMARK    4  A    between atoms: C4_7  and  C5_9 
REMARK    5  A    between atoms: C7_11  and  N2_12 
REMARK       I    between atoms: N3_20  and  C15_21 
REMARK    6  A    between atoms: C15_21  and  O4_23 
REMARK    7  A    between atoms: O4_23  and  C16_24 
REMARK       I    between atoms: N4_27  and  C19_28 
REMARK       I    between atoms: C19_28  and  N5_30 
REMARK    8  A    between atoms: N5_30  and  C20_32 
REMARK    9  A    between atoms: N6_35  and  C23_36 
ROOT
HETATM    1  C23 UNL     1      -7.369  -3.047 -10.599  1.00  0.00     0.246 C 
HETATM    2  C24 UNL     1      -6.502  -1.937 -10.995  1.00  0.00     0.078 C 
HETATM    3  N7  UNL     1      -5.828  -1.040 -11.299  1.00  0.00    -0.196 NA
ENDROOT
BRANCH   1   4
HETATM    4  N6  UNL     1      -7.663  -3.858 -11.749  1.00  0.00    -0.376 N 
HETATM    5  C22 UNL     1      -8.940  -4.284 -12.249  1.00  0.00     0.084 C 
HETATM    6  C21 UNL     1      -8.781  -5.428 -12.905  1.00  0.00     0.017 C 
HETATM    7  C20 UNL     1      -7.367  -5.814 -12.869  1.00  0.00     0.128 C 
HETATM    8  C25 UNL     1      -6.696  -4.433 -12.663  1.00  0.00     0.152 C 
BRANCH   7   9
HETATM    9  N5  UNL     1      -6.883  -6.461 -14.069  1.00  0.00    -0.334 N 
HETATM   10  C19 UNL     1      -5.555  -6.473 -14.485  1.00  0.00     0.319 C 
HETATM   11  N4  UNL     1      -5.141  -7.131 -15.653  1.00  0.00    -0.332 N 
HETATM   12  O5  UNL     1      -4.681  -5.874 -13.798  1.00  0.00    -0.247 OA
HETATM   13  C18 UNL     1      -5.976  -7.927 -16.568  1.00  0.00     0.130 C 
HETATM   14  C26 UNL     1      -3.834  -7.203 -16.279  1.00  0.00     0.160 C 
HETATM   15  C17 UNL     1      -5.089  -9.166 -16.815  1.00  0.00     0.054 C 
HETATM   16  C16 UNL     1      -3.719  -8.714 -16.537  1.00  0.00     0.153 C 
ATOM     17  H5  UNL     1      -7.565  -6.944 -14.653  1.00  0.00     0.165 HD
BRANCH  16  18
HETATM   18  O4  UNL     1      -2.745  -8.974 -17.499  1.00  0.00    -0.297 OA
BRANCH  18  19
HETATM   19  C15 UNL     1      -1.401  -9.191 -17.322  1.00  0.00     0.363 C 
HETATM   20  N3  UNL     1      -0.425  -8.211 -17.742  1.00  0.00    -0.314 N 
HETATM   21  C5  UNL     1       0.959  -8.306 -17.452  1.00  0.00     0.183 C 
HETATM   22  C14 UNL     1      -0.934  -7.111 -18.554  1.00  0.00     0.131 C 
HETATM   23  C6  UNL     1       1.919  -7.608 -18.345  1.00  0.00     0.071 C 
HETATM   24  C7  UNL     1       1.300  -6.613 -19.250  1.00  0.00     0.227 C 
HETATM   25  C13 UNL     1       0.005  -7.146 -19.792  1.00  0.00     0.056 C 
HETATM   26  O3  UNL     1      -1.079 -10.279 -16.774  1.00  0.00    -0.238 OA
BRANCH  21  27
HETATM   27  C4  UNL     1       1.234  -7.896 -16.019  1.00  0.00     0.241 C 
HETATM   28  N1  UNL     1       1.480  -6.575 -15.623  1.00  0.00    -0.348 N 
ATOM     29  H1  UNL     1       1.471  -5.844 -16.335  1.00  0.00     0.163 HD
HETATM   30  O2  UNL     1       1.243  -8.797 -15.132  1.00  0.00    -0.271 OA
BRANCH  28  31
HETATM   31  C3  UNL     1       1.750  -6.195 -14.240  1.00  0.00     0.157 C 
BRANCH  31  32
HETATM   32  C2  UNL     1       3.153  -6.540 -13.885  1.00  0.00     0.145 C 
HETATM   33  C1  UNL     1       3.491  -7.276 -12.660  1.00  0.00     0.093 C 
HETATM   34  O1  UNL     1       4.071  -6.217 -14.613  1.00  0.00    -0.296 OA
ENDBRANCH  31  32
BRANCH  31  35
HETATM   35  C27 UNL     1       1.420  -4.735 -14.104  1.00  0.00     0.007 C 
HETATM   36  C28 UNL     1       0.932  -4.310 -12.761  1.00  0.00     0.012 C 
HETATM   37  C29 UNL     1       0.291  -4.404 -15.092  1.00  0.00     0.012 C 
ENDBRANCH  31  35
ENDBRANCH  28  31
ENDBRANCH  21  27
BRANCH  24  38
HETATM   38  N2  UNL     1       2.176  -6.050 -20.256  1.00  0.00     0.093 N 
HETATM   39  C8  UNL     1       1.767  -6.525 -21.577  1.00  0.00     0.273 C 
HETATM   40  C9  UNL     1       2.540  -5.787 -22.655  1.00  0.00     0.030 C 
HETATM   41  C10 UNL     1       1.839  -4.428 -22.769  1.00  0.00     0.003 C 
HETATM   42  C11 UNL     1       1.331  -4.018 -21.406  1.00  0.00     0.030 C 
HETATM   43  C12 UNL     1       2.101  -4.590 -20.266  1.00  0.00     0.273 C 
ENDBRANCH  24  38
ENDBRANCH  18  19
ENDBRANCH  16  18
ENDBRANCH   7   9
ENDBRANCH   1   4
TORSDOF 9
ENDMDL
