MODEL 1
REMARK VINA RESULT: -8.442447119      0.000      0.000
REMARK  9 active torsions:
REMARK  status: ('A' for Active; 'I' for Inactive)
REMARK    1  A    between atoms: C3_5  and  C4_6 
REMARK    2  A    between atoms: C7_9  and  C8_10 
REMARK    3  A    between atoms: C8_10  and  C9_11 
REMARK    4  A    between atoms: C9_11  and  O1_12 
REMARK    5  A    between atoms: O1_12  and  C10_13 
REMARK    6  A    between atoms: C10_13  and  C11_15 
REMARK    7  A    between atoms: C13_19  and  N3_20 
REMARK       I    between atoms: N3_20  and  C14_22 
REMARK       I    between atoms: C14_22  and  N4_24 
REMARK    8  A    between atoms: N4_24  and  C15_26 
REMARK    9  A    between atoms: C15_26  and  C16_27 
REMARK       I    between atoms: C16_27  and  N5_29 
ROOT
HETATM    1  C11 UNL     1      -3.150   1.384 -12.925  1.00  0.00     0.206 C 
HETATM    2  N2  UNL     1      -3.291  -0.075 -13.115  1.00  0.00    -0.319 N 
HETATM    3  C12 UNL     1      -3.449  -1.450 -13.025  1.00  0.00     0.247 C 
HETATM    4  O3  UNL     1      -3.875  -2.270 -12.120  1.00  0.00    -0.271 OA
HETATM    5  C13 UNL     1      -2.951  -1.742 -14.367  1.00  0.00     0.211 C 
HETATM    6  C21 UNL     1      -3.093  -0.231 -14.564  1.00  0.00     0.183 C 
HETATM    7  S1  UNL     1      -1.462   0.651 -14.639  1.00  0.00    -0.129 SA
HETATM    8  C22 UNL     1      -1.621   1.485 -12.973  1.00  0.00     0.033 C 
HETATM    9  C23 UNL     1      -1.002   0.575 -11.926  1.00  0.00     0.029 C 
HETATM   10  C24 UNL     1      -1.122   2.863 -12.994  1.00  0.00     0.029 C 
ENDROOT
BRANCH   5  11
HETATM   11  N3  UNL     1      -1.582  -2.128 -14.572  1.00  0.00    -0.327 N 
HETATM   12  C14 UNL     1      -1.284  -3.394 -15.116  1.00  0.00     0.317 C 
HETATM   13  O4  UNL     1      -2.170  -4.229 -15.325  1.00  0.00    -0.247 OA
HETATM   14  N4  UNL     1       0.074  -3.670 -15.429  1.00  0.00    -0.334 N 
ATOM     15  H4  UNL     1       0.771  -2.957 -15.212  1.00  0.00     0.164 HD
ATOM     16  H3  UNL     1      -0.828  -1.488 -14.324  1.00  0.00     0.165 HD
BRANCH  14  17
HETATM   17  C15 UNL     1       0.522  -4.893 -16.033  1.00  0.00     0.227 C 
BRANCH  17  18
HETATM   18  C16 UNL     1       0.620  -4.763 -17.495  1.00  0.00     0.245 C 
HETATM   19  O5  UNL     1       1.219  -3.787 -18.052  1.00  0.00    -0.271 OA
HETATM   20  N5  UNL     1       0.021  -5.742 -18.335  1.00  0.00    -0.267 N 
HETATM   21  C17 UNL     1      -0.066  -5.727 -19.760  1.00  0.00     0.157 C 
HETATM   22  C20 UNL     1      -0.600  -6.976 -17.904  1.00  0.00     0.327 C 
HETATM   23  C18 UNL     1       0.081  -7.209 -20.101  1.00  0.00     0.147 C 
HETATM   24  N6  UNL     1      -0.750  -7.825 -19.057  1.00  0.00    -0.337 N 
HETATM   25  C19 UNL     1      -1.558  -9.015 -19.105  1.00  0.00     0.154 C 
HETATM   26  O6  UNL     1      -0.947  -7.266 -16.748  1.00  0.00    -0.247 OA
ENDBRANCH  17  18
ENDBRANCH  14  17
ENDBRANCH   5  11
BRANCH   1  27
HETATM   27  C10 UNL     1      -3.820   1.866 -11.753  1.00  0.00     0.283 C 
HETATM   28  O2  UNL     1      -3.544   2.903 -11.169  1.00  0.00    -0.263 OA
BRANCH  27  29
HETATM   29  O1  UNL     1      -4.865   1.046 -11.229  1.00  0.00    -0.319 OA
BRANCH  29  30
HETATM   30  C9  UNL     1      -5.665   1.595 -10.185  1.00  0.00     0.184 C 
BRANCH  30  31
HETATM   31  C8  UNL     1      -6.991   0.987 -10.031  1.00  0.00     0.075 C 
BRANCH  31  32
HETATM   32  C7  UNL     1      -7.615   0.828  -8.716  1.00  0.00     0.013 A 
HETATM   33  C3  UNL     1      -7.951  -0.179  -7.862  1.00  0.00     0.047 A 
HETATM   34  N1  UNL     1      -8.736   0.166  -6.841  1.00  0.00    -0.353 N 
HETATM   35  C2  UNL     1      -9.149   1.403  -6.669  1.00  0.00     0.047 A 
ATOM     36  H1  UNL     1      -9.026  -0.550  -6.175  1.00  0.00     0.166 HD
HETATM   37  C1  UNL     1     -10.008   1.986  -5.562  1.00  0.00     0.076 C 
HETATM   38  S2  UNL     1      -8.438   2.192  -7.977  1.00  0.00    -0.079 SA
BRANCH  33  39
HETATM   39  C4  UNL     1      -7.285  -1.533  -7.864  1.00  0.00    -0.060 C 
HETATM   40  C5  UNL     1      -7.329  -2.293  -6.588  1.00  0.00     0.045 C 
HETATM   41  C6  UNL     1      -6.934  -2.196  -9.127  1.00  0.00     0.045 C 
ENDBRANCH  33  39
ENDBRANCH  31  32
ENDBRANCH  30  31
ENDBRANCH  29  30
ENDBRANCH  27  29
ENDBRANCH   1  27
TORSDOF 9
ENDMDL
MODEL 2
REMARK VINA RESULT: -8.161926138      6.733     12.522
REMARK  9 active torsions:
REMARK  status: ('A' for Active; 'I' for Inactive)
REMARK    1  A    between atoms: C3_5  and  C4_6 
REMARK    2  A    between atoms: C7_9  and  C8_10 
REMARK    3  A    between atoms: C8_10  and  C9_11 
REMARK    4  A    between atoms: C9_11  and  O1_12 
REMARK    5  A    between atoms: O1_12  and  C10_13 
REMARK    6  A    between atoms: C10_13  and  C11_15 
REMARK    7  A    between atoms: C13_19  and  N3_20 
REMARK       I    between atoms: N3_20  and  C14_22 
REMARK       I    between atoms: C14_22  and  N4_24 
REMARK    8  A    between atoms: N4_24  and  C15_26 
REMARK    9  A    between atoms: C15_26  and  C16_27 
REMARK       I    between atoms: C16_27  and  N5_29 
ROOT
HETATM    1  C11 UNL     1       1.754  -6.226 -18.975  1.00  0.00     0.206 C 
HETATM    2  N2  UNL     1       0.615  -7.162 -19.076  1.00  0.00    -0.319 N 
HETATM    3  C12 UNL     1      -0.462  -7.962 -19.428  1.00  0.00     0.247 C 
HETATM    4  O3  UNL     1      -0.978  -8.373 -20.540  1.00  0.00    -0.271 OA
HETATM    5  C13 UNL     1      -0.892  -8.240 -18.059  1.00  0.00     0.211 C 
HETATM    6  C21 UNL     1       0.467  -7.640 -17.692  1.00  0.00     0.183 C 
HETATM    7  S1  UNL     1       0.337  -5.959 -16.914  1.00  0.00    -0.129 SA
HETATM    8  C22 UNL     1       1.020  -5.019 -18.379  1.00  0.00     0.033 C 
HETATM    9  C23 UNL     1      -0.144  -4.620 -19.271  1.00  0.00     0.029 C 
HETATM   10  C24 UNL     1       1.911  -3.929 -17.971  1.00  0.00     0.029 C 
ENDROOT
BRANCH   5  11
HETATM   11  N3  UNL     1      -1.939  -7.467 -17.451  1.00  0.00    -0.327 N 
HETATM   12  C14 UNL     1      -2.865  -8.094 -16.590  1.00  0.00     0.317 C 
HETATM   13  O4  UNL     1      -2.863  -9.319 -16.429  1.00  0.00    -0.247 OA
HETATM   14  N4  UNL     1      -3.790  -7.263 -15.906  1.00  0.00    -0.334 N 
ATOM     15  H4  UNL     1      -3.768  -6.261 -16.096  1.00  0.00     0.164 HD
ATOM     16  H3  UNL     1      -2.014  -6.468 -17.640  1.00  0.00     0.165 HD
BRANCH  14  17
HETATM   17  C15 UNL     1      -4.757  -7.752 -14.963  1.00  0.00     0.227 C 
BRANCH  17  18
HETATM   18  C16 UNL     1      -6.082  -7.902 -15.585  1.00  0.00     0.245 C 
HETATM   19  O5  UNL     1      -6.271  -8.620 -16.619  1.00  0.00    -0.271 OA
HETATM   20  N5  UNL     1      -7.203  -7.220 -15.036  1.00  0.00    -0.267 N 
HETATM   21  C17 UNL     1      -8.531  -7.172 -15.557  1.00  0.00     0.157 C 
HETATM   22  C20 UNL     1      -7.223  -6.454 -13.807  1.00  0.00     0.327 C 
HETATM   23  C18 UNL     1      -9.372  -7.163 -14.282  1.00  0.00     0.147 C 
HETATM   24  N6  UNL     1      -8.598  -6.242 -13.438  1.00  0.00    -0.337 N 
HETATM   25  C19 UNL     1      -9.048  -5.308 -12.440  1.00  0.00     0.154 C 
HETATM   26  O6  UNL     1      -6.237  -6.047 -13.172  1.00  0.00    -0.247 OA
ENDBRANCH  17  18
ENDBRANCH  14  17
ENDBRANCH   5  11
BRANCH   1  27
HETATM   27  C10 UNL     1       2.446  -6.046 -20.217  1.00  0.00     0.283 C 
HETATM   28  O2  UNL     1       2.024  -6.394 -21.308  1.00  0.00    -0.263 OA
BRANCH  27  29
HETATM   29  O1  UNL     1       3.738  -5.439 -20.148  1.00  0.00    -0.319 OA
BRANCH  29  30
HETATM   30  C9  UNL     1       4.127  -4.607 -21.239  1.00  0.00     0.184 C 
BRANCH  30  31
HETATM   31  C8  UNL     1       3.653  -3.221 -21.164  1.00  0.00     0.075 C 
BRANCH  31  32
HETATM   32  C7  UNL     1       4.544  -2.123 -20.786  1.00  0.00     0.013 A 
HETATM   33  C3  UNL     1       5.049  -1.566 -19.649  1.00  0.00     0.047 A 
HETATM   34  N1  UNL     1       5.667  -0.394 -19.805  1.00  0.00    -0.353 N 
HETATM   35  C2  UNL     1       5.786   0.177 -20.984  1.00  0.00     0.047 A 
ATOM     36  H1  UNL     1       6.057   0.073 -18.986  1.00  0.00     0.166 HD
HETATM   37  C1  UNL     1       6.475   1.476 -21.358  1.00  0.00     0.076 C 
HETATM   38  S2  UNL     1       5.010  -0.931 -21.988  1.00  0.00    -0.079 SA
BRANCH  33  39
HETATM   39  C4  UNL     1       5.178  -2.307 -18.341  1.00  0.00    -0.060 C 
HETATM   40  C5  UNL     1       6.110  -3.463 -18.325  1.00  0.00     0.045 C 
HETATM   41  C6  UNL     1       4.688  -1.713 -17.090  1.00  0.00     0.045 C 
ENDBRANCH  33  39
ENDBRANCH  31  32
ENDBRANCH  30  31
ENDBRANCH  29  30
ENDBRANCH  27  29
ENDBRANCH   1  27
TORSDOF 9
ENDMDL
MODEL 3
REMARK VINA RESULT: -8.016089864      6.743     13.407
REMARK  9 active torsions:
REMARK  status: ('A' for Active; 'I' for Inactive)
REMARK    1  A    between atoms: C3_5  and  C4_6 
REMARK    2  A    between atoms: C7_9  and  C8_10 
REMARK    3  A    between atoms: C8_10  and  C9_11 
REMARK    4  A    between atoms: C9_11  and  O1_12 
REMARK    5  A    between atoms: O1_12  and  C10_13 
REMARK    6  A    between atoms: C10_13  and  C11_15 
REMARK    7  A    between atoms: C13_19  and  N3_20 
REMARK       I    between atoms: N3_20  and  C14_22 
REMARK       I    between atoms: C14_22  and  N4_24 
REMARK    8  A    between atoms: N4_24  and  C15_26 
REMARK    9  A    between atoms: C15_26  and  C16_27 
REMARK       I    between atoms: C16_27  and  N5_29 
ROOT
HETATM    1  C11 UNL     1       1.868  -6.300 -18.756  1.00  0.00     0.206 C 
HETATM    2  N2  UNL     1       0.720  -7.210 -18.957  1.00  0.00    -0.319 N 
HETATM    3  C12 UNL     1      -0.347  -7.976 -19.399  1.00  0.00     0.247 C 
HETATM    4  O3  UNL     1      -0.802  -8.341 -20.554  1.00  0.00    -0.271 OA
HETATM    5  C13 UNL     1      -0.865  -8.288 -18.069  1.00  0.00     0.211 C 
HETATM    6  C21 UNL     1       0.479  -7.727 -17.600  1.00  0.00     0.183 C 
HETATM    7  S1  UNL     1       0.332  -6.070 -16.778  1.00  0.00    -0.129 SA
HETATM    8  C22 UNL     1       1.121  -5.098 -18.167  1.00  0.00     0.033 C 
HETATM    9  C23 UNL     1       0.021  -4.648 -19.115  1.00  0.00     0.029 C 
HETATM   10  C24 UNL     1       2.005  -4.040 -17.671  1.00  0.00     0.029 C 
ENDROOT
BRANCH   5  11
HETATM   11  N3  UNL     1      -1.934  -7.514 -17.501  1.00  0.00    -0.327 N 
HETATM   12  C14 UNL     1      -2.847  -8.123 -16.615  1.00  0.00     0.317 C 
HETATM   13  O4  UNL     1      -2.817  -9.338 -16.397  1.00  0.00    -0.247 OA
HETATM   14  N4  UNL     1      -3.796  -7.284 -15.973  1.00  0.00    -0.334 N 
ATOM     15  H4  UNL     1      -3.797  -6.292 -16.209  1.00  0.00     0.164 HD
ATOM     16  H3  UNL     1      -2.032  -6.526 -17.736  1.00  0.00     0.165 HD
BRANCH  14  17
HETATM   17  C15 UNL     1      -4.754  -7.752 -15.012  1.00  0.00     0.227 C 
BRANCH  17  18
HETATM   18  C16 UNL     1      -6.088  -7.904 -15.615  1.00  0.00     0.245 C 
HETATM   19  O5  UNL     1      -6.288  -8.618 -16.651  1.00  0.00    -0.271 OA
HETATM   20  N5  UNL     1      -7.203  -7.229 -15.047  1.00  0.00    -0.267 N 
HETATM   21  C17 UNL     1      -8.538  -7.183 -15.550  1.00  0.00     0.157 C 
HETATM   22  C20 UNL     1      -7.209  -6.469 -13.815  1.00  0.00     0.327 C 
HETATM   23  C18 UNL     1      -9.362  -7.184 -14.264  1.00  0.00     0.147 C 
HETATM   24  N6  UNL     1      -8.579  -6.264 -13.426  1.00  0.00    -0.337 N 
HETATM   25  C19 UNL     1      -9.019  -5.337 -12.417  1.00  0.00     0.154 C 
HETATM   26  O6  UNL     1      -6.215  -6.062 -13.192  1.00  0.00    -0.247 OA
ENDBRANCH  17  18
ENDBRANCH  14  17
ENDBRANCH   5  11
BRANCH   1  27
HETATM   27  C10 UNL     1       2.639  -6.096 -19.947  1.00  0.00     0.283 C 
HETATM   28  O2  UNL     1       3.628  -5.385 -20.024  1.00  0.00    -0.263 OA
BRANCH  27  29
HETATM   29  O1  UNL     1       2.183  -6.759 -21.127  1.00  0.00    -0.319 OA
BRANCH  29  30
HETATM   30  C9  UNL     1       3.162  -7.418 -21.926  1.00  0.00     0.184 C 
BRANCH  30  31
HETATM   31  C8  UNL     1       3.265  -8.866 -21.716  1.00  0.00     0.075 C 
BRANCH  31  32
HETATM   32  C7  UNL     1       2.146  -9.765 -22.003  1.00  0.00     0.013 A 
HETATM   33  C3  UNL     1       1.027  -9.784 -22.781  1.00  0.00     0.047 A 
HETATM   34  N1  UNL     1       0.161 -10.765 -22.523  1.00  0.00    -0.353 N 
HETATM   35  C2  UNL     1       0.382 -11.659 -21.584  1.00  0.00     0.047 A 
ATOM     36  H1  UNL     1      -0.699 -10.823 -23.070  1.00  0.00     0.166 HD
HETATM   37  C1  UNL     1      -0.461 -12.852 -21.173  1.00  0.00     0.076 C 
HETATM   38  S2  UNL     1       1.873 -11.164 -20.977  1.00  0.00    -0.079 SA
BRANCH  33  39
HETATM   39  C4  UNL     1       0.866  -8.959 -24.033  1.00  0.00    -0.060 C 
HETATM   40  C5  UNL     1       0.142  -7.671 -23.887  1.00  0.00     0.045 C 
HETATM   41  C6  UNL     1       1.672  -9.242 -25.228  1.00  0.00     0.045 C 
ENDBRANCH  33  39
ENDBRANCH  31  32
ENDBRANCH  30  31
ENDBRANCH  29  30
ENDBRANCH  27  29
ENDBRANCH   1  27
TORSDOF 9
ENDMDL
MODEL 4
REMARK VINA RESULT: -7.916665159      6.733     13.325
REMARK  9 active torsions:
REMARK  status: ('A' for Active; 'I' for Inactive)
REMARK    1  A    between atoms: C3_5  and  C4_6 
REMARK    2  A    between atoms: C7_9  and  C8_10 
REMARK    3  A    between atoms: C8_10  and  C9_11 
REMARK    4  A    between atoms: C9_11  and  O1_12 
REMARK    5  A    between atoms: O1_12  and  C10_13 
REMARK    6  A    between atoms: C10_13  and  C11_15 
REMARK    7  A    between atoms: C13_19  and  N3_20 
REMARK       I    between atoms: N3_20  and  C14_22 
REMARK       I    between atoms: C14_22  and  N4_24 
REMARK    8  A    between atoms: N4_24  and  C15_26 
REMARK    9  A    between atoms: C15_26  and  C16_27 
REMARK       I    between atoms: C16_27  and  N5_29 
ROOT
HETATM    1  C11 UNL     1       1.877  -6.146 -18.900  1.00  0.00     0.206 C 
HETATM    2  N2  UNL     1       0.765  -7.095 -19.119  1.00  0.00    -0.319 N 
HETATM    3  C12 UNL     1      -0.271  -7.894 -19.577  1.00  0.00     0.247 C 
HETATM    4  O3  UNL     1      -0.711  -8.255 -20.738  1.00  0.00    -0.271 OA
HETATM    5  C13 UNL     1      -0.779  -8.249 -18.253  1.00  0.00     0.211 C 
HETATM    6  C21 UNL     1       0.543  -7.646 -17.772  1.00  0.00     0.183 C 
HETATM    7  S1  UNL     1       0.332  -6.010 -16.921  1.00  0.00    -0.129 SA
HETATM    8  C22 UNL     1       1.084  -4.984 -18.291  1.00  0.00     0.033 C 
HETATM    9  C23 UNL     1      -0.031  -4.560 -19.233  1.00  0.00     0.029 C 
HETATM   10  C24 UNL     1       1.927  -3.902 -17.775  1.00  0.00     0.029 C 
ENDROOT
BRANCH   5  11
HETATM   11  N3  UNL     1      -1.876  -7.527 -17.672  1.00  0.00    -0.327 N 
HETATM   12  C14 UNL     1      -2.750  -8.178 -16.777  1.00  0.00     0.317 C 
HETATM   13  O4  UNL     1      -2.660  -9.391 -16.560  1.00  0.00    -0.247 OA
HETATM   14  N4  UNL     1      -3.731  -7.386 -16.125  1.00  0.00    -0.334 N 
ATOM     15  H4  UNL     1      -3.781  -6.394 -16.360  1.00  0.00     0.164 HD
ATOM     16  H3  UNL     1      -2.023  -6.545 -17.906  1.00  0.00     0.165 HD
BRANCH  14  17
HETATM   17  C15 UNL     1      -4.655  -7.899 -15.154  1.00  0.00     0.227 C 
BRANCH  17  18
HETATM   18  C16 UNL     1      -6.015  -7.996 -15.708  1.00  0.00     0.245 C 
HETATM   19  O5  UNL     1      -6.279  -8.688 -16.744  1.00  0.00    -0.271 OA
HETATM   20  N5  UNL     1      -7.084  -7.291 -15.090  1.00  0.00    -0.267 N 
HETATM   21  C17 UNL     1      -8.435  -7.193 -15.541  1.00  0.00     0.157 C 
HETATM   22  C20 UNL     1      -7.017  -6.549 -13.848  1.00  0.00     0.327 C 
HETATM   23  C18 UNL     1      -9.209  -7.183 -14.224  1.00  0.00     0.147 C 
HETATM   24  N6  UNL     1      -8.364  -6.302 -13.405  1.00  0.00    -0.337 N 
HETATM   25  C19 UNL     1      -8.733  -5.374 -12.368  1.00  0.00     0.154 C 
HETATM   26  O6  UNL     1      -5.987  -6.185 -13.258  1.00  0.00    -0.247 OA
ENDBRANCH  17  18
ENDBRANCH  14  17
ENDBRANCH   5  11
BRANCH   1  27
HETATM   27  C10 UNL     1       2.640  -5.891 -20.087  1.00  0.00     0.283 C 
HETATM   28  O2  UNL     1       3.831  -5.622 -20.106  1.00  0.00    -0.263 OA
BRANCH  27  29
HETATM   29  O1  UNL     1       1.931  -5.931 -21.326  1.00  0.00    -0.319 OA
BRANCH  29  30
HETATM   30  C9  UNL     1       2.686  -5.724 -22.518  1.00  0.00     0.184 C 
BRANCH  30  31
HETATM   31  C8  UNL     1       2.879  -6.918 -23.348  1.00  0.00     0.075 C 
BRANCH  31  32
HETATM   32  C7  UNL     1       2.134  -8.154 -23.101  1.00  0.00     0.013 A 
HETATM   33  C3  UNL     1       2.260  -9.287 -22.356  1.00  0.00     0.047 A 
HETATM   34  N1  UNL     1       1.403 -10.268 -22.645  1.00  0.00    -0.353 N 
HETATM   35  C2  UNL     1       0.490 -10.138 -23.584  1.00  0.00     0.047 A 
ATOM     36  H1  UNL     1       1.456 -11.143 -22.124  1.00  0.00     0.166 HD
HETATM   37  C1  UNL     1      -0.580 -11.118 -24.028  1.00  0.00     0.076 C 
HETATM   38  S2  UNL     1       0.787  -8.577 -24.144  1.00  0.00    -0.079 SA
BRANCH  33  39
HETATM   39  C4  UNL     1       3.095  -9.375 -21.102  1.00  0.00    -0.060 C 
HETATM   40  C5  UNL     1       2.543 -10.200 -19.997  1.00  0.00     0.045 C 
HETATM   41  C6  UNL     1       4.505  -8.967 -21.109  1.00  0.00     0.045 C 
ENDBRANCH  33  39
ENDBRANCH  31  32
ENDBRANCH  30  31
ENDBRANCH  29  30
ENDBRANCH  27  29
ENDBRANCH   1  27
TORSDOF 9
ENDMDL
MODEL 5
REMARK VINA RESULT: -7.903582881      7.116     12.931
REMARK  9 active torsions:
REMARK  status: ('A' for Active; 'I' for Inactive)
REMARK    1  A    between atoms: C3_5  and  C4_6 
REMARK    2  A    between atoms: C7_9  and  C8_10 
REMARK    3  A    between atoms: C8_10  and  C9_11 
REMARK    4  A    between atoms: C9_11  and  O1_12 
REMARK    5  A    between atoms: O1_12  and  C10_13 
REMARK    6  A    between atoms: C10_13  and  C11_15 
REMARK    7  A    between atoms: C13_19  and  N3_20 
REMARK       I    between atoms: N3_20  and  C14_22 
REMARK       I    between atoms: C14_22  and  N4_24 
REMARK    8  A    between atoms: N4_24  and  C15_26 
REMARK    9  A    between atoms: C15_26  and  C16_27 
REMARK       I    between atoms: C16_27  and  N5_29 
ROOT
HETATM    1  C11 UNL     1       1.632  -8.535 -19.292  1.00  0.00     0.206 C 
HETATM    2  N2  UNL     1       0.849  -7.523 -18.552  1.00  0.00    -0.319 N 
HETATM    3  C12 UNL     1       0.340  -6.542 -17.714  1.00  0.00     0.247 C 
HETATM    4  O3  UNL     1       0.845  -5.675 -16.899  1.00  0.00    -0.271 OA
HETATM    5  C13 UNL     1      -1.064  -6.786 -18.041  1.00  0.00     0.211 C 
HETATM    6  C21 UNL     1      -0.477  -7.619 -19.183  1.00  0.00     0.183 C 
HETATM    7  S1  UNL     1      -0.684  -9.446 -18.934  1.00  0.00    -0.129 SA
HETATM    8  C22 UNL     1       1.120  -9.796 -18.587  1.00  0.00     0.033 C 
HETATM    9  C23 UNL     1       1.344  -9.687 -17.088  1.00  0.00     0.029 C 
HETATM   10  C24 UNL     1       1.572 -11.044 -19.209  1.00  0.00     0.029 C 
ENDROOT
BRANCH   5  11
HETATM   11  N3  UNL     1      -1.875  -7.623 -17.202  1.00  0.00    -0.327 N 
HETATM   12  C14 UNL     1      -2.888  -7.048 -16.406  1.00  0.00     0.317 C 
HETATM   13  O4  UNL     1      -3.027  -5.824 -16.330  1.00  0.00    -0.247 OA
HETATM   14  N4  UNL     1      -3.752  -7.931 -15.706  1.00  0.00    -0.334 N 
ATOM     15  H4  UNL     1      -3.577  -8.934 -15.781  1.00  0.00     0.164 HD
ATOM     16  H3  UNL     1      -1.720  -8.631 -17.182  1.00  0.00     0.165 HD
BRANCH  14  17
HETATM   17  C15 UNL     1      -4.856  -7.495 -14.898  1.00  0.00     0.227 C 
BRANCH  17  18
HETATM   18  C16 UNL     1      -6.143  -7.842 -15.521  1.00  0.00     0.245 C 
HETATM   19  O5  UNL     1      -6.232  -8.676 -16.479  1.00  0.00    -0.271 OA
HETATM   20  N5  UNL     1      -7.341  -7.229 -15.060  1.00  0.00    -0.267 N 
HETATM   21  C17 UNL     1      -8.653  -7.370 -15.603  1.00  0.00     0.157 C 
HETATM   22  C20 UNL     1      -7.469  -6.351 -13.916  1.00  0.00     0.327 C 
HETATM   23  C18 UNL     1      -9.522  -7.322 -14.348  1.00  0.00     0.147 C 
HETATM   24  N6  UNL     1      -8.867  -6.246 -13.591  1.00  0.00    -0.337 N 
HETATM   25  C19 UNL     1      -9.435  -5.269 -12.700  1.00  0.00     0.154 C 
HETATM   26  O6  UNL     1      -6.545  -5.783 -13.312  1.00  0.00    -0.247 OA
ENDBRANCH  17  18
ENDBRANCH  14  17
ENDBRANCH   5  11
BRANCH   1  27
HETATM   27  C10 UNL     1       3.042  -8.279 -19.272  1.00  0.00     0.283 C 
HETATM   28  O2  UNL     1       3.832  -8.780 -18.487  1.00  0.00    -0.263 OA
BRANCH  27  29
HETATM   29  O1  UNL     1       3.538  -7.346 -20.233  1.00  0.00    -0.319 OA
BRANCH  29  30
HETATM   30  C9  UNL     1       4.392  -6.309 -19.757  1.00  0.00     0.184 C 
BRANCH  30  31
HETATM   31  C8  UNL     1       3.709  -5.072 -19.360  1.00  0.00     0.075 C 
BRANCH  31  32
HETATM   32  C7  UNL     1       3.701  -3.889 -20.221  1.00  0.00     0.013 A 
HETATM   33  C3  UNL     1       3.338  -3.555 -21.492  1.00  0.00     0.047 A 
HETATM   34  N1  UNL     1       3.747  -2.358 -21.914  1.00  0.00    -0.353 N 
HETATM   35  C2  UNL     1       4.445  -1.551 -21.145  1.00  0.00     0.047 A 
ATOM     36  H1  UNL     1       3.511  -2.059 -22.860  1.00  0.00     0.166 HD
HETATM   37  C1  UNL     1       4.964  -0.155 -21.435  1.00  0.00     0.076 C 
HETATM   38  S2  UNL     1       4.583  -2.453 -19.729  1.00  0.00    -0.079 SA
BRANCH  33  39
HETATM   39  C4  UNL     1       2.317  -4.320 -22.298  1.00  0.00    -0.060 C 
HETATM   40  C5  UNL     1       2.825  -5.473 -23.083  1.00  0.00     0.045 C 
HETATM   41  C6  UNL     1       0.881  -4.153 -22.043  1.00  0.00     0.045 C 
ENDBRANCH  33  39
ENDBRANCH  31  32
ENDBRANCH  30  31
ENDBRANCH  29  30
ENDBRANCH  27  29
ENDBRANCH   1  27
TORSDOF 9
ENDMDL
