MODEL 1
REMARK VINA RESULT: -6.093204307      0.000      0.000
REMARK  4 active torsions:
REMARK  status: ('A' for Active; 'I' for Inactive)
REMARK    1  A    between atoms: N1_1  and  C1_4 
REMARK    2  A    between atoms: N3_8  and  C3_9 
REMARK    3  A    between atoms: C3_9  and  C4_10 
REMARK    4  A    between atoms: C4_10  and  C5_11 
ROOT
HETATM    1  C1  UNL     1      -3.176 -28.773   4.499  1.00  0.00     0.691 A 
HETATM    2  N2  UNL     1      -2.319 -29.492   5.245  1.00  0.00    -0.185 N 
ATOM      3  H2  UNL     1      -1.307 -29.532   5.119  1.00  0.00     0.185 HD
HETATM    4  C2  UNL     1      -3.022 -30.152   6.191  1.00  0.00     0.218 A 
HETATM    5  N3  UNL     1      -4.327 -29.846   6.037  1.00  0.00    -0.273 N 
HETATM    6  N4  UNL     1      -4.394 -29.018   5.016  1.00  0.00    -0.129 N 
ATOM      7  H4  UNL     1      -5.260 -28.612   4.662  1.00  0.00     0.206 HD
ENDROOT
BRANCH   5   8
HETATM    8  C3  UNL     1      -5.433 -30.333   6.836  1.00  0.00     0.153 C 
BRANCH   8   9
HETATM    9  C4  UNL     1      -6.689 -30.458   5.996  1.00  0.00     0.053 C 
BRANCH   9  10
HETATM   10  C5  UNL     1      -7.878 -29.864   6.710  1.00  0.00     0.123 C 
HETATM   11  C6  UNL     1      -8.753 -29.180   5.674  1.00  0.00     0.032 C 
HETATM   12  C7  UNL     1     -10.207 -29.567   5.843  1.00  0.00     0.004 C 
HETATM   13  C8  UNL     1     -10.604 -29.714   7.280  1.00  0.00     0.026 C 
HETATM   14  C9  UNL     1      -9.603 -30.431   8.124  1.00  0.00     0.168 C 
HETATM   15  O1  UNL     1      -8.577 -30.896   7.324  1.00  0.00    -0.386 OA
ENDBRANCH   9  10
ENDBRANCH   8   9
ENDBRANCH   5   8
BRANCH   1  16
HETATM   16  N1  UNL     1      -2.880 -27.999   3.484  1.00  0.00    -0.233 N 
ATOM     17  H12 UNL     1      -2.364 -28.249   2.640  1.00  0.00     0.174 HD
ATOM     18  H11 UNL     1      -3.120 -27.013   3.373  1.00  0.00     0.174 HD
ENDBRANCH   1  16
TORSDOF 4
ENDMDL
MODEL 2
REMARK VINA RESULT: -6.053498005      5.399      7.548
REMARK  4 active torsions:
REMARK  status: ('A' for Active; 'I' for Inactive)
REMARK    1  A    between atoms: N1_1  and  C1_4 
REMARK    2  A    between atoms: N3_8  and  C3_9 
REMARK    3  A    between atoms: C3_9  and  C4_10 
REMARK    4  A    between atoms: C4_10  and  C5_11 
ROOT
HETATM    1  C1  UNL     1     -12.026 -33.229  10.792  1.00  0.00     0.691 A 
HETATM    2  N2  UNL     1     -12.207 -32.256  11.703  1.00  0.00    -0.185 N 
ATOM      3  H2  UNL     1     -12.705 -32.352  12.588  1.00  0.00     0.185 HD
HETATM    4  C2  UNL     1     -11.619 -31.128  11.248  1.00  0.00     0.218 A 
HETATM    5  N3  UNL     1     -11.066 -31.395  10.046  1.00  0.00    -0.273 N 
HETATM    6  N4  UNL     1     -11.324 -32.661   9.795  1.00  0.00    -0.129 N 
ATOM      7  H4  UNL     1     -11.029 -33.151   8.950  1.00  0.00     0.206 HD
ENDROOT
BRANCH   5   8
HETATM    8  C3  UNL     1     -10.335 -30.472   9.202  1.00  0.00     0.153 C 
BRANCH   8   9
HETATM    9  C4  UNL     1      -8.946 -31.001   8.906  1.00  0.00     0.053 C 
BRANCH   9  10
HETATM   10  C5  UNL     1      -8.612 -30.854   7.441  1.00  0.00     0.123 C 
HETATM   11  C6  UNL     1      -9.626 -29.908   6.822  1.00  0.00     0.032 C 
HETATM   12  C7  UNL     1      -8.946 -28.853   5.976  1.00  0.00     0.004 C 
HETATM   13  C8  UNL     1      -7.762 -29.385   5.229  1.00  0.00     0.026 C 
HETATM   14  C9  UNL     1      -6.885 -30.289   6.031  1.00  0.00     0.168 C 
HETATM   15  O1  UNL     1      -7.333 -30.324   7.337  1.00  0.00    -0.386 OA
ENDBRANCH   9  10
ENDBRANCH   8   9
ENDBRANCH   5   8
BRANCH   1  16
HETATM   16  N1  UNL     1     -12.448 -34.468  10.869  1.00  0.00    -0.233 N 
ATOM     17  H12 UNL     1     -13.273 -34.873  10.426  1.00  0.00     0.174 HD
ATOM     18  H11 UNL     1     -12.015 -35.232  11.387  1.00  0.00     0.174 HD
ENDBRANCH   1  16
TORSDOF 4
ENDMDL
MODEL 3
REMARK VINA RESULT: -6.019679058      3.658      6.261
REMARK  4 active torsions:
REMARK  status: ('A' for Active; 'I' for Inactive)
REMARK    1  A    between atoms: N1_1  and  C1_4 
REMARK    2  A    between atoms: N3_8  and  C3_9 
REMARK    3  A    between atoms: C3_9  and  C4_10 
REMARK    4  A    between atoms: C4_10  and  C5_11 
ROOT
HETATM    1  C1  UNL     1     -10.568 -28.945   8.195  1.00  0.00     0.691 A 
HETATM    2  N2  UNL     1     -11.301 -29.127   7.082  1.00  0.00    -0.185 N 
ATOM      3  H2  UNL     1     -12.313 -29.021   7.011  1.00  0.00     0.185 HD
HETATM    4  C2  UNL     1     -10.471 -29.473   6.074  1.00  0.00     0.218 A 
HETATM    5  N3  UNL     1      -9.211 -29.508   6.556  1.00  0.00    -0.273 N 
HETATM    6  N4  UNL     1      -9.296 -29.188   7.830  1.00  0.00    -0.129 N 
ATOM      7  H4  UNL     1      -8.497 -29.131   8.463  1.00  0.00     0.206 HD
ENDROOT
BRANCH   5   8
HETATM    8  C3  UNL     1      -8.007 -29.833   5.819  1.00  0.00     0.153 C 
BRANCH   8   9
HETATM    9  C4  UNL     1      -6.907 -30.282   6.759  1.00  0.00     0.053 C 
BRANCH   9  10
HETATM   10  C5  UNL     1      -5.577 -30.340   6.048  1.00  0.00     0.123 C 
HETATM   11  C6  UNL     1      -5.507 -29.163   5.090  1.00  0.00     0.032 C 
HETATM   12  C7  UNL     1      -4.188 -28.431   5.217  1.00  0.00     0.004 C 
HETATM   13  C8  UNL     1      -3.035 -29.355   5.464  1.00  0.00     0.026 C 
HETATM   14  C9  UNL     1      -3.315 -30.437   6.453  1.00  0.00     0.168 C 
HETATM   15  O1  UNL     1      -4.570 -30.247   6.999  1.00  0.00    -0.386 OA
ENDBRANCH   9  10
ENDBRANCH   8   9
ENDBRANCH   5   8
BRANCH   1  16
HETATM   16  N1  UNL     1     -11.009 -28.602   9.381  1.00  0.00    -0.233 N 
ATOM     17  H12 UNL     1     -11.789 -27.982   9.600  1.00  0.00     0.174 HD
ATOM     18  H11 UNL     1     -10.639 -28.903  10.283  1.00  0.00     0.174 HD
ENDBRANCH   1  16
TORSDOF 4
ENDMDL
MODEL 4
REMARK VINA RESULT: -6.004373002      5.424      7.610
REMARK  4 active torsions:
REMARK  status: ('A' for Active; 'I' for Inactive)
REMARK    1  A    between atoms: N1_1  and  C1_4 
REMARK    2  A    between atoms: N3_8  and  C3_9 
REMARK    3  A    between atoms: C3_9  and  C4_10 
REMARK    4  A    between atoms: C4_10  and  C5_11 
ROOT
HETATM    1  C1  UNL     1     -11.877 -33.406  10.807  1.00  0.00     0.691 A 
HETATM    2  N2  UNL     1     -12.085 -32.472  11.753  1.00  0.00    -0.185 N 
ATOM      3  H2  UNL     1     -12.538 -32.626  12.654  1.00  0.00     0.185 HD
HETATM    4  C2  UNL     1     -11.594 -31.295  11.308  1.00  0.00     0.218 A 
HETATM    5  N3  UNL     1     -11.075 -31.491  10.078  1.00  0.00    -0.273 N 
HETATM    6  N4  UNL     1     -11.257 -32.765   9.800  1.00  0.00    -0.129 N 
ATOM      7  H4  UNL     1     -10.965 -33.211   8.930  1.00  0.00     0.206 HD
ENDROOT
BRANCH   5   8
HETATM    8  C3  UNL     1     -10.444 -30.498   9.233  1.00  0.00     0.153 C 
BRANCH   8   9
HETATM    9  C4  UNL     1      -9.145 -31.029   8.659  1.00  0.00     0.053 C 
BRANCH   9  10
HETATM   10  C5  UNL     1      -8.531 -30.036   7.702  1.00  0.00     0.123 C 
HETATM   11  C6  UNL     1      -7.075 -30.417   7.503  1.00  0.00     0.032 C 
HETATM   12  C7  UNL     1      -6.706 -30.427   6.035  1.00  0.00     0.004 C 
HETATM   13  C8  UNL     1      -7.379 -29.335   5.262  1.00  0.00     0.026 C 
HETATM   14  C9  UNL     1      -8.818 -29.136   5.605  1.00  0.00     0.168 C 
HETATM   15  O1  UNL     1      -9.217 -30.112   6.497  1.00  0.00    -0.386 OA
ENDBRANCH   9  10
ENDBRANCH   8   9
ENDBRANCH   5   8
BRANCH   1  16
HETATM   16  N1  UNL     1     -12.211 -34.673  10.864  1.00  0.00    -0.233 N 
ATOM     17  H12 UNL     1     -12.345 -35.244  11.698  1.00  0.00     0.174 HD
ATOM     18  H11 UNL     1     -12.393 -35.295  10.076  1.00  0.00     0.174 HD
ENDBRANCH   1  16
TORSDOF 4
ENDMDL
MODEL 5
REMARK VINA RESULT: -5.988655700      4.234      6.625
REMARK  4 active torsions:
REMARK  status: ('A' for Active; 'I' for Inactive)
REMARK    1  A    between atoms: N1_1  and  C1_4 
REMARK    2  A    between atoms: N3_8  and  C3_9 
REMARK    3  A    between atoms: C3_9  and  C4_10 
REMARK    4  A    between atoms: C4_10  and  C5_11 
ROOT
HETATM    1  C1  UNL     1     -11.088 -30.059  10.163  1.00  0.00     0.691 A 
HETATM    2  N2  UNL     1     -11.015 -28.833   9.616  1.00  0.00    -0.185 N 
ATOM      3  H2  UNL     1     -11.398 -27.977  10.017  1.00  0.00     0.185 HD
HETATM    4  C2  UNL     1     -10.348 -28.925   8.444  1.00  0.00     0.218 A 
HETATM    5  N3  UNL     1     -10.001 -30.216   8.257  1.00  0.00    -0.273 N 
HETATM    6  N4  UNL     1     -10.456 -30.875   9.301  1.00  0.00    -0.129 N 
ATOM      7  H4  UNL     1     -10.344 -31.880   9.439  1.00  0.00     0.206 HD
ENDROOT
BRANCH   5   8
HETATM    8  C3  UNL     1      -9.273 -30.764   7.131  1.00  0.00     0.153 C 
BRANCH   8   9
HETATM    9  C4  UNL     1      -8.398 -29.706   6.490  1.00  0.00     0.053 C 
BRANCH   9  10
HETATM   10  C5  UNL     1      -7.019 -30.247   6.200  1.00  0.00     0.123 C 
HETATM   11  C6  UNL     1      -6.414 -29.413   5.086  1.00  0.00     0.032 C 
HETATM   12  C7  UNL     1      -5.000 -28.988   5.424  1.00  0.00     0.004 C 
HETATM   13  C8  UNL     1      -4.239 -30.048   6.159  1.00  0.00     0.026 C 
HETATM   14  C9  UNL     1      -5.021 -30.738   7.227  1.00  0.00     0.168 C 
HETATM   15  O1  UNL     1      -6.256 -30.134   7.355  1.00  0.00    -0.386 OA
ENDBRANCH   9  10
ENDBRANCH   8   9
ENDBRANCH   5   8
BRANCH   1  16
HETATM   16  N1  UNL     1     -11.657 -30.382  11.300  1.00  0.00    -0.233 N 
ATOM     17  H12 UNL     1     -11.287 -30.245  12.241  1.00  0.00     0.174 HD
ATOM     18  H11 UNL     1     -12.567 -30.823  11.426  1.00  0.00     0.174 HD
ENDBRANCH   1  16
TORSDOF 4
ENDMDL
