MODEL 1
REMARK VINA RESULT: -5.411554879      0.000      0.000
REMARK  3 active torsions:
REMARK  status: ('A' for Active; 'I' for Inactive)
REMARK    1  A    between atoms: N1_2  and  C3_4 
REMARK    2  A    between atoms: C4_5  and  C5_6 
REMARK    3  A    between atoms: N2_7  and  N3_9 
ROOT
HETATM    1  N3  UNL     1      -8.957 -30.645   8.485  1.00  0.00    -0.328 N 
HETATM    2  C6  UNL     1     -10.158 -29.888   8.191  1.00  0.00     0.148 C 
HETATM    3  C7  UNL     1     -10.683 -29.392   9.523  1.00  0.00     0.073 C 
HETATM    4  C8  UNL     1     -11.001 -30.602  10.333  1.00  0.00    -0.017 C 
HETATM    5  N4  UNL     1     -11.920 -30.497  11.218  1.00  0.00    -0.405 N 
ATOM      6  H41 UNL     1     -12.138 -31.325  11.773  1.00  0.00     0.155 HD
ATOM      7  H42 UNL     1     -12.410 -29.613  11.356  1.00  0.00     0.155 HD
HETATM    8  C9  UNL     1     -10.298 -31.873  10.135  1.00  0.00     0.073 C 
HETATM    9  C10 UNL     1      -8.972 -31.725   9.434  1.00  0.00     0.148 C 
ENDROOT
BRANCH   1  10
HETATM   10  N2  UNL     1      -7.789 -30.308   7.835  1.00  0.00    -0.314 N 
HETATM   11  C5  UNL     1      -7.700 -30.315   6.560  1.00  0.00     0.108 C 
ATOM     12  H2  UNL     1      -6.973 -30.046   8.388  1.00  0.00     0.185 HD
BRANCH  11  13
HETATM   13  C4  UNL     1      -6.468 -29.958   5.917  1.00  0.00     0.035 C 
HETATM   14  C3  UNL     1      -5.326 -30.117   6.549  1.00  0.00     0.086 C 
BRANCH  14  15
HETATM   15  N1  UNL     1      -4.083 -29.777   5.951  1.00  0.00    -0.398 N 
HETATM   16  C1  UNL     1      -2.901 -30.477   6.406  1.00  0.00     0.148 C 
HETATM   17  C2  UNL     1      -4.047 -28.757   4.923  1.00  0.00     0.148 C 
ENDBRANCH  14  15
ENDBRANCH  11  13
ENDBRANCH   1  10
TORSDOF 3
ENDMDL
MODEL 2
REMARK VINA RESULT: -5.404409474      3.846      5.865
REMARK  3 active torsions:
REMARK  status: ('A' for Active; 'I' for Inactive)
REMARK    1  A    between atoms: N1_2  and  C3_4 
REMARK    2  A    between atoms: C4_5  and  C5_6 
REMARK    3  A    between atoms: N2_7  and  N3_9 
ROOT
HETATM    1  N3  UNL     1     -11.025 -34.592   9.587  1.00  0.00    -0.328 N 
HETATM    2  C6  UNL     1     -10.566 -34.876  10.932  1.00  0.00     0.148 C 
HETATM    3  C7  UNL     1      -9.416 -35.852  10.790  1.00  0.00     0.073 C 
HETATM    4  C8  UNL     1      -9.973 -37.076  10.148  1.00  0.00    -0.017 C 
HETATM    5  N4  UNL     1      -9.398 -38.192  10.401  1.00  0.00    -0.405 N 
ATOM      6  H41 UNL     1      -9.779 -39.030   9.961  1.00  0.00     0.155 HD
ATOM      7  H42 UNL     1      -8.589 -38.230  11.021  1.00  0.00     0.155 HD
HETATM    8  C9  UNL     1     -11.135 -37.022   9.255  1.00  0.00     0.073 C 
HETATM    9  C10 UNL     1     -11.396 -35.651   8.688  1.00  0.00     0.148 C 
ENDROOT
BRANCH   1  10
HETATM   10  N2  UNL     1     -11.101 -33.278   9.180  1.00  0.00    -0.314 N 
HETATM   11  C5  UNL     1     -10.169 -32.438   9.431  1.00  0.00     0.108 C 
ATOM     12  H2  UNL     1     -11.923 -32.966   8.664  1.00  0.00     0.185 HD
BRANCH  11  13
HETATM   13  C4  UNL     1     -10.281 -31.077   8.991  1.00  0.00     0.035 C 
HETATM   14  C3  UNL     1      -9.910 -30.747   7.774  1.00  0.00     0.086 C 
BRANCH  14  15
HETATM   15  N1  UNL     1     -10.003 -29.413   7.295  1.00  0.00    -0.398 N 
HETATM   16  C1  UNL     1     -10.845 -28.490   8.026  1.00  0.00     0.148 C 
HETATM   17  C2  UNL     1      -9.261 -29.032   6.112  1.00  0.00     0.148 C 
ENDBRANCH  14  15
ENDBRANCH  11  13
ENDBRANCH   1  10
TORSDOF 3
ENDMDL
MODEL 3
REMARK VINA RESULT: -5.398241301      2.021      7.398
REMARK  3 active torsions:
REMARK  status: ('A' for Active; 'I' for Inactive)
REMARK    1  A    between atoms: N1_2  and  C3_4 
REMARK    2  A    between atoms: C4_5  and  C5_6 
REMARK    3  A    between atoms: N2_7  and  N3_9 
ROOT
HETATM    1  N3  UNL     1      -4.288 -29.636   5.936  1.00  0.00    -0.328 N 
HETATM    2  C6  UNL     1      -3.969 -28.421   5.213  1.00  0.00     0.148 C 
HETATM    3  C7  UNL     1      -3.020 -28.826   4.103  1.00  0.00     0.073 C 
HETATM    4  C8  UNL     1      -1.807 -29.386   4.763  1.00  0.00    -0.017 C 
HETATM    5  N4  UNL     1      -0.695 -29.294   4.136  1.00  0.00    -0.405 N 
ATOM      6  H41 UNL     1       0.136 -29.678   4.587  1.00  0.00     0.155 HD
ATOM      7  H42 UNL     1      -0.652 -28.850   3.219  1.00  0.00     0.155 HD
HETATM    8  C9  UNL     1      -1.869 -30.025   6.082  1.00  0.00     0.073 C 
HETATM    9  C10 UNL     1      -3.253 -30.480   6.467  1.00  0.00     0.148 C 
ENDROOT
BRANCH   1  10
HETATM   10  N2  UNL     1      -5.614 -29.972   6.107  1.00  0.00    -0.314 N 
HETATM   11  C5  UNL     1      -6.541 -29.442   5.405  1.00  0.00     0.108 C 
ATOM     12  H2  UNL     1      -5.861 -30.664   6.815  1.00  0.00     0.185 HD
BRANCH  11  13
HETATM   13  C4  UNL     1      -7.911 -29.817   5.610  1.00  0.00     0.035 C 
HETATM   14  C3  UNL     1      -8.362 -30.017   6.828  1.00  0.00     0.086 C 
BRANCH  14  15
HETATM   15  N1  UNL     1      -9.711 -30.389   7.079  1.00  0.00    -0.398 N 
HETATM   16  C1  UNL     1     -10.748 -29.715   6.327  1.00  0.00     0.148 C 
HETATM   17  C2  UNL     1      -9.991 -31.414   8.062  1.00  0.00     0.148 C 
ENDBRANCH  14  15
ENDBRANCH  11  13
ENDBRANCH   1  10
TORSDOF 3
ENDMDL
MODEL 4
REMARK VINA RESULT: -5.357422602      1.396      1.616
REMARK  3 active torsions:
REMARK  status: ('A' for Active; 'I' for Inactive)
REMARK    1  A    between atoms: N1_2  and  C3_4 
REMARK    2  A    between atoms: C4_5  and  C5_6 
REMARK    3  A    between atoms: N2_7  and  N3_9 
ROOT
HETATM    1  N3  UNL     1      -8.655 -30.013   6.986  1.00  0.00    -0.328 N 
HETATM    2  C6  UNL     1      -9.949 -29.475   6.614  1.00  0.00     0.148 C 
HETATM    3  C7  UNL     1     -10.396 -28.606   7.773  1.00  0.00     0.073 C 
HETATM    4  C8  UNL     1     -10.513 -29.503   8.957  1.00  0.00    -0.017 C 
HETATM    5  N4  UNL     1     -11.351 -29.175   9.868  1.00  0.00    -0.405 N 
ATOM      6  H41 UNL     1     -11.431 -29.789  10.679  1.00  0.00     0.155 HD
ATOM      7  H42 UNL     1     -11.913 -28.329   9.776  1.00  0.00     0.155 HD
HETATM    8  C9  UNL     1      -9.705 -30.720   9.090  1.00  0.00     0.073 C 
HETATM    9  C10 UNL     1      -8.472 -30.722   8.223  1.00  0.00     0.148 C 
ENDROOT
BRANCH   1  10
HETATM   10  N2  UNL     1      -7.594 -29.831   6.126  1.00  0.00    -0.314 N 
HETATM   11  C5  UNL     1      -6.392 -30.099   6.471  1.00  0.00     0.108 C 
ATOM     12  H2  UNL     1      -7.772 -29.472   5.189  1.00  0.00     0.185 HD
BRANCH  11  13
HETATM   13  C4  UNL     1      -5.311 -29.898   5.550  1.00  0.00     0.035 C 
HETATM   14  C3  UNL     1      -4.123 -29.554   5.995  1.00  0.00     0.086 C 
BRANCH  14  15
HETATM   15  N1  UNL     1      -3.023 -29.344   5.120  1.00  0.00    -0.398 N 
HETATM   16  C1  UNL     1      -1.804 -30.079   5.379  1.00  0.00     0.148 C 
HETATM   17  C2  UNL     1      -3.163 -28.417   4.017  1.00  0.00     0.148 C 
ENDBRANCH  14  15
ENDBRANCH  11  13
ENDBRANCH   1  10
TORSDOF 3
ENDMDL
MODEL 5
REMARK VINA RESULT: -5.314639002      1.357      6.875
REMARK  3 active torsions:
REMARK  status: ('A' for Active; 'I' for Inactive)
REMARK    1  A    between atoms: N1_2  and  C3_4 
REMARK    2  A    between atoms: C4_5  and  C5_6 
REMARK    3  A    between atoms: N2_7  and  N3_9 
ROOT
HETATM    1  N3  UNL     1      -6.952 -30.214   6.706  1.00  0.00    -0.328 N 
HETATM    2  C6  UNL     1      -5.606 -30.749   6.776  1.00  0.00     0.148 C 
HETATM    3  C7  UNL     1      -4.672 -29.572   6.577  1.00  0.00     0.073 C 
HETATM    4  C8  UNL     1      -4.957 -29.027   5.220  1.00  0.00    -0.017 C 
HETATM    5  N4  UNL     1      -4.003 -28.431   4.608  1.00  0.00    -0.405 N 
ATOM      6  H41 UNL     1      -4.199 -28.057   3.679  1.00  0.00     0.155 HD
ATOM      7  H42 UNL     1      -3.086 -28.339   5.043  1.00  0.00     0.155 HD
HETATM    8  C9  UNL     1      -6.277 -29.159   4.594  1.00  0.00     0.073 C 
HETATM    9  C10 UNL     1      -7.385 -29.437   5.577  1.00  0.00     0.148 C 
ENDROOT
BRANCH   1  10
HETATM   10  N2  UNL     1      -7.817 -30.465   7.749  1.00  0.00    -0.314 N 
HETATM   11  C5  UNL     1      -9.074 -30.254   7.649  1.00  0.00     0.108 C 
ATOM     12  H2  UNL     1      -7.443 -30.830   8.625  1.00  0.00     0.185 HD
BRANCH  11  13
HETATM   13  C4  UNL     1      -9.945 -30.528   8.756  1.00  0.00     0.035 C 
HETATM   14  C3  UNL     1     -10.306 -31.765   9.018  1.00  0.00     0.086 C 
BRANCH  14  15
HETATM   15  N1  UNL     1     -11.167 -32.083  10.102  1.00  0.00    -0.398 N 
HETATM   16  C1  UNL     1     -11.421 -31.054  11.087  1.00  0.00     0.148 C 
HETATM   17  C2  UNL     1     -11.749 -33.407  10.180  1.00  0.00     0.148 C 
ENDBRANCH  14  15
ENDBRANCH  11  13
ENDBRANCH   1  10
TORSDOF 3
ENDMDL
