MODEL 1
REMARK VINA RESULT: -4.949972887      0.000      0.000
REMARK  5 active torsions:
REMARK  status: ('A' for Active; 'I' for Inactive)
REMARK    1  A    between atoms: S1_2  and  C2_3 
REMARK    2  A    between atoms: C2_3  and  C3_4 
REMARK    3  A    between atoms: C6_7  and  O1_8 
REMARK    4  A    between atoms: C7_10  and  C8_11 
REMARK    5  A    between atoms: C8_11  and  O2_12 
ROOT
HETATM    1  C3  UNL     1     -10.764 -33.133   7.690  1.00  0.00     0.131 C 
HETATM    2  C4  UNL     1     -11.781 -33.629   6.698  1.00  0.00     0.035 C 
HETATM    3  C5  UNL     1     -12.283 -34.985   7.068  1.00  0.00     0.037 C 
HETATM    4  C6  UNL     1     -11.732 -35.561   8.326  1.00  0.00     0.149 C 
HETATM    5  C7  UNL     1     -11.154 -34.586   9.297  1.00  0.00     0.174 C 
HETATM    6  O3  UNL     1     -11.392 -33.247   8.943  1.00  0.00    -0.375 OA
ENDROOT
BRANCH   1   7
HETATM    7  C2  UNL     1     -10.284 -31.748   7.403  1.00  0.00     0.105 C 
BRANCH   7   8
HETATM    8  S1  UNL     1     -10.226 -30.723   8.883  1.00  0.00    -0.171 SA
HETATM    9  C1  UNL     1     -10.610 -28.992   8.519  1.00  0.00     0.089 C 
ENDBRANCH   7   8
ENDBRANCH   1   7
BRANCH   5  10
HETATM   10  C8  UNL     1     -11.540 -34.867  10.734  1.00  0.00     0.198 C 
BRANCH  10  11
HETATM   11  O2  UNL     1     -12.755 -34.192  10.936  1.00  0.00    -0.398 OA
ATOM     12  H2  UNL     1     -13.400 -34.672  10.431  1.00  0.00     0.209 HD
ENDBRANCH  10  11
ENDBRANCH   5  10
BRANCH   4  13
HETATM   13  O1  UNL     1     -12.750 -36.347   8.894  1.00  0.00    -0.393 OA
ATOM     14  H1  UNL     1     -12.506 -37.255   8.758  1.00  0.00     0.210 HD
ENDBRANCH   4  13
TORSDOF 5
ENDMDL
MODEL 2
REMARK VINA RESULT: -4.910167460      1.660      2.734
REMARK  5 active torsions:
REMARK  status: ('A' for Active; 'I' for Inactive)
REMARK    1  A    between atoms: S1_2  and  C2_3 
REMARK    2  A    between atoms: C2_3  and  C3_4 
REMARK    3  A    between atoms: C6_7  and  O1_8 
REMARK    4  A    between atoms: C7_10  and  C8_11 
REMARK    5  A    between atoms: C8_11  and  O2_12 
ROOT
HETATM    1  C3  UNL     1     -10.014 -32.015   8.782  1.00  0.00     0.131 C 
HETATM    2  C4  UNL     1      -9.601 -32.930   9.904  1.00  0.00     0.035 C 
HETATM    3  C5  UNL     1     -10.481 -34.132   9.976  1.00  0.00     0.037 C 
HETATM    4  C6  UNL     1     -11.547 -34.220   8.938  1.00  0.00     0.149 C 
HETATM    5  C7  UNL     1     -11.329 -33.412   7.703  1.00  0.00     0.174 C 
HETATM    6  O3  UNL     1     -10.049 -32.834   7.640  1.00  0.00    -0.375 OA
ENDROOT
BRANCH   1   7
HETATM    7  C2  UNL     1      -9.116 -30.832   8.623  1.00  0.00     0.105 C 
BRANCH   7   8
HETATM    8  S1  UNL     1      -9.757 -29.641   7.433  1.00  0.00    -0.171 SA
HETATM    9  C1  UNL     1     -10.907 -28.474   8.201  1.00  0.00     0.089 C 
ENDBRANCH   7   8
ENDBRANCH   1   7
BRANCH   5  10
HETATM   10  C8  UNL     1     -11.677 -34.153   6.429  1.00  0.00     0.198 C 
BRANCH  10  11
HETATM   11  O2  UNL     1     -13.078 -34.236   6.413  1.00  0.00    -0.398 OA
ATOM     12  H2  UNL     1     -13.285 -35.122   6.687  1.00  0.00     0.209 HD
ENDBRANCH  10  11
ENDBRANCH   5  10
BRANCH   4  13
HETATM   13  O1  UNL     1     -11.734 -35.586   8.662  1.00  0.00    -0.393 OA
ATOM     14  H1  UNL     1     -12.469 -35.876   9.189  1.00  0.00     0.210 HD
ENDBRANCH   4  13
TORSDOF 5
ENDMDL
MODEL 3
REMARK VINA RESULT: -4.879089697      4.781      5.740
REMARK  5 active torsions:
REMARK  status: ('A' for Active; 'I' for Inactive)
REMARK    1  A    between atoms: S1_2  and  C2_3 
REMARK    2  A    between atoms: C2_3  and  C3_4 
REMARK    3  A    between atoms: C6_7  and  O1_8 
REMARK    4  A    between atoms: C7_10  and  C8_11 
REMARK    5  A    between atoms: C8_11  and  O2_12 
ROOT
HETATM    1  C3  UNL     1      -7.817 -30.303   6.737  1.00  0.00     0.131 C 
HETATM    2  C4  UNL     1      -8.228 -29.289   5.703  1.00  0.00     0.035 C 
HETATM    3  C5  UNL     1      -9.711 -29.132   5.657  1.00  0.00     0.037 C 
HETATM    4  C6  UNL     1     -10.483 -29.952   6.631  1.00  0.00     0.149 C 
HETATM    5  C7  UNL     1      -9.727 -30.439   7.822  1.00  0.00     0.174 C 
HETATM    6  O3  UNL     1      -8.440 -29.884   7.925  1.00  0.00    -0.375 OA
ENDROOT
BRANCH   1   7
HETATM    7  C2  UNL     1      -6.337 -30.443   6.873  1.00  0.00     0.105 C 
BRANCH   7   8
HETATM    8  S1  UNL     1      -5.446 -29.614   5.545  1.00  0.00    -0.171 SA
HETATM    9  C1  UNL     1      -3.658 -29.621   5.827  1.00  0.00     0.089 C 
ENDBRANCH   7   8
ENDBRANCH   1   7
BRANCH   5  10
HETATM   10  C8  UNL     1     -10.501 -30.314   9.118  1.00  0.00     0.198 C 
BRANCH  10  11
HETATM   11  O2  UNL     1     -10.377 -28.969   9.502  1.00  0.00    -0.398 OA
ATOM     12  H2  UNL     1     -10.774 -28.466   8.802  1.00  0.00     0.209 HD
ENDBRANCH  10  11
ENDBRANCH   5  10
BRANCH   4  13
HETATM   13  O1  UNL     1     -11.619 -29.204   6.984  1.00  0.00    -0.393 OA
ATOM     14  H1  UNL     1     -12.295 -29.826   7.224  1.00  0.00     0.210 HD
ENDBRANCH   4  13
TORSDOF 5
ENDMDL
MODEL 4
REMARK VINA RESULT: -4.855083635      1.567      2.642
REMARK  5 active torsions:
REMARK  status: ('A' for Active; 'I' for Inactive)
REMARK    1  A    between atoms: S1_2  and  C2_3 
REMARK    2  A    between atoms: C2_3  and  C3_4 
REMARK    3  A    between atoms: C6_7  and  O1_8 
REMARK    4  A    between atoms: C7_10  and  C8_11 
REMARK    5  A    between atoms: C8_11  and  O2_12 
ROOT
HETATM    1  C3  UNL     1     -11.097 -33.009   9.427  1.00  0.00     0.131 C 
HETATM    2  C4  UNL     1     -10.167 -34.086   9.920  1.00  0.00     0.035 C 
HETATM    3  C5  UNL     1     -10.661 -35.443   9.544  1.00  0.00     0.037 C 
HETATM    4  C6  UNL     1     -11.919 -35.479   8.747  1.00  0.00     0.149 C 
HETATM    5  C7  UNL     1     -12.269 -34.226   8.017  1.00  0.00     0.174 C 
HETATM    6  O3  UNL     1     -11.248 -33.261   8.052  1.00  0.00    -0.375 OA
ENDROOT
BRANCH   1   7
HETATM    7  C2  UNL     1     -10.608 -31.628   9.715  1.00  0.00     0.105 C 
BRANCH   7   8
HETATM    8  S1  UNL     1     -10.113 -30.751   8.222  1.00  0.00    -0.171 SA
HETATM    9  C1  UNL     1     -10.580 -29.003   8.281  1.00  0.00     0.089 C 
ENDBRANCH   7   8
ENDBRANCH   1   7
BRANCH   5  10
HETATM   10  C8  UNL     1     -12.767 -34.470   6.607  1.00  0.00     0.198 C 
BRANCH  10  11
HETATM   11  O2  UNL     1     -11.644 -34.308   5.779  1.00  0.00    -0.398 OA
ATOM     12  H2  UNL     1     -11.862 -33.595   5.190  1.00  0.00     0.209 HD
ENDBRANCH  10  11
ENDBRANCH   5  10
BRANCH   4  13
HETATM   13  O1  UNL     1     -11.827 -36.592   7.893  1.00  0.00    -0.393 OA
ATOM     14  H1  UNL     1     -12.666 -36.672   7.454  1.00  0.00     0.210 HD
ENDBRANCH   4  13
TORSDOF 5
ENDMDL
MODEL 5
REMARK VINA RESULT: -4.816885137      2.606      3.374
REMARK  5 active torsions:
REMARK  status: ('A' for Active; 'I' for Inactive)
REMARK    1  A    between atoms: S1_2  and  C2_3 
REMARK    2  A    between atoms: C2_3  and  C3_4 
REMARK    3  A    between atoms: C6_7  and  O1_8 
REMARK    4  A    between atoms: C7_10  and  C8_11 
REMARK    5  A    between atoms: C8_11  and  O2_12 
ROOT
HETATM    1  C3  UNL     1      -9.987 -30.366   8.113  1.00  0.00     0.131 C 
HETATM    2  C4  UNL     1     -10.421 -31.481   7.199  1.00  0.00     0.035 C 
HETATM    3  C5  UNL     1     -10.711 -32.728   7.964  1.00  0.00     0.037 C 
HETATM    4  C6  UNL     1     -10.559 -32.634   9.443  1.00  0.00     0.149 C 
HETATM    5  C7  UNL     1     -10.618 -31.260  10.022  1.00  0.00     0.174 C 
HETATM    6  O3  UNL     1     -10.997 -30.281   9.087  1.00  0.00    -0.375 OA
ENDROOT
BRANCH   1   7
HETATM    7  C2  UNL     1      -9.755 -29.074   7.401  1.00  0.00     0.105 C 
BRANCH   7   8
HETATM    8  S1  UNL     1      -8.902 -29.301   5.830  1.00  0.00    -0.171 SA
HETATM    9  C1  UNL     1      -7.252 -30.011   6.057  1.00  0.00     0.089 C 
ENDBRANCH   7   8
ENDBRANCH   1   7
BRANCH   5  10
HETATM   10  C8  UNL     1     -11.442 -31.177  11.291  1.00  0.00     0.198 C 
BRANCH  10  11
HETATM   11  O2  UNL     1     -12.282 -30.064  11.122  1.00  0.00    -0.398 OA
ATOM     12  H2  UNL     1     -11.799 -29.462  10.568  1.00  0.00     0.209 HD
ENDBRANCH  10  11
ENDBRANCH   5  10
BRANCH   4  13
HETATM   13  O1  UNL     1     -11.514 -33.497  10.007  1.00  0.00    -0.393 OA
ATOM     14  H1  UNL     1     -12.122 -32.954  10.495  1.00  0.00     0.210 HD
ENDBRANCH   4  13
TORSDOF 5
ENDMDL
