MODEL 1
REMARK VINA RESULT: -7.617468302      0.000      0.000
REMARK  8 active torsions:
REMARK  status: ('A' for Active; 'I' for Inactive)
REMARK    1  A    between atoms: N1_1  and  C1_4 
REMARK    2  A    between atoms: N3_8  and  C3_10 
REMARK    3  A    between atoms: C3_10  and  C4_11 
REMARK    4  A    between atoms: C4_11  and  C5_12 
REMARK    5  A    between atoms: C5_12  and  C6_13 
REMARK    6  A    between atoms: C6_13  and  C7_14 
REMARK    7  A    between atoms: C7_14  and  C8_15 
REMARK    8  A    between atoms: C8_15  and  N4_16 
ROOT
HETATM    1  C1  UNL     1     -34.326  19.234  38.109  1.00  0.00     0.157 A 
HETATM    2  N2  UNL     1     -33.211  19.362  37.323  1.00  0.00    -0.173 N 
ATOM      3  H2  UNL     1     -32.513  18.619  37.284  1.00  0.00     0.186 HD
HETATM    4  C2  UNL     1     -33.061  20.475  36.612  1.00  0.00     0.694 A 
HETATM    5  N3  UNL     1     -32.055  20.660  35.865  1.00  0.00    -0.225 N 
ATOM      6  H3  UNL     1     -31.989  21.534  35.343  1.00  0.00     0.177 HD
HETATM    7  N5  UNL     1     -33.987  21.446  36.671  1.00  0.00    -0.131 N 
ATOM      8  H5  UNL     1     -33.850  22.291  36.116  1.00  0.00     0.205 HD
HETATM    9  N6  UNL     1     -35.075  21.346  37.426  1.00  0.00    -0.270 N 
ATOM     10  H6  UNL     1     -35.758  22.103  37.448  1.00  0.00     0.189 HD
HETATM   11  C9  UNL     1     -35.269  20.232  38.164  1.00  0.00     0.175 A 
HETATM   12  N7  UNL     1     -36.418  20.063  38.995  1.00  0.00    -0.077 NA
ENDROOT
BRANCH   5  13
HETATM   13  C3  UNL     1     -31.005  19.694  35.724  1.00  0.00     0.138 C 
BRANCH  13  14
HETATM   14  C4  UNL     1     -29.880  20.330  34.934  1.00  0.00     0.020 C 
BRANCH  14  15
HETATM   15  C5  UNL     1     -28.590  20.054  35.678  1.00  0.00     0.002 C 
BRANCH  15  16
HETATM   16  C6  UNL     1     -28.693  18.660  36.258  1.00  0.00     0.002 C 
BRANCH  16  17
HETATM   17  C7  UNL     1     -27.628  18.419  37.308  1.00  0.00     0.027 C 
BRANCH  17  18
HETATM   18  C8  UNL     1     -27.267  19.758  37.915  1.00  0.00     0.229 C 
BRANCH  18  19
HETATM   19  N4  UNL     1     -27.052  19.661  39.329  1.00  0.00    -0.079 N 
ATOM     20  H43 UNL     1     -27.121  20.574  39.778  1.00  0.00     0.274 HD
ATOM     21  H42 UNL     1     -27.832  19.195  39.792  1.00  0.00     0.274 HD
ATOM     22  H41 UNL     1     -26.166  19.206  39.547  1.00  0.00     0.274 HD
ENDBRANCH  18  19
ENDBRANCH  17  18
ENDBRANCH  16  17
ENDBRANCH  15  16
ENDBRANCH  14  15
ENDBRANCH  13  14
ENDBRANCH   5  13
BRANCH   1  23
HETATM   23  N1  UNL     1     -34.470  18.151  38.799  1.00  0.00    -0.382 N 
ATOM     24  H12 UNL     1     -33.958  17.305  38.552  1.00  0.00     0.157 HD
ATOM     25  H11 UNL     1     -35.108  18.165  39.595  1.00  0.00     0.157 HD
ENDBRANCH   1  23
TORSDOF 8
ENDMDL
MODEL 2
REMARK VINA RESULT: -7.573632269      2.273      2.731
REMARK  8 active torsions:
REMARK  status: ('A' for Active; 'I' for Inactive)
REMARK    1  A    between atoms: N1_1  and  C1_4 
REMARK    2  A    between atoms: N3_8  and  C3_10 
REMARK    3  A    between atoms: C3_10  and  C4_11 
REMARK    4  A    between atoms: C4_11  and  C5_12 
REMARK    5  A    between atoms: C5_12  and  C6_13 
REMARK    6  A    between atoms: C6_13  and  C7_14 
REMARK    7  A    between atoms: C7_14  and  C8_15 
REMARK    8  A    between atoms: C8_15  and  N4_16 
ROOT
HETATM    1  C1  UNL     1     -33.710  19.788  38.339  1.00  0.00     0.157 A 
HETATM    2  N2  UNL     1     -32.747  19.404  37.445  1.00  0.00    -0.173 N 
ATOM      3  H2  UNL     1     -32.131  18.616  37.648  1.00  0.00     0.186 HD
HETATM    4  C2  UNL     1     -32.633  20.080  36.306  1.00  0.00     0.694 A 
HETATM    5  N3  UNL     1     -31.764  19.780  35.435  1.00  0.00    -0.225 N 
ATOM      6  H3  UNL     1     -31.719  20.334  34.579  1.00  0.00     0.177 HD
HETATM    7  N5  UNL     1     -33.448  21.116  36.050  1.00  0.00    -0.131 N 
ATOM      8  H5  UNL     1     -33.342  21.620  35.169  1.00  0.00     0.205 HD
HETATM    9  N6  UNL     1     -34.389  21.508  36.902  1.00  0.00    -0.270 N 
ATOM     10  H6  UNL     1     -34.991  22.300  36.676  1.00  0.00     0.189 HD
HETATM   11  C9  UNL     1     -34.541  20.849  38.070  1.00  0.00     0.175 A 
HETATM   12  N7  UNL     1     -35.533  21.220  39.028  1.00  0.00    -0.077 NA
ENDROOT
BRANCH   5  13
HETATM   13  C3  UNL     1     -30.842  18.696  35.600  1.00  0.00     0.138 C 
BRANCH  13  14
HETATM   14  C4  UNL     1     -29.494  19.274  35.976  1.00  0.00     0.020 C 
BRANCH  14  15
HETATM   15  C5  UNL     1     -28.615  18.125  36.424  1.00  0.00     0.002 C 
BRANCH  15  16
HETATM   16  C6  UNL     1     -28.944  16.936  35.547  1.00  0.00     0.002 C 
BRANCH  16  17
HETATM   17  C7  UNL     1     -27.950  15.810  35.747  1.00  0.00     0.027 C 
BRANCH  17  18
HETATM   18  C8  UNL     1     -28.420  14.628  34.926  1.00  0.00     0.229 C 
BRANCH  18  19
HETATM   19  N4  UNL     1     -29.817  14.369  35.119  1.00  0.00    -0.079 N 
ATOM     20  H43 UNL     1     -29.966  13.649  35.826  1.00  0.00     0.274 HD
ATOM     21  H42 UNL     1     -30.279  15.149  35.584  1.00  0.00     0.274 HD
ATOM     22  H41 UNL     1     -30.282  14.131  34.243  1.00  0.00     0.274 HD
ENDBRANCH  18  19
ENDBRANCH  17  18
ENDBRANCH  16  17
ENDBRANCH  15  16
ENDBRANCH  14  15
ENDBRANCH  13  14
ENDBRANCH   5  13
BRANCH   1  23
HETATM   23  N1  UNL     1     -33.819  19.128  39.446  1.00  0.00    -0.382 N 
ATOM     24  H12 UNL     1     -33.100  19.197  40.165  1.00  0.00     0.157 HD
ATOM     25  H11 UNL     1     -34.641  18.540  39.579  1.00  0.00     0.157 HD
ENDBRANCH   1  23
TORSDOF 8
ENDMDL
MODEL 3
REMARK VINA RESULT: -7.492847884      1.274      1.437
REMARK  8 active torsions:
REMARK  status: ('A' for Active; 'I' for Inactive)
REMARK    1  A    between atoms: N1_1  and  C1_4 
REMARK    2  A    between atoms: N3_8  and  C3_10 
REMARK    3  A    between atoms: C3_10  and  C4_11 
REMARK    4  A    between atoms: C4_11  and  C5_12 
REMARK    5  A    between atoms: C5_12  and  C6_13 
REMARK    6  A    between atoms: C6_13  and  C7_14 
REMARK    7  A    between atoms: C7_14  and  C8_15 
REMARK    8  A    between atoms: C8_15  and  N4_16 
ROOT
HETATM    1  C1  UNL     1     -34.306  19.249  38.137  1.00  0.00     0.157 A 
HETATM    2  N2  UNL     1     -33.172  19.347  37.375  1.00  0.00    -0.173 N 
ATOM      3  H2  UNL     1     -32.478  18.599  37.375  1.00  0.00     0.186 HD
HETATM    4  C2  UNL     1     -32.996  20.439  36.637  1.00  0.00     0.694 A 
HETATM    5  N3  UNL     1     -31.970  20.595  35.910  1.00  0.00    -0.225 N 
ATOM      6  H3  UNL     1     -31.885  21.453  35.365  1.00  0.00     0.177 HD
HETATM    7  N5  UNL     1     -33.916  21.417  36.646  1.00  0.00    -0.131 N 
ATOM      8  H5  UNL     1     -33.758  22.245  36.071  1.00  0.00     0.205 HD
HETATM    9  N6  UNL     1     -35.023  21.345  37.377  1.00  0.00    -0.270 N 
ATOM     10  H6  UNL     1     -35.700  22.108  37.360  1.00  0.00     0.189 HD
HETATM   11  C9  UNL     1     -35.242  20.255  38.141  1.00  0.00     0.175 A 
HETATM   12  N7  UNL     1     -36.413  20.116  38.948  1.00  0.00    -0.077 NA
ENDROOT
BRANCH   5  13
HETATM   13  C3  UNL     1     -30.925  19.619  35.821  1.00  0.00     0.138 C 
BRANCH  13  14
HETATM   14  C4  UNL     1     -29.827  20.180  34.943  1.00  0.00     0.020 C 
BRANCH  14  15
HETATM   15  C5  UNL     1     -28.520  20.026  35.693  1.00  0.00     0.002 C 
BRANCH  15  16
HETATM   16  C6  UNL     1     -28.745  19.002  36.785  1.00  0.00     0.002 C 
BRANCH  16  17
HETATM   17  C7  UNL     1     -27.452  18.311  37.168  1.00  0.00     0.027 C 
BRANCH  17  18
HETATM   18  C8  UNL     1     -27.466  16.930  36.547  1.00  0.00     0.229 C 
BRANCH  18  19
HETATM   19  N4  UNL     1     -26.369  16.743  35.642  1.00  0.00    -0.079 N 
ATOM     20  H43 UNL     1     -25.474  16.900  36.107  1.00  0.00     0.274 HD
ATOM     21  H42 UNL     1     -26.252  15.760  35.399  1.00  0.00     0.274 HD
ATOM     22  H41 UNL     1     -26.462  17.324  34.809  1.00  0.00     0.274 HD
ENDBRANCH  18  19
ENDBRANCH  17  18
ENDBRANCH  16  17
ENDBRANCH  15  16
ENDBRANCH  14  15
ENDBRANCH  13  14
ENDBRANCH   5  13
BRANCH   1  23
HETATM   23  N1  UNL     1     -34.475  18.187  38.853  1.00  0.00    -0.382 N 
ATOM     24  H12 UNL     1     -33.898  17.360  38.703  1.00  0.00     0.157 HD
ATOM     25  H11 UNL     1     -35.199  18.197  39.572  1.00  0.00     0.157 HD
ENDBRANCH   1  23
TORSDOF 8
ENDMDL
MODEL 4
REMARK VINA RESULT: -7.418751390      1.463      1.504
REMARK  8 active torsions:
REMARK  status: ('A' for Active; 'I' for Inactive)
REMARK    1  A    between atoms: N1_1  and  C1_4 
REMARK    2  A    between atoms: N3_8  and  C3_10 
REMARK    3  A    between atoms: C3_10  and  C4_11 
REMARK    4  A    between atoms: C4_11  and  C5_12 
REMARK    5  A    between atoms: C5_12  and  C6_13 
REMARK    6  A    between atoms: C6_13  and  C7_14 
REMARK    7  A    between atoms: C7_14  and  C8_15 
REMARK    8  A    between atoms: C8_15  and  N4_16 
ROOT
HETATM    1  C1  UNL     1     -33.710  19.699  38.199  1.00  0.00     0.157 A 
HETATM    2  N2  UNL     1     -32.733  19.538  37.253  1.00  0.00    -0.173 N 
ATOM      3  H2  UNL     1     -32.052  18.782  37.331  1.00  0.00     0.186 HD
HETATM    4  C2  UNL     1     -32.692  20.388  36.232  1.00  0.00     0.694 A 
HETATM    5  N3  UNL     1     -31.815  20.298  35.323  1.00  0.00    -0.225 N 
ATOM      6  H3  UNL     1     -31.829  20.979  34.563  1.00  0.00     0.177 HD
HETATM    7  N5  UNL     1     -33.594  21.379  36.141  1.00  0.00    -0.131 N 
ATOM      8  H5  UNL     1     -33.542  22.019  35.348  1.00  0.00     0.205 HD
HETATM    9  N6  UNL     1     -34.550  21.556  37.045  1.00  0.00    -0.270 N 
ATOM     10  H6  UNL     1     -35.219  22.320  36.945  1.00  0.00     0.189 HD
HETATM   11  C9  UNL     1     -34.629  20.715  38.098  1.00  0.00     0.175 A 
HETATM   12  N7  UNL     1     -35.634  20.851  39.104  1.00  0.00    -0.077 NA
ENDROOT
BRANCH   5  13
HETATM   13  C3  UNL     1     -30.805  19.282  35.316  1.00  0.00     0.138 C 
BRANCH  13  14
HETATM   14  C4  UNL     1     -29.460  19.950  35.516  1.00  0.00     0.020 C 
BRANCH  14  15
HETATM   15  C5  UNL     1     -28.763  19.237  36.656  1.00  0.00     0.002 C 
BRANCH  15  16
HETATM   16  C6  UNL     1     -28.627  17.782  36.262  1.00  0.00     0.002 C 
BRANCH  16  17
HETATM   17  C7  UNL     1     -27.282  17.221  36.679  1.00  0.00     0.027 C 
BRANCH  17  18
HETATM   18  C8  UNL     1     -26.262  18.333  36.561  1.00  0.00     0.229 C 
BRANCH  18  19
HETATM   19  N4  UNL     1     -25.568  18.287  35.306  1.00  0.00    -0.079 N 
ATOM     20  H43 UNL     1     -24.744  18.888  35.316  1.00  0.00     0.274 HD
ATOM     21  H42 UNL     1     -25.109  17.387  35.169  1.00  0.00     0.274 HD
ATOM     22  H41 UNL     1     -26.183  18.514  34.525  1.00  0.00     0.274 HD
ENDBRANCH  18  19
ENDBRANCH  17  18
ENDBRANCH  16  17
ENDBRANCH  15  16
ENDBRANCH  14  15
ENDBRANCH  13  14
ENDBRANCH   5  13
BRANCH   1  23
HETATM   23  N1  UNL     1     -33.748  18.870  39.190  1.00  0.00    -0.382 N 
ATOM     24  H12 UNL     1     -34.056  17.908  39.053  1.00  0.00     0.157 HD
ATOM     25  H11 UNL     1     -33.464  19.204  40.111  1.00  0.00     0.157 HD
ENDBRANCH   1  23
TORSDOF 8
ENDMDL
MODEL 5
REMARK VINA RESULT: -7.381575497      1.033      1.997
REMARK  8 active torsions:
REMARK  status: ('A' for Active; 'I' for Inactive)
REMARK    1  A    between atoms: N1_1  and  C1_4 
REMARK    2  A    between atoms: N3_8  and  C3_10 
REMARK    3  A    between atoms: C3_10  and  C4_11 
REMARK    4  A    between atoms: C4_11  and  C5_12 
REMARK    5  A    between atoms: C5_12  and  C6_13 
REMARK    6  A    between atoms: C6_13  and  C7_14 
REMARK    7  A    between atoms: C7_14  and  C8_15 
REMARK    8  A    between atoms: C8_15  and  N4_16 
ROOT
HETATM    1  C1  UNL     1     -35.262  20.549  38.026  1.00  0.00     0.157 A 
HETATM    2  N2  UNL     1     -34.292  20.919  37.133  1.00  0.00    -0.173 N 
ATOM      3  H2  UNL     1     -34.367  21.795  36.615  1.00  0.00     0.186 HD
HETATM    4  C2  UNL     1     -33.251  20.111  36.957  1.00  0.00     0.694 A 
HETATM    5  N3  UNL     1     -32.318  20.391  36.147  1.00  0.00    -0.225 N 
ATOM      6  H3  UNL     1     -31.543  19.734  36.049  1.00  0.00     0.177 HD
HETATM    7  N5  UNL     1     -33.163  18.961  37.644  1.00  0.00    -0.131 N 
ATOM      8  H5  UNL     1     -32.355  18.358  37.492  1.00  0.00     0.205 HD
HETATM    9  N6  UNL     1     -34.091  18.581  38.515  1.00  0.00    -0.270 N 
ATOM     10  H6  UNL     1     -33.993  17.700  39.020  1.00  0.00     0.189 HD
HETATM   11  C9  UNL     1     -35.165  19.371  38.726  1.00  0.00     0.175 A 
HETATM   12  N7  UNL     1     -36.197  19.019  39.649  1.00  0.00    -0.077 NA
ENDROOT
BRANCH   5  13
HETATM   13  C3  UNL     1     -32.306  21.589  35.361  1.00  0.00     0.138 C 
BRANCH  13  14
HETATM   14  C4  UNL     1     -31.048  21.589  34.518  1.00  0.00     0.020 C 
BRANCH  14  15
HETATM   15  C5  UNL     1     -30.413  20.220  34.647  1.00  0.00     0.002 C 
BRANCH  15  16
HETATM   16  C6  UNL     1     -28.995  20.425  35.136  1.00  0.00     0.002 C 
BRANCH  16  17
HETATM   17  C7  UNL     1     -28.657  19.473  36.265  1.00  0.00     0.027 C 
BRANCH  17  18
HETATM   18  C8  UNL     1     -27.393  19.976  36.930  1.00  0.00     0.229 C 
BRANCH  18  19
HETATM   19  N4  UNL     1     -27.185  19.362  38.209  1.00  0.00    -0.079 N 
ATOM     20  H43 UNL     1     -26.952  18.374  38.112  1.00  0.00     0.274 HD
ATOM     21  H42 UNL     1     -26.320  19.688  38.641  1.00  0.00     0.274 HD
ATOM     22  H41 UNL     1     -27.983  19.496  38.828  1.00  0.00     0.274 HD
ENDBRANCH  18  19
ENDBRANCH  17  18
ENDBRANCH  16  17
ENDBRANCH  15  16
ENDBRANCH  14  15
ENDBRANCH  13  14
ENDBRANCH   5  13
BRANCH   1  23
HETATM   23  N1  UNL     1     -36.273  21.336  38.196  1.00  0.00    -0.382 N 
ATOM     24  H12 UNL     1     -36.956  21.155  38.932  1.00  0.00     0.157 HD
ATOM     25  H11 UNL     1     -36.371  22.141  37.576  1.00  0.00     0.157 HD
ENDBRANCH   1  23
TORSDOF 8
ENDMDL
