MODEL 1
REMARK VINA RESULT: -7.440341858      0.000      0.000
REMARK  10 active torsions:
REMARK  status: ('A' for Active; 'I' for Inactive)
REMARK    1  A    between atoms: C3_5  and  N2_6 
REMARK    2  A    between atoms: C4_11  and  C5_12 
REMARK    3  A    between atoms: C5_12  and  C6_13 
REMARK    4  A    between atoms: C6_13  and  C7_14 
REMARK    5  A    between atoms: C7_14  and  C8_15 
REMARK    6  A    between atoms: C8_15  and  C9_16 
REMARK    7  A    between atoms: C9_16  and  C10_17 
REMARK    8  A    between atoms: C10_17  and  N4_18 
REMARK    9  A    between atoms: N5_22  and  N6_23 
REMARK   10  A    between atoms: N6_23  and  N7_25 
ROOT
HETATM    1  C1  UNL     1     -33.399  21.674  35.636  1.00  0.00     0.092 C 
HETATM    2  C2  UNL     1     -32.033  21.307  35.136  1.00  0.00     0.118 A 
HETATM    3  N1  UNL     1     -31.445  22.099  34.222  1.00  0.00    -0.179 N 
ATOM      4  H1  UNL     1     -31.907  22.938  33.872  1.00  0.00     0.185 HD
HETATM    5  C3  UNL     1     -30.230  21.740  33.790  1.00  0.00     0.678 A 
HETATM    6  N3  UNL     1     -29.611  20.639  34.241  1.00  0.00    -0.179 N 
ATOM      7  H3  UNL     1     -28.685  20.402  33.883  1.00  0.00     0.185 HD
HETATM    8  C4  UNL     1     -30.201  19.831  35.170  1.00  0.00     0.122 A 
HETATM    9  N5  UNL     1     -31.417  20.182  35.607  1.00  0.00    -0.217 N 
ENDROOT
BRANCH   8  10
HETATM   10  C5  UNL     1     -29.526  18.620  35.627  1.00  0.00     0.079 C 
BRANCH  10  11
HETATM   11  C6  UNL     1     -28.501  18.833  36.716  1.00  0.00     0.007 C 
BRANCH  11  12
HETATM   12  C7  UNL     1     -27.598  17.624  36.800  1.00  0.00     0.000 C 
BRANCH  12  13
HETATM   13  C8  UNL     1     -27.435  16.873  35.530  1.00  0.00     0.002 C 
BRANCH  13  14
HETATM   14  C9  UNL     1     -27.677  15.396  35.726  1.00  0.00     0.027 C 
BRANCH  14  15
HETATM   15  C10 UNL     1     -28.581  14.847  34.616  1.00  0.00     0.229 C 
BRANCH  15  16
HETATM   16  N4  UNL     1     -29.812  14.331  35.140  1.00  0.00    -0.079 N 
ATOM     17  H43 UNL     1     -29.658  13.479  35.678  1.00  0.00     0.274 HD
ATOM     18  H42 UNL     1     -30.177  14.926  35.884  1.00  0.00     0.274 HD
ATOM     19  H41 UNL     1     -30.505  14.187  34.406  1.00  0.00     0.274 HD
ENDBRANCH  15  16
ENDBRANCH  14  15
ENDBRANCH  13  14
ENDBRANCH  12  13
ENDBRANCH  11  12
ENDBRANCH  10  11
ENDBRANCH   8  10
BRANCH   9  20
HETATM   20  N6  UNL     1     -32.055  19.351  36.530  1.00  0.00    -0.240 N 
ATOM     21  H6  UNL     1     -32.256  18.379  36.297  1.00  0.00     0.208 HD
BRANCH  20  22
HETATM   22  N7  UNL     1     -32.413  19.864  37.772  1.00  0.00    -0.330 N 
ATOM     23  H72 UNL     1     -32.777  19.234  38.487  1.00  0.00     0.178 HD
ATOM     24  H71 UNL     1     -32.306  20.862  37.949  1.00  0.00     0.178 HD
ENDBRANCH  20  22
ENDBRANCH   9  20
BRANCH   5  25
HETATM   25  N2  UNL     1     -29.609  22.467  32.905  1.00  0.00    -0.234 N 
ATOM     26  H22 UNL     1     -29.555  23.473  33.068  1.00  0.00     0.174 HD
ATOM     27  H21 UNL     1     -29.194  22.030  32.082  1.00  0.00     0.174 HD
ENDBRANCH   5  25
TORSDOF 10
ENDMDL
MODEL 2
REMARK VINA RESULT: -7.373739229      1.184      2.781
REMARK  10 active torsions:
REMARK  status: ('A' for Active; 'I' for Inactive)
REMARK    1  A    between atoms: C3_5  and  N2_6 
REMARK    2  A    between atoms: C4_11  and  C5_12 
REMARK    3  A    between atoms: C5_12  and  C6_13 
REMARK    4  A    between atoms: C6_13  and  C7_14 
REMARK    5  A    between atoms: C7_14  and  C8_15 
REMARK    6  A    between atoms: C8_15  and  C9_16 
REMARK    7  A    between atoms: C9_16  and  C10_17 
REMARK    8  A    between atoms: C10_17  and  N4_18 
REMARK    9  A    between atoms: N5_22  and  N6_23 
REMARK   10  A    between atoms: N6_23  and  N7_25 
ROOT
HETATM    1  C1  UNL     1     -30.154  22.098  33.137  1.00  0.00     0.092 C 
HETATM    2  C2  UNL     1     -30.601  21.220  34.268  1.00  0.00     0.118 A 
HETATM    3  N1  UNL     1     -31.896  21.238  34.627  1.00  0.00    -0.179 N 
ATOM      4  H1  UNL     1     -32.573  21.828  34.143  1.00  0.00     0.185 HD
HETATM    5  C3  UNL     1     -32.262  20.449  35.645  1.00  0.00     0.678 A 
HETATM    6  N3  UNL     1     -31.384  19.668  36.291  1.00  0.00    -0.179 N 
ATOM      7  H3  UNL     1     -31.705  19.084  37.063  1.00  0.00     0.185 HD
HETATM    8  C4  UNL     1     -30.067  19.644  35.931  1.00  0.00     0.122 A 
HETATM    9  N5  UNL     1     -29.692  20.431  34.915  1.00  0.00    -0.217 N 
ENDROOT
BRANCH   8  10
HETATM   10  C5  UNL     1     -29.118  18.811  36.665  1.00  0.00     0.079 C 
BRANCH  10  11
HETATM   11  C6  UNL     1     -28.911  17.427  36.096  1.00  0.00     0.007 C 
BRANCH  11  12
HETATM   12  C7  UNL     1     -27.527  16.938  36.455  1.00  0.00     0.000 C 
BRANCH  12  13
HETATM   13  C8  UNL     1     -27.058  15.762  35.680  1.00  0.00     0.002 C 
BRANCH  13  14
HETATM   14  C9  UNL     1     -27.903  15.537  34.449  1.00  0.00     0.027 C 
BRANCH  14  15
HETATM   15  C10 UNL     1     -28.453  14.106  34.429  1.00  0.00     0.229 C 
BRANCH  15  16
HETATM   16  N4  UNL     1     -29.758  14.030  35.018  1.00  0.00    -0.079 N 
ATOM     17  H43 UNL     1     -29.706  14.023  36.036  1.00  0.00     0.274 HD
ATOM     18  H42 UNL     1     -30.274  14.900  34.890  1.00  0.00     0.274 HD
ATOM     19  H41 UNL     1     -30.285  13.231  34.667  1.00  0.00     0.274 HD
ENDBRANCH  15  16
ENDBRANCH  14  15
ENDBRANCH  13  14
ENDBRANCH  12  13
ENDBRANCH  11  12
ENDBRANCH  10  11
ENDBRANCH   8  10
BRANCH   9  20
HETATM   20  N6  UNL     1     -28.343  20.449  34.553  1.00  0.00    -0.240 N 
ATOM     21  H6  UNL     1     -28.014  19.895  33.763  1.00  0.00     0.208 HD
BRANCH  20  22
HETATM   22  N7  UNL     1     -27.455  21.232  35.281  1.00  0.00    -0.330 N 
ATOM     23  H72 UNL     1     -26.572  21.514  34.856  1.00  0.00     0.178 HD
ATOM     24  H71 UNL     1     -27.700  21.512  36.231  1.00  0.00     0.178 HD
ENDBRANCH  20  22
ENDBRANCH   9  20
BRANCH   5  25
HETATM   25  N2  UNL     1     -33.504  20.422  36.039  1.00  0.00    -0.234 N 
ATOM     26  H22 UNL     1     -33.767  21.018  36.824  1.00  0.00     0.174 HD
ATOM     27  H21 UNL     1     -34.179  19.820  35.567  1.00  0.00     0.174 HD
ENDBRANCH   5  25
TORSDOF 10
ENDMDL
MODEL 3
REMARK VINA RESULT: -7.309802178      1.813      3.275
REMARK  10 active torsions:
REMARK  status: ('A' for Active; 'I' for Inactive)
REMARK    1  A    between atoms: C3_5  and  N2_6 
REMARK    2  A    between atoms: C4_11  and  C5_12 
REMARK    3  A    between atoms: C5_12  and  C6_13 
REMARK    4  A    between atoms: C6_13  and  C7_14 
REMARK    5  A    between atoms: C7_14  and  C8_15 
REMARK    6  A    between atoms: C8_15  and  C9_16 
REMARK    7  A    between atoms: C9_16  and  C10_17 
REMARK    8  A    between atoms: C10_17  and  N4_18 
REMARK    9  A    between atoms: N5_22  and  N6_23 
REMARK   10  A    between atoms: N6_23  and  N7_25 
ROOT
HETATM    1  C1  UNL     1     -30.121  22.362  33.314  1.00  0.00     0.092 C 
HETATM    2  C2  UNL     1     -30.855  21.465  34.267  1.00  0.00     0.118 A 
HETATM    3  N1  UNL     1     -32.008  21.900  34.806  1.00  0.00    -0.179 N 
ATOM      4  H1  UNL     1     -32.389  22.817  34.572  1.00  0.00     0.185 HD
HETATM    5  C3  UNL     1     -32.634  21.081  35.659  1.00  0.00     0.678 A 
HETATM    6  N3  UNL     1     -32.144  19.873  35.976  1.00  0.00    -0.179 N 
ATOM      7  H3  UNL     1     -32.653  19.281  36.633  1.00  0.00     0.185 HD
HETATM    8  C4  UNL     1     -30.974  19.425  35.433  1.00  0.00     0.122 A 
HETATM    9  N5  UNL     1     -30.341  20.239  34.578  1.00  0.00    -0.217 N 
ENDROOT
BRANCH   8  10
HETATM   10  C5  UNL     1     -30.439  18.120  35.811  1.00  0.00     0.079 C 
BRANCH  10  11
HETATM   11  C6  UNL     1     -30.716  17.007  34.829  1.00  0.00     0.007 C 
BRANCH  11  12
HETATM   12  C7  UNL     1     -29.721  15.889  35.041  1.00  0.00     0.000 C 
BRANCH  12  13
HETATM   13  C8  UNL     1     -28.309  16.245  34.754  1.00  0.00     0.002 C 
BRANCH  13  14
HETATM   14  C9  UNL     1     -27.408  15.918  35.921  1.00  0.00     0.027 C 
BRANCH  14  15
HETATM   15  C10 UNL     1     -27.090  17.184  36.725  1.00  0.00     0.229 C 
BRANCH  15  16
HETATM   16  N4  UNL     1     -25.957  17.881  36.191  1.00  0.00    -0.079 N 
ATOM     17  H43 UNL     1     -26.244  18.666  35.606  1.00  0.00     0.274 HD
ATOM     18  H42 UNL     1     -25.462  18.398  36.918  1.00  0.00     0.274 HD
ATOM     19  H41 UNL     1     -25.329  17.254  35.689  1.00  0.00     0.274 HD
ENDBRANCH  15  16
ENDBRANCH  14  15
ENDBRANCH  13  14
ENDBRANCH  12  13
ENDBRANCH  11  12
ENDBRANCH  10  11
ENDBRANCH   8  10
BRANCH   9  20
HETATM   20  N6  UNL     1     -29.124  19.815  34.038  1.00  0.00    -0.240 N 
ATOM     21  H6  UNL     1     -29.104  19.279  33.171  1.00  0.00     0.208 HD
BRANCH  20  22
HETATM   22  N7  UNL     1     -27.942  20.133  34.696  1.00  0.00    -0.330 N 
ATOM     23  H72 UNL     1     -27.956  20.290  35.703  1.00  0.00     0.178 HD
ATOM     24  H71 UNL     1     -27.077  20.203  34.160  1.00  0.00     0.178 HD
ENDBRANCH  20  22
ENDBRANCH   9  20
BRANCH   5  25
HETATM   25  N2  UNL     1     -33.756  21.445  36.213  1.00  0.00    -0.234 N 
ATOM     26  H22 UNL     1     -34.600  20.930  35.962  1.00  0.00     0.174 HD
ATOM     27  H21 UNL     1     -33.773  22.222  36.874  1.00  0.00     0.174 HD
ENDBRANCH   5  25
TORSDOF 10
ENDMDL
MODEL 4
REMARK VINA RESULT: -7.299512506      1.709      3.083
REMARK  10 active torsions:
REMARK  status: ('A' for Active; 'I' for Inactive)
REMARK    1  A    between atoms: C3_5  and  N2_6 
REMARK    2  A    between atoms: C4_11  and  C5_12 
REMARK    3  A    between atoms: C5_12  and  C6_13 
REMARK    4  A    between atoms: C6_13  and  C7_14 
REMARK    5  A    between atoms: C7_14  and  C8_15 
REMARK    6  A    between atoms: C8_15  and  C9_16 
REMARK    7  A    between atoms: C9_16  and  C10_17 
REMARK    8  A    between atoms: C10_17  and  N4_18 
REMARK    9  A    between atoms: N5_22  and  N6_23 
REMARK   10  A    between atoms: N6_23  and  N7_25 
ROOT
HETATM    1  C1  UNL     1     -30.114  22.363  33.277  1.00  0.00     0.092 C 
HETATM    2  C2  UNL     1     -30.825  21.480  34.259  1.00  0.00     0.118 A 
HETATM    3  N1  UNL     1     -31.991  21.900  34.780  1.00  0.00    -0.179 N 
ATOM      4  H1  UNL     1     -32.398  22.797  34.515  1.00  0.00     0.185 HD
HETATM    5  C3  UNL     1     -32.597  21.093  35.660  1.00  0.00     0.678 A 
HETATM    6  N3  UNL     1     -32.074  19.911  36.019  1.00  0.00    -0.179 N 
ATOM      7  H3  UNL     1     -32.568  19.327  36.694  1.00  0.00     0.185 HD
HETATM    8  C4  UNL     1     -30.889  19.478  35.493  1.00  0.00     0.122 A 
HETATM    9  N5  UNL     1     -30.277  20.279  34.613  1.00  0.00    -0.217 N 
ENDROOT
BRANCH   8  10
HETATM   10  C5  UNL     1     -30.319  18.202  35.917  1.00  0.00     0.079 C 
BRANCH  10  11
HETATM   11  C6  UNL     1     -30.627  17.033  35.013  1.00  0.00     0.007 C 
BRANCH  11  12
HETATM   12  C7  UNL     1     -29.357  16.262  34.735  1.00  0.00     0.000 C 
BRANCH  12  13
HETATM   13  C8  UNL     1     -29.393  14.832  35.129  1.00  0.00     0.002 C 
BRANCH  13  14
HETATM   14  C9  UNL     1     -28.078  14.146  34.843  1.00  0.00     0.027 C 
BRANCH  14  15
HETATM   15  C10 UNL     1     -28.162  13.346  33.538  1.00  0.00     0.229 C 
BRANCH  15  16
HETATM   16  N4  UNL     1     -27.973  11.943  33.763  1.00  0.00    -0.079 N 
ATOM     17  H43 UNL     1     -28.449  11.634  34.611  1.00  0.00     0.274 HD
ATOM     18  H42 UNL     1     -28.486  11.385  33.081  1.00  0.00     0.274 HD
ATOM     19  H41 UNL     1     -26.985  11.692  33.780  1.00  0.00     0.274 HD
ENDBRANCH  15  16
ENDBRANCH  14  15
ENDBRANCH  13  14
ENDBRANCH  12  13
ENDBRANCH  11  12
ENDBRANCH  10  11
ENDBRANCH   8  10
BRANCH   9  20
HETATM   20  N6  UNL     1     -29.047  19.873  34.090  1.00  0.00    -0.240 N 
ATOM     21  H6  UNL     1     -29.004  19.383  33.196  1.00  0.00     0.208 HD
BRANCH  20  22
HETATM   22  N7  UNL     1     -27.884  20.142  34.801  1.00  0.00    -0.330 N 
ATOM     23  H72 UNL     1     -27.918  20.183  35.819  1.00  0.00     0.178 HD
ATOM     24  H71 UNL     1     -27.013  20.294  34.293  1.00  0.00     0.178 HD
ENDBRANCH  20  22
ENDBRANCH   9  20
BRANCH   5  25
HETATM   25  N2  UNL     1     -33.730  21.443  36.198  1.00  0.00    -0.234 N 
ATOM     26  H22 UNL     1     -34.050  20.923  37.016  1.00  0.00     0.174 HD
ATOM     27  H21 UNL     1     -34.268  22.215  35.804  1.00  0.00     0.174 HD
ENDBRANCH   5  25
TORSDOF 10
ENDMDL
MODEL 5
REMARK VINA RESULT: -7.242807523      2.432      6.005
REMARK  10 active torsions:
REMARK  status: ('A' for Active; 'I' for Inactive)
REMARK    1  A    between atoms: C3_5  and  N2_6 
REMARK    2  A    between atoms: C4_11  and  C5_12 
REMARK    3  A    between atoms: C5_12  and  C6_13 
REMARK    4  A    between atoms: C6_13  and  C7_14 
REMARK    5  A    between atoms: C7_14  and  C8_15 
REMARK    6  A    between atoms: C8_15  and  C9_16 
REMARK    7  A    between atoms: C9_16  and  C10_17 
REMARK    8  A    between atoms: C10_17  and  N4_18 
REMARK    9  A    between atoms: N5_22  and  N6_23 
REMARK   10  A    between atoms: N6_23  and  N7_25 
ROOT
HETATM    1  C1  UNL     1     -27.815  15.531  35.585  1.00  0.00     0.092 C 
HETATM    2  C2  UNL     1     -28.214  16.905  36.037  1.00  0.00     0.118 A 
HETATM    3  N1  UNL     1     -27.456  17.528  36.955  1.00  0.00    -0.179 N 
ATOM      4  H1  UNL     1     -26.620  17.089  37.340  1.00  0.00     0.185 HD
HETATM    5  C3  UNL     1     -27.843  18.750  37.344  1.00  0.00     0.678 A 
HETATM    6  N3  UNL     1     -28.941  19.340  36.848  1.00  0.00    -0.179 N 
ATOM      7  H3  UNL     1     -29.200  20.271  37.173  1.00  0.00     0.185 HD
HETATM    8  C4  UNL     1     -29.715  18.712  35.914  1.00  0.00     0.122 A 
HETATM    9  N5  UNL     1     -29.335  17.490  35.520  1.00  0.00    -0.217 N 
ENDROOT
BRANCH   8  10
HETATM   10  C5  UNL     1     -30.923  19.356  35.406  1.00  0.00     0.079 C 
BRANCH  10  11
HETATM   11  C6  UNL     1     -30.723  20.753  34.868  1.00  0.00     0.007 C 
BRANCH  11  12
HETATM   12  C7  UNL     1     -31.971  21.570  35.112  1.00  0.00     0.000 C 
BRANCH  12  13
HETATM   13  C8  UNL     1     -33.109  20.817  35.697  1.00  0.00     0.002 C 
BRANCH  13  14
HETATM   14  C9  UNL     1     -33.462  21.330  37.073  1.00  0.00     0.027 C 
BRANCH  14  15
HETATM   15  C10 UNL     1     -34.494  20.412  37.740  1.00  0.00     0.229 C 
BRANCH  15  16
HETATM   16  N4  UNL     1     -35.785  21.031  37.814  1.00  0.00    -0.079 N 
ATOM     17  H43 UNL     1     -35.714  22.004  38.114  1.00  0.00     0.274 HD
ATOM     18  H42 UNL     1     -36.180  21.179  36.886  1.00  0.00     0.274 HD
ATOM     19  H41 UNL     1     -36.423  20.504  38.410  1.00  0.00     0.274 HD
ENDBRANCH  15  16
ENDBRANCH  14  15
ENDBRANCH  13  14
ENDBRANCH  12  13
ENDBRANCH  11  12
ENDBRANCH  10  11
ENDBRANCH   8  10
BRANCH   9  20
HETATM   20  N6  UNL     1     -30.132  16.815  34.593  1.00  0.00    -0.240 N 
ATOM     21  H6  UNL     1     -29.950  16.907  33.593  1.00  0.00     0.208 HD
BRANCH  20  22
HETATM   22  N7  UNL     1     -31.175  16.016  35.047  1.00  0.00    -0.330 N 
ATOM     23  H72 UNL     1     -31.778  16.358  35.794  1.00  0.00     0.178 HD
ATOM     24  H71 UNL     1     -31.321  15.100  34.624  1.00  0.00     0.178 HD
ENDBRANCH  20  22
ENDBRANCH   9  20
BRANCH   5  25
HETATM   25  N2  UNL     1     -27.149  19.405  38.230  1.00  0.00    -0.234 N 
ATOM     26  H22 UNL     1     -26.215  19.721  37.965  1.00  0.00     0.174 HD
ATOM     27  H21 UNL     1     -27.540  19.589  39.154  1.00  0.00     0.174 HD
ENDBRANCH   5  25
TORSDOF 10
ENDMDL
