MODEL 1
REMARK VINA RESULT: -7.414065430      0.000      0.000
REMARK  8 active torsions:
REMARK  status: ('A' for Active; 'I' for Inactive)
REMARK    1  A    between atoms: N1_1  and  C1_5 
REMARK    2  A    between atoms: C1_5  and  C2_6 
REMARK    3  A    between atoms: C2_6  and  N2_7 
REMARK    4  A    between atoms: N2_7  and  C3_10 
REMARK    5  A    between atoms: C3_10  and  C4_11 
REMARK    6  A    between atoms: C4_11  and  C5_12 
REMARK    7  A    between atoms: C5_12  and  N3_13 
REMARK    8  A    between atoms: N3_13  and  C6_15 
ROOT
HETATM    1  N3  UNL     1     -30.833  19.564  35.298  1.00  0.00    -0.375 N 
ATOM      2  H3  UNL     1     -30.927  19.281  34.323  1.00  0.00     0.161 HD
ENDROOT
BRANCH   1   3
HETATM    3  C5  UNL     1     -29.557  19.377  35.903  1.00  0.00     0.123 C 
BRANCH   3   4
HETATM    4  C4  UNL     1     -29.219  17.906  35.859  1.00  0.00     0.047 C 
BRANCH   4   5
HETATM    5  C3  UNL     1     -27.969  17.589  36.649  1.00  0.00     0.234 C 
BRANCH   5   6
HETATM    6  N2  UNL     1     -27.516  16.253  36.312  1.00  0.00    -0.073 N 
ATOM      7  H22 UNL     1     -27.724  15.571  37.041  1.00  0.00     0.277 HD
ATOM      8  H21 UNL     1     -26.500  16.166  36.328  1.00  0.00     0.277 HD
BRANCH   6   9
HETATM    9  C2  UNL     1     -28.082  15.895  35.042  1.00  0.00     0.259 C 
BRANCH   9  10
HETATM   10  C1  UNL     1     -28.391  14.400  34.967  1.00  0.00     0.257 C 
BRANCH  10  11
HETATM   11  N1  UNL     1     -29.811  14.170  35.046  1.00  0.00    -0.078 N 
ATOM     12  H13 UNL     1     -30.151  14.230  36.006  1.00  0.00     0.274 HD
ATOM     13  H12 UNL     1     -30.342  14.944  34.646  1.00  0.00     0.274 HD
ATOM     14  H11 UNL     1     -30.055  13.280  34.612  1.00  0.00     0.274 HD
ENDBRANCH  10  11
ENDBRANCH   9  10
ENDBRANCH   6   9
ENDBRANCH   5   6
ENDBRANCH   4   5
ENDBRANCH   3   4
ENDBRANCH   1   3
BRANCH   1  15
HETATM   15  C6  UNL     1     -31.876  20.053  35.864  1.00  0.00     0.117 A 
HETATM   16  C7  UNL     1     -32.601  21.104  35.394  1.00  0.00     0.138 A 
HETATM   17  N4  UNL     1     -33.679  21.537  36.069  1.00  0.00    -0.347 N 
HETATM   18  C8  UNL     1     -34.091  20.972  37.218  1.00  0.00     0.124 A 
ATOM     19  H4  UNL     1     -34.207  22.326  35.695  1.00  0.00     0.167 HD
HETATM   20  C9  UNL     1     -33.363  19.909  37.701  1.00  0.00     0.056 A 
HETATM   21  N6  UNL     1     -35.189  21.245  38.107  1.00  0.00    -0.374 N 
HETATM   22  N5  UNL     1     -32.271  19.473  37.013  1.00  0.00    -0.342 N 
HETATM   23  C10 UNL     1     -34.016  19.477  38.961  1.00  0.00     0.080 C 
ATOM     24  H5  UNL     1     -31.737  18.685  37.378  1.00  0.00     0.167 HD
HETATM   25  C11 UNL     1     -35.432  19.975  38.778  1.00  0.00     0.127 C 
ATOM     26  H6  UNL     1     -35.685  22.127  38.237  1.00  0.00     0.161 HD
ENDBRANCH   1  15
TORSDOF 8
ENDMDL
MODEL 2
REMARK VINA RESULT: -7.373005096      2.188      2.763
REMARK  8 active torsions:
REMARK  status: ('A' for Active; 'I' for Inactive)
REMARK    1  A    between atoms: N1_1  and  C1_5 
REMARK    2  A    between atoms: C1_5  and  C2_6 
REMARK    3  A    between atoms: C2_6  and  N2_7 
REMARK    4  A    between atoms: N2_7  and  C3_10 
REMARK    5  A    between atoms: C3_10  and  C4_11 
REMARK    6  A    between atoms: C4_11  and  C5_12 
REMARK    7  A    between atoms: C5_12  and  N3_13 
REMARK    8  A    between atoms: N3_13  and  C6_15 
ROOT
HETATM    1  N3  UNL     1     -30.828  19.600  35.357  1.00  0.00    -0.375 N 
ATOM      2  H3  UNL     1     -30.304  18.906  35.890  1.00  0.00     0.161 HD
ENDROOT
BRANCH   1   3
HETATM    3  C5  UNL     1     -30.319  19.945  34.072  1.00  0.00     0.123 C 
BRANCH   3   4
HETATM    4  C4  UNL     1     -29.213  18.980  33.722  1.00  0.00     0.047 C 
BRANCH   4   5
HETATM    5  C3  UNL     1     -28.282  18.738  34.888  1.00  0.00     0.234 C 
BRANCH   5   6
HETATM    6  N2  UNL     1     -27.276  19.782  34.924  1.00  0.00    -0.073 N 
ATOM      7  H22 UNL     1     -27.398  20.472  34.183  1.00  0.00     0.277 HD
ATOM      8  H21 UNL     1     -26.353  19.448  34.650  1.00  0.00     0.277 HD
BRANCH   6   9
HETATM    9  C2  UNL     1     -27.287  20.369  36.234  1.00  0.00     0.259 C 
BRANCH   9  10
HETATM   10  C1  UNL     1     -27.864  19.410  37.274  1.00  0.00     0.257 C 
BRANCH  10  11
HETATM   11  N1  UNL     1     -27.179  19.553  38.533  1.00  0.00    -0.078 N 
ATOM     12  H13 UNL     1     -26.346  20.135  38.447  1.00  0.00     0.274 HD
ATOM     13  H12 UNL     1     -27.705  20.135  39.185  1.00  0.00     0.274 HD
ATOM     14  H11 UNL     1     -26.963  18.639  38.931  1.00  0.00     0.274 HD
ENDBRANCH  10  11
ENDBRANCH   9  10
ENDBRANCH   6   9
ENDBRANCH   5   6
ENDBRANCH   4   5
ENDBRANCH   3   4
ENDBRANCH   1   3
BRANCH   1  15
HETATM   15  C6  UNL     1     -31.883  20.079  35.908  1.00  0.00     0.117 A 
HETATM   16  C7  UNL     1     -32.606  21.129  35.433  1.00  0.00     0.138 A 
HETATM   17  N4  UNL     1     -33.699  21.551  36.092  1.00  0.00    -0.347 N 
HETATM   18  C8  UNL     1     -34.128  20.974  37.229  1.00  0.00     0.124 A 
ATOM     19  H4  UNL     1     -34.223  22.341  35.715  1.00  0.00     0.167 HD
HETATM   20  C9  UNL     1     -33.404  19.912  37.716  1.00  0.00     0.056 A 
HETATM   21  N6  UNL     1     -35.244  21.235  38.099  1.00  0.00    -0.374 N 
HETATM   22  N5  UNL     1     -32.296  19.488  37.044  1.00  0.00    -0.342 N 
HETATM   23  C10 UNL     1     -34.077  19.466  38.960  1.00  0.00     0.080 C 
ATOM     24  H5  UNL     1     -31.765  18.699  37.413  1.00  0.00     0.167 HD
HETATM   25  C11 UNL     1     -35.492  19.958  38.755  1.00  0.00     0.127 C 
ATOM     26  H6  UNL     1     -35.747  22.113  38.228  1.00  0.00     0.161 HD
ENDBRANCH   1  15
TORSDOF 8
ENDMDL
MODEL 3
REMARK VINA RESULT: -7.357053540      2.619      3.849
REMARK  8 active torsions:
REMARK  status: ('A' for Active; 'I' for Inactive)
REMARK    1  A    between atoms: N1_1  and  C1_5 
REMARK    2  A    between atoms: C1_5  and  C2_6 
REMARK    3  A    between atoms: C2_6  and  N2_7 
REMARK    4  A    between atoms: N2_7  and  C3_10 
REMARK    5  A    between atoms: C3_10  and  C4_11 
REMARK    6  A    between atoms: C4_11  and  C5_12 
REMARK    7  A    between atoms: C5_12  and  N3_13 
REMARK    8  A    between atoms: N3_13  and  C6_15 
ROOT
HETATM    1  N3  UNL     1     -31.801  19.716  37.105  1.00  0.00    -0.375 N 
ATOM      2  H3  UNL     1     -31.109  20.175  37.696  1.00  0.00     0.161 HD
ENDROOT
BRANCH   1   3
HETATM    3  C5  UNL     1     -31.308  18.956  36.006  1.00  0.00     0.123 C 
BRANCH   3   4
HETATM    4  C4  UNL     1     -29.800  18.963  36.060  1.00  0.00     0.047 C 
BRANCH   4   5
HETATM    5  C3  UNL     1     -29.210  20.112  35.275  1.00  0.00     0.234 C 
BRANCH   5   6
HETATM    6  N2  UNL     1     -29.217  19.783  33.862  1.00  0.00    -0.073 N 
ATOM      7  H22 UNL     1     -29.303  18.781  33.693  1.00  0.00     0.277 HD
ATOM      8  H21 UNL     1     -28.309  19.920  33.421  1.00  0.00     0.277 HD
BRANCH   6   9
HETATM    9  C2  UNL     1     -30.260  20.542  33.231  1.00  0.00     0.259 C 
BRANCH   9  10
HETATM   10  C1  UNL     1     -30.322  21.968  33.775  1.00  0.00     0.257 C 
BRANCH  10  11
HETATM   11  N1  UNL     1     -29.411  22.826  33.060  1.00  0.00    -0.078 N 
ATOM     12  H13 UNL     1     -28.565  23.012  33.599  1.00  0.00     0.274 HD
ATOM     13  H12 UNL     1     -28.985  22.347  32.266  1.00  0.00     0.274 HD
ATOM     14  H11 UNL     1     -29.877  23.688  32.776  1.00  0.00     0.274 HD
ENDBRANCH  10  11
ENDBRANCH   9  10
ENDBRANCH   6   9
ENDBRANCH   5   6
ENDBRANCH   4   5
ENDBRANCH   3   4
ENDBRANCH   1   3
BRANCH   1  15
HETATM   15  C6  UNL     1     -33.034  19.878  37.422  1.00  0.00     0.117 A 
HETATM   16  C7  UNL     1     -33.777  20.981  37.136  1.00  0.00     0.138 A 
HETATM   17  N4  UNL     1     -35.065  21.046  37.515  1.00  0.00    -0.347 N 
HETATM   18  C8  UNL     1     -35.675  20.051  38.183  1.00  0.00     0.124 A 
ATOM     19  H4  UNL     1     -35.601  21.884  37.288  1.00  0.00     0.167 HD
HETATM   20  C9  UNL     1     -34.931  18.932  38.476  1.00  0.00     0.056 A 
HETATM   21  N6  UNL     1     -37.013  19.884  38.686  1.00  0.00    -0.374 N 
HETATM   22  N5  UNL     1     -33.626  18.870  38.089  1.00  0.00    -0.342 N 
HETATM   23  C10 UNL     1     -35.826  17.999  39.206  1.00  0.00     0.080 C 
ATOM     24  H5  UNL     1     -33.082  18.037  38.311  1.00  0.00     0.167 HD
HETATM   25  C11 UNL     1     -37.197  18.440  38.745  1.00  0.00     0.127 C 
ATOM     26  H6  UNL     1     -37.681  20.611  38.943  1.00  0.00     0.161 HD
ENDBRANCH   1  15
TORSDOF 8
ENDMDL
MODEL 4
REMARK VINA RESULT: -7.283637904      2.016      2.210
REMARK  8 active torsions:
REMARK  status: ('A' for Active; 'I' for Inactive)
REMARK    1  A    between atoms: N1_1  and  C1_5 
REMARK    2  A    between atoms: C1_5  and  C2_6 
REMARK    3  A    between atoms: C2_6  and  N2_7 
REMARK    4  A    between atoms: N2_7  and  C3_10 
REMARK    5  A    between atoms: C3_10  and  C4_11 
REMARK    6  A    between atoms: C4_11  and  C5_12 
REMARK    7  A    between atoms: C5_12  and  N3_13 
REMARK    8  A    between atoms: N3_13  and  C6_15 
ROOT
HETATM    1  N3  UNL     1     -30.894  19.539  35.333  1.00  0.00    -0.375 N 
ATOM      2  H3  UNL     1     -31.052  18.779  34.671  1.00  0.00     0.161 HD
ENDROOT
BRANCH   1   3
HETATM    3  C5  UNL     1     -29.543  19.939  35.545  1.00  0.00     0.123 C 
BRANCH   3   4
HETATM    4  C4  UNL     1     -28.959  19.084  36.643  1.00  0.00     0.047 C 
BRANCH   4   5
HETATM    5  C3  UNL     1     -27.723  19.708  37.251  1.00  0.00     0.234 C 
BRANCH   5   6
HETATM    6  N2  UNL     1     -26.755  18.668  37.542  1.00  0.00    -0.073 N 
ATOM      7  H22 UNL     1     -27.042  18.069  38.316  1.00  0.00     0.277 HD
ATOM      8  H21 UNL     1     -25.900  19.033  37.961  1.00  0.00     0.277 HD
BRANCH   6   9
HETATM    9  C2  UNL     1     -26.509  17.933  36.334  1.00  0.00     0.259 C 
BRANCH   9  10
HETATM   10  C1  UNL     1     -25.774  18.785  35.299  1.00  0.00     0.257 C 
BRANCH  10  11
HETATM   11  N1  UNL     1     -26.450  18.735  34.028  1.00  0.00    -0.078 N 
ATOM     12  H13 UNL     1     -25.865  18.316  33.304  1.00  0.00     0.274 HD
ATOM     13  H12 UNL     1     -27.206  18.051  34.028  1.00  0.00     0.274 HD
ATOM     14  H11 UNL     1     -26.778  19.662  33.758  1.00  0.00     0.274 HD
ENDBRANCH  10  11
ENDBRANCH   9  10
ENDBRANCH   6   9
ENDBRANCH   5   6
ENDBRANCH   4   5
ENDBRANCH   3   4
ENDBRANCH   1   3
BRANCH   1  15
HETATM   15  C6  UNL     1     -31.930  20.044  35.896  1.00  0.00     0.117 A 
HETATM   16  C7  UNL     1     -32.634  21.110  35.428  1.00  0.00     0.138 A 
HETATM   17  N4  UNL     1     -33.708  21.559  36.100  1.00  0.00    -0.347 N 
HETATM   18  C8  UNL     1     -34.137  20.994  37.243  1.00  0.00     0.124 A 
ATOM     19  H4  UNL     1     -34.219  22.359  35.728  1.00  0.00     0.167 HD
HETATM   20  C9  UNL     1     -33.431  19.915  37.723  1.00  0.00     0.056 A 
HETATM   21  N6  UNL     1     -35.235  21.281  38.127  1.00  0.00    -0.374 N 
HETATM   22  N5  UNL     1     -32.343  19.464  37.039  1.00  0.00    -0.342 N 
HETATM   23  C10 UNL     1     -34.099  19.487  38.977  1.00  0.00     0.080 C 
ATOM     24  H5  UNL     1     -31.825  18.664  37.402  1.00  0.00     0.167 HD
HETATM   25  C11 UNL     1     -35.505  20.012  38.789  1.00  0.00     0.127 C 
ATOM     26  H6  UNL     1     -35.716  22.171  38.260  1.00  0.00     0.161 HD
ENDBRANCH   1  15
TORSDOF 8
ENDMDL
MODEL 5
REMARK VINA RESULT: -7.250127050      2.053      3.094
REMARK  8 active torsions:
REMARK  status: ('A' for Active; 'I' for Inactive)
REMARK    1  A    between atoms: N1_1  and  C1_5 
REMARK    2  A    between atoms: C1_5  and  C2_6 
REMARK    3  A    between atoms: C2_6  and  N2_7 
REMARK    4  A    between atoms: N2_7  and  C3_10 
REMARK    5  A    between atoms: C3_10  and  C4_11 
REMARK    6  A    between atoms: C4_11  and  C5_12 
REMARK    7  A    between atoms: C5_12  and  N3_13 
REMARK    8  A    between atoms: N3_13  and  C6_15 
ROOT
HETATM    1  N3  UNL     1     -31.920  19.792  36.976  1.00  0.00    -0.375 N 
ATOM      2  H3  UNL     1     -31.214  19.752  37.710  1.00  0.00     0.161 HD
ENDROOT
BRANCH   1   3
HETATM    3  C5  UNL     1     -31.459  19.690  35.632  1.00  0.00     0.123 C 
BRANCH   3   4
HETATM    4  C4  UNL     1     -30.437  18.581  35.560  1.00  0.00     0.047 C 
BRANCH   4   5
HETATM    5  C3  UNL     1     -29.112  18.993  36.161  1.00  0.00     0.234 C 
BRANCH   5   6
HETATM    6  N2  UNL     1     -28.385  17.809  36.577  1.00  0.00    -0.073 N 
ATOM      7  H22 UNL     1     -28.197  17.170  35.804  1.00  0.00     0.277 HD
ATOM      8  H21 UNL     1     -28.952  17.178  37.142  1.00  0.00     0.277 HD
BRANCH   6   9
HETATM    9  C2  UNL     1     -27.189  18.231  37.249  1.00  0.00     0.259 C 
BRANCH   9  10
HETATM   10  C1  UNL     1     -27.313  19.662  37.770  1.00  0.00     0.257 C 
BRANCH  10  11
HETATM   11  N1  UNL     1     -27.086  19.707  39.192  1.00  0.00    -0.078 N 
ATOM     12  H13 UNL     1     -26.337  19.074  39.476  1.00  0.00     0.274 HD
ATOM     13  H12 UNL     1     -26.658  20.587  39.479  1.00  0.00     0.274 HD
ATOM     14  H11 UNL     1     -27.950  19.523  39.701  1.00  0.00     0.274 HD
ENDBRANCH  10  11
ENDBRANCH   9  10
ENDBRANCH   6   9
ENDBRANCH   5   6
ENDBRANCH   4   5
ENDBRANCH   3   4
ENDBRANCH   1   3
BRANCH   1  15
HETATM   15  C6  UNL     1     -33.140  19.929  37.350  1.00  0.00     0.117 A 
HETATM   16  C7  UNL     1     -33.894  21.045  37.162  1.00  0.00     0.138 A 
HETATM   17  N4  UNL     1     -35.166  21.082  37.595  1.00  0.00    -0.347 N 
HETATM   18  C8  UNL     1     -35.749  20.045  38.223  1.00  0.00     0.124 A 
ATOM     19  H4  UNL     1     -35.712  21.930  37.441  1.00  0.00     0.167 HD
HETATM   20  C9  UNL     1     -34.992  18.913  38.418  1.00  0.00     0.056 A 
HETATM   21  N6  UNL     1     -37.065  19.843  38.768  1.00  0.00    -0.374 N 
HETATM   22  N5  UNL     1     -33.703  18.881  37.977  1.00  0.00    -0.342 N 
HETATM   23  C10 UNL     1     -35.856  17.934  39.124  1.00  0.00     0.080 C 
ATOM     24  H5  UNL     1     -33.150  18.037  38.125  1.00  0.00     0.167 HD
HETATM   25  C11 UNL     1     -37.245  18.397  38.745  1.00  0.00     0.127 C 
ATOM     26  H6  UNL     1     -37.723  20.550  39.095  1.00  0.00     0.161 HD
ENDBRANCH   1  15
TORSDOF 8
ENDMDL
