MODEL 1
REMARK VINA RESULT: -7.466810503      0.000      0.000
REMARK  7 active torsions:
REMARK  status: ('A' for Active; 'I' for Inactive)
REMARK    1  A    between atoms: O1_1  and  C1_3 
REMARK    2  A    between atoms: C1_3  and  O2_4 
REMARK    3  A    between atoms: O2_4  and  C2_5 
REMARK    4  A    between atoms: C2_5  and  C3_6 
REMARK    5  A    between atoms: C3_6  and  O3_7 
REMARK    6  A    between atoms: C3_6  and  C4_9 
REMARK    7  A    between atoms: C3_6  and  C10_15 
ROOT
HETATM    1  C3  UNL     1     -26.839 -18.204  10.416  1.00  0.00     0.133 C 
ENDROOT
BRANCH   1   2
HETATM    2  C2  UNL     1     -27.268 -16.849   9.947  1.00  0.00     0.218 C 
BRANCH   2   3
HETATM    3  O2  UNL     1     -28.091 -16.832   8.852  1.00  0.00    -0.364 OA
BRANCH   3   4
HETATM    4  C1  UNL     1     -28.906 -15.703   8.952  1.00  0.00     0.334 C 
BRANCH   4   5
HETATM    5  O1  UNL     1     -29.121 -15.152   7.689  1.00  0.00    -0.377 OA
ATOM      6  H1  UNL     1     -29.259 -14.215   7.760  1.00  0.00     0.212 HD
ENDBRANCH   4   5
ENDBRANCH   3   4
ENDBRANCH   2   3
ENDBRANCH   1   2
BRANCH   1   7
HETATM    7  O3  UNL     1     -26.028 -18.735   9.383  1.00  0.00    -0.378 OA
ATOM      8  H3  UNL     1     -26.543 -18.672   8.588  1.00  0.00     0.211 HD
ENDBRANCH   1   7
BRANCH   1   9
HETATM    9  C4  UNL     1     -28.023 -19.122  10.585  1.00  0.00    -0.017 A 
HETATM   10  C5  UNL     1     -28.891 -18.970  11.644  1.00  0.00     0.011 A 
HETATM   11  C6  UNL     1     -29.977 -19.832  11.774  1.00  0.00     0.001 A 
HETATM   12  C7  UNL     1     -30.197 -20.837  10.859  1.00  0.00     0.000 A 
HETATM   13  C8  UNL     1     -29.336 -21.004   9.790  1.00  0.00     0.001 A 
HETATM   14  C9  UNL     1     -28.268 -20.136   9.685  1.00  0.00     0.011 A 
ENDBRANCH   1   9
BRANCH   1  15
HETATM   15  C10 UNL     1     -25.994 -18.209  11.616  1.00  0.00    -0.017 A 
HETATM   16  C11 UNL     1     -25.245 -19.307  11.931  1.00  0.00     0.011 A 
HETATM   17  C12 UNL     1     -24.430 -19.324  13.074  1.00  0.00     0.001 A 
HETATM   18  C13 UNL     1     -24.384 -18.228  13.884  1.00  0.00     0.000 A 
HETATM   19  C14 UNL     1     -25.145 -17.119  13.561  1.00  0.00     0.001 A 
HETATM   20  C15 UNL     1     -25.959 -17.100  12.421  1.00  0.00     0.011 A 
ENDBRANCH   1  15
TORSDOF 7
ENDMDL
MODEL 2
REMARK VINA RESULT: -7.456457755      0.054      1.583
REMARK  7 active torsions:
REMARK  status: ('A' for Active; 'I' for Inactive)
REMARK    1  A    between atoms: O1_1  and  C1_3 
REMARK    2  A    between atoms: C1_3  and  O2_4 
REMARK    3  A    between atoms: O2_4  and  C2_5 
REMARK    4  A    between atoms: C2_5  and  C3_6 
REMARK    5  A    between atoms: C3_6  and  O3_7 
REMARK    6  A    between atoms: C3_6  and  C4_9 
REMARK    7  A    between atoms: C3_6  and  C10_15 
ROOT
HETATM    1  C3  UNL     1     -26.836 -18.238  10.416  1.00  0.00     0.133 C 
ENDROOT
BRANCH   1   2
HETATM    2  C2  UNL     1     -27.279 -16.885   9.955  1.00  0.00     0.218 C 
BRANCH   2   3
HETATM    3  O2  UNL     1     -28.057 -16.865   8.829  1.00  0.00    -0.364 OA
BRANCH   3   4
HETATM    4  C1  UNL     1     -28.902 -15.757   8.915  1.00  0.00     0.334 C 
BRANCH   4   5
HETATM    5  O1  UNL     1     -29.107 -15.209   7.649  1.00  0.00    -0.377 OA
ATOM      6  H1  UNL     1     -30.003 -14.906   7.564  1.00  0.00     0.212 HD
ENDBRANCH   4   5
ENDBRANCH   3   4
ENDBRANCH   2   3
ENDBRANCH   1   2
BRANCH   1   7
HETATM    7  O3  UNL     1     -26.026 -18.757   9.376  1.00  0.00    -0.378 OA
ATOM      8  H3  UNL     1     -26.624 -19.021   8.686  1.00  0.00     0.211 HD
ENDBRANCH   1   7
BRANCH   1   9
HETATM    9  C4  UNL     1     -28.011 -19.167  10.587  1.00  0.00    -0.017 A 
HETATM   10  C5  UNL     1     -28.243 -20.186   9.689  1.00  0.00     0.011 A 
HETATM   11  C6  UNL     1     -29.335 -21.030   9.873  1.00  0.00     0.001 A 
HETATM   12  C7  UNL     1     -30.191 -20.860  10.940  1.00  0.00     0.000 A 
HETATM   13  C8  UNL     1     -29.972 -19.842  11.849  1.00  0.00     0.001 A 
HETATM   14  C9  UNL     1     -28.882 -19.021  11.644  1.00  0.00     0.011 A 
ENDBRANCH   1   9
BRANCH   1  15
HETATM   15  C10 UNL     1     -25.984 -18.241  11.611  1.00  0.00    -0.017 A 
HETATM   16  C11 UNL     1     -25.926 -17.145  12.423  1.00  0.00     0.011 A 
HETATM   17  C12 UNL     1     -25.117 -17.136  13.571  1.00  0.00     0.001 A 
HETATM   18  C13 UNL     1     -24.377 -18.238  13.881  1.00  0.00     0.000 A 
HETATM   19  C14 UNL     1     -24.438 -19.345  13.054  1.00  0.00     0.001 A 
HETATM   20  C15 UNL     1     -25.244 -19.357  11.909  1.00  0.00     0.011 A 
ENDBRANCH   1  15
TORSDOF 7
ENDMDL
MODEL 3
REMARK VINA RESULT: -7.449119248      0.045      1.122
REMARK  7 active torsions:
REMARK  status: ('A' for Active; 'I' for Inactive)
REMARK    1  A    between atoms: O1_1  and  C1_3 
REMARK    2  A    between atoms: C1_3  and  O2_4 
REMARK    3  A    between atoms: O2_4  and  C2_5 
REMARK    4  A    between atoms: C2_5  and  C3_6 
REMARK    5  A    between atoms: C3_6  and  O3_7 
REMARK    6  A    between atoms: C3_6  and  C4_9 
REMARK    7  A    between atoms: C3_6  and  C10_15 
ROOT
HETATM    1  C3  UNL     1     -26.843 -18.224  10.423  1.00  0.00     0.133 C 
ENDROOT
BRANCH   1   2
HETATM    2  C2  UNL     1     -27.289 -16.870   9.966  1.00  0.00     0.218 C 
BRANCH   2   3
HETATM    3  O2  UNL     1     -28.129 -16.855   8.885  1.00  0.00    -0.364 OA
BRANCH   3   4
HETATM    4  C1  UNL     1     -28.943 -15.726   8.996  1.00  0.00     0.334 C 
BRANCH   4   5
HETATM    5  O1  UNL     1     -29.143 -15.152   7.741  1.00  0.00    -0.377 OA
ATOM      6  H1  UNL     1     -28.439 -14.545   7.542  1.00  0.00     0.212 HD
ENDBRANCH   4   5
ENDBRANCH   3   4
ENDBRANCH   2   3
ENDBRANCH   1   2
BRANCH   1   7
HETATM    7  O3  UNL     1     -26.029 -18.738   9.384  1.00  0.00    -0.378 OA
ATOM      8  H3  UNL     1     -26.622 -19.164   8.776  1.00  0.00     0.211 HD
ENDBRANCH   1   7
BRANCH   1   9
HETATM    9  C4  UNL     1     -28.016 -19.156  10.590  1.00  0.00    -0.017 A 
HETATM   10  C5  UNL     1     -28.253 -20.163   9.679  1.00  0.00     0.011 A 
HETATM   11  C6  UNL     1     -29.343 -21.010   9.858  1.00  0.00     0.001 A 
HETATM   12  C7  UNL     1     -30.191 -20.856  10.933  1.00  0.00     0.000 A 
HETATM   13  C8  UNL     1     -29.967 -19.851  11.855  1.00  0.00     0.001 A 
HETATM   14  C9  UNL     1     -28.880 -19.026  11.655  1.00  0.00     0.011 A 
ENDBRANCH   1   9
BRANCH   1  15
HETATM   15  C10 UNL     1     -25.993 -18.228  11.620  1.00  0.00    -0.017 A 
HETATM   16  C11 UNL     1     -25.243 -19.326  11.933  1.00  0.00     0.011 A 
HETATM   17  C12 UNL     1     -24.423 -19.342  13.073  1.00  0.00     0.001 A 
HETATM   18  C13 UNL     1     -24.374 -18.245  13.882  1.00  0.00     0.000 A 
HETATM   19  C14 UNL     1     -25.136 -17.137  13.560  1.00  0.00     0.001 A 
HETATM   20  C15 UNL     1     -25.954 -17.117  12.424  1.00  0.00     0.011 A 
ENDBRANCH   1  15
TORSDOF 7
ENDMDL
MODEL 4
REMARK VINA RESULT: -7.258075371      1.780      4.870
REMARK  7 active torsions:
REMARK  status: ('A' for Active; 'I' for Inactive)
REMARK    1  A    between atoms: O1_1  and  C1_3 
REMARK    2  A    between atoms: C1_3  and  O2_4 
REMARK    3  A    between atoms: O2_4  and  C2_5 
REMARK    4  A    between atoms: C2_5  and  C3_6 
REMARK    5  A    between atoms: C3_6  and  O3_7 
REMARK    6  A    between atoms: C3_6  and  C4_9 
REMARK    7  A    between atoms: C3_6  and  C10_15 
ROOT
HETATM    1  C3  UNL     1     -26.907 -18.776  10.465  1.00  0.00     0.133 C 
ENDROOT
BRANCH   1   2
HETATM    2  C2  UNL     1     -27.834 -19.907  10.786  1.00  0.00     0.218 C 
BRANCH   2   3
HETATM    3  O2  UNL     1     -27.769 -20.986   9.946  1.00  0.00    -0.364 OA
BRANCH   3   4
HETATM    4  C1  UNL     1     -28.883 -20.940   9.108  1.00  0.00     0.334 C 
BRANCH   4   5
HETATM    5  O1  UNL     1     -28.519 -20.464   7.849  1.00  0.00    -0.377 OA
ATOM      6  H1  UNL     1     -29.181 -19.867   7.521  1.00  0.00     0.212 HD
ENDBRANCH   4   5
ENDBRANCH   3   4
ENDBRANCH   2   3
ENDBRANCH   1   2
BRANCH   1   7
HETATM    7  O3  UNL     1     -26.051 -19.253   9.442  1.00  0.00    -0.378 OA
ATOM      8  H3  UNL     1     -26.105 -18.618   8.738  1.00  0.00     0.211 HD
ENDBRANCH   1   7
BRANCH   1   9
HETATM    9  C4  UNL     1     -26.048 -18.422  11.652  1.00  0.00    -0.017 A 
HETATM   10  C5  UNL     1     -25.131 -19.320  12.153  1.00  0.00     0.011 A 
HETATM   11  C6  UNL     1     -24.350 -18.966  13.250  1.00  0.00     0.001 A 
HETATM   12  C7  UNL     1     -24.481 -17.730  13.844  1.00  0.00     0.000 A 
HETATM   13  C8  UNL     1     -25.397 -16.818  13.354  1.00  0.00     0.001 A 
HETATM   14  C9  UNL     1     -26.158 -17.194  12.266  1.00  0.00     0.011 A 
ENDBRANCH   1   9
BRANCH   1  15
HETATM   15  C10 UNL     1     -27.552 -17.581   9.906  1.00  0.00    -0.017 A 
HETATM   16  C11 UNL     1     -28.886 -17.362  10.096  1.00  0.00     0.011 A 
HETATM   17  C12 UNL     1     -29.515 -16.222   9.570  1.00  0.00     0.001 A 
HETATM   18  C13 UNL     1     -28.782 -15.318   8.858  1.00  0.00     0.000 A 
HETATM   19  C14 UNL     1     -27.431 -15.546   8.669  1.00  0.00     0.001 A 
HETATM   20  C15 UNL     1     -26.802 -16.682   9.193  1.00  0.00     0.011 A 
ENDBRANCH   1  15
TORSDOF 7
ENDMDL
MODEL 5
REMARK VINA RESULT: -7.252975079      1.788      4.864
REMARK  7 active torsions:
REMARK  status: ('A' for Active; 'I' for Inactive)
REMARK    1  A    between atoms: O1_1  and  C1_3 
REMARK    2  A    between atoms: C1_3  and  O2_4 
REMARK    3  A    between atoms: O2_4  and  C2_5 
REMARK    4  A    between atoms: C2_5  and  C3_6 
REMARK    5  A    between atoms: C3_6  and  O3_7 
REMARK    6  A    between atoms: C3_6  and  C4_9 
REMARK    7  A    between atoms: C3_6  and  C10_15 
ROOT
HETATM    1  C3  UNL     1     -26.895 -18.789  10.489  1.00  0.00     0.133 C 
ENDROOT
BRANCH   1   2
HETATM    2  C2  UNL     1     -27.821 -19.919  10.817  1.00  0.00     0.218 C 
BRANCH   2   3
HETATM    3  O2  UNL     1     -27.765 -20.997   9.975  1.00  0.00    -0.364 OA
BRANCH   3   4
HETATM    4  C1  UNL     1     -28.877 -20.938   9.134  1.00  0.00     0.334 C 
BRANCH   4   5
HETATM    5  O1  UNL     1     -28.498 -20.498   7.866  1.00  0.00    -0.377 OA
ATOM      6  H1  UNL     1     -27.699 -20.934   7.593  1.00  0.00     0.212 HD
ENDBRANCH   4   5
ENDBRANCH   3   4
ENDBRANCH   2   3
ENDBRANCH   1   2
BRANCH   1   7
HETATM    7  O3  UNL     1     -26.040 -19.271   9.468  1.00  0.00    -0.378 OA
ATOM      8  H3  UNL     1     -25.556 -18.515   9.155  1.00  0.00     0.211 HD
ENDBRANCH   1   7
BRANCH   1   9
HETATM    9  C4  UNL     1     -26.035 -18.429  11.674  1.00  0.00    -0.017 A 
HETATM   10  C5  UNL     1     -25.119 -19.326  12.181  1.00  0.00     0.011 A 
HETATM   11  C6  UNL     1     -24.337 -18.966  13.275  1.00  0.00     0.001 A 
HETATM   12  C7  UNL     1     -24.466 -17.726  13.861  1.00  0.00     0.000 A 
HETATM   13  C8  UNL     1     -25.380 -16.815  13.365  1.00  0.00     0.001 A 
HETATM   14  C9  UNL     1     -26.142 -17.197  12.280  1.00  0.00     0.011 A 
ENDBRANCH   1   9
BRANCH   1  15
HETATM   15  C10 UNL     1     -27.541 -17.597   9.926  1.00  0.00    -0.017 A 
HETATM   16  C11 UNL     1     -26.819 -16.700   9.192  1.00  0.00     0.011 A 
HETATM   17  C12 UNL     1     -27.425 -15.558   8.644  1.00  0.00     0.001 A 
HETATM   18  C13 UNL     1     -28.755 -15.339   8.849  1.00  0.00     0.000 A 
HETATM   19  C14 UNL     1     -29.481 -16.250   9.594  1.00  0.00     0.001 A 
HETATM   20  C15 UNL     1     -28.879 -17.391  10.141  1.00  0.00     0.011 A 
ENDBRANCH   1  15
TORSDOF 7
ENDMDL
