MODEL 1
REMARK VINA RESULT: -6.293602644      0.000      0.000
REMARK  7 active torsions:
REMARK  status: ('A' for Active; 'I' for Inactive)
REMARK    1  A    between atoms: N1_2  and  C2_5 
REMARK    2  A    between atoms: C2_5  and  C3_6 
REMARK    3  A    between atoms: C3_6  and  N2_8 
REMARK    4  A    between atoms: N2_8  and  C5_10 
REMARK    5  A    between atoms: C5_10  and  N3_12 
REMARK    6  A    between atoms: N3_12  and  C6_14 
REMARK    7  A    between atoms: C6_14  and  C7_15 
ROOT
HETATM    1  C5  UNL     1     -27.118 -18.298   8.890  1.00  0.00     0.168 C 
HETATM    2  S1  UNL     1     -27.401 -16.706   8.965  1.00  0.00    -0.041 SA
ENDROOT
BRANCH   1   3
HETATM    3  N2  UNL     1     -27.949 -19.120   8.093  1.00  0.00    -0.361 N 
ATOM      4  H2  UNL     1     -27.582 -19.551   7.244  1.00  0.00     0.162 HD
BRANCH   3   5
HETATM    5  C3  UNL     1     -29.311 -19.345   8.485  1.00  0.00     0.105 C 
HETATM    6  C4  UNL     1     -30.291 -18.999   7.375  1.00  0.00     0.034 C 
BRANCH   5   7
HETATM    7  C2  UNL     1     -29.526 -20.800   8.806  1.00  0.00     0.256 C 
BRANCH   7   8
HETATM    8  N1  UNL     1     -28.479 -21.528   8.081  1.00  0.00    -0.077 N 
HETATM    9  C1  UNL     1     -29.154 -22.479   7.228  1.00  0.00     0.267 C 
ATOM     10  H12 UNL     1     -27.786 -21.956   8.695  1.00  0.00     0.276 HD
ATOM     11  H11 UNL     1     -27.839 -20.915   7.575  1.00  0.00     0.276 HD
ENDBRANCH   7   8
ENDBRANCH   5   7
ENDBRANCH   3   5
ENDBRANCH   1   3
BRANCH   1  12
HETATM   12  N3  UNL     1     -26.016 -18.835   9.613  1.00  0.00    -0.363 N 
ATOM     13  H3  UNL     1     -25.075 -18.823   9.219  1.00  0.00     0.162 HD
BRANCH  12  14
HETATM   14  C6  UNL     1     -26.261 -19.387  10.898  1.00  0.00     0.160 C 
BRANCH  14  15
HETATM   15  C7  UNL     1     -25.583 -18.751  12.031  1.00  0.00    -0.038 A 
HETATM   16  C8  UNL     1     -25.793 -17.465  12.459  1.00  0.00     0.025 A 
HETATM   17  C9  UNL     1     -25.084 -16.964  13.559  1.00  0.00     0.088 A 
HETATM   18  N4  UNL     1     -24.193 -17.697  14.226  1.00  0.00    -0.375 N 
HETATM   19  C10 UNL     1     -23.969 -18.962  13.826  1.00  0.00     0.088 A 
ATOM     20  H4  UNL     1     -23.691 -17.307  15.023  1.00  0.00     0.164 HD
HETATM   21  C11 UNL     1     -24.645 -19.490  12.750  1.00  0.00     0.025 A 
ENDBRANCH  14  15
ENDBRANCH  12  14
ENDBRANCH   1  12
TORSDOF 7
ENDMDL
MODEL 2
REMARK VINA RESULT: -6.180031150      0.179      1.175
REMARK  7 active torsions:
REMARK  status: ('A' for Active; 'I' for Inactive)
REMARK    1  A    between atoms: N1_2  and  C2_5 
REMARK    2  A    between atoms: C2_5  and  C3_6 
REMARK    3  A    between atoms: C3_6  and  N2_8 
REMARK    4  A    between atoms: N2_8  and  C5_10 
REMARK    5  A    between atoms: C5_10  and  N3_12 
REMARK    6  A    between atoms: N3_12  and  C6_14 
REMARK    7  A    between atoms: C6_14  and  C7_15 
ROOT
HETATM    1  C5  UNL     1     -27.218 -18.182   8.829  1.00  0.00     0.168 C 
HETATM    2  S1  UNL     1     -27.499 -16.589   8.892  1.00  0.00    -0.041 SA
ENDROOT
BRANCH   1   3
HETATM    3  N2  UNL     1     -28.071 -19.014   8.066  1.00  0.00    -0.361 N 
ATOM      4  H2  UNL     1     -27.729 -19.454   7.211  1.00  0.00     0.162 HD
BRANCH   3   5
HETATM    5  C3  UNL     1     -29.421 -19.236   8.500  1.00  0.00     0.105 C 
HETATM    6  C4  UNL     1     -30.429 -18.978   7.392  1.00  0.00     0.034 C 
BRANCH   5   7
HETATM    7  C2  UNL     1     -29.604 -20.671   8.917  1.00  0.00     0.256 C 
BRANCH   7   8
HETATM    8  N1  UNL     1     -28.625 -21.439   8.141  1.00  0.00    -0.077 N 
HETATM    9  C1  UNL     1     -29.374 -22.421   7.392  1.00  0.00     0.267 C 
ATOM     10  H12 UNL     1     -27.885 -21.847   8.715  1.00  0.00     0.276 HD
ATOM     11  H11 UNL     1     -28.025 -20.856   7.557  1.00  0.00     0.276 HD
ENDBRANCH   7   8
ENDBRANCH   5   7
ENDBRANCH   3   5
ENDBRANCH   1   3
BRANCH   1  12
HETATM   12  N3  UNL     1     -26.096 -18.710   9.526  1.00  0.00    -0.363 N 
ATOM     13  H3  UNL     1     -25.154 -18.621   9.145  1.00  0.00     0.162 HD
BRANCH  12  14
HETATM   14  C6  UNL     1     -26.322 -19.362  10.767  1.00  0.00     0.160 C 
BRANCH  14  15
HETATM   15  C7  UNL     1     -25.624 -18.820  11.936  1.00  0.00    -0.038 A 
HETATM   16  C8  UNL     1     -24.733 -19.511  12.716  1.00  0.00     0.025 A 
HETATM   17  C9  UNL     1     -24.124 -18.885  13.812  1.00  0.00     0.088 A 
HETATM   18  N4  UNL     1     -24.378 -17.619  14.141  1.00  0.00    -0.375 N 
HETATM   19  C10 UNL     1     -25.249 -16.920  13.392  1.00  0.00     0.088 A 
ATOM     20  H4  UNL     1     -23.922 -17.189  14.945  1.00  0.00     0.164 HD
HETATM   21  C11 UNL     1     -25.868 -17.499  12.307  1.00  0.00     0.025 A 
ENDBRANCH  14  15
ENDBRANCH  12  14
ENDBRANCH   1  12
TORSDOF 7
ENDMDL
MODEL 3
REMARK VINA RESULT: -6.063103646      1.409      1.875
REMARK  7 active torsions:
REMARK  status: ('A' for Active; 'I' for Inactive)
REMARK    1  A    between atoms: N1_2  and  C2_5 
REMARK    2  A    between atoms: C2_5  and  C3_6 
REMARK    3  A    between atoms: C3_6  and  N2_8 
REMARK    4  A    between atoms: N2_8  and  C5_10 
REMARK    5  A    between atoms: C5_10  and  N3_12 
REMARK    6  A    between atoms: N3_12  and  C6_14 
REMARK    7  A    between atoms: C6_14  and  C7_15 
ROOT
HETATM    1  C5  UNL     1     -28.540 -16.749   9.589  1.00  0.00     0.168 C 
HETATM    2  S1  UNL     1     -28.880 -15.331   8.885  1.00  0.00    -0.041 SA
ENDROOT
BRANCH   1   3
HETATM    3  N2  UNL     1     -29.265 -17.906   9.217  1.00  0.00    -0.361 N 
ATOM      4  H2  UNL     1     -29.785 -18.433   9.919  1.00  0.00     0.162 HD
BRANCH   3   5
HETATM    5  C3  UNL     1     -29.265 -18.335   7.848  1.00  0.00     0.105 C 
HETATM    6  C4  UNL     1     -27.864 -18.366   7.258  1.00  0.00     0.034 C 
BRANCH   5   7
HETATM    7  C2  UNL     1     -29.804 -19.736   7.741  1.00  0.00     0.256 C 
BRANCH   7   8
HETATM    8  N1  UNL     1     -28.630 -20.609   7.650  1.00  0.00    -0.077 N 
HETATM    9  C1  UNL     1     -29.106 -21.891   7.183  1.00  0.00     0.267 C 
ATOM     10  H12 UNL     1     -28.101 -20.667   8.521  1.00  0.00     0.276 HD
ATOM     11  H11 UNL     1     -27.882 -20.222   7.074  1.00  0.00     0.276 HD
ENDBRANCH   7   8
ENDBRANCH   5   7
ENDBRANCH   3   5
ENDBRANCH   1   3
BRANCH   1  12
HETATM   12  N3  UNL     1     -27.497 -16.803  10.554  1.00  0.00    -0.363 N 
ATOM     13  H3  UNL     1     -27.269 -15.990  11.126  1.00  0.00     0.162 HD
BRANCH  12  14
HETATM   14  C6  UNL     1     -26.781 -18.021  10.701  1.00  0.00     0.160 C 
BRANCH  14  15
HETATM   15  C7  UNL     1     -25.883 -18.125  11.855  1.00  0.00    -0.038 A 
HETATM   16  C8  UNL     1     -25.153 -19.236  12.191  1.00  0.00     0.025 A 
HETATM   17  C9  UNL     1     -24.323 -19.217  13.320  1.00  0.00     0.088 A 
HETATM   18  N4  UNL     1     -24.210 -18.146  14.103  1.00  0.00    -0.375 N 
HETATM   19  C10 UNL     1     -24.917 -17.043  13.795  1.00  0.00     0.088 A 
ATOM     20  H4  UNL     1     -23.599 -18.160  14.920  1.00  0.00     0.164 HD
HETATM   21  C11 UNL     1     -25.742 -17.022  12.693  1.00  0.00     0.025 A 
ENDBRANCH  14  15
ENDBRANCH  12  14
ENDBRANCH   1  12
TORSDOF 7
ENDMDL
MODEL 4
REMARK VINA RESULT: -6.033342735      0.750      1.131
REMARK  7 active torsions:
REMARK  status: ('A' for Active; 'I' for Inactive)
REMARK    1  A    between atoms: N1_2  and  C2_5 
REMARK    2  A    between atoms: C2_5  and  C3_6 
REMARK    3  A    between atoms: C3_6  and  N2_8 
REMARK    4  A    between atoms: N2_8  and  C5_10 
REMARK    5  A    between atoms: C5_10  and  N3_12 
REMARK    6  A    between atoms: N3_12  and  C6_14 
REMARK    7  A    between atoms: C6_14  and  C7_15 
ROOT
HETATM    1  C5  UNL     1     -27.098 -18.318   8.799  1.00  0.00     0.168 C 
HETATM    2  S1  UNL     1     -27.469 -16.747   8.913  1.00  0.00    -0.041 SA
ENDROOT
BRANCH   1   3
HETATM    3  N2  UNL     1     -27.849 -19.154   7.939  1.00  0.00    -0.361 N 
ATOM      4  H2  UNL     1     -27.464 -19.442   7.039  1.00  0.00     0.162 HD
BRANCH   3   5
HETATM    5  C3  UNL     1     -29.154 -19.595   8.339  1.00  0.00     0.105 C 
HETATM    6  C4  UNL     1     -30.225 -19.198   7.336  1.00  0.00     0.034 C 
BRANCH   5   7
HETATM    7  C2  UNL     1     -29.191 -21.098   8.430  1.00  0.00     0.256 C 
BRANCH   7   8
HETATM    8  N1  UNL     1     -30.191 -21.410   9.456  1.00  0.00    -0.077 N 
HETATM    9  C1  UNL     1     -29.718 -20.817  10.686  1.00  0.00     0.267 C 
ATOM     10  H12 UNL     1     -30.388 -22.408   9.538  1.00  0.00     0.276 HD
ATOM     11  H11 UNL     1     -31.135 -21.116   9.203  1.00  0.00     0.276 HD
ENDBRANCH   7   8
ENDBRANCH   5   7
ENDBRANCH   3   5
ENDBRANCH   1   3
BRANCH   1  12
HETATM   12  N3  UNL     1     -26.001 -18.821   9.553  1.00  0.00    -0.363 N 
ATOM     13  H3  UNL     1     -25.051 -18.787   9.183  1.00  0.00     0.162 HD
BRANCH  12  14
HETATM   14  C6  UNL     1     -26.264 -19.372  10.835  1.00  0.00     0.160 C 
BRANCH  14  15
HETATM   15  C7  UNL     1     -25.602 -18.736  11.977  1.00  0.00    -0.038 A 
HETATM   16  C8  UNL     1     -25.830 -17.456  12.411  1.00  0.00     0.025 A 
HETATM   17  C9  UNL     1     -25.136 -16.954  13.520  1.00  0.00     0.088 A 
HETATM   18  N4  UNL     1     -24.241 -17.680  14.189  1.00  0.00    -0.375 N 
HETATM   19  C10 UNL     1     -23.999 -18.939  13.782  1.00  0.00     0.088 A 
ATOM     20  H4  UNL     1     -23.750 -17.289  14.992  1.00  0.00     0.164 HD
HETATM   21  C11 UNL     1     -24.661 -19.469  12.698  1.00  0.00     0.025 A 
ENDBRANCH  14  15
ENDBRANCH  12  14
ENDBRANCH   1  12
TORSDOF 7
ENDMDL
MODEL 5
REMARK VINA RESULT: -6.032762686      1.465      1.574
REMARK  7 active torsions:
REMARK  status: ('A' for Active; 'I' for Inactive)
REMARK    1  A    between atoms: N1_2  and  C2_5 
REMARK    2  A    between atoms: C2_5  and  C3_6 
REMARK    3  A    between atoms: C3_6  and  N2_8 
REMARK    4  A    between atoms: N2_8  and  C5_10 
REMARK    5  A    between atoms: C5_10  and  N3_12 
REMARK    6  A    between atoms: N3_12  and  C6_14 
REMARK    7  A    between atoms: C6_14  and  C7_15 
ROOT
HETATM    1  C5  UNL     1     -28.601 -16.679   9.530  1.00  0.00     0.168 C 
HETATM    2  S1  UNL     1     -29.009 -15.255   8.875  1.00  0.00    -0.041 SA
ENDROOT
BRANCH   1   3
HETATM    3  N2  UNL     1     -29.327 -17.843   9.182  1.00  0.00    -0.361 N 
ATOM      4  H2  UNL     1     -29.810 -18.380   9.903  1.00  0.00     0.162 HD
BRANCH   3   5
HETATM    5  C3  UNL     1     -29.380 -18.263   7.812  1.00  0.00     0.105 C 
HETATM    6  C4  UNL     1     -28.011 -18.242   7.152  1.00  0.00     0.034 C 
BRANCH   5   7
HETATM    7  C2  UNL     1     -29.876 -19.682   7.722  1.00  0.00     0.256 C 
BRANCH   7   8
HETATM    8  N1  UNL     1     -28.674 -20.521   7.671  1.00  0.00    -0.077 N 
HETATM    9  C1  UNL     1     -29.104 -21.827   7.226  1.00  0.00     0.267 C 
ATOM     10  H12 UNL     1     -28.159 -20.543   8.552  1.00  0.00     0.276 HD
ATOM     11  H11 UNL     1     -27.928 -20.124   7.099  1.00  0.00     0.276 HD
ENDBRANCH   7   8
ENDBRANCH   5   7
ENDBRANCH   3   5
ENDBRANCH   1   3
BRANCH   1  12
HETATM   12  N3  UNL     1     -27.498 -16.731  10.427  1.00  0.00    -0.363 N 
ATOM     13  H3  UNL     1     -27.165 -15.890  10.898  1.00  0.00     0.162 HD
BRANCH  12  14
HETATM   14  C6  UNL     1     -26.872 -17.986  10.650  1.00  0.00     0.160 C 
BRANCH  14  15
HETATM   15  C7  UNL     1     -25.967 -18.079  11.798  1.00  0.00    -0.038 A 
HETATM   16  C8  UNL     1     -25.732 -17.077  12.704  1.00  0.00     0.025 A 
HETATM   17  C9  UNL     1     -24.842 -17.284  13.767  1.00  0.00     0.088 A 
HETATM   18  N4  UNL     1     -24.197 -18.436  13.942  1.00  0.00    -0.375 N 
HETATM   19  C10 UNL     1     -24.410 -19.435  13.067  1.00  0.00     0.088 A 
ATOM     20  H4  UNL     1     -23.554 -18.558  14.724  1.00  0.00     0.164 HD
HETATM   21  C11 UNL     1     -25.277 -19.271  12.010  1.00  0.00     0.025 A 
ENDBRANCH  14  15
ENDBRANCH  12  14
ENDBRANCH   1  12
TORSDOF 7
ENDMDL
