MODEL 1
REMARK VINA RESULT: -7.040199256      0.000      0.000
REMARK  6 active torsions:
REMARK  status: ('A' for Active; 'I' for Inactive)
REMARK    1  A    between atoms: N1_2  and  C2_4 
REMARK    2  A    between atoms: C4_6  and  C5_7 
REMARK    3  A    between atoms: C5_7  and  N2_8 
REMARK    4  A    between atoms: N2_8  and  C6_11 
REMARK    5  A    between atoms: C6_11  and  C7_12 
REMARK    6  A    between atoms: C10_15  and  O1_16 
ROOT
HETATM    1  N2  UNL     1     -26.483 -18.703   9.114  1.00  0.00    -0.066 N 
ATOM      2  H21 UNL     1     -26.083 -19.641   9.100  1.00  0.00     0.277 HD
ATOM      3  H22 UNL     1     -25.627 -18.159   9.227  1.00  0.00     0.277 HD
ENDROOT
BRANCH   1   4
HETATM    4  C5  UNL     1     -27.349 -18.533  10.237  1.00  0.00     0.291 C 
BRANCH   4   5
HETATM    5  C4  UNL     1     -26.587 -17.990  11.385  1.00  0.00     0.055 A 
HETATM    6  C3  UNL     1     -25.574 -18.543  12.138  1.00  0.00     0.077 A 
HETATM    7  C2  UNL     1     -25.190 -17.635  13.102  1.00  0.00     0.117 A 
HETATM    8  N4  UNL     1     -25.964 -16.557  12.929  1.00  0.00    -0.286 N 
HETATM    9  N3  UNL     1     -26.779 -16.776  11.919  1.00  0.00    -0.302 N 
ATOM     10  H4  UNL     1     -25.927 -15.705  13.489  1.00  0.00     0.188 HD
ATOM     11  H3  UNL     1     -27.470 -16.104  11.585  1.00  0.00     0.186 HD
BRANCH   7  12
HETATM   12  N1  UNL     1     -24.256 -17.791  14.010  1.00  0.00    -0.380 N 
HETATM   13  C1  UNL     1     -23.969 -19.141  14.463  1.00  0.00     0.147 C 
ATOM     14  H1  UNL     1     -23.749 -16.990  14.386  1.00  0.00     0.160 HD
ENDBRANCH   7  12
ENDBRANCH   4   5
ENDBRANCH   1   4
BRANCH   1  15
HETATM   15  C6  UNL     1     -27.126 -18.397   7.856  1.00  0.00     0.271 C 
BRANCH  15  16
HETATM   16  C7  UNL     1     -28.405 -19.089   7.684  1.00  0.00    -0.033 A 
HETATM   17  C8  UNL     1     -28.513 -20.450   7.630  1.00  0.00     0.011 A 
HETATM   18  C9  UNL     1     -29.739 -21.096   7.465  1.00  0.00     0.037 A 
HETATM   19  C10 UNL     1     -30.891 -20.351   7.352  1.00  0.00     0.068 A 
HETATM   20  C12 UNL     1     -30.791 -18.977   7.405  1.00  0.00     0.037 A 
HETATM   21  C13 UNL     1     -29.581 -18.349   7.567  1.00  0.00     0.011 A 
BRANCH  19  22
HETATM   22  O1  UNL     1     -32.134 -20.966   7.186  1.00  0.00    -0.356 OA
HETATM   23  C11 UNL     1     -33.246 -20.283   6.685  1.00  0.00     0.210 C 
ENDBRANCH  19  22
ENDBRANCH  15  16
ENDBRANCH   1  15
TORSDOF 6
ENDMDL
MODEL 2
REMARK VINA RESULT: -7.002748776      0.051      1.115
REMARK  6 active torsions:
REMARK  status: ('A' for Active; 'I' for Inactive)
REMARK    1  A    between atoms: N1_2  and  C2_4 
REMARK    2  A    between atoms: C4_6  and  C5_7 
REMARK    3  A    between atoms: C5_7  and  N2_8 
REMARK    4  A    between atoms: N2_8  and  C6_11 
REMARK    5  A    between atoms: C6_11  and  C7_12 
REMARK    6  A    between atoms: C10_15  and  O1_16 
ROOT
HETATM    1  N2  UNL     1     -26.485 -18.733   9.122  1.00  0.00    -0.066 N 
ATOM      2  H21 UNL     1     -26.111 -19.682   9.128  1.00  0.00     0.277 HD
ATOM      3  H22 UNL     1     -25.617 -18.212   9.248  1.00  0.00     0.277 HD
ENDROOT
BRANCH   1   4
HETATM    4  C5  UNL     1     -27.370 -18.527  10.224  1.00  0.00     0.291 C 
BRANCH   4   5
HETATM    5  C4  UNL     1     -26.621 -17.983  11.379  1.00  0.00     0.055 A 
HETATM    6  C3  UNL     1     -25.587 -18.519  12.117  1.00  0.00     0.077 A 
HETATM    7  C2  UNL     1     -25.228 -17.618  13.097  1.00  0.00     0.117 A 
HETATM    8  N4  UNL     1     -26.035 -16.562  12.949  1.00  0.00    -0.286 N 
HETATM    9  N3  UNL     1     -26.848 -16.786  11.939  1.00  0.00    -0.302 N 
ATOM     10  H4  UNL     1     -26.023 -15.720  13.526  1.00  0.00     0.188 HD
ATOM     11  H3  UNL     1     -27.562 -16.130  11.621  1.00  0.00     0.186 HD
BRANCH   7  12
HETATM   12  N1  UNL     1     -24.285 -17.763  13.999  1.00  0.00    -0.380 N 
HETATM   13  C1  UNL     1     -24.000 -19.106  14.473  1.00  0.00     0.147 C 
ATOM     14  H1  UNL     1     -23.770 -16.958  14.354  1.00  0.00     0.160 HD
ENDBRANCH   7  12
ENDBRANCH   4   5
ENDBRANCH   1   4
BRANCH   1  15
HETATM   15  C6  UNL     1     -27.092 -18.425   7.847  1.00  0.00     0.271 C 
BRANCH  15  16
HETATM   16  C7  UNL     1     -28.411 -19.040   7.678  1.00  0.00    -0.033 A 
HETATM   17  C8  UNL     1     -29.562 -18.313   7.572  1.00  0.00     0.011 A 
HETATM   18  C9  UNL     1     -30.813 -18.913   7.411  1.00  0.00     0.037 A 
HETATM   19  C10 UNL     1     -30.906 -20.285   7.355  1.00  0.00     0.068 A 
HETATM   20  C12 UNL     1     -29.749 -21.027   7.461  1.00  0.00     0.037 A 
HETATM   21  C13 UNL     1     -28.523 -20.429   7.619  1.00  0.00     0.011 A 
BRANCH  19  22
HETATM   22  O1  UNL     1     -32.141 -20.918   7.195  1.00  0.00    -0.356 OA
HETATM   23  C11 UNL     1     -33.244 -20.272   6.629  1.00  0.00     0.210 C 
ENDBRANCH  19  22
ENDBRANCH  15  16
ENDBRANCH   1  15
TORSDOF 6
ENDMDL
MODEL 3
REMARK VINA RESULT: -6.995281415      3.183      7.197
REMARK  6 active torsions:
REMARK  status: ('A' for Active; 'I' for Inactive)
REMARK    1  A    between atoms: N1_2  and  C2_4 
REMARK    2  A    between atoms: C4_6  and  C5_7 
REMARK    3  A    between atoms: C5_7  and  N2_8 
REMARK    4  A    between atoms: N2_8  and  C6_11 
REMARK    5  A    between atoms: C6_11  and  C7_12 
REMARK    6  A    between atoms: C10_15  and  O1_16 
ROOT
HETATM    1  N2  UNL     1     -27.443 -17.086  11.166  1.00  0.00    -0.066 N 
ATOM      2  H21 UNL     1     -27.556 -18.099  11.113  1.00  0.00     0.277 HD
ATOM      3  H22 UNL     1     -28.309 -16.847  11.649  1.00  0.00     0.277 HD
ENDROOT
BRANCH   1   4
HETATM    4  C5  UNL     1     -27.410 -16.507   9.861  1.00  0.00     0.291 C 
BRANCH   4   5
HETATM    5  C4  UNL     1     -27.894 -17.486   8.861  1.00  0.00     0.055 A 
HETATM    6  C3  UNL     1     -27.832 -18.863   8.843  1.00  0.00     0.077 A 
HETATM    7  C2  UNL     1     -28.428 -19.319   7.686  1.00  0.00     0.117 A 
HETATM    8  N4  UNL     1     -28.839 -18.232   7.023  1.00  0.00    -0.286 N 
HETATM    9  N3  UNL     1     -28.521 -17.163   7.721  1.00  0.00    -0.302 N 
ATOM     10  H4  UNL     1     -29.320 -18.232   6.123  1.00  0.00     0.188 HD
ATOM     11  H3  UNL     1     -28.727 -16.206   7.431  1.00  0.00     0.186 HD
BRANCH   7  12
HETATM   12  N1  UNL     1     -28.567 -20.567   7.305  1.00  0.00    -0.380 N 
HETATM   13  C1  UNL     1     -29.897 -21.149   7.359  1.00  0.00     0.147 C 
ATOM     14  H1  UNL     1     -27.767 -21.110   6.982  1.00  0.00     0.160 HD
ENDBRANCH   7  12
ENDBRANCH   4   5
ENDBRANCH   1   4
BRANCH   1  15
HETATM   15  C6  UNL     1     -26.292 -16.736  11.966  1.00  0.00     0.271 C 
BRANCH  15  16
HETATM   16  C7  UNL     1     -25.658 -17.896  12.596  1.00  0.00    -0.033 A 
HETATM   17  C8  UNL     1     -24.734 -17.788  13.596  1.00  0.00     0.011 A 
HETATM   18  C9  UNL     1     -24.138 -18.903  14.187  1.00  0.00     0.037 A 
HETATM   19  C10 UNL     1     -24.483 -20.165  13.759  1.00  0.00     0.068 A 
HETATM   20  C12 UNL     1     -25.415 -20.284  12.750  1.00  0.00     0.037 A 
HETATM   21  C13 UNL     1     -25.996 -19.182  12.174  1.00  0.00     0.011 A 
BRANCH  19  22
HETATM   22  O1  UNL     1     -23.906 -21.302  14.329  1.00  0.00    -0.356 OA
HETATM   23  C11 UNL     1     -24.228 -22.596  13.909  1.00  0.00     0.210 C 
ENDBRANCH  19  22
ENDBRANCH  15  16
ENDBRANCH   1  15
TORSDOF 6
ENDMDL
MODEL 4
REMARK VINA RESULT: -6.972993124      3.188      7.174
REMARK  6 active torsions:
REMARK  status: ('A' for Active; 'I' for Inactive)
REMARK    1  A    between atoms: N1_2  and  C2_4 
REMARK    2  A    between atoms: C4_6  and  C5_7 
REMARK    3  A    between atoms: C5_7  and  N2_8 
REMARK    4  A    between atoms: N2_8  and  C6_11 
REMARK    5  A    between atoms: C6_11  and  C7_12 
REMARK    6  A    between atoms: C10_15  and  O1_16 
ROOT
HETATM    1  N2  UNL     1     -27.460 -17.063  11.142  1.00  0.00    -0.066 N 
ATOM      2  H21 UNL     1     -27.632 -18.068  11.108  1.00  0.00     0.277 HD
ATOM      3  H22 UNL     1     -28.311 -16.765  11.619  1.00  0.00     0.277 HD
ENDROOT
BRANCH   1   4
HETATM    4  C5  UNL     1     -27.392 -16.512   9.826  1.00  0.00     0.291 C 
BRANCH   4   5
HETATM    5  C4  UNL     1     -27.896 -17.494   8.840  1.00  0.00     0.055 A 
HETATM    6  C3  UNL     1     -27.826 -18.871   8.820  1.00  0.00     0.077 A 
HETATM    7  C2  UNL     1     -28.449 -19.331   7.679  1.00  0.00     0.117 A 
HETATM    8  N4  UNL     1     -28.884 -18.247   7.028  1.00  0.00    -0.286 N 
HETATM    9  N3  UNL     1     -28.555 -17.175   7.717  1.00  0.00    -0.302 N 
ATOM     10  H4  UNL     1     -29.389 -18.250   6.140  1.00  0.00     0.188 HD
ATOM     11  H3  UNL     1     -28.774 -16.220   7.432  1.00  0.00     0.186 HD
BRANCH   7  12
HETATM   12  N1  UNL     1     -28.590 -20.580   7.303  1.00  0.00    -0.380 N 
HETATM   13  C1  UNL     1     -29.924 -21.156   7.347  1.00  0.00     0.147 C 
ATOM     14  H1  UNL     1     -27.790 -21.128   6.989  1.00  0.00     0.160 HD
ENDBRANCH   7  12
ENDBRANCH   4   5
ENDBRANCH   1   4
BRANCH   1  15
HETATM   15  C6  UNL     1     -26.291 -16.766  11.938  1.00  0.00     0.271 C 
BRANCH  15  16
HETATM   16  C7  UNL     1     -25.692 -17.957  12.543  1.00  0.00    -0.033 A 
HETATM   17  C8  UNL     1     -26.058 -19.228  12.205  1.00  0.00     0.011 A 
HETATM   18  C9  UNL     1     -25.479 -20.355  12.790  1.00  0.00     0.037 A 
HETATM   19  C10 UNL     1     -24.499 -20.196  13.745  1.00  0.00     0.068 A 
HETATM   20  C12 UNL     1     -24.123 -18.917  14.093  1.00  0.00     0.037 A 
HETATM   21  C13 UNL     1     -24.699 -17.814  13.512  1.00  0.00     0.011 A 
BRANCH  19  22
HETATM   22  O1  UNL     1     -23.899 -21.302  14.351  1.00  0.00    -0.356 OA
HETATM   23  C11 UNL     1     -24.201 -22.616  13.980  1.00  0.00     0.210 C 
ENDBRANCH  19  22
ENDBRANCH  15  16
ENDBRANCH   1  15
TORSDOF 6
ENDMDL
MODEL 5
REMARK VINA RESULT: -6.967737488      3.423      7.406
REMARK  6 active torsions:
REMARK  status: ('A' for Active; 'I' for Inactive)
REMARK    1  A    between atoms: N1_2  and  C2_4 
REMARK    2  A    between atoms: C4_6  and  C5_7 
REMARK    3  A    between atoms: C5_7  and  N2_8 
REMARK    4  A    between atoms: N2_8  and  C6_11 
REMARK    5  A    between atoms: C6_11  and  C7_12 
REMARK    6  A    between atoms: C10_15  and  O1_16 
ROOT
HETATM    1  N2  UNL     1     -26.658 -18.583   8.689  1.00  0.00    -0.066 N 
ATOM      2  H21 UNL     1     -25.646 -18.497   8.597  1.00  0.00     0.277 HD
ATOM      3  H22 UNL     1     -26.720 -19.575   8.920  1.00  0.00     0.277 HD
ENDROOT
BRANCH   1   4
HETATM    4  C5  UNL     1     -27.308 -18.307   7.447  1.00  0.00     0.291 C 
BRANCH   4   5
HETATM    5  C4  UNL     1     -28.668 -18.892   7.448  1.00  0.00     0.055 A 
HETATM    6  C3  UNL     1     -29.101 -20.169   7.733  1.00  0.00     0.077 A 
HETATM    7  C2  UNL     1     -30.472 -20.215   7.592  1.00  0.00     0.117 A 
HETATM    8  N4  UNL     1     -30.852 -18.986   7.227  1.00  0.00    -0.286 N 
HETATM    9  N3  UNL     1     -29.787 -18.218   7.146  1.00  0.00    -0.302 N 
ATOM     10  H4  UNL     1     -31.812 -18.692   7.041  1.00  0.00     0.188 HD
ATOM     11  H3  UNL     1     -29.810 -17.231   6.885  1.00  0.00     0.186 HD
BRANCH   7  12
HETATM   12  N1  UNL     1     -31.253 -21.254   7.776  1.00  0.00    -0.380 N 
HETATM   13  C1  UNL     1     -30.627 -22.560   7.895  1.00  0.00     0.147 C 
ATOM     14  H1  UNL     1     -32.265 -21.147   7.834  1.00  0.00     0.160 HD
ENDBRANCH   7  12
ENDBRANCH   4   5
ENDBRANCH   1   4
BRANCH   1  15
HETATM   15  C6  UNL     1     -27.150 -17.767   9.775  1.00  0.00     0.271 C 
BRANCH  15  16
HETATM   16  C7  UNL     1     -26.395 -17.950  11.017  1.00  0.00    -0.033 A 
HETATM   17  C8  UNL     1     -26.321 -16.996  11.990  1.00  0.00     0.011 A 
HETATM   18  C9  UNL     1     -25.597 -17.185  13.169  1.00  0.00     0.037 A 
HETATM   19  C10 UNL     1     -24.929 -18.371  13.373  1.00  0.00     0.068 A 
HETATM   20  C12 UNL     1     -24.998 -19.341  12.395  1.00  0.00     0.037 A 
HETATM   21  C13 UNL     1     -25.712 -19.146  11.239  1.00  0.00     0.011 A 
BRANCH  19  22
HETATM   22  O1  UNL     1     -24.195 -18.593  14.541  1.00  0.00    -0.356 OA
HETATM   23  C11 UNL     1     -23.917 -19.878  15.018  1.00  0.00     0.210 C 
ENDBRANCH  19  22
ENDBRANCH  15  16
ENDBRANCH   1  15
TORSDOF 6
ENDMDL
