MODEL 1
REMARK VINA RESULT: -6.465831923      0.000      0.000
REMARK  7 active torsions:
REMARK  status: ('A' for Active; 'I' for Inactive)
REMARK    1  A    between atoms: C6_6  and  C7_7 
REMARK    2  A    between atoms: C7_7  and  C8_8 
REMARK    3  A    between atoms: C9_9  and  C10_10 
REMARK    4  A    between atoms: C10_10  and  N1_11 
REMARK    5  A    between atoms: C10_10  and  C11_15 
REMARK    6  A    between atoms: C11_15  and  C12_16 
REMARK    7  A    between atoms: C12_16  and  N2_17 
ROOT
HETATM    1  C10 UNL     1      18.843  27.700  -9.667  1.00  0.00     0.207 C 
ENDROOT
BRANCH   1   2
HETATM    2  C9  UNL     1      20.209  27.787 -10.224  1.00  0.00     0.002 C 
HETATM    3  C8  UNL     1      20.466  27.478 -11.500  1.00  0.00    -0.028 C 
BRANCH   3   4
HETATM    4  C7  UNL     1      19.509  27.030 -12.499  1.00  0.00     0.036 C 
BRANCH   4   5
HETATM    5  C6  UNL     1      19.271  25.531 -12.551  1.00  0.00     0.017 C 
HETATM    6  C2  UNL     1      20.110  24.820 -13.520  1.00  0.00    -0.085 C 
HETATM    7  C1  UNL     1      21.392  24.519 -13.487  1.00  0.00     0.014 C 
HETATM    8  C3  UNL     1      19.200  24.435 -14.668  1.00  0.00     0.034 C 
HETATM    9  C4  UNL     1      17.889  24.151 -13.933  1.00  0.00     0.005 C 
HETATM   10  C5  UNL     1      17.854  25.328 -13.000  1.00  0.00     0.009 C 
ENDBRANCH   4   5
ENDBRANCH   3   4
ENDBRANCH   1   2
BRANCH   1  11
HETATM   11  N1  UNL     1      18.543  26.370  -9.166  1.00  0.00    -0.072 N 
ATOM     12  H13 UNL     1      17.577  26.109  -9.366  1.00  0.00     0.275 HD
ATOM     13  H12 UNL     1      19.021  25.653  -9.711  1.00  0.00     0.275 HD
ATOM     14  H11 UNL     1      18.752  26.280  -8.171  1.00  0.00     0.275 HD
ENDBRANCH   1  11
BRANCH   1  15
HETATM   15  C11 UNL     1      18.630  28.659  -8.541  1.00  0.00     0.056 C 
BRANCH  15  16
HETATM   16  C12 UNL     1      17.523  28.278  -7.615  1.00  0.00     0.122 C 
BRANCH  16  17
HETATM   17  N2  UNL     1      16.396  29.166  -7.851  1.00  0.00    -0.388 N 
HETATM   18  C13 UNL     1      15.414  28.737  -8.547  1.00  0.00     0.185 C 
HETATM   19  N3  UNL     1      15.434  27.426  -9.071  1.00  0.00    -0.097 NA
ATOM     20  H2  UNL     1      16.389  30.112  -7.470  1.00  0.00     0.159 HD
ENDBRANCH  16  17
ENDBRANCH  15  16
ENDBRANCH   1  15
TORSDOF 7
ENDMDL
MODEL 2
REMARK VINA RESULT: -6.284431798      2.538      6.474
REMARK  7 active torsions:
REMARK  status: ('A' for Active; 'I' for Inactive)
REMARK    1  A    between atoms: C6_6  and  C7_7 
REMARK    2  A    between atoms: C7_7  and  C8_8 
REMARK    3  A    between atoms: C9_9  and  C10_10 
REMARK    4  A    between atoms: C10_10  and  N1_11 
REMARK    5  A    between atoms: C10_10  and  C11_15 
REMARK    6  A    between atoms: C11_15  and  C12_16 
REMARK    7  A    between atoms: C12_16  and  N2_17 
ROOT
HETATM    1  C10 UNL     1      17.622  25.821 -12.563  1.00  0.00     0.207 C 
ENDROOT
BRANCH   1   2
HETATM    2  C9  UNL     1      18.092  27.175 -12.204  1.00  0.00     0.002 C 
HETATM    3  C8  UNL     1      18.524  27.462 -10.971  1.00  0.00    -0.028 C 
BRANCH   3   4
HETATM    4  C7  UNL     1      18.602  26.551  -9.840  1.00  0.00     0.036 C 
BRANCH   4   5
HETATM    5  C6  UNL     1      18.039  27.083  -8.533  1.00  0.00     0.017 C 
HETATM    6  C2  UNL     1      16.802  27.854  -8.679  1.00  0.00    -0.085 C 
HETATM    7  C1  UNL     1      15.571  27.460  -8.938  1.00  0.00     0.014 C 
HETATM    8  C3  UNL     1      17.176  29.304  -8.454  1.00  0.00     0.034 C 
HETATM    9  C4  UNL     1      18.270  29.175  -7.394  1.00  0.00     0.005 C 
HETATM   10  C5  UNL     1      19.057  28.032  -7.972  1.00  0.00     0.009 C 
ENDBRANCH   4   5
ENDBRANCH   3   4
ENDBRANCH   1   2
BRANCH   1  11
HETATM   11  N1  UNL     1      16.178  25.768 -12.719  1.00  0.00    -0.072 N 
ATOM     12  H13 UNL     1      15.723  26.525 -12.208  1.00  0.00     0.275 HD
ATOM     13  H12 UNL     1      15.900  26.023 -13.666  1.00  0.00     0.275 HD
ATOM     14  H11 UNL     1      15.797  24.860 -12.453  1.00  0.00     0.275 HD
ENDBRANCH   1  11
BRANCH   1  15
HETATM   15  C11 UNL     1      18.225  25.333 -13.840  1.00  0.00     0.056 C 
BRANCH  15  16
HETATM   16  C12 UNL     1      19.097  24.131 -13.684  1.00  0.00     0.122 C 
BRANCH  16  17
HETATM   17  N2  UNL     1      20.302  24.521 -12.972  1.00  0.00    -0.388 N 
HETATM   18  C13 UNL     1      21.430  24.379 -13.553  1.00  0.00     0.185 C 
HETATM   19  N3  UNL     1      21.493  23.851 -14.862  1.00  0.00    -0.097 NA
ATOM     20  H2  UNL     1      20.248  24.901 -12.026  1.00  0.00     0.159 HD
ENDBRANCH  16  17
ENDBRANCH  15  16
ENDBRANCH   1  15
TORSDOF 7
ENDMDL
MODEL 3
REMARK VINA RESULT: -6.276076092      1.427      1.800
REMARK  7 active torsions:
REMARK  status: ('A' for Active; 'I' for Inactive)
REMARK    1  A    between atoms: C6_6  and  C7_7 
REMARK    2  A    between atoms: C7_7  and  C8_8 
REMARK    3  A    between atoms: C9_9  and  C10_10 
REMARK    4  A    between atoms: C10_10  and  N1_11 
REMARK    5  A    between atoms: C10_10  and  C11_15 
REMARK    6  A    between atoms: C11_15  and  C12_16 
REMARK    7  A    between atoms: C12_16  and  N2_17 
ROOT
HETATM    1  C10 UNL     1      19.517  28.650  -8.752  1.00  0.00     0.207 C 
ENDROOT
BRANCH   1   2
HETATM    2  C9  UNL     1      18.837  29.104  -9.983  1.00  0.00     0.002 C 
HETATM    3  C8  UNL     1      18.897  28.398 -11.117  1.00  0.00    -0.028 C 
BRANCH   3   4
HETATM    4  C7  UNL     1      19.595  27.140 -11.325  1.00  0.00     0.036 C 
BRANCH   4   5
HETATM    5  C6  UNL     1      18.706  25.923 -11.518  1.00  0.00     0.017 C 
HETATM    6  C2  UNL     1      19.041  25.111 -12.691  1.00  0.00    -0.085 C 
HETATM    7  C1  UNL     1      20.050  24.290 -12.906  1.00  0.00     0.014 C 
HETATM    8  C3  UNL     1      17.951  25.367 -13.711  1.00  0.00     0.034 C 
HETATM    9  C4  UNL     1      16.728  25.542 -12.810  1.00  0.00     0.005 C 
HETATM   10  C5  UNL     1      17.314  26.430 -11.748  1.00  0.00     0.009 C 
ENDBRANCH   4   5
ENDBRANCH   3   4
ENDBRANCH   1   2
BRANCH   1  11
HETATM   11  N1  UNL     1      19.950  29.763  -7.925  1.00  0.00    -0.072 N 
ATOM     12  H13 UNL     1      20.956  29.732  -7.761  1.00  0.00     0.275 HD
ATOM     13  H12 UNL     1      19.897  30.645  -8.435  1.00  0.00     0.275 HD
ATOM     14  H11 UNL     1      19.433  29.812  -7.047  1.00  0.00     0.275 HD
ENDBRANCH   1  11
BRANCH   1  15
HETATM   15  C11 UNL     1      18.638  27.785  -7.908  1.00  0.00     0.056 C 
BRANCH  15  16
HETATM   16  C12 UNL     1      17.251  28.308  -7.733  1.00  0.00     0.122 C 
BRANCH  16  17
HETATM   17  N2  UNL     1      16.351  27.524  -8.562  1.00  0.00    -0.388 N 
HETATM   18  C13 UNL     1      15.191  27.992  -8.819  1.00  0.00     0.185 C 
HETATM   19  N3  UNL     1      14.801  29.247  -8.301  1.00  0.00    -0.097 NA
ATOM     20  H2  UNL     1      16.641  26.618  -8.932  1.00  0.00     0.159 HD
ENDBRANCH  16  17
ENDBRANCH  15  16
ENDBRANCH   1  15
TORSDOF 7
ENDMDL
MODEL 4
REMARK VINA RESULT: -6.258634449      2.708      6.493
REMARK  7 active torsions:
REMARK  status: ('A' for Active; 'I' for Inactive)
REMARK    1  A    between atoms: C6_6  and  C7_7 
REMARK    2  A    between atoms: C7_7  and  C8_8 
REMARK    3  A    between atoms: C9_9  and  C10_10 
REMARK    4  A    between atoms: C10_10  and  N1_11 
REMARK    5  A    between atoms: C10_10  and  C11_15 
REMARK    6  A    between atoms: C11_15  and  C12_16 
REMARK    7  A    between atoms: C12_16  and  N2_17 
ROOT
HETATM    1  C10 UNL     1      18.349  27.271  -9.556  1.00  0.00     0.207 C 
ENDROOT
BRANCH   1   2
HETATM    2  C9  UNL     1      17.855  27.305  -8.164  1.00  0.00     0.002 C 
HETATM    3  C8  UNL     1      17.988  28.396  -7.401  1.00  0.00    -0.028 C 
BRANCH   3   4
HETATM    4  C7  UNL     1      18.602  29.658  -7.782  1.00  0.00     0.036 C 
BRANCH   4   5
HETATM    5  C6  UNL     1      19.857  30.032  -7.013  1.00  0.00     0.017 C 
HETATM    6  C2  UNL     1      20.338  31.392  -7.269  1.00  0.00    -0.085 C 
HETATM    7  C1  UNL     1      19.865  32.558  -6.876  1.00  0.00     0.014 C 
HETATM    8  C3  UNL     1      21.583  31.250  -8.121  1.00  0.00     0.034 C 
HETATM    9  C4  UNL     1      22.185  29.959  -7.565  1.00  0.00     0.005 C 
HETATM   10  C5  UNL     1      20.947  29.112  -7.478  1.00  0.00     0.009 C 
ENDBRANCH   4   5
ENDBRANCH   3   4
ENDBRANCH   1   2
BRANCH   1  11
HETATM   11  N1  UNL     1      19.065  26.041  -9.850  1.00  0.00    -0.072 N 
ATOM     12  H13 UNL     1      19.793  26.195 -10.547  1.00  0.00     0.275 HD
ATOM     13  H12 UNL     1      19.650  25.757  -9.065  1.00  0.00     0.275 HD
ATOM     14  H11 UNL     1      18.435  25.290 -10.133  1.00  0.00     0.275 HD
ENDBRANCH   1  11
BRANCH   1  15
HETATM   15  C11 UNL     1      17.241  27.390 -10.552  1.00  0.00     0.056 C 
BRANCH  15  16
HETATM   16  C12 UNL     1      17.686  27.307 -11.974  1.00  0.00     0.122 C 
BRANCH  16  17
HETATM   17  N2  UNL     1      16.776  26.432 -12.694  1.00  0.00    -0.388 N 
HETATM   18  C13 UNL     1      17.185  25.270 -13.034  1.00  0.00     0.185 C 
HETATM   19  N3  UNL     1      18.497  24.857 -12.712  1.00  0.00    -0.097 NA
ATOM     20  H2  UNL     1      15.831  26.738 -12.924  1.00  0.00     0.159 HD
ENDBRANCH  16  17
ENDBRANCH  15  16
ENDBRANCH   1  15
TORSDOF 7
ENDMDL
MODEL 5
REMARK VINA RESULT: -6.246204232      2.535      6.677
REMARK  7 active torsions:
REMARK  status: ('A' for Active; 'I' for Inactive)
REMARK    1  A    between atoms: C6_6  and  C7_7 
REMARK    2  A    between atoms: C7_7  and  C8_8 
REMARK    3  A    between atoms: C9_9  and  C10_10 
REMARK    4  A    between atoms: C10_10  and  N1_11 
REMARK    5  A    between atoms: C10_10  and  C11_15 
REMARK    6  A    between atoms: C11_15  and  C12_16 
REMARK    7  A    between atoms: C12_16  and  N2_17 
ROOT
HETATM    1  C10 UNL     1      17.662  25.289 -12.621  1.00  0.00     0.207 C 
ENDROOT
BRANCH   1   2
HETATM    2  C9  UNL     1      18.611  26.209 -11.960  1.00  0.00     0.002 C 
HETATM    3  C8  UNL     1      18.247  26.953 -10.910  1.00  0.00    -0.028 C 
BRANCH   3   4
HETATM    4  C7  UNL     1      16.940  26.986 -10.274  1.00  0.00     0.036 C 
BRANCH   4   5
HETATM    5  C6  UNL     1      16.947  27.256  -8.779  1.00  0.00     0.017 C 
HETATM    6  C2  UNL     1      16.459  28.586  -8.404  1.00  0.00    -0.085 C 
HETATM    7  C1  UNL     1      15.237  29.079  -8.391  1.00  0.00     0.014 C 
HETATM    8  C3  UNL     1      17.676  29.382  -7.982  1.00  0.00     0.034 C 
HETATM    9  C4  UNL     1      18.533  28.301  -7.323  1.00  0.00     0.005 C 
HETATM   10  C5  UNL     1      18.377  27.197  -8.330  1.00  0.00     0.009 C 
ENDBRANCH   4   5
ENDBRANCH   3   4
ENDBRANCH   1   2
BRANCH   1  11
HETATM   11  N1  UNL     1      16.561  26.000 -13.249  1.00  0.00    -0.072 N 
ATOM     12  H13 UNL     1      16.162  26.695 -12.619  1.00  0.00     0.275 HD
ATOM     13  H12 UNL     1      16.894  26.621 -13.986  1.00  0.00     0.275 HD
ATOM     14  H11 UNL     1      15.844  25.364 -13.599  1.00  0.00     0.275 HD
ENDBRANCH   1  11
BRANCH   1  15
HETATM   15  C11 UNL     1      18.319  24.464 -13.680  1.00  0.00     0.056 C 
BRANCH  15  16
HETATM   16  C12 UNL     1      19.612  25.022 -14.175  1.00  0.00     0.122 C 
BRANCH  16  17
HETATM   17  N2  UNL     1      20.678  24.095 -13.835  1.00  0.00    -0.388 N 
HETATM   18  C13 UNL     1      21.834  24.565 -13.561  1.00  0.00     0.185 C 
HETATM   19  N3  UNL     1      22.059  25.959 -13.592  1.00  0.00    -0.097 NA
ATOM     20  H2  UNL     1      20.507  23.089 -13.815  1.00  0.00     0.159 HD
ENDBRANCH  16  17
ENDBRANCH  15  16
ENDBRANCH   1  15
TORSDOF 7
ENDMDL
