MODEL 1
REMARK VINA RESULT: -7.228292974      0.000      0.000
REMARK  7 active torsions:
REMARK  status: ('A' for Active; 'I' for Inactive)
REMARK    1  A    between atoms: C2_2  and  N1_3 
REMARK    2  A    between atoms: C2_2  and  C3_7 
REMARK    3  A    between atoms: C3_7  and  N2_8 
REMARK    4  A    between atoms: N2_8  and  C4_11 
REMARK    5  A    between atoms: C4_11  and  C6_14 
REMARK    6  A    between atoms: C6_14  and  C7_15 
REMARK    7  A    between atoms: C7_15  and  C8_16 
ROOT
HETATM    1  C4  UNL     1      16.619  27.449  -8.753  1.00  0.00     0.291 C 
HETATM    2  C5  UNL     1      15.514  28.399  -8.569  1.00  0.00     0.092 C 
HETATM    3  N3  UNL     1      14.661  29.155  -8.439  1.00  0.00    -0.195 NA
ENDROOT
BRANCH   1   4
HETATM    4  N2  UNL     1      17.667  27.783  -7.797  1.00  0.00    -0.057 N 
ATOM      5  H22 UNL     1      18.504  27.230  -7.976  1.00  0.00     0.278 HD
ATOM      6  H21 UNL     1      17.427  27.438  -6.868  1.00  0.00     0.278 HD
BRANCH   4   7
HETATM    7  C3  UNL     1      17.988  29.171  -7.746  1.00  0.00     0.266 C 
BRANCH   7   8
HETATM    8  C2  UNL     1      19.450  29.495  -7.697  1.00  0.00     0.205 C 
HETATM    9  C1  UNL     1      19.771  30.231  -9.000  1.00  0.00     0.041 C 
BRANCH   8  10
HETATM   10  N1  UNL     1      20.308  28.364  -7.553  1.00  0.00    -0.074 N 
ATOM     11  H13 UNL     1      21.162  28.460  -8.103  1.00  0.00     0.274 HD
ATOM     12  H12 UNL     1      20.731  28.321  -6.626  1.00  0.00     0.274 HD
ATOM     13  H11 UNL     1      19.799  27.511  -7.781  1.00  0.00     0.274 HD
ENDBRANCH   8  10
ENDBRANCH   7   8
ENDBRANCH   4   7
ENDBRANCH   1   4
BRANCH   1  14
HETATM   14  C6  UNL     1      17.242  27.624 -10.114  1.00  0.00     0.052 C 
BRANCH  14  15
HETATM   15  C7  UNL     1      18.388  26.723 -10.414  1.00  0.00     0.041 C 
BRANCH  15  16
HETATM   16  C8  UNL     1      18.238  25.940 -11.666  1.00  0.00    -0.058 A 
HETATM   17  C9  UNL     1      17.042  25.955 -12.340  1.00  0.00     0.007 A 
HETATM   18  C10 UNL     1      16.966  25.184 -13.506  1.00  0.00     0.001 A 
HETATM   19  C11 UNL     1      18.014  24.438 -13.979  1.00  0.00     0.000 A 
HETATM   20  C12 UNL     1      19.197  24.446 -13.281  1.00  0.00     0.001 A 
HETATM   21  C13 UNL     1      19.329  25.185 -12.129  1.00  0.00     0.007 A 
ENDBRANCH  15  16
ENDBRANCH  14  15
ENDBRANCH   1  14
TORSDOF 7
ENDMDL
MODEL 2
REMARK VINA RESULT: -7.218985152      0.106      1.200
REMARK  7 active torsions:
REMARK  status: ('A' for Active; 'I' for Inactive)
REMARK    1  A    between atoms: C2_2  and  N1_3 
REMARK    2  A    between atoms: C2_2  and  C3_7 
REMARK    3  A    between atoms: C3_7  and  N2_8 
REMARK    4  A    between atoms: N2_8  and  C4_11 
REMARK    5  A    between atoms: C4_11  and  C6_14 
REMARK    6  A    between atoms: C6_14  and  C7_15 
REMARK    7  A    between atoms: C7_15  and  C8_16 
ROOT
HETATM    1  C4  UNL     1      16.704  27.455  -8.707  1.00  0.00     0.291 C 
HETATM    2  C5  UNL     1      15.554  28.355  -8.548  1.00  0.00     0.092 C 
HETATM    3  N3  UNL     1      14.666  29.073  -8.437  1.00  0.00    -0.195 NA
ENDROOT
BRANCH   1   4
HETATM    4  N2  UNL     1      17.708  27.826  -7.718  1.00  0.00    -0.057 N 
ATOM      5  H22 UNL     1      18.550  27.263  -7.835  1.00  0.00     0.278 HD
ATOM      6  H21 UNL     1      17.423  27.520  -6.788  1.00  0.00     0.278 HD
BRANCH   4   7
HETATM    7  C3  UNL     1      18.034  29.214  -7.710  1.00  0.00     0.266 C 
BRANCH   7   8
HETATM    8  C2  UNL     1      19.495  29.534  -7.626  1.00  0.00     0.205 C 
HETATM    9  C1  UNL     1      19.843  30.290  -8.911  1.00  0.00     0.041 C 
BRANCH   8  10
HETATM   10  N1  UNL     1      20.348  28.400  -7.482  1.00  0.00    -0.074 N 
ATOM     11  H13 UNL     1      21.103  28.400  -8.169  1.00  0.00     0.274 HD
ATOM     12  H12 UNL     1      20.916  28.453  -6.637  1.00  0.00     0.274 HD
ATOM     13  H11 UNL     1      19.796  27.544  -7.520  1.00  0.00     0.274 HD
ENDBRANCH   8  10
ENDBRANCH   7   8
ENDBRANCH   4   7
ENDBRANCH   1   4
BRANCH   1  14
HETATM   14  C6  UNL     1      17.358  27.671 -10.047  1.00  0.00     0.052 C 
BRANCH  14  15
HETATM   15  C7  UNL     1      18.488  26.755 -10.362  1.00  0.00     0.041 C 
BRANCH  15  16
HETATM   16  C8  UNL     1      18.302  25.955 -11.599  1.00  0.00    -0.058 A 
HETATM   17  C9  UNL     1      19.340  25.200 -12.084  1.00  0.00     0.007 A 
HETATM   18  C10 UNL     1      19.100  24.481 -13.261  1.00  0.00     0.001 A 
HETATM   19  C11 UNL     1      17.900  24.509 -13.923  1.00  0.00     0.000 A 
HETATM   20  C12 UNL     1      16.882  25.275 -13.409  1.00  0.00     0.001 A 
HETATM   21  C13 UNL     1      17.061  26.001 -12.256  1.00  0.00     0.007 A 
ENDBRANCH  15  16
ENDBRANCH  14  15
ENDBRANCH   1  14
TORSDOF 7
ENDMDL
MODEL 3
REMARK VINA RESULT: -7.090422004      1.012      1.597
REMARK  7 active torsions:
REMARK  status: ('A' for Active; 'I' for Inactive)
REMARK    1  A    between atoms: C2_2  and  N1_3 
REMARK    2  A    between atoms: C2_2  and  C3_7 
REMARK    3  A    between atoms: C3_7  and  N2_8 
REMARK    4  A    between atoms: N2_8  and  C4_11 
REMARK    5  A    between atoms: C4_11  and  C6_14 
REMARK    6  A    between atoms: C6_14  and  C7_15 
REMARK    7  A    between atoms: C7_15  and  C8_16 
ROOT
HETATM    1  C4  UNL     1      17.102  27.206  -8.571  1.00  0.00     0.291 C 
HETATM    2  C5  UNL     1      15.808  27.871  -8.781  1.00  0.00     0.092 C 
HETATM    3  N3  UNL     1      14.808  28.403  -8.960  1.00  0.00    -0.195 NA
ENDROOT
BRANCH   1   4
HETATM    4  N2  UNL     1      17.872  28.003  -7.625  1.00  0.00    -0.057 N 
ATOM      5  H22 UNL     1      18.827  27.653  -7.556  1.00  0.00     0.278 HD
ATOM      6  H21 UNL     1      17.555  27.829  -6.671  1.00  0.00     0.278 HD
BRANCH   4   7
HETATM    7  C3  UNL     1      17.872  29.401  -7.904  1.00  0.00     0.266 C 
BRANCH   7   8
HETATM    8  C2  UNL     1      19.201  30.084  -7.787  1.00  0.00     0.205 C 
HETATM    9  C1  UNL     1      20.231  28.977  -7.544  1.00  0.00     0.041 C 
BRANCH   8  10
HETATM   10  N1  UNL     1      19.282  31.059  -6.751  1.00  0.00    -0.074 N 
ATOM     11  H13 UNL     1      18.958  30.694  -5.855  1.00  0.00     0.274 HD
ATOM     12  H12 UNL     1      20.247  31.260  -6.489  1.00  0.00     0.274 HD
ATOM     13  H11 UNL     1      18.777  31.901  -7.026  1.00  0.00     0.274 HD
ENDBRANCH   8  10
ENDBRANCH   7   8
ENDBRANCH   4   7
ENDBRANCH   1   4
BRANCH   1  14
HETATM   14  C6  UNL     1      17.905  27.206  -9.847  1.00  0.00     0.052 C 
BRANCH  14  15
HETATM   15  C7  UNL     1      17.125  26.974 -11.093  1.00  0.00     0.041 C 
BRANCH  15  16
HETATM   16  C8  UNL     1      17.731  25.984 -12.018  1.00  0.00    -0.058 A 
HETATM   17  C9  UNL     1      19.041  25.608 -11.850  1.00  0.00     0.007 A 
HETATM   18  C10 UNL     1      19.553  24.682 -12.766  1.00  0.00     0.001 A 
HETATM   19  C11 UNL     1      18.811  24.156 -13.792  1.00  0.00     0.000 A 
HETATM   20  C12 UNL     1      17.503  24.553 -13.930  1.00  0.00     0.001 A 
HETATM   21  C13 UNL     1      16.947  25.460 -13.060  1.00  0.00     0.007 A 
ENDBRANCH  15  16
ENDBRANCH  14  15
ENDBRANCH   1  14
TORSDOF 7
ENDMDL
MODEL 4
REMARK VINA RESULT: -7.053853263      1.037      1.179
REMARK  7 active torsions:
REMARK  status: ('A' for Active; 'I' for Inactive)
REMARK    1  A    between atoms: C2_2  and  N1_3 
REMARK    2  A    between atoms: C2_2  and  C3_7 
REMARK    3  A    between atoms: C3_7  and  N2_8 
REMARK    4  A    between atoms: N2_8  and  C4_11 
REMARK    5  A    between atoms: C4_11  and  C6_14 
REMARK    6  A    between atoms: C6_14  and  C7_15 
REMARK    7  A    between atoms: C7_15  and  C8_16 
ROOT
HETATM    1  C4  UNL     1      17.018  27.069  -8.627  1.00  0.00     0.291 C 
HETATM    2  C5  UNL     1      15.816  27.898  -8.790  1.00  0.00     0.092 C 
HETATM    3  N3  UNL     1      14.889  28.559  -8.931  1.00  0.00    -0.195 NA
ENDROOT
BRANCH   1   4
HETATM    4  N2  UNL     1      17.847  27.672  -7.593  1.00  0.00    -0.057 N 
ATOM      5  H22 UNL     1      17.980  27.023  -6.817  1.00  0.00     0.278 HD
ATOM      6  H21 UNL     1      17.337  28.413  -7.112  1.00  0.00     0.278 HD
BRANCH   4   7
HETATM    7  C3  UNL     1      19.105  28.154  -8.061  1.00  0.00     0.266 C 
BRANCH   7   8
HETATM    8  C2  UNL     1      19.316  29.632  -7.939  1.00  0.00     0.205 C 
HETATM    9  C1  UNL     1      20.739  29.820  -7.404  1.00  0.00     0.041 C 
BRANCH   8  10
HETATM   10  N1  UNL     1      18.386  30.301  -7.090  1.00  0.00    -0.074 N 
ATOM     11  H13 UNL     1      18.847  30.763  -6.307  1.00  0.00     0.274 HD
ATOM     12  H12 UNL     1      17.986  31.127  -7.536  1.00  0.00     0.274 HD
ATOM     13  H11 UNL     1      17.667  29.648  -6.780  1.00  0.00     0.274 HD
ENDBRANCH   8  10
ENDBRANCH   7   8
ENDBRANCH   4   7
ENDBRANCH   1   4
BRANCH   1  14
HETATM   14  C6  UNL     1      17.851  27.100  -9.883  1.00  0.00     0.052 C 
BRANCH  14  15
HETATM   15  C7  UNL     1      17.098  26.925 -11.155  1.00  0.00     0.041 C 
BRANCH  15  16
HETATM   16  C8  UNL     1      17.704  25.949 -12.095  1.00  0.00    -0.058 A 
HETATM   17  C9  UNL     1      16.942  25.408 -13.100  1.00  0.00     0.007 A 
HETATM   18  C10 UNL     1      17.573  24.485 -13.943  1.00  0.00     0.001 A 
HETATM   19  C11 UNL     1      18.885  24.117 -13.799  1.00  0.00     0.000 A 
HETATM   20  C12 UNL     1      19.620  24.678 -12.783  1.00  0.00     0.001 A 
HETATM   21  C13 UNL     1      19.052  25.590 -11.925  1.00  0.00     0.007 A 
ENDBRANCH  15  16
ENDBRANCH  14  15
ENDBRANCH   1  14
TORSDOF 7
ENDMDL
MODEL 5
REMARK VINA RESULT: -6.956637376      0.996      1.617
REMARK  7 active torsions:
REMARK  status: ('A' for Active; 'I' for Inactive)
REMARK    1  A    between atoms: C2_2  and  N1_3 
REMARK    2  A    between atoms: C2_2  and  C3_7 
REMARK    3  A    between atoms: C3_7  and  N2_8 
REMARK    4  A    between atoms: N2_8  and  C4_11 
REMARK    5  A    between atoms: C4_11  and  C6_14 
REMARK    6  A    between atoms: C6_14  and  C7_15 
REMARK    7  A    between atoms: C7_15  and  C8_16 
ROOT
HETATM    1  C4  UNL     1      17.123  28.238  -8.396  1.00  0.00     0.291 C 
HETATM    2  C5  UNL     1      15.741  28.734  -8.341  1.00  0.00     0.092 C 
HETATM    3  N3  UNL     1      14.659  29.115  -8.319  1.00  0.00    -0.195 NA
ENDROOT
BRANCH   1   4
HETATM    4  N2  UNL     1      17.958  29.287  -8.966  1.00  0.00    -0.057 N 
ATOM      5  H22 UNL     1      17.382  30.056  -9.308  1.00  0.00     0.278 HD
ATOM      6  H21 UNL     1      18.371  28.976  -9.845  1.00  0.00     0.278 HD
BRANCH   4   7
HETATM    7  C3  UNL     1      18.967  29.773  -8.083  1.00  0.00     0.266 C 
BRANCH   7   8
HETATM    8  C2  UNL     1      20.172  28.895  -7.933  1.00  0.00     0.205 C 
HETATM    9  C1  UNL     1      21.242  29.749  -7.249  1.00  0.00     0.041 C 
BRANCH   8  10
HETATM   10  N1  UNL     1      20.680  28.364  -9.155  1.00  0.00    -0.074 N 
ATOM     11  H13 UNL     1      20.896  29.098  -9.830  1.00  0.00     0.274 HD
ATOM     12  H12 UNL     1      21.619  27.983  -9.045  1.00  0.00     0.274 HD
ATOM     13  H11 UNL     1      20.029  27.676  -9.532  1.00  0.00     0.274 HD
ENDBRANCH   8  10
ENDBRANCH   7   8
ENDBRANCH   4   7
ENDBRANCH   1   4
BRANCH   1  14
HETATM   14  C6  UNL     1      17.225  27.076  -9.350  1.00  0.00     0.052 C 
BRANCH  14  15
HETATM   15  C7  UNL     1      17.209  27.432 -10.795  1.00  0.00     0.041 C 
BRANCH  15  16
HETATM   16  C8  UNL     1      17.734  26.371 -11.692  1.00  0.00    -0.058 A 
HETATM   17  C9  UNL     1      19.027  25.934 -11.545  1.00  0.00     0.007 A 
HETATM   18  C10 UNL     1      19.461  24.942 -12.433  1.00  0.00     0.001 A 
HETATM   19  C11 UNL     1      18.661  24.412 -13.412  1.00  0.00     0.000 A 
HETATM   20  C12 UNL     1      17.371  24.872 -13.530  1.00  0.00     0.001 A 
HETATM   21  C13 UNL     1      16.891  25.845 -12.686  1.00  0.00     0.007 A 
ENDBRANCH  15  16
ENDBRANCH  14  15
ENDBRANCH   1  14
TORSDOF 7
ENDMDL
