MODEL 1
REMARK VINA RESULT: -7.576949076      0.000      0.000
REMARK  4 active torsions:
REMARK  status: ('A' for Active; 'I' for Inactive)
REMARK       I    between atoms: C2_2  and  N1_4 
REMARK    1  A    between atoms: N1_4  and  C3_6 
REMARK    2  A    between atoms: C4_9  and  C5_10 
REMARK    3  A    between atoms: C6_14  and  C7_15 
REMARK    4  A    between atoms: C8_21  and  N6_22 
ROOT
HETATM    1  C5  UNL     1       9.038  -0.960  25.004  1.00  0.00     0.174 A 
HETATM    2  N3  UNL     1       8.416  -1.498  23.943  1.00  0.00    -0.239 N 
ATOM      3  H3  UNL     1       7.807  -0.976  23.313  1.00  0.00     0.196 HD
HETATM    4  O2  UNL     1       8.677  -2.741  23.818  1.00  0.00    -0.215 OA
HETATM    5  C6  UNL     1       9.495  -3.063  24.812  1.00  0.00     0.204 A 
HETATM    6  N7  UNL     1       9.728  -1.968  25.556  1.00  0.00    -0.315 N 
ATOM      7  H7  UNL     1      10.320  -1.913  26.385  1.00  0.00     0.169 HD
ENDROOT
BRANCH   1   8
HETATM    8  C4  UNL     1       8.962   0.439  25.442  1.00  0.00     0.182 A 
HETATM    9  N2  UNL     1       9.056   0.914  26.697  1.00  0.00    -0.170 N 
HETATM   10  C3  UNL     1       8.940   2.249  26.716  1.00  0.00     0.701 A 
ATOM     11  H2  UNL     1       9.198   0.335  27.525  1.00  0.00     0.186 HD
HETATM   12  N9  UNL     1       8.767   2.626  25.436  1.00  0.00    -0.130 N 
HETATM   13  N8  UNL     1       8.781   1.525  24.668  1.00  0.00    -0.268 N 
ATOM     14  H9  UNL     1       8.647   3.583  25.106  1.00  0.00     0.205 HD
ATOM     15  H8  UNL     1       8.671   1.513  23.654  1.00  0.00     0.189 HD
BRANCH  10  16
HETATM   16  N1  UNL     1       8.977   3.070  27.727  1.00  0.00    -0.159 N 
HETATM   17  C2  UNL     1       7.945   4.020  27.950  1.00  0.00     0.232 C 
HETATM   18  C1  UNL     1       8.238   5.441  28.190  1.00  0.00     0.118 C 
HETATM   19  O1  UNL     1       6.749   3.634  27.943  1.00  0.00    -0.273 OA
ATOM     20  H1  UNL     1       9.765   3.029  28.372  1.00  0.00     0.187 HD
ENDBRANCH  10  16
ENDBRANCH   1   8
BRANCH   5  21
HETATM   21  C7  UNL     1      10.007  -4.414  24.987  1.00  0.00     0.155 A 
HETATM   22  N4  UNL     1      11.239  -4.742  25.471  1.00  0.00    -0.234 N 
HETATM   23  O3  UNL     1      11.337  -6.032  25.483  1.00  0.00    -0.155 OA
ATOM     24  H4  UNL     1      11.958  -4.084  25.771  1.00  0.00     0.197 HD
HETATM   25  N5  UNL     1      10.275  -6.592  25.048  1.00  0.00    -0.224 N 
HETATM   26  C8  UNL     1       9.388  -5.607  24.715  1.00  0.00     0.154 A 
ATOM     27  H5  UNL     1      10.117  -7.597  24.964  1.00  0.00     0.198 HD
BRANCH  26  28
HETATM   28  N6  UNL     1       8.205  -5.788  24.240  1.00  0.00    -0.382 N 
ATOM     29  H62 UNL     1       7.408  -5.166  24.372  1.00  0.00     0.157 HD
ATOM     30  H61 UNL     1       7.877  -6.565  23.666  1.00  0.00     0.157 HD
ENDBRANCH  26  28
ENDBRANCH   5  21
TORSDOF 4
ENDMDL
MODEL 2
REMARK VINA RESULT: -7.512104710      1.045      1.070
REMARK  4 active torsions:
REMARK  status: ('A' for Active; 'I' for Inactive)
REMARK       I    between atoms: C2_2  and  N1_4 
REMARK    1  A    between atoms: N1_4  and  C3_6 
REMARK    2  A    between atoms: C4_9  and  C5_10 
REMARK    3  A    between atoms: C6_14  and  C7_15 
REMARK    4  A    between atoms: C8_21  and  N6_22 
ROOT
HETATM    1  C5  UNL     1       9.016  -1.089  24.352  1.00  0.00     0.174 A 
HETATM    2  N3  UNL     1       8.281  -1.824  23.503  1.00  0.00    -0.239 N 
ATOM      3  H3  UNL     1       7.593  -1.434  22.858  1.00  0.00     0.196 HD
HETATM    4  O2  UNL     1       8.547  -3.069  23.599  1.00  0.00    -0.215 OA
HETATM    5  C6  UNL     1       9.482  -3.191  24.532  1.00  0.00     0.204 A 
HETATM    6  N7  UNL     1       9.784  -1.970  25.007  1.00  0.00    -0.315 N 
ATOM      7  H7  UNL     1      10.468  -1.755  25.732  1.00  0.00     0.169 HD
ENDROOT
BRANCH   1   8
HETATM    8  C4  UNL     1       8.969   0.370  24.507  1.00  0.00     0.182 A 
HETATM    9  N2  UNL     1       8.626   1.070  25.603  1.00  0.00    -0.170 N 
HETATM   10  C3  UNL     1       8.699   2.389  25.374  1.00  0.00     0.701 A 
ATOM     11  H2  UNL     1       8.347   0.653  26.491  1.00  0.00     0.186 HD
HETATM   12  N9  UNL     1       9.100   2.523  24.097  1.00  0.00    -0.130 N 
HETATM   13  N8  UNL     1       9.262   1.297  23.576  1.00  0.00    -0.268 N 
ATOM     14  H9  UNL     1       9.255   3.406  23.609  1.00  0.00     0.205 HD
ATOM     15  H8  UNL     1       9.561   1.098  22.621  1.00  0.00     0.189 HD
BRANCH  10  16
HETATM   16  N1  UNL     1       8.448   3.384  26.176  1.00  0.00    -0.159 N 
HETATM   17  C2  UNL     1       8.067   3.170  27.528  1.00  0.00     0.232 C 
HETATM   18  C1  UNL     1       6.889   3.828  28.114  1.00  0.00     0.118 C 
HETATM   19  O1  UNL     1       8.756   2.400  28.241  1.00  0.00    -0.273 OA
ATOM     20  H1  UNL     1       8.527   4.338  25.825  1.00  0.00     0.187 HD
ENDBRANCH  10  16
ENDBRANCH   1   8
BRANCH   5  21
HETATM   21  C7  UNL     1      10.034  -4.483  24.911  1.00  0.00     0.155 A 
HETATM   22  N4  UNL     1      11.241  -4.688  25.511  1.00  0.00    -0.234 N 
HETATM   23  O3  UNL     1      11.389  -5.960  25.694  1.00  0.00    -0.155 OA
ATOM     24  H4  UNL     1      11.911  -3.963  25.769  1.00  0.00     0.197 HD
HETATM   25  N5  UNL     1      10.383  -6.621  25.268  1.00  0.00    -0.224 N 
HETATM   26  C8  UNL     1       9.483  -5.729  24.756  1.00  0.00     0.154 A 
ATOM     27  H5  UNL     1      10.271  -7.634  25.305  1.00  0.00     0.198 HD
BRANCH  26  28
HETATM   28  N6  UNL     1       8.344  -6.025  24.234  1.00  0.00    -0.382 N 
ATOM     29  H62 UNL     1       7.431  -5.838  24.649  1.00  0.00     0.157 HD
ATOM     30  H61 UNL     1       8.169  -6.484  23.340  1.00  0.00     0.157 HD
ENDBRANCH  26  28
ENDBRANCH   5  21
TORSDOF 4
ENDMDL
MODEL 3
REMARK VINA RESULT: -7.348789547      1.561      2.106
REMARK  4 active torsions:
REMARK  status: ('A' for Active; 'I' for Inactive)
REMARK       I    between atoms: C2_2  and  N1_4 
REMARK    1  A    between atoms: N1_4  and  C3_6 
REMARK    2  A    between atoms: C4_9  and  C5_10 
REMARK    3  A    between atoms: C6_14  and  C7_15 
REMARK    4  A    between atoms: C8_21  and  N6_22 
ROOT
HETATM    1  C5  UNL     1       8.955  -1.537  24.968  1.00  0.00     0.174 A 
HETATM    2  N3  UNL     1       9.877  -1.894  25.877  1.00  0.00    -0.239 N 
ATOM      3  H3  UNL     1      10.364  -1.236  26.485  1.00  0.00     0.196 HD
HETATM    4  O2  UNL     1      10.069  -3.156  25.889  1.00  0.00    -0.215 OA
HETATM    5  C6  UNL     1       9.264  -3.676  24.972  1.00  0.00     0.204 A 
HETATM    6  N7  UNL     1       8.567  -2.683  24.392  1.00  0.00    -0.315 N 
ATOM      7  H7  UNL     1       7.872  -2.783  23.653  1.00  0.00     0.169 HD
ENDROOT
BRANCH   1   8
HETATM    8  C4  UNL     1       8.491  -0.173  24.687  1.00  0.00     0.182 A 
HETATM    9  N2  UNL     1       8.407   0.860  25.545  1.00  0.00    -0.170 N 
HETATM   10  C3  UNL     1       7.937   1.956  24.932  1.00  0.00     0.701 A 
ATOM     11  H2  UNL     1       8.666   0.815  26.530  1.00  0.00     0.186 HD
HETATM   12  N9  UNL     1       7.720   1.603  23.653  1.00  0.00    -0.130 N 
HETATM   13  N8  UNL     1       8.057   0.311  23.509  1.00  0.00    -0.268 N 
ATOM     14  H9  UNL     1       7.361   2.212  22.917  1.00  0.00     0.205 HD
ATOM     15  H8  UNL     1       7.993  -0.221  22.641  1.00  0.00     0.189 HD
BRANCH  10  16
HETATM   16  N1  UNL     1       7.715   3.144  25.417  1.00  0.00    -0.159 N 
HETATM   17  C2  UNL     1       8.009   3.462  26.769  1.00  0.00     0.232 C 
HETATM   18  C1  UNL     1       7.024   4.115  27.644  1.00  0.00     0.118 C 
HETATM   19  O1  UNL     1       9.143   3.176  27.229  1.00  0.00    -0.273 OA
ATOM     20  H1  UNL     1       7.320   3.863  24.810  1.00  0.00     0.187 HD
ENDBRANCH  10  16
ENDBRANCH   1   8
BRANCH   5  21
HETATM   21  C7  UNL     1       9.213  -5.105  24.706  1.00  0.00     0.155 A 
HETATM   22  N4  UNL     1       8.105  -5.807  24.334  1.00  0.00    -0.234 N 
HETATM   23  O3  UNL     1       8.444  -7.047  24.189  1.00  0.00    -0.155 OA
ATOM     24  H4  UNL     1       7.171  -5.421  24.195  1.00  0.00     0.197 HD
HETATM   25  N5  UNL     1       9.683  -7.233  24.433  1.00  0.00    -0.224 N 
HETATM   26  C8  UNL     1      10.228  -6.025  24.769  1.00  0.00     0.154 A 
ATOM     27  H5  UNL     1      10.179  -8.123  24.384  1.00  0.00     0.198 HD
BRANCH  26  28
HETATM   28  N6  UNL     1      11.460  -5.816  25.081  1.00  0.00    -0.382 N 
ATOM     29  H62 UNL     1      11.939  -6.187  25.902  1.00  0.00     0.157 HD
ATOM     30  H61 UNL     1      12.144  -5.257  24.572  1.00  0.00     0.157 HD
ENDBRANCH  26  28
ENDBRANCH   5  21
TORSDOF 4
ENDMDL
MODEL 4
REMARK VINA RESULT: -7.332678367      1.867      7.817
REMARK  4 active torsions:
REMARK  status: ('A' for Active; 'I' for Inactive)
REMARK       I    between atoms: C2_2  and  N1_4 
REMARK    1  A    between atoms: N1_4  and  C3_6 
REMARK    2  A    between atoms: C4_9  and  C5_10 
REMARK    3  A    between atoms: C6_14  and  C7_15 
REMARK    4  A    between atoms: C8_21  and  N6_22 
ROOT
HETATM    1  C5  UNL     1       9.005   0.842  25.819  1.00  0.00     0.174 A 
HETATM    2  N3  UNL     1       8.406   1.966  25.393  1.00  0.00    -0.239 N 
ATOM      3  H3  UNL     1       7.885   2.039  24.519  1.00  0.00     0.196 HD
HETATM    4  O2  UNL     1       8.566   2.930  26.213  1.00  0.00    -0.215 OA
HETATM    5  C6  UNL     1       9.289   2.461  27.222  1.00  0.00     0.204 A 
HETATM    6  N7  UNL     1       9.568   1.167  26.991  1.00  0.00    -0.315 N 
ATOM      7  H7  UNL     1      10.108   0.547  27.595  1.00  0.00     0.169 HD
ENDROOT
BRANCH   1   8
HETATM    8  C4  UNL     1       9.022  -0.452  25.127  1.00  0.00     0.182 A 
HETATM    9  N2  UNL     1       9.965  -1.409  25.197  1.00  0.00    -0.170 N 
HETATM   10  C3  UNL     1       9.642  -2.458  24.426  1.00  0.00     0.701 A 
ATOM     11  H2  UNL     1      10.812  -1.345  25.760  1.00  0.00     0.186 HD
HETATM   12  N9  UNL     1       8.463  -2.153  23.857  1.00  0.00    -0.130 N 
HETATM   13  N8  UNL     1       8.091  -0.936  24.284  1.00  0.00    -0.268 N 
ATOM     14  H9  UNL     1       7.941  -2.745  23.211  1.00  0.00     0.205 HD
ATOM     15  H8  UNL     1       7.235  -0.453  24.012  1.00  0.00     0.189 HD
BRANCH  10  16
HETATM   16  N1  UNL     1      10.291  -3.570  24.228  1.00  0.00    -0.159 N 
HETATM   17  C2  UNL     1      10.015  -4.737  24.988  1.00  0.00     0.232 C 
HETATM   18  C1  UNL     1      11.085  -5.507  25.642  1.00  0.00     0.118 C 
HETATM   19  O1  UNL     1       8.825  -5.121  25.105  1.00  0.00    -0.273 OA
ATOM     20  H1  UNL     1      11.014  -3.603  23.509  1.00  0.00     0.187 HD
ENDBRANCH  10  16
ENDBRANCH   1   8
BRANCH   5  21
HETATM   21  C7  UNL     1       9.669   3.292  28.354  1.00  0.00     0.155 A 
HETATM   22  N4  UNL     1      10.593   2.969  29.303  1.00  0.00    -0.234 N 
HETATM   23  O3  UNL     1      10.663   3.947  30.147  1.00  0.00    -0.155 OA
ATOM     24  H4  UNL     1      11.134   2.105  29.342  1.00  0.00     0.197 HD
HETATM   25  N5  UNL     1       9.865   4.895  29.841  1.00  0.00    -0.224 N 
HETATM   26  C8  UNL     1       9.201   4.533  28.703  1.00  0.00     0.154 A 
ATOM     27  H5  UNL     1       9.744   5.768  30.355  1.00  0.00     0.198 HD
BRANCH  26  28
HETATM   28  N6  UNL     1       8.313   5.237  28.092  1.00  0.00    -0.382 N 
ATOM     29  H62 UNL     1       8.026   5.124  27.120  1.00  0.00     0.157 HD
ATOM     30  H61 UNL     1       7.761   6.007  28.471  1.00  0.00     0.157 HD
ENDBRANCH  26  28
ENDBRANCH   5  21
TORSDOF 4
ENDMDL
MODEL 5
REMARK VINA RESULT: -7.224709715      1.594      2.058
REMARK  4 active torsions:
REMARK  status: ('A' for Active; 'I' for Inactive)
REMARK       I    between atoms: C2_2  and  N1_4 
REMARK    1  A    between atoms: N1_4  and  C3_6 
REMARK    2  A    between atoms: C4_9  and  C5_10 
REMARK    3  A    between atoms: C6_14  and  C7_15 
REMARK    4  A    between atoms: C8_21  and  N6_22 
ROOT
HETATM    1  C5  UNL     1       9.539  -1.791  24.819  1.00  0.00     0.174 A 
HETATM    2  N3  UNL     1      10.014  -1.882  23.566  1.00  0.00    -0.239 N 
ATOM      3  H3  UNL     1      10.333  -1.084  23.017  1.00  0.00     0.196 HD
HETATM    4  O2  UNL     1      10.017  -3.087  23.146  1.00  0.00    -0.215 OA
HETATM    5  C6  UNL     1       9.536  -3.838  24.128  1.00  0.00     0.204 A 
HETATM    6  N7  UNL     1       9.235  -3.047  25.172  1.00  0.00    -0.315 N 
ATOM      7  H7  UNL     1       8.848  -3.346  26.067  1.00  0.00     0.169 HD
ENDROOT
BRANCH   1   8
HETATM    8  C4  UNL     1       9.395  -0.562  25.608  1.00  0.00     0.182 A 
HETATM    9  N2  UNL     1       8.628   0.508  25.332  1.00  0.00    -0.170 N 
HETATM   10  C3  UNL     1       8.750   1.446  26.283  1.00  0.00     0.701 A 
ATOM     11  H2  UNL     1       8.032   0.595  24.509  1.00  0.00     0.186 HD
HETATM   12  N9  UNL     1       9.618   0.952  27.184  1.00  0.00    -0.130 N 
HETATM   13  N8  UNL     1      10.006  -0.265  26.770  1.00  0.00    -0.268 N 
ATOM     14  H9  UNL     1       9.928   1.421  28.035  1.00  0.00     0.205 HD
ATOM     15  H8  UNL     1      10.664  -0.872  27.260  1.00  0.00     0.189 HD
BRANCH  10  16
HETATM   16  N1  UNL     1       8.176   2.611  26.376  1.00  0.00    -0.159 N 
HETATM   17  C2  UNL     1       8.192   3.353  27.587  1.00  0.00     0.232 C 
HETATM   18  C1  UNL     1       6.963   3.921  28.163  1.00  0.00     0.118 C 
HETATM   19  O1  UNL     1       9.284   3.527  28.181  1.00  0.00    -0.273 OA
ATOM     20  H1  UNL     1       7.705   3.000  25.559  1.00  0.00     0.187 HD
ENDBRANCH  10  16
ENDBRANCH   1   8
BRANCH   5  21
HETATM   21  C7  UNL     1       9.394  -5.280  24.002  1.00  0.00     0.155 A 
HETATM   22  N4  UNL     1       8.339  -6.018  24.450  1.00  0.00    -0.234 N 
HETATM   23  O3  UNL     1       8.563  -7.259  24.160  1.00  0.00    -0.155 OA
ATOM     24  H4  UNL     1       7.515  -5.655  24.930  1.00  0.00     0.197 HD
HETATM   25  N5  UNL     1       9.678  -7.412  23.557  1.00  0.00    -0.224 N 
HETATM   26  C8  UNL     1      10.255  -6.180  23.428  1.00  0.00     0.154 A 
ATOM     27  H5  UNL     1      10.068  -8.296  23.230  1.00  0.00     0.198 HD
BRANCH  26  28
HETATM   28  N6  UNL     1      11.390  -5.935  22.870  1.00  0.00    -0.382 N 
ATOM     29  H62 UNL     1      11.831  -5.018  22.793  1.00  0.00     0.157 HD
ATOM     30  H61 UNL     1      12.020  -6.600  22.423  1.00  0.00     0.157 HD
ENDBRANCH  26  28
ENDBRANCH   5  21
TORSDOF 4
ENDMDL
