MODEL 1
REMARK VINA RESULT: -7.473068013      0.000      0.000
REMARK  3 active torsions:
REMARK  status: ('A' for Active; 'I' for Inactive)
REMARK    1  A    between atoms: C3_7  and  N3_8 
REMARK    2  A    between atoms: C5_16  and  C6_17 
REMARK    3  A    between atoms: C8_23  and  N8_24 
ROOT
HETATM    1  C1  UNL     1       7.270   1.089  22.445  1.00  0.00     0.147 C 
HETATM    2  N1  UNL     1       7.843  -0.131  22.878  1.00  0.00    -0.378 N 
ATOM      3  H1  UNL     1       7.723  -0.914  22.234  1.00  0.00     0.160 HD
HETATM    4  C2  UNL     1       8.479  -0.404  23.935  1.00  0.00     0.148 A 
HETATM    5  N2  UNL     1       8.914  -1.692  24.068  1.00  0.00    -0.175 N 
ATOM      6  H2  UNL     1       8.711  -2.362  23.326  1.00  0.00     0.186 HD
HETATM    7  C3  UNL     1       9.598  -2.103  25.143  1.00  0.00     0.679 A 
HETATM    8  N4  UNL     1       9.881  -1.248  26.137  1.00  0.00    -0.174 N 
ATOM      9  H4  UNL     1      10.403  -1.566  26.954  1.00  0.00     0.186 HD
HETATM   10  C4  UNL     1       9.469   0.048  26.048  1.00  0.00     0.154 A 
HETATM   11  N5  UNL     1       9.748   0.910  27.034  1.00  0.00    -0.323 N 
ATOM     12  H5  UNL     1      10.268   0.614  27.860  1.00  0.00     0.169 HD
HETATM   13  C5  UNL     1       9.311   2.202  26.899  1.00  0.00     0.153 A 
HETATM   14  N9  UNL     1       8.633   2.565  25.809  1.00  0.00    -0.283 N 
ATOM     15  H9  UNL     1       8.322   3.534  25.738  1.00  0.00     0.188 HD
HETATM   16  N10 UNL     1       8.339   1.747  24.817  1.00  0.00    -0.292 N 
ATOM     17  H10 UNL     1       7.818   2.057  23.997  1.00  0.00     0.187 HD
HETATM   18  C9  UNL     1       8.767   0.481  24.950  1.00  0.00     0.137 A 
ENDROOT
BRANCH  13  19
HETATM   19  C6  UNL     1       9.668   3.093  28.011  1.00  0.00     0.130 A 
HETATM   20  N6  UNL     1      10.800   2.982  28.771  1.00  0.00    -0.346 N 
HETATM   21  C7  UNL     1      10.826   3.956  29.683  1.00  0.00     0.182 A 
ATOM     22  H6  UNL     1      11.515   2.264  28.657  1.00  0.00     0.167 HD
HETATM   23  N7  UNL     1       9.747   4.703  29.544  1.00  0.00    -0.332 N 
HETATM   24  C8  UNL     1       8.998   4.187  28.504  1.00  0.00     0.205 A 
ATOM     25  H7  UNL     1       9.507   5.519  30.107  1.00  0.00     0.168 HD
BRANCH  24  26
HETATM   26  N8  UNL     1       7.791   4.792  28.121  1.00  0.00    -0.095 N 
HETATM   27  O1  UNL     1       7.721   6.061  28.073  1.00  0.00    -0.530 OA
HETATM   28  O2  UNL     1       6.669   4.133  27.787  1.00  0.00    -0.530 OA
ENDBRANCH  24  26
ENDBRANCH  13  19
BRANCH   7  29
HETATM   29  N3  UNL     1       9.976  -3.320  25.211  1.00  0.00    -0.234 N 
ATOM     30  H32 UNL     1       9.435  -4.000  25.745  1.00  0.00     0.174 HD
ATOM     31  H31 UNL     1      10.826  -3.603  24.723  1.00  0.00     0.174 HD
ENDBRANCH   7  29
TORSDOF 3
ENDMDL
MODEL 2
REMARK VINA RESULT: -7.356536745      7.461      9.139
REMARK  3 active torsions:
REMARK  status: ('A' for Active; 'I' for Inactive)
REMARK    1  A    between atoms: C3_7  and  N3_8 
REMARK    2  A    between atoms: C5_16  and  C6_17 
REMARK    3  A    between atoms: C8_23  and  N8_24 
ROOT
HETATM    1  C1  UNL     1      10.458  -1.894  20.805  1.00  0.00     0.147 C 
HETATM    2  N1  UNL     1       9.487  -2.417  21.692  1.00  0.00    -0.378 N 
ATOM      3  H1  UNL     1       8.561  -1.997  21.611  1.00  0.00     0.160 HD
HETATM    4  C2  UNL     1       9.586  -3.322  22.569  1.00  0.00     0.148 A 
HETATM    5  N2  UNL     1       8.453  -3.610  23.277  1.00  0.00    -0.175 N 
ATOM      6  H2  UNL     1       7.598  -3.094  23.072  1.00  0.00     0.186 HD
HETATM    7  C3  UNL     1       8.432  -4.547  24.232  1.00  0.00     0.679 A 
HETATM    8  N4  UNL     1       9.540  -5.244  24.526  1.00  0.00    -0.174 N 
ATOM      9  H4  UNL     1       9.518  -5.957  25.255  1.00  0.00     0.186 HD
HETATM   10  C4  UNL     1      10.693  -4.993  23.847  1.00  0.00     0.154 A 
HETATM   11  N5  UNL     1      11.805  -5.683  24.132  1.00  0.00    -0.323 N 
ATOM     12  H5  UNL     1      11.807  -6.401  24.856  1.00  0.00     0.169 HD
HETATM   13  C5  UNL     1      12.940  -5.393  23.420  1.00  0.00     0.153 A 
HETATM   14  N9  UNL     1      12.913  -4.450  22.478  1.00  0.00    -0.283 N 
ATOM     15  H9  UNL     1      13.774  -4.259  21.966  1.00  0.00     0.188 HD
HETATM   16  N10 UNL     1      11.839  -3.749  22.167  1.00  0.00    -0.292 N 
ATOM     17  H10 UNL     1      11.852  -3.034  21.440  1.00  0.00     0.187 HD
HETATM   18  C9  UNL     1      10.728  -4.033  22.864  1.00  0.00     0.137 A 
ENDROOT
BRANCH  13  19
HETATM   19  C6  UNL     1      14.114  -6.201  23.777  1.00  0.00     0.130 A 
HETATM   20  N6  UNL     1      14.985  -6.756  22.879  1.00  0.00    -0.346 N 
HETATM   21  C7  UNL     1      15.947  -7.412  23.533  1.00  0.00     0.182 A 
ATOM     22  H6  UNL     1      14.911  -6.679  21.865  1.00  0.00     0.167 HD
HETATM   23  N7  UNL     1      15.734  -7.305  24.831  1.00  0.00    -0.332 N 
HETATM   24  C8  UNL     1      14.590  -6.552  25.018  1.00  0.00     0.205 A 
ATOM     25  H7  UNL     1      16.312  -7.707  25.567  1.00  0.00     0.168 HD
BRANCH  24  26
HETATM   26  N8  UNL     1      14.125  -6.264  26.310  1.00  0.00    -0.095 N 
HETATM   27  O1  UNL     1      12.914  -6.519  26.604  1.00  0.00    -0.530 OA
HETATM   28  O2  UNL     1      14.865  -5.733  27.298  1.00  0.00    -0.530 OA
ENDBRANCH  24  26
ENDBRANCH  13  19
BRANCH   7  29
HETATM   29  N3  UNL     1       7.343  -4.770  24.860  1.00  0.00    -0.234 N 
ATOM     30  H32 UNL     1       7.326  -4.767  25.880  1.00  0.00     0.174 HD
ATOM     31  H31 UNL     1       6.492  -4.951  24.329  1.00  0.00     0.174 HD
ENDBRANCH   7  29
TORSDOF 3
ENDMDL
MODEL 3
REMARK VINA RESULT: -7.320182946      3.568      7.153
REMARK  3 active torsions:
REMARK  status: ('A' for Active; 'I' for Inactive)
REMARK    1  A    between atoms: C3_7  and  N3_8 
REMARK    2  A    between atoms: C5_16  and  C6_17 
REMARK    3  A    between atoms: C8_23  and  N8_24 
ROOT
HETATM    1  C1  UNL     1      11.630   0.401  29.017  1.00  0.00     0.147 C 
HETATM    2  N1  UNL     1      10.664   1.420  28.839  1.00  0.00    -0.378 N 
ATOM      3  H1  UNL     1      10.689   2.162  29.538  1.00  0.00     0.160 HD
HETATM    4  C2  UNL     1       9.776   1.555  27.950  1.00  0.00     0.148 A 
HETATM    5  N2  UNL     1       8.982   2.663  28.048  1.00  0.00    -0.175 N 
ATOM      6  H2  UNL     1       9.138   3.317  28.815  1.00  0.00     0.186 HD
HETATM    7  C3  UNL     1       8.006   2.918  27.168  1.00  0.00     0.679 A 
HETATM    8  N4  UNL     1       7.775   2.078  26.147  1.00  0.00    -0.174 N 
ATOM      9  H4  UNL     1       7.030   2.276  25.479  1.00  0.00     0.186 HD
HETATM   10  C4  UNL     1       8.541   0.960  26.008  1.00  0.00     0.154 A 
HETATM   11  N5  UNL     1       8.319   0.116  24.992  1.00  0.00    -0.323 N 
ATOM     12  H5  UNL     1       7.580   0.294  24.312  1.00  0.00     0.169 HD
HETATM   13  C5  UNL     1       9.116  -0.995  24.896  1.00  0.00     0.153 A 
HETATM   14  N9  UNL     1      10.077  -1.206  25.797  1.00  0.00    -0.283 N 
ATOM     15  H9  UNL     1      10.653  -2.041  25.697  1.00  0.00     0.188 HD
HETATM   16  N10 UNL     1      10.327  -0.399  26.811  1.00  0.00    -0.292 N 
ATOM     17  H10 UNL     1      11.069  -0.590  27.484  1.00  0.00     0.187 HD
HETATM   18  C9  UNL     1       9.546   0.689  26.905  1.00  0.00     0.137 A 
ENDROOT
BRANCH  13  19
HETATM   19  C6  UNL     1       8.825  -1.864  23.749  1.00  0.00     0.130 A 
HETATM   20  N6  UNL     1       8.483  -1.424  22.499  1.00  0.00    -0.346 N 
HETATM   21  C7  UNL     1       8.302  -2.469  21.688  1.00  0.00     0.182 A 
ATOM     22  H6  UNL     1       8.382  -0.446  22.229  1.00  0.00     0.167 HD
HETATM   23  N7  UNL     1       8.515  -3.581  22.367  1.00  0.00    -0.332 N 
HETATM   24  C8  UNL     1       8.844  -3.236  23.664  1.00  0.00     0.205 A 
ATOM     25  H7  UNL     1       8.449  -4.529  21.998  1.00  0.00     0.168 HD
BRANCH  24  26
HETATM   26  N8  UNL     1       9.136  -4.225  24.616  1.00  0.00    -0.095 N 
HETATM   27  O1  UNL     1       8.347  -5.214  24.745  1.00  0.00    -0.530 OA
HETATM   28  O2  UNL     1      10.209  -4.225  25.426  1.00  0.00    -0.530 OA
ENDBRANCH  24  26
ENDBRANCH  13  19
BRANCH   7  29
HETATM   29  N3  UNL     1       7.297   3.969  27.312  1.00  0.00    -0.234 N 
ATOM     30  H32 UNL     1       7.076   4.318  28.245  1.00  0.00     0.174 HD
ATOM     31  H31 UNL     1       6.955   4.455  26.483  1.00  0.00     0.174 HD
ENDBRANCH   7  29
TORSDOF 3
ENDMDL
MODEL 4
REMARK VINA RESULT: -7.227979344      1.116      2.821
REMARK  3 active torsions:
REMARK  status: ('A' for Active; 'I' for Inactive)
REMARK    1  A    between atoms: C3_7  and  N3_8 
REMARK    2  A    between atoms: C5_16  and  C6_17 
REMARK    3  A    between atoms: C8_23  and  N8_24 
ROOT
HETATM    1  C1  UNL     1       8.830  -2.075  24.302  1.00  0.00     0.147 C 
HETATM    2  N1  UNL     1       8.368  -1.098  23.387  1.00  0.00    -0.378 N 
ATOM      3  H1  UNL     1       8.058  -1.466  22.488  1.00  0.00     0.160 HD
HETATM    4  C2  UNL     1       8.279   0.156  23.509  1.00  0.00     0.148 A 
HETATM    5  N2  UNL     1       7.785   0.839  22.433  1.00  0.00    -0.175 N 
ATOM      6  H2  UNL     1       7.516   0.318  21.599  1.00  0.00     0.186 HD
HETATM    7  C3  UNL     1       7.644   2.170  22.440  1.00  0.00     0.679 A 
HETATM    8  N4  UNL     1       7.987   2.885  23.523  1.00  0.00    -0.174 N 
ATOM      9  H4  UNL     1       7.878   3.899  23.523  1.00  0.00     0.186 HD
HETATM   10  C4  UNL     1       8.484   2.248  24.620  1.00  0.00     0.154 A 
HETATM   11  N5  UNL     1       8.830   2.952  25.706  1.00  0.00    -0.323 N 
ATOM     12  H5  UNL     1       8.728   3.966  25.729  1.00  0.00     0.169 HD
HETATM   13  C5  UNL     1       9.324   2.266  26.784  1.00  0.00     0.153 A 
HETATM   14  N9  UNL     1       9.447   0.939  26.730  1.00  0.00    -0.283 N 
ATOM     15  H9  UNL     1       9.818   0.458  27.549  1.00  0.00     0.188 HD
HETATM   16  N10 UNL     1       9.118   0.210  25.680  1.00  0.00    -0.292 N 
ATOM     17  H10 UNL     1       9.225  -0.804  25.672  1.00  0.00     0.187 HD
HETATM   18  C9  UNL     1       8.633   0.882  24.624  1.00  0.00     0.137 A 
ENDROOT
BRANCH  13  19
HETATM   19  C6  UNL     1       9.665   3.102  27.943  1.00  0.00     0.130 A 
HETATM   20  N6  UNL     1      10.789   2.956  28.710  1.00  0.00    -0.346 N 
HETATM   21  C7  UNL     1      10.802   3.884  29.669  1.00  0.00     0.182 A 
ATOM     22  H6  UNL     1      11.507   2.246  28.569  1.00  0.00     0.167 HD
HETATM   23  N7  UNL     1       9.723   4.635  29.554  1.00  0.00    -0.332 N 
HETATM   24  C8  UNL     1       8.987   4.169  28.481  1.00  0.00     0.205 A 
ATOM     25  H7  UNL     1       9.474   5.421  30.154  1.00  0.00     0.168 HD
BRANCH  24  26
HETATM   26  N8  UNL     1       7.783   4.789  28.115  1.00  0.00    -0.095 N 
HETATM   27  O1  UNL     1       7.719   6.060  28.101  1.00  0.00    -0.530 OA
HETATM   28  O2  UNL     1       6.658   4.145  27.761  1.00  0.00    -0.530 OA
ENDBRANCH  24  26
ENDBRANCH  13  19
BRANCH   7  29
HETATM   29  N3  UNL     1       7.178   2.751  21.404  1.00  0.00    -0.234 N 
ATOM     30  H32 UNL     1       7.335   2.356  20.477  1.00  0.00     0.174 HD
ATOM     31  H31 UNL     1       6.646   3.614  21.516  1.00  0.00     0.174 HD
ENDBRANCH   7  29
TORSDOF 3
ENDMDL
MODEL 5
REMARK VINA RESULT: -7.219455432      1.258      1.414
REMARK  3 active torsions:
REMARK  status: ('A' for Active; 'I' for Inactive)
REMARK    1  A    between atoms: C3_7  and  N3_8 
REMARK    2  A    between atoms: C5_16  and  C6_17 
REMARK    3  A    between atoms: C8_23  and  N8_24 
ROOT
HETATM    1  C1  UNL     1       7.767  -0.385  21.838  1.00  0.00     0.147 C 
HETATM    2  N1  UNL     1       8.276  -1.571  22.418  1.00  0.00    -0.378 N 
ATOM      3  H1  UNL     1       8.208  -2.401  21.829  1.00  0.00     0.160 HD
HETATM    4  C2  UNL     1       8.802  -1.765  23.551  1.00  0.00     0.148 A 
HETATM    5  N2  UNL     1       9.202  -3.042  23.826  1.00  0.00    -0.175 N 
ATOM      6  H2  UNL     1       9.062  -3.766  23.121  1.00  0.00     0.186 HD
HETATM    7  C3  UNL     1       9.772  -3.373  24.991  1.00  0.00     0.679 A 
HETATM    8  N4  UNL     1       9.970  -2.444  25.939  1.00  0.00    -0.174 N 
ATOM      9  H4  UNL     1      10.404  -2.701  26.825  1.00  0.00     0.186 HD
HETATM   10  C4  UNL     1       9.589  -1.157  25.710  1.00  0.00     0.154 A 
HETATM   11  N5  UNL     1       9.783  -0.222  26.649  1.00  0.00    -0.323 N 
ATOM     12  H5  UNL     1      10.216  -0.456  27.543  1.00  0.00     0.169 HD
HETATM   13  C5  UNL     1       9.382   1.059  26.372  1.00  0.00     0.153 A 
HETATM   14  N9  UNL     1       8.818   1.341  25.196  1.00  0.00    -0.283 N 
ATOM     15  H9  UNL     1       8.531   2.303  25.020  1.00  0.00     0.188 HD
HETATM   16  N10 UNL     1       8.610   0.449  24.246  1.00  0.00    -0.292 N 
ATOM     17  H10 UNL     1       8.176   0.698  23.357  1.00  0.00     0.187 HD
HETATM   18  C9  UNL     1       9.003  -0.805  24.518  1.00  0.00     0.137 A 
ENDROOT
BRANCH  13  19
HETATM   19  C6  UNL     1       9.642   2.032  27.441  1.00  0.00     0.130 A 
HETATM   20  N6  UNL     1      10.739   2.021  28.259  1.00  0.00    -0.346 N 
HETATM   21  C7  UNL     1      10.675   3.049  29.109  1.00  0.00     0.182 A 
ATOM     22  H6  UNL     1      11.490   1.333  28.225  1.00  0.00     0.167 HD
HETATM   23  N7  UNL     1       9.572   3.734  28.872  1.00  0.00    -0.332 N 
HETATM   24  C8  UNL     1       8.900   3.121  27.833  1.00  0.00     0.205 A 
ATOM     25  H7  UNL     1       9.268   4.569  29.371  1.00  0.00     0.168 HD
BRANCH  24  26
HETATM   26  N8  UNL     1       7.687   3.642  27.356  1.00  0.00    -0.095 N 
HETATM   27  O1  UNL     1       7.571   3.907  26.117  1.00  0.00    -0.530 OA
HETATM   28  O2  UNL     1       6.604   3.891  28.110  1.00  0.00    -0.530 OA
ENDBRANCH  24  26
ENDBRANCH  13  19
BRANCH   7  29
HETATM   29  N3  UNL     1      10.123  -4.583  25.190  1.00  0.00    -0.234 N 
ATOM     30  H32 UNL     1      11.110  -4.843  25.180  1.00  0.00     0.174 HD
ATOM     31  H31 UNL     1       9.405  -5.288  25.358  1.00  0.00     0.174 HD
ENDBRANCH   7  29
TORSDOF 3
ENDMDL
