MODEL 1
REMARK VINA RESULT: -6.830893927      0.000      0.000
REMARK  6 active torsions:
REMARK  status: ('A' for Active; 'I' for Inactive)
REMARK    1  A    between atoms: C2_7  and  C3_8 
REMARK    2  A    between atoms: C3_8  and  C4_9 
REMARK    3  A    between atoms: C4_9  and  C5_10 
REMARK    4  A    between atoms: C5_10  and  C6_11 
REMARK    5  A    between atoms: C6_11  and  O1_12 
REMARK    6  A    between atoms: N5_22  and  C10_23 
ROOT
HETATM    1  N1  UNL     1     -47.694  42.584  12.238  1.00  0.00    -0.383 N 
ATOM      2  H11 UNL     1     -48.137  42.354  13.128  1.00  0.00     0.157 HD
ATOM      3  H12 UNL     1     -47.242  41.891  11.643  1.00  0.00     0.157 HD
HETATM    4  C1  UNL     1     -47.681  43.812  11.798  1.00  0.00     0.131 A 
HETATM    5  N2  UNL     1     -47.094  44.116  10.620  1.00  0.00    -0.330 N 
ATOM      6  H2  UNL     1     -46.649  43.395  10.050  1.00  0.00     0.168 HD
HETATM    7  C2  UNL     1     -47.116  45.401  10.223  1.00  0.00     0.084 A 
HETATM    8  N3  UNL     1     -47.704  46.347  10.981  1.00  0.00    -0.330 N 
ATOM      9  H3  UNL     1     -47.705  47.313  10.653  1.00  0.00     0.168 HD
HETATM   10  C7  UNL     1     -48.291  46.057  12.156  1.00  0.00     0.142 A 
HETATM   11  C8  UNL     1     -48.292  44.749  12.601  1.00  0.00     0.123 A 
HETATM   12  N4  UNL     1     -48.934  44.717  13.790  1.00  0.00    -0.330 N 
ATOM     13  H4  UNL     1     -49.090  43.886  14.360  1.00  0.00     0.168 HD
HETATM   14  C9  UNL     1     -49.332  45.966  14.095  1.00  0.00     0.158 A 
HETATM   15 BR1  UNL     1     -50.287  46.496  15.666  1.00  0.00    -0.010 Br
HETATM   16  N5  UNL     1     -48.934  46.787  13.086  1.00  0.00    -0.306 N 
ENDROOT
BRANCH   7  17
HETATM   17  C3  UNL     1     -46.461  45.738   8.907  1.00  0.00     0.076 C 
BRANCH  17  18
HETATM   18  C4  UNL     1     -47.457  46.351   7.961  1.00  0.00     0.010 C 
BRANCH  18  19
HETATM   19  C5  UNL     1     -47.737  45.503   6.755  1.00  0.00     0.026 C 
BRANCH  19  20
HETATM   20  C6  UNL     1     -47.240  44.092   6.950  1.00  0.00     0.164 C 
BRANCH  20  21
HETATM   21  O1  UNL     1     -48.258  43.194   6.606  1.00  0.00    -0.401 OA
ATOM     22  H1  UNL     1     -48.875  43.132   7.325  1.00  0.00     0.209 HD
ENDBRANCH  20  21
ENDBRANCH  19  20
ENDBRANCH  18  19
ENDBRANCH  17  18
ENDBRANCH   7  17
BRANCH  16  23
HETATM   23  C10 UNL     1     -49.154  48.195  13.013  1.00  0.00     0.094 A 
HETATM   24  C11 UNL     1     -47.882  49.010  12.728  1.00  0.00     0.028 A 
HETATM   25  C12 UNL     1     -48.670  49.157  14.002  1.00  0.00     0.028 A 
ENDBRANCH  16  23
TORSDOF 6
ENDMDL
MODEL 2
REMARK VINA RESULT: -6.825468367      1.063      1.263
REMARK  6 active torsions:
REMARK  status: ('A' for Active; 'I' for Inactive)
REMARK    1  A    between atoms: C2_7  and  C3_8 
REMARK    2  A    between atoms: C3_8  and  C4_9 
REMARK    3  A    between atoms: C4_9  and  C5_10 
REMARK    4  A    between atoms: C5_10  and  C6_11 
REMARK    5  A    between atoms: C6_11  and  O1_12 
REMARK    6  A    between atoms: N5_22  and  C10_23 
ROOT
HETATM    1  N1  UNL     1     -48.246  43.686  12.601  1.00  0.00    -0.383 N 
ATOM      2  H11 UNL     1     -48.671  43.721  13.528  1.00  0.00     0.157 HD
ATOM      3  H12 UNL     1     -48.047  42.816  12.109  1.00  0.00     0.157 HD
HETATM    4  C1  UNL     1     -47.925  44.784  11.975  1.00  0.00     0.131 A 
HETATM    5  N2  UNL     1     -47.362  44.739  10.748  1.00  0.00    -0.330 N 
ATOM      6  H2  UNL     1     -47.176  43.849  10.285  1.00  0.00     0.168 HD
HETATM    7  C2  UNL     1     -47.055  45.908  10.156  1.00  0.00     0.084 A 
HETATM    8  N3  UNL     1     -47.303  47.079  10.773  1.00  0.00    -0.330 N 
ATOM      9  H3  UNL     1     -47.059  47.949  10.300  1.00  0.00     0.168 HD
HETATM   10  C7  UNL     1     -47.862  47.137  11.995  1.00  0.00     0.142 A 
HETATM   11  C8  UNL     1     -48.194  45.961  12.639  1.00  0.00     0.123 A 
HETATM   12  N4  UNL     1     -48.733  46.281  13.836  1.00  0.00    -0.330 N 
ATOM     13  H4  UNL     1     -49.072  45.618  14.532  1.00  0.00     0.168 HD
HETATM   14  C9  UNL     1     -48.747  47.622  13.954  1.00  0.00     0.158 A 
HETATM   15 BR1  UNL     1     -49.402  48.619  15.449  1.00  0.00    -0.010 Br
HETATM   16  N5  UNL     1     -48.209  48.144  12.818  1.00  0.00    -0.306 N 
ENDROOT
BRANCH   7  17
HETATM   17  C3  UNL     1     -46.428  45.854   8.785  1.00  0.00     0.076 C 
BRANCH  17  18
HETATM   18  C4  UNL     1     -47.364  46.421   7.752  1.00  0.00     0.010 C 
BRANCH  18  19
HETATM   19  C5  UNL     1     -47.757  45.431   6.695  1.00  0.00     0.026 C 
BRANCH  19  20
HETATM   20  C6  UNL     1     -47.341  44.031   7.073  1.00  0.00     0.164 C 
BRANCH  20  21
HETATM   21  O1  UNL     1     -48.256  43.118   6.535  1.00  0.00    -0.401 OA
ATOM     22  H1  UNL     1     -48.294  43.233   5.592  1.00  0.00     0.209 HD
ENDBRANCH  20  21
ENDBRANCH  19  20
ENDBRANCH  18  19
ENDBRANCH  17  18
ENDBRANCH   7  17
BRANCH  16  23
HETATM   23  C10 UNL     1     -48.035  49.532  12.533  1.00  0.00     0.094 A 
HETATM   24  C11 UNL     1     -46.574  49.936  12.279  1.00  0.00     0.028 A 
HETATM   25  C12 UNL     1     -47.378  50.481  13.429  1.00  0.00     0.028 A 
ENDBRANCH  16  23
TORSDOF 6
ENDMDL
MODEL 3
REMARK VINA RESULT: -6.470676279      1.805      2.247
REMARK  6 active torsions:
REMARK  status: ('A' for Active; 'I' for Inactive)
REMARK    1  A    between atoms: C2_7  and  C3_8 
REMARK    2  A    between atoms: C3_8  and  C4_9 
REMARK    3  A    between atoms: C4_9  and  C5_10 
REMARK    4  A    between atoms: C5_10  and  C6_11 
REMARK    5  A    between atoms: C6_11  and  O1_12 
REMARK    6  A    between atoms: N5_22  and  C10_23 
ROOT
HETATM    1  N1  UNL     1     -50.276  44.561  12.553  1.00  0.00    -0.383 N 
ATOM      2  H11 UNL     1     -50.982  44.833  13.238  1.00  0.00     0.157 HD
ATOM      3  H12 UNL     1     -50.276  43.658  12.079  1.00  0.00     0.157 HD
HETATM    4  C1  UNL     1     -49.308  45.374  12.235  1.00  0.00     0.131 A 
HETATM    5  N2  UNL     1     -48.374  45.014  11.329  1.00  0.00    -0.330 N 
ATOM      6  H2  UNL     1     -48.404  44.101  10.875  1.00  0.00     0.168 HD
HETATM    7  C2  UNL     1     -47.402  45.900  11.045  1.00  0.00     0.084 A 
HETATM    8  N3  UNL     1     -47.368  47.103  11.650  1.00  0.00    -0.330 N 
ATOM      9  H3  UNL     1     -46.618  47.754  11.414  1.00  0.00     0.168 HD
HETATM   10  C7  UNL     1     -48.292  47.474  12.554  1.00  0.00     0.142 A 
HETATM   11  C8  UNL     1     -49.308  46.594  12.875  1.00  0.00     0.123 A 
HETATM   12  N4  UNL     1     -50.097  47.192  13.795  1.00  0.00    -0.330 N 
ATOM     13  H4  UNL     1     -50.929  46.783  14.221  1.00  0.00     0.168 HD
HETATM   14  C9  UNL     1     -49.602  48.416  14.055  1.00  0.00     0.158 A 
HETATM   15 BR1  UNL     1     -50.327  49.692  15.281  1.00  0.00    -0.010 Br
HETATM   16  N5  UNL     1     -48.490  48.585  13.288  1.00  0.00    -0.306 N 
ENDROOT
BRANCH   7  17
HETATM   17  C3  UNL     1     -46.361  45.495  10.032  1.00  0.00     0.076 C 
BRANCH  17  18
HETATM   18  C4  UNL     1     -47.014  44.978   8.779  1.00  0.00     0.010 C 
BRANCH  18  19
HETATM   19  C5  UNL     1     -46.738  45.823   7.570  1.00  0.00     0.026 C 
BRANCH  19  20
HETATM   20  C6  UNL     1     -47.903  45.806   6.611  1.00  0.00     0.164 C 
BRANCH  20  21
HETATM   21  O1  UNL     1     -48.449  47.093   6.528  1.00  0.00    -0.401 OA
ATOM     22  H1  UNL     1     -49.136  47.182   7.178  1.00  0.00     0.209 HD
ENDBRANCH  20  21
ENDBRANCH  19  20
ENDBRANCH  18  19
ENDBRANCH  17  18
ENDBRANCH   7  17
BRANCH  16  23
HETATM   23  C10 UNL     1     -47.659  49.745  13.258  1.00  0.00     0.094 A 
HETATM   24  C11 UNL     1     -48.197  50.871  12.359  1.00  0.00     0.028 A 
HETATM   25  C12 UNL     1     -46.888  50.176  12.093  1.00  0.00     0.028 A 
ENDBRANCH  16  23
TORSDOF 6
ENDMDL
MODEL 4
REMARK VINA RESULT: -6.335912139      1.343      1.493
REMARK  6 active torsions:
REMARK  status: ('A' for Active; 'I' for Inactive)
REMARK    1  A    between atoms: C2_7  and  C3_8 
REMARK    2  A    between atoms: C3_8  and  C4_9 
REMARK    3  A    between atoms: C4_9  and  C5_10 
REMARK    4  A    between atoms: C5_10  and  C6_11 
REMARK    5  A    between atoms: C6_11  and  O1_12 
REMARK    6  A    between atoms: N5_22  and  C10_23 
ROOT
HETATM    1  N1  UNL     1     -48.952  43.016  12.972  1.00  0.00    -0.383 N 
ATOM      2  H11 UNL     1     -49.540  43.004  13.806  1.00  0.00     0.157 HD
ATOM      3  H12 UNL     1     -48.743  42.182  12.424  1.00  0.00     0.157 HD
HETATM    4  C1  UNL     1     -48.420  44.128  12.548  1.00  0.00     0.131 A 
HETATM    5  N2  UNL     1     -47.642  44.144  11.444  1.00  0.00    -0.330 N 
ATOM      6  H2  UNL     1     -47.453  43.289  10.920  1.00  0.00     0.168 HD
HETATM    7  C2  UNL     1     -47.124  45.325  11.059  1.00  0.00     0.084 A 
HETATM    8  N3  UNL     1     -47.377  46.449  11.757  1.00  0.00    -0.330 N 
ATOM      9  H3  UNL     1     -46.970  47.329  11.441  1.00  0.00     0.168 HD
HETATM   10  C7  UNL     1     -48.150  46.446  12.858  1.00  0.00     0.142 A 
HETATM   11  C8  UNL     1     -48.702  45.255  13.288  1.00  0.00     0.123 A 
HETATM   12  N4  UNL     1     -49.427  45.512  14.399  1.00  0.00    -0.330 N 
ATOM     13  H4  UNL     1     -49.951  44.825  14.941  1.00  0.00     0.168 HD
HETATM   14  C9  UNL     1     -49.342  46.828  14.671  1.00  0.00     0.158 A 
HETATM   15 BR1  UNL     1     -50.176  47.737  16.134  1.00  0.00    -0.010 Br
HETATM   16  N5  UNL     1     -48.554  47.398  13.719  1.00  0.00    -0.306 N 
ENDROOT
BRANCH   7  17
HETATM   17  C3  UNL     1     -46.256  45.339   9.826  1.00  0.00     0.076 C 
BRANCH  17  18
HETATM   18  C4  UNL     1     -46.871  46.200   8.756  1.00  0.00     0.010 C 
BRANCH  18  19
HETATM   19  C5  UNL     1     -46.750  45.617   7.379  1.00  0.00     0.026 C 
BRANCH  19  20
HETATM   20  C6  UNL     1     -48.034  45.776   6.601  1.00  0.00     0.164 C 
BRANCH  20  21
HETATM   21  O1  UNL     1     -48.407  47.125   6.600  1.00  0.00    -0.401 OA
ATOM     22  H1  UNL     1     -49.341  47.190   6.763  1.00  0.00     0.209 HD
ENDBRANCH  20  21
ENDBRANCH  19  20
ENDBRANCH  18  19
ENDBRANCH  17  18
ENDBRANCH   7  17
BRANCH  16  23
HETATM   23  C10 UNL     1     -48.205  48.780  13.636  1.00  0.00     0.094 A 
HETATM   24  C11 UNL     1     -49.283  49.655  12.975  1.00  0.00     0.028 A 
HETATM   25  C12 UNL     1     -47.908  49.480  12.388  1.00  0.00     0.028 A 
ENDBRANCH  16  23
TORSDOF 6
ENDMDL
MODEL 5
REMARK VINA RESULT: -5.928161756      3.249      5.565
REMARK  6 active torsions:
REMARK  status: ('A' for Active; 'I' for Inactive)
REMARK    1  A    between atoms: C2_7  and  C3_8 
REMARK    2  A    between atoms: C3_8  and  C4_9 
REMARK    3  A    between atoms: C4_9  and  C5_10 
REMARK    4  A    between atoms: C5_10  and  C6_11 
REMARK    5  A    between atoms: C6_11  and  O1_12 
REMARK    6  A    between atoms: N5_22  and  C10_23 
ROOT
HETATM    1  N1  UNL     1     -50.311  46.759  14.970  1.00  0.00    -0.383 N 
ATOM      2  H11 UNL     1     -50.401  45.751  15.104  1.00  0.00     0.157 HD
ATOM      3  H12 UNL     1     -50.829  47.444  15.519  1.00  0.00     0.157 HD
HETATM    4  C1  UNL     1     -49.508  47.241  14.063  1.00  0.00     0.131 A 
HETATM    5  N2  UNL     1     -49.390  48.574  13.884  1.00  0.00    -0.330 N 
ATOM      6  H2  UNL     1     -49.925  49.232  14.453  1.00  0.00     0.168 HD
HETATM    7  C2  UNL     1     -48.543  49.007  12.933  1.00  0.00     0.084 A 
HETATM    8  N3  UNL     1     -47.840  48.133  12.186  1.00  0.00    -0.330 N 
ATOM      9  H3  UNL     1     -47.206  48.490  11.472  1.00  0.00     0.168 HD
HETATM   10  C7  UNL     1     -47.949  46.802  12.354  1.00  0.00     0.142 A 
HETATM   11  C8  UNL     1     -48.808  46.315  13.321  1.00  0.00     0.123 A 
HETATM   12  N4  UNL     1     -48.740  44.966  13.293  1.00  0.00    -0.330 N 
ATOM     13  H4  UNL     1     -49.264  44.331  13.894  1.00  0.00     0.168 HD
HETATM   14  C9  UNL     1     -47.864  44.601  12.337  1.00  0.00     0.158 A 
HETATM   15 BR1  UNL     1     -47.384  42.809  11.869  1.00  0.00    -0.010 Br
HETATM   16  N5  UNL     1     -47.381  45.736  11.762  1.00  0.00    -0.306 N 
ENDROOT
BRANCH   7  17
HETATM   17  C3  UNL     1     -48.413  50.497  12.737  1.00  0.00     0.076 C 
BRANCH  17  18
HETATM   18  C4  UNL     1     -47.215  50.816  11.883  1.00  0.00     0.010 C 
BRANCH  18  19
HETATM   19  C5  UNL     1     -45.922  50.813  12.644  1.00  0.00     0.026 C 
BRANCH  19  20
HETATM   20  C6  UNL     1     -44.810  51.434  11.836  1.00  0.00     0.164 C 
BRANCH  20  21
HETATM   21  O1  UNL     1     -43.588  50.873  12.228  1.00  0.00    -0.401 OA
ATOM     22  H1  UNL     1     -42.899  51.202  11.664  1.00  0.00     0.209 HD
ENDBRANCH  20  21
ENDBRANCH  19  20
ENDBRANCH  18  19
ENDBRANCH  17  18
ENDBRANCH   7  17
BRANCH  16  23
HETATM   23  C10 UNL     1     -46.426  45.799  10.703  1.00  0.00     0.094 A 
HETATM   24  C11 UNL     1     -47.025  46.217   9.350  1.00  0.00     0.028 A 
HETATM   25  C12 UNL     1     -46.387  44.872   9.573  1.00  0.00     0.028 A 
ENDBRANCH  16  23
TORSDOF 6
ENDMDL
