MODEL 1
REMARK VINA RESULT: -5.464243784      0.000      0.000
REMARK  10 active torsions:
REMARK  status: ('A' for Active; 'I' for Inactive)
REMARK    1  A    between atoms: C2_2  and  O1_3 
REMARK    2  A    between atoms: O1_3  and  C3_4 
REMARK    3  A    between atoms: C3_4  and  O2_5 
REMARK    4  A    between atoms: C3_4  and  C4_7 
REMARK    5  A    between atoms: C4_7  and  O3_8 
REMARK    6  A    between atoms: C4_7  and  C5_10 
REMARK    7  A    between atoms: C5_10  and  C6_11 
REMARK    8  A    between atoms: C7_13  and  N1_14 
REMARK    9  A    between atoms: N1_14  and  C8_16 
REMARK   10  A    between atoms: C12_23  and  O4_24 
ROOT
HETATM    1  C6  UNL     1     -48.084  45.701  12.547  1.00  0.00     0.039 A 
HETATM    2  S1  UNL     1     -48.299  47.305  13.096  1.00  0.00    -0.054 SA
HETATM    3  C7  UNL     1     -49.461  47.004  14.305  1.00  0.00     0.151 A 
HETATM    4  N2  UNL     1     -49.635  45.681  14.235  1.00  0.00    -0.316 N 
ATOM      5  H2  UNL     1     -50.290  45.208  14.857  1.00  0.00     0.170 HD
HETATM    6  C12 UNL     1     -48.950  45.011  13.356  1.00  0.00     0.155 A 
ENDROOT
BRANCH   1   7
HETATM    7  C5  UNL     1     -47.189  45.172  11.466  1.00  0.00     0.087 C 
BRANCH   7   8
HETATM    8  C4  UNL     1     -47.918  44.917  10.181  1.00  0.00     0.178 C 
BRANCH   8   9
HETATM    9  C3  UNL     1     -47.020  45.140   8.969  1.00  0.00     0.285 C 
BRANCH   9  10
HETATM   10  O1  UNL     1     -47.458  44.236   8.003  1.00  0.00    -0.359 OA
BRANCH  10  11
HETATM   11  C2  UNL     1     -47.753  44.812   6.788  1.00  0.00     0.166 C 
HETATM   12  C1  UNL     1     -47.720  46.310   6.804  1.00  0.00     0.033 C 
ENDBRANCH  10  11
ENDBRANCH   9  10
BRANCH   9  13
HETATM   13  O2  UNL     1     -45.722  44.791   9.332  1.00  0.00    -0.369 OA
ATOM     14  H2  UNL     1     -45.774  44.106   9.989  1.00  0.00     0.212 HD
ENDBRANCH   9  13
ENDBRANCH   8   9
BRANCH   8  15
HETATM   15  O3  UNL     1     -48.467  43.667  10.064  1.00  0.00    -0.390 OA
ATOM     16  H3  UNL     1     -49.002  43.515  10.834  1.00  0.00     0.210 HD
ENDBRANCH   8  15
ENDBRANCH   7   8
ENDBRANCH   1   7
BRANCH   6  17
HETATM   17  O4  UNL     1     -49.080  43.601  13.222  1.00  0.00    -0.345 OA
ATOM     18  H4  UNL     1     -49.493  43.232  12.450  1.00  0.00     0.219 HD
ENDBRANCH   6  17
BRANCH   3  19
HETATM   19  N1  UNL     1     -50.025  47.885  15.094  1.00  0.00    -0.339 N 
ATOM     20  H1  UNL     1     -50.969  48.217  14.894  1.00  0.00     0.168 HD
BRANCH  19  21
HETATM   21  C8  UNL     1     -49.323  48.379  16.233  1.00  0.00     0.024 C 
HETATM   22  C9  UNL     1     -49.058  47.481  17.393  1.00  0.00     0.069 C 
HETATM   23  C10 UNL     1     -48.893  49.619  16.304  1.00  0.00     0.030 C 
HETATM   24  C11 UNL     1     -49.117  50.583  15.187  1.00  0.00     0.064 C 
HETATM   25 CL1  UNL     1     -48.038  50.210  17.697  1.00  0.00    -0.087 Cl
ENDBRANCH  19  21
ENDBRANCH   3  19
TORSDOF 10
ENDMDL
MODEL 2
REMARK VINA RESULT: -5.426167289      2.456      3.053
REMARK  10 active torsions:
REMARK  status: ('A' for Active; 'I' for Inactive)
REMARK    1  A    between atoms: C2_2  and  O1_3 
REMARK    2  A    between atoms: O1_3  and  C3_4 
REMARK    3  A    between atoms: C3_4  and  O2_5 
REMARK    4  A    between atoms: C3_4  and  C4_7 
REMARK    5  A    between atoms: C4_7  and  O3_8 
REMARK    6  A    between atoms: C4_7  and  C5_10 
REMARK    7  A    between atoms: C5_10  and  C6_11 
REMARK    8  A    between atoms: C7_13  and  N1_14 
REMARK    9  A    between atoms: N1_14  and  C8_16 
REMARK   10  A    between atoms: C12_23  and  O4_24 
ROOT
HETATM    1  C6  UNL     1     -47.994  46.270  12.393  1.00  0.00     0.039 A 
HETATM    2  S1  UNL     1     -49.000  45.823  13.700  1.00  0.00    -0.054 SA
HETATM    3  C7  UNL     1     -49.525  47.377  14.158  1.00  0.00     0.151 A 
HETATM    4  N2  UNL     1     -48.904  48.176  13.285  1.00  0.00    -0.316 N 
ATOM      5  H2  UNL     1     -49.034  49.187  13.319  1.00  0.00     0.170 HD
HETATM    6  C12 UNL     1     -48.130  47.635  12.391  1.00  0.00     0.155 A 
ENDROOT
BRANCH   1   7
HETATM    7  C5  UNL     1     -47.173  45.409  11.480  1.00  0.00     0.087 C 
BRANCH   7   8
HETATM    8  C4  UNL     1     -47.878  45.081  10.199  1.00  0.00     0.178 C 
BRANCH   8   9
HETATM    9  C3  UNL     1     -47.017  45.403   8.982  1.00  0.00     0.285 C 
BRANCH   9  10
HETATM   10  O1  UNL     1     -47.278  44.393   8.058  1.00  0.00    -0.359 OA
BRANCH  10  11
HETATM   11  C2  UNL     1     -47.721  44.851   6.838  1.00  0.00     0.166 C 
HETATM   12  C1  UNL     1     -47.819  46.343   6.750  1.00  0.00     0.033 C 
ENDBRANCH  10  11
ENDBRANCH   9  10
BRANCH   9  13
HETATM   13  O2  UNL     1     -45.684  45.303   9.368  1.00  0.00    -0.369 OA
ATOM     14  H2  UNL     1     -45.357  44.456   9.085  1.00  0.00     0.212 HD
ENDBRANCH   9  13
ENDBRANCH   8   9
BRANCH   8  15
HETATM   15  O3  UNL     1     -48.292  43.780  10.081  1.00  0.00    -0.390 OA
ATOM     16  H3  UNL     1     -48.712  43.687   9.234  1.00  0.00     0.210 HD
ENDBRANCH   8  15
ENDBRANCH   7   8
ENDBRANCH   1   7
BRANCH   6  17
HETATM   17  O4  UNL     1     -47.436  48.419  11.428  1.00  0.00    -0.345 OA
ATOM     18  H4  UNL     1     -47.355  49.358  11.548  1.00  0.00     0.219 HD
ENDBRANCH   6  17
BRANCH   3  19
HETATM   19  N1  UNL     1     -50.342  47.678  15.137  1.00  0.00    -0.339 N 
ATOM     20  H1  UNL     1     -50.042  48.318  15.872  1.00  0.00     0.168 HD
BRANCH  19  21
HETATM   21  C8  UNL     1     -51.651  47.113  15.175  1.00  0.00     0.024 C 
HETATM   22  C9  UNL     1     -52.625  47.413  14.086  1.00  0.00     0.069 C 
HETATM   23  C10 UNL     1     -52.044  46.325  16.151  1.00  0.00     0.030 C 
HETATM   24  C11 UNL     1     -51.132  45.975  17.279  1.00  0.00     0.064 C 
HETATM   25 CL1  UNL     1     -53.641  45.642  16.186  1.00  0.00    -0.087 Cl
ENDBRANCH  19  21
ENDBRANCH   3  19
TORSDOF 10
ENDMDL
MODEL 3
REMARK VINA RESULT: -5.418539244      2.426      2.782
REMARK  10 active torsions:
REMARK  status: ('A' for Active; 'I' for Inactive)
REMARK    1  A    between atoms: C2_2  and  O1_3 
REMARK    2  A    between atoms: O1_3  and  C3_4 
REMARK    3  A    between atoms: C3_4  and  O2_5 
REMARK    4  A    between atoms: C3_4  and  C4_7 
REMARK    5  A    between atoms: C4_7  and  O3_8 
REMARK    6  A    between atoms: C4_7  and  C5_10 
REMARK    7  A    between atoms: C5_10  and  C6_11 
REMARK    8  A    between atoms: C7_13  and  N1_14 
REMARK    9  A    between atoms: N1_14  and  C8_16 
REMARK   10  A    between atoms: C12_23  and  O4_24 
ROOT
HETATM    1  C6  UNL     1     -48.533  45.994  12.464  1.00  0.00     0.039 A 
HETATM    2  S1  UNL     1     -48.834  47.600  12.964  1.00  0.00    -0.054 SA
HETATM    3  C7  UNL     1     -50.155  47.299  13.997  1.00  0.00     0.151 A 
HETATM    4  N2  UNL     1     -50.309  45.974  13.914  1.00  0.00    -0.316 N 
ATOM      5  H2  UNL     1     -51.043  45.500  14.440  1.00  0.00     0.170 HD
HETATM    6  C12 UNL     1     -49.501  45.303  13.147  1.00  0.00     0.155 A 
ENDROOT
BRANCH   1   7
HETATM    7  C5  UNL     1     -47.489  45.465  11.526  1.00  0.00     0.087 C 
BRANCH   7   8
HETATM    8  C4  UNL     1     -48.059  45.026  10.210  1.00  0.00     0.178 C 
BRANCH   8   9
HETATM    9  C3  UNL     1     -47.098  45.302   9.059  1.00  0.00     0.285 C 
BRANCH   9  10
HETATM   10  O1  UNL     1     -47.391  44.348   8.086  1.00  0.00    -0.359 OA
BRANCH  10  11
HETATM   11  C2  UNL     1     -47.703  44.880   6.856  1.00  0.00     0.166 C 
HETATM   12  C1  UNL     1     -47.807  46.374   6.850  1.00  0.00     0.033 C 
ENDBRANCH  10  11
ENDBRANCH   9  10
BRANCH   9  13
HETATM   13  O2  UNL     1     -45.806  45.068   9.520  1.00  0.00    -0.369 OA
ATOM     14  H2  UNL     1     -45.696  45.532  10.342  1.00  0.00     0.212 HD
ENDBRANCH   9  13
ENDBRANCH   8   9
BRANCH   8  15
HETATM   15  O3  UNL     1     -48.415  43.705  10.144  1.00  0.00    -0.390 OA
ATOM     16  H3  UNL     1     -47.616  43.191  10.143  1.00  0.00     0.210 HD
ENDBRANCH   8  15
ENDBRANCH   7   8
ENDBRANCH   1   7
BRANCH   6  17
HETATM   17  O4  UNL     1     -49.601  43.891  13.007  1.00  0.00    -0.345 OA
ATOM     18  H4  UNL     1     -49.203  43.457  12.261  1.00  0.00     0.219 HD
ENDBRANCH   6  17
BRANCH   3  19
HETATM   19  N1  UNL     1     -50.832  48.180  14.691  1.00  0.00    -0.339 N 
ATOM     20  H1  UNL     1     -50.419  48.597  15.525  1.00  0.00     0.168 HD
BRANCH  19  21
HETATM   21  C8  UNL     1     -52.145  48.558  14.281  1.00  0.00     0.024 C 
HETATM   22  C9  UNL     1     -52.351  49.236  12.969  1.00  0.00     0.069 C 
HETATM   23  C10 UNL     1     -53.203  48.330  15.027  1.00  0.00     0.030 C 
HETATM   24  C11 UNL     1     -53.085  47.657  16.353  1.00  0.00     0.064 C 
HETATM   25 CL1  UNL     1     -54.798  48.794  14.517  1.00  0.00    -0.087 Cl
ENDBRANCH  19  21
ENDBRANCH   3  19
TORSDOF 10
ENDMDL
MODEL 4
REMARK VINA RESULT: -5.366917556      0.926      1.042
REMARK  10 active torsions:
REMARK  status: ('A' for Active; 'I' for Inactive)
REMARK    1  A    between atoms: C2_2  and  O1_3 
REMARK    2  A    between atoms: O1_3  and  C3_4 
REMARK    3  A    between atoms: C3_4  and  O2_5 
REMARK    4  A    between atoms: C3_4  and  C4_7 
REMARK    5  A    between atoms: C4_7  and  O3_8 
REMARK    6  A    between atoms: C4_7  and  C5_10 
REMARK    7  A    between atoms: C5_10  and  C6_11 
REMARK    8  A    between atoms: C7_13  and  N1_14 
REMARK    9  A    between atoms: N1_14  and  C8_16 
REMARK   10  A    between atoms: C12_23  and  O4_24 
ROOT
HETATM    1  C6  UNL     1     -48.124  46.153  12.727  1.00  0.00     0.039 A 
HETATM    2  S1  UNL     1     -48.199  47.858  12.806  1.00  0.00    -0.054 SA
HETATM    3  C7  UNL     1     -49.255  48.003  14.136  1.00  0.00     0.151 A 
HETATM    4  N2  UNL     1     -49.505  46.732  14.463  1.00  0.00    -0.316 N 
ATOM      5  H2  UNL     1     -50.122  46.506  15.243  1.00  0.00     0.170 HD
HETATM    6  C12 UNL     1     -48.945  45.789  13.764  1.00  0.00     0.155 A 
ENDROOT
BRANCH   1   7
HETATM    7  C5  UNL     1     -47.367  45.272  11.778  1.00  0.00     0.087 C 
BRANCH   7   8
HETATM    8  C4  UNL     1     -48.097  45.045  10.488  1.00  0.00     0.178 C 
BRANCH   8   9
HETATM    9  C3  UNL     1     -47.273  45.498   9.287  1.00  0.00     0.285 C 
BRANCH   9  10
HETATM   10  O1  UNL     1     -47.402  44.485   8.338  1.00  0.00    -0.359 OA
BRANCH  10  11
HETATM   11  C2  UNL     1     -47.484  44.940   7.041  1.00  0.00     0.166 C 
HETATM   12  C1  UNL     1     -47.839  46.390   6.929  1.00  0.00     0.033 C 
ENDBRANCH  10  11
ENDBRANCH   9  10
BRANCH   9  13
HETATM   13  O2  UNL     1     -45.940  45.554   9.683  1.00  0.00    -0.369 OA
ATOM     14  H2  UNL     1     -45.452  46.018   9.013  1.00  0.00     0.212 HD
ENDBRANCH   9  13
ENDBRANCH   8   9
BRANCH   8  15
HETATM   15  O3  UNL     1     -48.482  43.750  10.260  1.00  0.00    -0.390 OA
ATOM     16  H3  UNL     1     -49.414  43.692  10.436  1.00  0.00     0.210 HD
ENDBRANCH   8  15
ENDBRANCH   7   8
ENDBRANCH   1   7
BRANCH   6  17
HETATM   17  O4  UNL     1     -49.163  44.413  14.051  1.00  0.00    -0.345 OA
ATOM     18  H4  UNL     1     -50.017  44.025  13.902  1.00  0.00     0.219 HD
ENDBRANCH   6  17
BRANCH   3  19
HETATM   19  N1  UNL     1     -49.692  49.111  14.679  1.00  0.00    -0.339 N 
ATOM     20  H1  UNL     1     -50.564  49.529  14.353  1.00  0.00     0.168 HD
BRANCH  19  21
HETATM   21  C8  UNL     1     -48.953  49.735  15.727  1.00  0.00     0.024 C 
HETATM   22  C9  UNL     1     -48.920  49.121  17.085  1.00  0.00     0.069 C 
HETATM   23  C10 UNL     1     -48.287  50.854  15.543  1.00  0.00     0.030 C 
HETATM   24  C11 UNL     1     -48.269  51.535  14.215  1.00  0.00     0.064 C 
HETATM   25 CL1  UNL     1     -47.389  51.604  16.827  1.00  0.00    -0.087 Cl
ENDBRANCH  19  21
ENDBRANCH   3  19
TORSDOF 10
ENDMDL
MODEL 5
REMARK VINA RESULT: -5.364022097      1.523      1.829
REMARK  10 active torsions:
REMARK  status: ('A' for Active; 'I' for Inactive)
REMARK    1  A    between atoms: C2_2  and  O1_3 
REMARK    2  A    between atoms: O1_3  and  C3_4 
REMARK    3  A    between atoms: C3_4  and  O2_5 
REMARK    4  A    between atoms: C3_4  and  C4_7 
REMARK    5  A    between atoms: C4_7  and  O3_8 
REMARK    6  A    between atoms: C4_7  and  C5_10 
REMARK    7  A    between atoms: C5_10  and  C6_11 
REMARK    8  A    between atoms: C7_13  and  N1_14 
REMARK    9  A    between atoms: N1_14  and  C8_16 
REMARK   10  A    between atoms: C12_23  and  O4_24 
ROOT
HETATM    1  C6  UNL     1     -48.144  45.797  12.486  1.00  0.00     0.039 A 
HETATM    2  S1  UNL     1     -48.431  47.413  12.961  1.00  0.00    -0.054 SA
HETATM    3  C7  UNL     1     -49.598  47.119  14.167  1.00  0.00     0.151 A 
HETATM    4  N2  UNL     1     -49.718  45.787  14.154  1.00  0.00    -0.316 N 
ATOM      5  H2  UNL     1     -50.362  45.315  14.788  1.00  0.00     0.170 HD
HETATM    6  C12 UNL     1     -48.994  45.108  13.314  1.00  0.00     0.155 A 
ENDROOT
BRANCH   1   7
HETATM    7  C5  UNL     1     -47.213  45.258  11.441  1.00  0.00     0.087 C 
BRANCH   7   8
HETATM    8  C4  UNL     1     -47.909  44.935  10.153  1.00  0.00     0.178 C 
BRANCH   8   9
HETATM    9  C3  UNL     1     -46.994  45.142   8.951  1.00  0.00     0.285 C 
BRANCH   9  10
HETATM   10  O1  UNL     1     -47.424  44.229   7.989  1.00  0.00    -0.359 OA
BRANCH  10  11
HETATM   11  C2  UNL     1     -47.773  44.803   6.788  1.00  0.00     0.166 C 
HETATM   12  C1  UNL     1     -47.707  46.299   6.789  1.00  0.00     0.033 C 
ENDBRANCH  10  11
ENDBRANCH   9  10
BRANCH   9  13
HETATM   13  O2  UNL     1     -45.703  44.791   9.335  1.00  0.00    -0.369 OA
ATOM     14  H2  UNL     1     -45.738  44.470  10.228  1.00  0.00     0.212 HD
ENDBRANCH   9  13
ENDBRANCH   8   9
BRANCH   8  15
HETATM   15  O3  UNL     1     -48.419  43.666  10.072  1.00  0.00    -0.390 OA
ATOM     16  H3  UNL     1     -48.996  43.636   9.317  1.00  0.00     0.210 HD
ENDBRANCH   8  15
ENDBRANCH   7   8
ENDBRANCH   1   7
BRANCH   6  17
HETATM   17  O4  UNL     1     -49.065  43.689  13.241  1.00  0.00    -0.345 OA
ATOM     18  H4  UNL     1     -48.337  43.160  13.545  1.00  0.00     0.219 HD
ENDBRANCH   6  17
BRANCH   3  19
HETATM   19  N1  UNL     1     -50.209  48.009  14.908  1.00  0.00    -0.339 N 
ATOM     20  H1  UNL     1     -50.252  47.886  15.920  1.00  0.00     0.168 HD
BRANCH  19  21
HETATM   21  C8  UNL     1     -50.814  49.150  14.304  1.00  0.00     0.024 C 
HETATM   22  C9  UNL     1     -51.958  48.979  13.363  1.00  0.00     0.069 C 
HETATM   23  C10 UNL     1     -50.394  50.373  14.544  1.00  0.00     0.030 C 
HETATM   24  C11 UNL     1     -49.255  50.633  15.471  1.00  0.00     0.064 C 
HETATM   25 CL1  UNL     1     -51.140  51.756  13.802  1.00  0.00    -0.087 Cl
ENDBRANCH  19  21
ENDBRANCH   3  19
TORSDOF 10
ENDMDL
