MODEL 1
REMARK VINA RESULT: -6.285070317      0.000      0.000
REMARK  6 active torsions:
REMARK  status: ('A' for Active; 'I' for Inactive)
REMARK    1  A    between atoms: C2_2  and  C3_3 
REMARK    2  A    between atoms: C2_2  and  C11_14 
REMARK    3  A    between atoms: C4_4  and  C5_5 
REMARK    4  A    between atoms: N1_6  and  N2_8 
REMARK    5  A    between atoms: C11_14  and  N3_16 
REMARK    6  A    between atoms: N3_16  and  O1_18 
ROOT
HETATM    1  C3  UNL     1      24.250 -18.823  29.364  1.00  0.00     0.014 C 
HETATM    2  C4  UNL     1      24.135 -19.501  30.434  1.00  0.00     0.019 C 
ENDROOT
BRANCH   2   3
HETATM    3  C5  UNL     1      23.109 -20.140  31.185  1.00  0.00     0.107 C 
HETATM    4  N1  UNL     1      22.100 -19.371  31.618  1.00  0.00    -0.314 N 
ATOM      5  H1  UNL     1      22.102 -18.374  31.399  1.00  0.00     0.185 HD
BRANCH   4   6
HETATM    6  N2  UNL     1      21.064 -19.899  32.351  1.00  0.00    -0.328 N 
HETATM    7  C6  UNL     1      20.890 -21.338  32.463  1.00  0.00     0.142 C 
HETATM    8  C7  UNL     1      19.531 -21.718  32.936  1.00  0.00     0.021 C 
HETATM    9  C8  UNL     1      18.424 -20.855  32.386  1.00  0.00     0.003 C 
HETATM   10  C9  UNL     1      18.729 -19.386  32.445  1.00  0.00     0.021 C 
HETATM   11  C10 UNL     1      20.078 -19.098  33.059  1.00  0.00     0.142 C 
ENDBRANCH   4   6
ENDBRANCH   2   3
BRANCH   1  12
HETATM   12  C2  UNL     1      23.543 -18.280  28.280  1.00  0.00    -0.018 C 
HETATM   13  C1  UNL     1      22.612 -17.311  28.653  1.00  0.00     0.026 C 
BRANCH  12  14
HETATM   14  C11 UNL     1      23.549 -18.485  26.884  1.00  0.00     0.054 C 
HETATM   15  C12 UNL     1      22.751 -18.112  25.949  1.00  0.00     0.046 C 
BRANCH  14  16
HETATM   16  N3  UNL     1      24.705 -19.296  26.361  1.00  0.00    -0.269 N 
ATOM     17  H3  UNL     1      25.629 -19.329  26.792  1.00  0.00     0.194 HD
BRANCH  16  18
HETATM   18  O1  UNL     1      24.353 -19.985  25.230  1.00  0.00    -0.289 OA
ATOM     19  H1  UNL     1      25.119 -20.338  24.790  1.00  0.00     0.244 HD
ENDBRANCH  16  18
ENDBRANCH  14  16
ENDBRANCH  12  14
ENDBRANCH   1  12
TORSDOF 6
ENDMDL
MODEL 2
REMARK VINA RESULT: -6.128318909      1.094      1.373
REMARK  6 active torsions:
REMARK  status: ('A' for Active; 'I' for Inactive)
REMARK    1  A    between atoms: C2_2  and  C3_3 
REMARK    2  A    between atoms: C2_2  and  C11_14 
REMARK    3  A    between atoms: C4_4  and  C5_5 
REMARK    4  A    between atoms: N1_6  and  N2_8 
REMARK    5  A    between atoms: C11_14  and  N3_16 
REMARK    6  A    between atoms: N3_16  and  O1_18 
ROOT
HETATM    1  C3  UNL     1      24.421 -18.252  29.486  1.00  0.00     0.014 C 
HETATM    2  C4  UNL     1      24.445 -18.719  30.668  1.00  0.00     0.019 C 
ENDROOT
BRANCH   2   3
HETATM    3  C5  UNL     1      23.554 -19.346  31.585  1.00  0.00     0.107 C 
HETATM    4  N1  UNL     1      22.519 -18.618  32.024  1.00  0.00    -0.314 N 
ATOM      5  H1  UNL     1      22.406 -17.659  31.695  1.00  0.00     0.185 HD
BRANCH   4   6
HETATM    6  N2  UNL     1      21.606 -19.138  32.911  1.00  0.00    -0.328 N 
HETATM    7  C6  UNL     1      22.015 -19.550  34.244  1.00  0.00     0.142 C 
HETATM    8  C7  UNL     1      21.018 -20.437  34.903  1.00  0.00     0.021 C 
HETATM    9  C8  UNL     1      20.355 -21.417  33.970  1.00  0.00     0.003 C 
HETATM   10  C9  UNL     1      19.898 -20.798  32.681  1.00  0.00     0.021 C 
HETATM   11  C10 UNL     1      20.194 -19.319  32.612  1.00  0.00     0.142 C 
ENDBRANCH   4   6
ENDBRANCH   2   3
BRANCH   1  12
HETATM   12  C2  UNL     1      23.605 -18.041  28.363  1.00  0.00    -0.018 C 
HETATM   13  C1  UNL     1      22.506 -17.223  28.620  1.00  0.00     0.026 C 
BRANCH  12  14
HETATM   14  C11 UNL     1      23.634 -18.466  27.018  1.00  0.00     0.054 C 
HETATM   15  C12 UNL     1      22.904 -18.177  26.001  1.00  0.00     0.046 C 
BRANCH  14  16
HETATM   16  N3  UNL     1      24.722 -19.451  26.679  1.00  0.00    -0.269 N 
ATOM     17  H3  UNL     1      25.474 -19.720  27.314  1.00  0.00     0.194 HD
BRANCH  16  18
HETATM   18  O1  UNL     1      24.569 -19.939  25.408  1.00  0.00    -0.289 OA
ATOM     19  H1  UNL     1      24.107 -20.770  25.413  1.00  0.00     0.244 HD
ENDBRANCH  16  18
ENDBRANCH  14  16
ENDBRANCH  12  14
ENDBRANCH   1  12
TORSDOF 6
ENDMDL
MODEL 3
REMARK VINA RESULT: -5.987015787      1.132      1.707
REMARK  6 active torsions:
REMARK  status: ('A' for Active; 'I' for Inactive)
REMARK    1  A    between atoms: C2_2  and  C3_3 
REMARK    2  A    between atoms: C2_2  and  C11_14 
REMARK    3  A    between atoms: C4_4  and  C5_5 
REMARK    4  A    between atoms: N1_6  and  N2_8 
REMARK    5  A    between atoms: C11_14  and  N3_16 
REMARK    6  A    between atoms: N3_16  and  O1_18 
ROOT
HETATM    1  C3  UNL     1      23.996 -19.206  29.321  1.00  0.00     0.014 C 
HETATM    2  C4  UNL     1      23.723 -19.657  30.478  1.00  0.00     0.019 C 
ENDROOT
BRANCH   2   3
HETATM    3  C5  UNL     1      22.661 -19.592  31.423  1.00  0.00     0.107 C 
HETATM    4  N1  UNL     1      22.205 -20.754  31.911  1.00  0.00    -0.314 N 
ATOM      5  H1  UNL     1      22.626 -21.628  31.595  1.00  0.00     0.185 HD
BRANCH   4   6
HETATM    6  N2  UNL     1      21.182 -20.790  32.828  1.00  0.00    -0.328 N 
HETATM    7  C6  UNL     1      21.257 -20.018  34.057  1.00  0.00     0.142 C 
HETATM    8  C7  UNL     1      20.284 -20.477  35.085  1.00  0.00     0.021 C 
HETATM    9  C8  UNL     1      20.097 -21.972  35.132  1.00  0.00     0.003 C 
HETATM   10  C9  UNL     1      19.929 -22.594  33.776  1.00  0.00     0.021 C 
HETATM   11  C10 UNL     1      19.969 -21.576  32.662  1.00  0.00     0.142 C 
ENDBRANCH   4   6
ENDBRANCH   2   3
BRANCH   1  12
HETATM   12  C2  UNL     1      23.514 -18.418  28.265  1.00  0.00    -0.018 C 
HETATM   13  C1  UNL     1      22.838 -17.274  28.688  1.00  0.00     0.026 C 
BRANCH  12  14
HETATM   14  C11 UNL     1      23.552 -18.508  26.857  1.00  0.00     0.054 C 
HETATM   15  C12 UNL     1      22.766 -18.074  25.938  1.00  0.00     0.046 C 
BRANCH  14  16
HETATM   16  N3  UNL     1      24.732 -19.255  26.293  1.00  0.00    -0.269 N 
ATOM     17  H3  UNL     1      25.677 -19.213  26.676  1.00  0.00     0.194 HD
BRANCH  16  18
HETATM   18  O1  UNL     1      24.371 -19.999  25.201  1.00  0.00    -0.289 OA
ATOM     19  H1  UNL     1      23.729 -20.661  25.433  1.00  0.00     0.244 HD
ENDBRANCH  16  18
ENDBRANCH  14  16
ENDBRANCH  12  14
ENDBRANCH   1  12
TORSDOF 6
ENDMDL
MODEL 4
REMARK VINA RESULT: -5.944306813      1.409      1.987
REMARK  6 active torsions:
REMARK  status: ('A' for Active; 'I' for Inactive)
REMARK    1  A    between atoms: C2_2  and  C3_3 
REMARK    2  A    between atoms: C2_2  and  C11_14 
REMARK    3  A    between atoms: C4_4  and  C5_5 
REMARK    4  A    between atoms: N1_6  and  N2_8 
REMARK    5  A    between atoms: C11_14  and  N3_16 
REMARK    6  A    between atoms: N3_16  and  O1_18 
ROOT
HETATM    1  C3  UNL     1      24.385 -18.144  29.424  1.00  0.00     0.014 C 
HETATM    2  C4  UNL     1      24.444 -18.565  30.623  1.00  0.00     0.019 C 
ENDROOT
BRANCH   2   3
HETATM    3  C5  UNL     1      23.591 -19.193  31.574  1.00  0.00     0.107 C 
HETATM    4  N1  UNL     1      22.532 -18.492  32.000  1.00  0.00    -0.314 N 
ATOM      5  H1  UNL     1      22.375 -17.552  31.636  1.00  0.00     0.185 HD
BRANCH   4   6
HETATM    6  N2  UNL     1      21.652 -19.015  32.919  1.00  0.00    -0.328 N 
HETATM    7  C6  UNL     1      20.254 -18.619  32.919  1.00  0.00     0.142 C 
HETATM    8  C7  UNL     1      19.560 -18.958  34.191  1.00  0.00     0.021 C 
HETATM    9  C8  UNL     1      20.408 -18.771  35.423  1.00  0.00     0.003 C 
HETATM   10  C9  UNL     1      21.792 -19.335  35.285  1.00  0.00     0.021 C 
HETATM   11  C10 UNL     1      22.024 -19.981  33.941  1.00  0.00     0.142 C 
ENDBRANCH   4   6
ENDBRANCH   2   3
BRANCH   1  12
HETATM   12  C2  UNL     1      23.547 -18.008  28.306  1.00  0.00    -0.018 C 
HETATM   13  C1  UNL     1      22.408 -17.243  28.555  1.00  0.00     0.026 C 
BRANCH  12  14
HETATM   14  C11 UNL     1      23.584 -18.468  26.973  1.00  0.00     0.054 C 
HETATM   15  C12 UNL     1      22.867 -18.197  25.942  1.00  0.00     0.046 C 
BRANCH  14  16
HETATM   16  N3  UNL     1      24.663 -19.474  26.671  1.00  0.00    -0.269 N 
ATOM     17  H3  UNL     1      25.375 -19.773  27.337  1.00  0.00     0.194 HD
BRANCH  16  18
HETATM   18  O1  UNL     1      24.564 -19.935  25.385  1.00  0.00    -0.289 OA
ATOM     19  H1  UNL     1      25.040 -19.375  24.781  1.00  0.00     0.244 HD
ENDBRANCH  16  18
ENDBRANCH  14  16
ENDBRANCH  12  14
ENDBRANCH   1  12
TORSDOF 6
ENDMDL
MODEL 5
REMARK VINA RESULT: -5.782979169      1.318      1.353
REMARK  6 active torsions:
REMARK  status: ('A' for Active; 'I' for Inactive)
REMARK    1  A    between atoms: C2_2  and  C3_3 
REMARK    2  A    between atoms: C2_2  and  C11_14 
REMARK    3  A    between atoms: C4_4  and  C5_5 
REMARK    4  A    between atoms: N1_6  and  N2_8 
REMARK    5  A    between atoms: C11_14  and  N3_16 
REMARK    6  A    between atoms: N3_16  and  O1_18 
ROOT
HETATM    1  C3  UNL     1      24.302 -19.001  29.061  1.00  0.00     0.014 C 
HETATM    2  C4  UNL     1      23.885 -19.445  30.177  1.00  0.00     0.019 C 
ENDROOT
BRANCH   2   3
HETATM    3  C5  UNL     1      22.711 -19.378  30.979  1.00  0.00     0.107 C 
HETATM    4  N1  UNL     1      22.305 -20.514  31.564  1.00  0.00    -0.314 N 
ATOM      5  H1  UNL     1      22.841 -21.370  31.418  1.00  0.00     0.185 HD
BRANCH   4   6
HETATM    6  N2  UNL     1      21.182 -20.546  32.356  1.00  0.00    -0.328 N 
HETATM    7  C6  UNL     1      20.480 -21.796  32.599  1.00  0.00     0.142 C 
HETATM    8  C7  UNL     1      19.102 -21.589  33.123  1.00  0.00     0.021 C 
HETATM    9  C8  UNL     1      18.382 -20.413  32.515  1.00  0.00     0.003 C 
HETATM   10  C9  UNL     1      19.225 -19.173  32.438  1.00  0.00     0.021 C 
HETATM   11  C10 UNL     1      20.610 -19.377  33.004  1.00  0.00     0.142 C 
ENDBRANCH   4   6
ENDBRANCH   2   3
BRANCH   1  12
HETATM   12  C2  UNL     1      23.956 -18.221  27.946  1.00  0.00    -0.018 C 
HETATM   13  C1  UNL     1      23.701 -16.887  28.258  1.00  0.00     0.026 C 
BRANCH  12  14
HETATM   14  C11 UNL     1      23.802 -18.471  26.566  1.00  0.00     0.054 C 
HETATM   15  C12 UNL     1      24.420 -19.249  25.751  1.00  0.00     0.046 C 
BRANCH  14  16
HETATM   16  N3  UNL     1      22.709 -17.687  25.890  1.00  0.00    -0.269 N 
ATOM     17  H3  UNL     1      22.864 -16.851  25.326  1.00  0.00     0.194 HD
BRANCH  16  18
HETATM   18  O1  UNL     1      21.480 -18.243  26.130  1.00  0.00    -0.289 OA
ATOM     19  H1  UNL     1      20.827 -17.574  26.298  1.00  0.00     0.244 HD
ENDBRANCH  16  18
ENDBRANCH  14  16
ENDBRANCH  12  14
ENDBRANCH   1  12
TORSDOF 6
ENDMDL
