MODEL 1
REMARK VINA RESULT: -5.125832455      0.000      0.000
REMARK  4 active torsions:
REMARK  status: ('A' for Active; 'I' for Inactive)
REMARK    1  A    between atoms: C2_2  and  C3_3 
REMARK    2  A    between atoms: C3_3  and  S1_6 
REMARK    3  A    between atoms: S1_6  and  C6_7 
REMARK    4  A    between atoms: C6_7  and  C7_8 
ROOT
HETATM    1  C7  UNL     1      22.399 -18.790  31.492  1.00  0.00     0.107 A 
HETATM    2  N1  UNL     1      21.348 -18.126  32.020  1.00  0.00    -0.286 N 
ATOM      3  H1  UNL     1      21.238 -17.112  32.005  1.00  0.00     0.188 HD
HETATM    4  N2  UNL     1      20.492 -18.954  32.551  1.00  0.00    -0.275 N 
ATOM      5  H2  UNL     1      19.616 -18.712  33.013  1.00  0.00     0.189 HD
HETATM    6  C8  UNL     1      20.990 -20.185  32.370  1.00  0.00     0.192 A 
HETATM    7  S2  UNL     1      20.253 -21.574  32.875  1.00  0.00    -0.039 SA
HETATM    8  N3  UNL     1      22.158 -20.108  31.723  1.00  0.00    -0.320 N 
ATOM      9  H3  UNL     1      22.754 -20.890  31.453  1.00  0.00     0.169 HD
ENDROOT
BRANCH   1  10
HETATM   10  C6  UNL     1      23.595 -18.239  30.800  1.00  0.00     0.152 C 
BRANCH  10  11
HETATM   11  S1  UNL     1      23.867 -19.091  29.267  1.00  0.00    -0.148 SA
BRANCH  11  12
HETATM   12  C3  UNL     1      23.790 -18.120  27.785  1.00  0.00     0.018 C 
HETATM   13  C4  UNL     1      24.416 -16.738  27.957  1.00  0.00     0.031 C 
HETATM   14  C5  UNL     1      24.479 -18.787  26.601  1.00  0.00     0.031 C 
BRANCH  12  15
HETATM   15  C2  UNL     1      22.378 -17.897  27.392  1.00  0.00    -0.017 C 
HETATM   16  C1  UNL     1      22.049 -17.966  26.080  1.00  0.00     0.008 C 
ENDBRANCH  12  15
ENDBRANCH  11  12
ENDBRANCH  10  11
ENDBRANCH   1  10
TORSDOF 4
ENDMDL
MODEL 2
REMARK VINA RESULT: -5.077145681      2.484      5.465
REMARK  4 active torsions:
REMARK  status: ('A' for Active; 'I' for Inactive)
REMARK    1  A    between atoms: C2_2  and  C3_3 
REMARK    2  A    between atoms: C3_3  and  S1_6 
REMARK    3  A    between atoms: S1_6  and  C6_7 
REMARK    4  A    between atoms: C6_7  and  C7_8 
ROOT
HETATM    1  C7  UNL     1      23.873 -18.657  29.719  1.00  0.00     0.107 A 
HETATM    2  N1  UNL     1      23.569 -17.355  29.532  1.00  0.00    -0.286 N 
ATOM      3  H1  UNL     1      23.528 -16.658  30.276  1.00  0.00     0.188 HD
HETATM    4  N2  UNL     1      23.335 -17.107  28.273  1.00  0.00    -0.275 N 
ATOM      5  H2  UNL     1      23.085 -16.206  27.865  1.00  0.00     0.189 HD
HETATM    6  C8  UNL     1      23.487 -18.267  27.621  1.00  0.00     0.192 A 
HETATM    7  S2  UNL     1      23.294 -18.456  25.991  1.00  0.00    -0.039 SA
HETATM    8  N3  UNL     1      23.817 -19.231  28.487  1.00  0.00    -0.320 N 
ATOM      9  H3  UNL     1      23.994 -20.211  28.266  1.00  0.00     0.169 HD
ENDROOT
BRANCH   1  10
HETATM   10  C6  UNL     1      24.202 -19.363  30.986  1.00  0.00     0.152 C 
BRANCH  10  11
HETATM   11  S1  UNL     1      22.845 -20.389  31.491  1.00  0.00    -0.148 SA
BRANCH  11  12
HETATM   12  C3  UNL     1      21.651 -19.661  32.581  1.00  0.00     0.018 C 
HETATM   13  C4  UNL     1      22.148 -19.578  34.023  1.00  0.00     0.031 C 
HETATM   14  C5  UNL     1      21.240 -18.255  32.160  1.00  0.00     0.031 C 
BRANCH  12  15
HETATM   15  C2  UNL     1      20.416 -20.481  32.607  1.00  0.00    -0.017 C 
HETATM   16  C1  UNL     1      20.530 -21.830  32.617  1.00  0.00     0.008 C 
ENDBRANCH  12  15
ENDBRANCH  11  12
ENDBRANCH  10  11
ENDBRANCH   1  10
TORSDOF 4
ENDMDL
MODEL 3
REMARK VINA RESULT: -5.074474954      1.189      1.784
REMARK  4 active torsions:
REMARK  status: ('A' for Active; 'I' for Inactive)
REMARK    1  A    between atoms: C2_2  and  C3_3 
REMARK    2  A    between atoms: C3_3  and  S1_6 
REMARK    3  A    between atoms: S1_6  and  C6_7 
REMARK    4  A    between atoms: C6_7  and  C7_8 
ROOT
HETATM    1  C7  UNL     1      22.752 -19.953  31.485  1.00  0.00     0.107 A 
HETATM    2  N1  UNL     1      22.494 -21.277  31.538  1.00  0.00    -0.286 N 
ATOM      3  H1  UNL     1      23.121 -22.003  31.190  1.00  0.00     0.188 HD
HETATM    4  N2  UNL     1      21.337 -21.505  32.095  1.00  0.00    -0.275 N 
ATOM      5  H2  UNL     1      20.906 -22.415  32.256  1.00  0.00     0.189 HD
HETATM    6  C8  UNL     1      20.824 -20.309  32.413  1.00  0.00     0.192 A 
HETATM    7  S2  UNL     1      19.362 -20.084  33.147  1.00  0.00    -0.039 SA
HETATM    8  N3  UNL     1      21.675 -19.343  32.049  1.00  0.00    -0.320 N 
ATOM      9  H3  UNL     1      21.541 -18.340  32.171  1.00  0.00     0.169 HD
ENDROOT
BRANCH   1  10
HETATM   10  C6  UNL     1      23.946 -19.259  30.932  1.00  0.00     0.152 C 
BRANCH  10  11
HETATM   11  S1  UNL     1      23.830 -19.145  29.166  1.00  0.00    -0.148 SA
BRANCH  11  12
HETATM   12  C3  UNL     1      23.201 -17.627  28.499  1.00  0.00     0.018 C 
HETATM   13  C4  UNL     1      22.284 -16.894  29.475  1.00  0.00     0.031 C 
HETATM   14  C5  UNL     1      24.302 -16.655  28.092  1.00  0.00     0.031 C 
BRANCH  12  15
HETATM   15  C2  UNL     1      22.395 -17.897  27.284  1.00  0.00    -0.017 C 
HETATM   16  C1  UNL     1      23.024 -17.962  26.086  1.00  0.00     0.008 C 
ENDBRANCH  12  15
ENDBRANCH  11  12
ENDBRANCH  10  11
ENDBRANCH   1  10
TORSDOF 4
ENDMDL
MODEL 4
REMARK VINA RESULT: -5.064905784      2.545      5.625
REMARK  4 active torsions:
REMARK  status: ('A' for Active; 'I' for Inactive)
REMARK    1  A    between atoms: C2_2  and  C3_3 
REMARK    2  A    between atoms: C3_3  and  S1_6 
REMARK    3  A    between atoms: S1_6  and  C6_7 
REMARK    4  A    between atoms: C6_7  and  C7_8 
ROOT
HETATM    1  C7  UNL     1      23.938 -18.628  29.599  1.00  0.00     0.107 A 
HETATM    2  N1  UNL     1      23.582 -17.333  29.462  1.00  0.00    -0.286 N 
ATOM      3  H1  UNL     1      23.568 -16.654  30.224  1.00  0.00     0.188 HD
HETATM    4  N2  UNL     1      23.259 -17.066  28.228  1.00  0.00    -0.275 N 
ATOM      5  H2  UNL     1      22.955 -16.165  27.858  1.00  0.00     0.189 HD
HETATM    6  C8  UNL     1      23.404 -18.206  27.540  1.00  0.00     0.192 A 
HETATM    7  S2  UNL     1      23.112 -18.366  25.922  1.00  0.00    -0.039 SA
HETATM    8  N3  UNL     1      23.820 -19.177  28.360  1.00  0.00    -0.320 N 
ATOM      9  H3  UNL     1      24.013 -20.145  28.105  1.00  0.00     0.169 HD
ENDROOT
BRANCH   1  10
HETATM   10  C6  UNL     1      24.371 -19.350  30.826  1.00  0.00     0.152 C 
BRANCH  10  11
HETATM   11  S1  UNL     1      23.111 -20.483  31.351  1.00  0.00    -0.148 SA
BRANCH  11  12
HETATM   12  C3  UNL     1      21.906 -19.869  32.499  1.00  0.00     0.018 C 
HETATM   13  C4  UNL     1      21.355 -18.503  32.094  1.00  0.00     0.031 C 
HETATM   14  C5  UNL     1      20.717 -20.806  32.671  1.00  0.00     0.031 C 
BRANCH  12  15
HETATM   15  C2  UNL     1      22.517 -19.697  33.838  1.00  0.00    -0.017 C 
HETATM   16  C1  UNL     1      21.711 -19.704  34.927  1.00  0.00     0.008 C 
ENDBRANCH  12  15
ENDBRANCH  11  12
ENDBRANCH  10  11
ENDBRANCH   1  10
TORSDOF 4
ENDMDL
MODEL 5
REMARK VINA RESULT: -5.027488057      2.519      5.406
REMARK  4 active torsions:
REMARK  status: ('A' for Active; 'I' for Inactive)
REMARK    1  A    between atoms: C2_2  and  C3_3 
REMARK    2  A    between atoms: C3_3  and  S1_6 
REMARK    3  A    between atoms: S1_6  and  C6_7 
REMARK    4  A    between atoms: C6_7  and  C7_8 
ROOT
HETATM    1  C7  UNL     1      23.944 -18.619  29.596  1.00  0.00     0.107 A 
HETATM    2  N1  UNL     1      23.580 -17.329  29.435  1.00  0.00    -0.286 N 
ATOM      3  H1  UNL     1      23.543 -16.640  30.187  1.00  0.00     0.188 HD
HETATM    4  N2  UNL     1      23.281 -17.079  28.191  1.00  0.00    -0.275 N 
ATOM      5  H2  UNL     1      22.977 -16.186  27.803  1.00  0.00     0.189 HD
HETATM    6  C8  UNL     1      23.452 -18.227  27.520  1.00  0.00     0.192 A 
HETATM    7  S2  UNL     1      23.196 -18.409  25.899  1.00  0.00    -0.039 SA
HETATM    8  N3  UNL     1      23.858 -19.184  28.361  1.00  0.00    -0.320 N 
ATOM      9  H3  UNL     1      24.065 -20.153  28.123  1.00  0.00     0.169 HD
ENDROOT
BRANCH   1  10
HETATM   10  C6  UNL     1      24.357 -19.321  30.840  1.00  0.00     0.152 C 
BRANCH  10  11
HETATM   11  S1  UNL     1      23.102 -20.471  31.344  1.00  0.00    -0.148 SA
BRANCH  11  12
HETATM   12  C3  UNL     1      21.882 -19.878  32.486  1.00  0.00     0.018 C 
HETATM   13  C4  UNL     1      20.676 -20.809  32.589  1.00  0.00     0.031 C 
HETATM   14  C5  UNL     1      22.430 -19.686  33.895  1.00  0.00     0.031 C 
BRANCH  12  15
HETATM   15  C2  UNL     1      21.363 -18.562  32.043  1.00  0.00    -0.017 C 
HETATM   16  C1  UNL     1      20.151 -18.155  32.492  1.00  0.00     0.008 C 
ENDBRANCH  12  15
ENDBRANCH  11  12
ENDBRANCH  10  11
ENDBRANCH   1  10
TORSDOF 4
ENDMDL
