MODEL 1
REMARK VINA RESULT: -5.412012271      0.000      0.000
REMARK  4 active torsions:
REMARK  status: ('A' for Active; 'I' for Inactive)
REMARK    1  A    between atoms: C2_2  and  C4_4 
REMARK    2  A    between atoms: C4_4  and  C5_5 
REMARK    3  A    between atoms: C5_5  and  N1_6 
REMARK    4  A    between atoms: N1_6  and  C6_8 
ROOT
HETATM    1  C6  UNL     1      22.574 -17.541  30.948  1.00  0.00     0.086 C 
HETATM    2  C7  UNL     1      21.170 -17.690  31.483  1.00  0.00     0.105 C 
HETATM    3  S1  UNL     1      21.036 -19.112  32.619  1.00  0.00    -0.115 SA
HETATM    4  C8  UNL     1      22.032 -20.413  31.865  1.00  0.00     0.044 C 
HETATM    5  N2  UNL     1      21.638 -21.603  31.880  1.00  0.00    -0.397 N 
ATOM      6  H21 UNL     1      22.201 -22.339  31.454  1.00  0.00     0.156 HD
ATOM      7  H22 UNL     1      20.763 -21.919  32.299  1.00  0.00     0.156 HD
HETATM    8  C9  UNL     1      23.320 -19.947  31.248  1.00  0.00     0.040 C 
HETATM    9  C10 UNL     1      24.438 -20.723  31.962  1.00  0.00     0.017 C 
HETATM   10  C11 UNL     1      23.559 -18.509  31.521  1.00  0.00     0.036 C 
ENDROOT
BRANCH   1  11
HETATM   11  N1  UNL     1      22.579 -17.488  29.531  1.00  0.00    -0.416 N 
ATOM     12  H1  UNL     1      21.776 -17.789  28.979  1.00  0.00     0.153 HD
BRANCH  11  13
HETATM   13  C5  UNL     1      23.776 -16.987  28.916  1.00  0.00     0.114 C 
BRANCH  13  14
HETATM   14  C4  UNL     1      23.649 -17.015  27.435  1.00  0.00     0.023 C 
BRANCH  14  15
HETATM   15  C2  UNL     1      23.273 -18.369  26.865  1.00  0.00    -0.021 C 
HETATM   16  C1  UNL     1      22.130 -18.084  25.883  1.00  0.00     0.009 C 
HETATM   17  C3  UNL     1      24.411 -19.002  26.095  1.00  0.00     0.009 C 
ENDBRANCH  14  15
ENDBRANCH  13  14
ENDBRANCH  11  13
ENDBRANCH   1  11
TORSDOF 4
ENDMDL
MODEL 2
REMARK VINA RESULT: -5.141672162      1.991      2.774
REMARK  4 active torsions:
REMARK  status: ('A' for Active; 'I' for Inactive)
REMARK    1  A    between atoms: C2_2  and  C4_4 
REMARK    2  A    between atoms: C4_4  and  C5_5 
REMARK    3  A    between atoms: C5_5  and  N1_6 
REMARK    4  A    between atoms: N1_6  and  C6_8 
ROOT
HETATM    1  C6  UNL     1      22.073 -19.169  32.225  1.00  0.00     0.086 C 
HETATM    2  C7  UNL     1      21.058 -18.059  32.079  1.00  0.00     0.105 C 
HETATM    3  S1  UNL     1      19.480 -18.488  32.887  1.00  0.00    -0.115 SA
HETATM    4  C8  UNL     1      19.214 -20.231  32.509  1.00  0.00     0.044 C 
HETATM    5  N2  UNL     1      18.067 -20.651  32.227  1.00  0.00    -0.397 N 
ATOM      6  H21 UNL     1      17.916 -21.637  32.012  1.00  0.00     0.156 HD
ATOM      7  H22 UNL     1      17.229 -20.070  32.188  1.00  0.00     0.156 HD
HETATM    8  C9  UNL     1      20.447 -21.086  32.565  1.00  0.00     0.040 C 
HETATM    9  C10 UNL     1      20.160 -22.178  33.608  1.00  0.00     0.017 C 
HETATM   10  C11 UNL     1      21.613 -20.318  33.064  1.00  0.00     0.036 C 
ENDROOT
BRANCH   1  11
HETATM   11  N1  UNL     1      22.599 -19.551  30.965  1.00  0.00    -0.416 N 
ATOM     12  H1  UNL     1      22.403 -20.465  30.556  1.00  0.00     0.153 HD
BRANCH  11  13
HETATM   13  C5  UNL     1      23.421 -18.583  30.296  1.00  0.00     0.114 C 
BRANCH  13  14
HETATM   14  C4  UNL     1      23.363 -18.781  28.825  1.00  0.00     0.023 C 
BRANCH  14  15
HETATM   15  C2  UNL     1      22.874 -17.573  28.049  1.00  0.00    -0.021 C 
HETATM   16  C1  UNL     1      24.076 -16.624  27.990  1.00  0.00     0.009 C 
HETATM   17  C3  UNL     1      22.478 -17.924  26.632  1.00  0.00     0.009 C 
ENDBRANCH  14  15
ENDBRANCH  13  14
ENDBRANCH  11  13
ENDBRANCH   1  11
TORSDOF 4
ENDMDL
MODEL 3
REMARK VINA RESULT: -4.998601650      1.513      2.457
REMARK  4 active torsions:
REMARK  status: ('A' for Active; 'I' for Inactive)
REMARK    1  A    between atoms: C2_2  and  C4_4 
REMARK    2  A    between atoms: C4_4  and  C5_5 
REMARK    3  A    between atoms: C5_5  and  N1_6 
REMARK    4  A    between atoms: N1_6  and  C6_8 
ROOT
HETATM    1  C6  UNL     1      22.979 -18.876  30.192  1.00  0.00     0.086 C 
HETATM    2  C7  UNL     1      23.605 -20.192  30.588  1.00  0.00     0.105 C 
HETATM    3  S1  UNL     1      22.707 -20.967  31.975  1.00  0.00    -0.115 SA
HETATM    4  C8  UNL     1      22.290 -19.608  33.086  1.00  0.00     0.044 C 
HETATM    5  N2  UNL     1      22.374 -19.757  34.328  1.00  0.00    -0.397 N 
ATOM      6  H21 UNL     1      22.138 -18.988  34.956  1.00  0.00     0.156 HD
ATOM      7  H22 UNL     1      22.670 -20.615  34.792  1.00  0.00     0.156 HD
HETATM    8  C9  UNL     1      21.854 -18.344  32.403  1.00  0.00     0.040 C 
HETATM    9  C10 UNL     1      20.442 -18.042  32.931  1.00  0.00     0.017 C 
HETATM   10  C11 UNL     1      21.727 -18.538  30.938  1.00  0.00     0.036 C 
ENDROOT
BRANCH   1  11
HETATM   11  N1  UNL     1      23.940 -17.833  30.182  1.00  0.00    -0.416 N 
ATOM     12  H1  UNL     1      24.381 -17.500  31.039  1.00  0.00     0.153 HD
BRANCH  11  13
HETATM   13  C5  UNL     1      24.259 -17.273  28.899  1.00  0.00     0.114 C 
BRANCH  13  14
HETATM   14  C4  UNL     1      23.048 -17.220  28.040  1.00  0.00     0.023 C 
BRANCH  14  15
HETATM   15  C2  UNL     1      23.289 -17.600  26.592  1.00  0.00    -0.021 C 
HETATM   16  C1  UNL     1      24.278 -18.771  26.647  1.00  0.00     0.009 C 
HETATM   17  C3  UNL     1      22.029 -18.077  25.907  1.00  0.00     0.009 C 
ENDBRANCH  14  15
ENDBRANCH  13  14
ENDBRANCH  11  13
ENDBRANCH   1  11
TORSDOF 4
ENDMDL
MODEL 4
REMARK VINA RESULT: -4.976999064      1.566      2.383
REMARK  4 active torsions:
REMARK  status: ('A' for Active; 'I' for Inactive)
REMARK    1  A    between atoms: C2_2  and  C4_4 
REMARK    2  A    between atoms: C4_4  and  C5_5 
REMARK    3  A    between atoms: C5_5  and  N1_6 
REMARK    4  A    between atoms: N1_6  and  C6_8 
ROOT
HETATM    1  C6  UNL     1      23.420 -19.870  31.147  1.00  0.00     0.086 C 
HETATM    2  C7  UNL     1      23.179 -18.474  31.670  1.00  0.00     0.105 C 
HETATM    3  S1  UNL     1      21.921 -18.464  32.992  1.00  0.00    -0.115 SA
HETATM    4  C8  UNL     1      20.657 -19.631  32.450  1.00  0.00     0.044 C 
HETATM    5  N2  UNL     1      19.442 -19.377  32.625  1.00  0.00    -0.397 N 
ATOM      6  H21 UNL     1      18.728 -20.037  32.318  1.00  0.00     0.156 HD
ATOM      7  H22 UNL     1      19.084 -18.530  33.066  1.00  0.00     0.156 HD
HETATM    8  C9  UNL     1      21.185 -20.878  31.800  1.00  0.00     0.040 C 
HETATM    9  C10 UNL     1      20.654 -22.051  32.639  1.00  0.00     0.017 C 
HETATM   10  C11 UNL     1      22.664 -20.939  31.871  1.00  0.00     0.036 C 
ENDROOT
BRANCH   1  11
HETATM   11  N1  UNL     1      23.277 -19.922  29.737  1.00  0.00    -0.416 N 
ATOM     12  H1  UNL     1      22.731 -20.651  29.278  1.00  0.00     0.153 HD
BRANCH  11  13
HETATM   13  C5  UNL     1      23.943 -18.891  28.991  1.00  0.00     0.114 C 
BRANCH  13  14
HETATM   14  C4  UNL     1      22.950 -18.027  28.302  1.00  0.00     0.023 C 
BRANCH  14  15
HETATM   15  C2  UNL     1      23.248 -17.778  26.836  1.00  0.00    -0.021 C 
HETATM   16  C1  UNL     1      24.319 -18.811  26.466  1.00  0.00     0.009 C 
HETATM   17  C3  UNL     1      22.039 -18.016  25.957  1.00  0.00     0.009 C 
ENDBRANCH  14  15
ENDBRANCH  13  14
ENDBRANCH  11  13
ENDBRANCH   1  11
TORSDOF 4
ENDMDL
MODEL 5
REMARK VINA RESULT: -4.874730205      2.340      5.144
REMARK  4 active torsions:
REMARK  status: ('A' for Active; 'I' for Inactive)
REMARK    1  A    between atoms: C2_2  and  C4_4 
REMARK    2  A    between atoms: C4_4  and  C5_5 
REMARK    3  A    between atoms: C5_5  and  N1_6 
REMARK    4  A    between atoms: N1_6  and  C6_8 
ROOT
HETATM    1  C6  UNL     1      22.388 -19.004  32.349  1.00  0.00     0.086 C 
HETATM    2  C7  UNL     1      23.396 -20.128  32.316  1.00  0.00     0.105 C 
HETATM    3  S1  UNL     1      24.685 -19.831  31.058  1.00  0.00    -0.115 SA
HETATM    4  C8  UNL     1      23.809 -19.143  29.639  1.00  0.00     0.044 C 
HETATM    5  N2  UNL     1      24.120 -19.488  28.474  1.00  0.00    -0.397 N 
ATOM      6  H21 UNL     1      23.624 -19.099  27.672  1.00  0.00     0.156 HD
ATOM      7  H22 UNL     1      24.857 -20.154  28.243  1.00  0.00     0.156 HD
HETATM    8  C9  UNL     1      22.724 -18.163  29.980  1.00  0.00     0.040 C 
HETATM    9  C10 UNL     1      23.097 -16.853  29.268  1.00  0.00     0.017 C 
HETATM   10  C11 UNL     1      22.702 -17.866  31.432  1.00  0.00     0.036 C 
ENDROOT
BRANCH   1  11
HETATM   11  N1  UNL     1      21.065 -19.499  32.217  1.00  0.00    -0.416 N 
ATOM     12  H1  UNL     1      20.829 -20.228  31.544  1.00  0.00     0.153 HD
BRANCH  11  13
HETATM   13  C5  UNL     1      20.078 -18.918  33.084  1.00  0.00     0.114 C 
BRANCH  13  14
HETATM   14  C4  UNL     1      19.132 -18.080  32.302  1.00  0.00     0.023 C 
BRANCH  14  15
HETATM   15  C2  UNL     1      19.387 -16.589  32.403  1.00  0.00    -0.021 C 
HETATM   16  C1  UNL     1      19.445 -16.096  30.952  1.00  0.00     0.009 C 
HETATM   17  C3  UNL     1      18.262 -15.861  33.104  1.00  0.00     0.009 C 
ENDBRANCH  14  15
ENDBRANCH  13  14
ENDBRANCH  11  13
ENDBRANCH   1  11
TORSDOF 4
ENDMDL
