MODEL 1
REMARK VINA RESULT: -7.529969846      0.000      0.000
REMARK  2 active torsions:
REMARK  status: ('A' for Active; 'I' for Inactive)
REMARK    1  A    between atoms: C1_2  and  C2_3 
REMARK    2  A    between atoms: C6_7  and  O2_8 
ROOT
HETATM    1  C2  UNL     1     -27.640  18.091 -21.995  1.00  0.00     0.071 C 
HETATM    2  C3  UNL     1     -28.472  17.983 -23.249  1.00  0.00     0.013 C 
HETATM    3  C4  UNL     1     -28.086  16.800 -24.102  1.00  0.00     0.003 C 
HETATM    4  C5  UNL     1     -29.290  16.452 -24.961  1.00  0.00     0.032 C 
HETATM    5  C6  UNL     1     -29.653  14.992 -24.829  1.00  0.00     0.118 C 
HETATM    6  C7  UNL     1     -31.018  14.816 -25.467  1.00  0.00     0.032 C 
HETATM    7  C8  UNL     1     -31.883  13.915 -24.581  1.00  0.00     0.002 C 
HETATM    8  C9  UNL     1     -32.844  14.700 -23.753  1.00  0.00     0.000 C 
HETATM    9  C10 UNL     1     -32.290  15.140 -22.432  1.00  0.00     0.000 C 
HETATM   10  C11 UNL     1     -32.124  13.979 -21.483  1.00  0.00     0.000 C 
HETATM   11  C12 UNL     1     -31.412  14.363 -20.238  1.00  0.00     0.000 C 
HETATM   12  C13 UNL     1     -31.696  15.746 -19.754  1.00  0.00     0.002 C 
HETATM   13  C14 UNL     1     -30.686  16.227 -18.763  1.00  0.00     0.026 C 
HETATM   14  C15 UNL     1     -29.305  16.351 -19.314  1.00  0.00     0.167 C 
HETATM   15  O3  UNL     1     -29.208  17.302 -20.340  1.00  0.00    -0.390 OA
HETATM   16  C16 UNL     1     -28.009  17.020 -21.004  1.00  0.00     0.179 C 
ENDROOT
BRANCH   1  17
HETATM   17  C1  UNL     1     -27.726  19.449 -21.434  1.00  0.00     0.237 C 
HETATM   18  O1  UNL     1     -27.196  20.407 -21.967  1.00  0.00    -0.306 OA
ENDBRANCH   1  17
BRANCH   5  19
HETATM   19  O2  UNL     1     -28.679  14.255 -25.496  1.00  0.00    -0.396 OA
ATOM     20  H2  UNL     1     -28.970  13.351 -25.521  1.00  0.00     0.210 HD
ENDBRANCH   5  19
TORSDOF 2
ENDMDL
MODEL 2
REMARK VINA RESULT: -7.474853245      0.920      1.044
REMARK  2 active torsions:
REMARK  status: ('A' for Active; 'I' for Inactive)
REMARK    1  A    between atoms: C1_2  and  C2_3 
REMARK    2  A    between atoms: C6_7  and  O2_8 
ROOT
HETATM    1  C2  UNL     1     -26.814  18.305 -22.655  1.00  0.00     0.071 C 
HETATM    2  C3  UNL     1     -27.857  18.126 -23.729  1.00  0.00     0.013 C 
HETATM    3  C4  UNL     1     -27.719  16.815 -24.463  1.00  0.00     0.003 C 
HETATM    4  C5  UNL     1     -29.077  16.486 -25.058  1.00  0.00     0.032 C 
HETATM    5  C6  UNL     1     -29.522  15.096 -24.668  1.00  0.00     0.118 C 
HETATM    6  C7  UNL     1     -30.987  14.979 -25.044  1.00  0.00     0.032 C 
HETATM    7  C8  UNL     1     -31.750  14.284 -23.914  1.00  0.00     0.002 C 
HETATM    8  C9  UNL     1     -32.488  15.255 -23.056  1.00  0.00     0.000 C 
HETATM    9  C10 UNL     1     -31.680  15.796 -21.917  1.00  0.00     0.000 C 
HETATM   10  C11 UNL     1     -31.440  14.750 -20.857  1.00  0.00     0.000 C 
HETATM   11  C12 UNL     1     -30.494  15.212 -19.809  1.00  0.00     0.000 C 
HETATM   12  C13 UNL     1     -30.582  16.665 -19.481  1.00  0.00     0.002 C 
HETATM   13  C14 UNL     1     -29.381  17.161 -18.744  1.00  0.00     0.026 C 
HETATM   14  C15 UNL     1     -28.112  17.079 -19.524  1.00  0.00     0.167 C 
HETATM   15  O3  UNL     1     -28.123  17.883 -20.674  1.00  0.00    -0.390 OA
HETATM   16  C16 UNL     1     -27.084  17.404 -21.479  1.00  0.00     0.179 C 
ENDROOT
BRANCH   1  17
HETATM   17  C1  UNL     1     -26.696  19.723 -22.279  1.00  0.00     0.237 C 
HETATM   18  O1  UNL     1     -27.112  20.620 -22.990  1.00  0.00    -0.306 OA
ENDBRANCH   1  17
BRANCH   5  19
HETATM   19  O2  UNL     1     -28.739  14.190 -25.378  1.00  0.00    -0.396 OA
ATOM     20  H2  UNL     1     -28.840  13.340 -24.966  1.00  0.00     0.210 HD
ENDBRANCH   5  19
TORSDOF 2
ENDMDL
MODEL 3
REMARK VINA RESULT: -7.402333831      1.457      5.153
REMARK  2 active torsions:
REMARK  status: ('A' for Active; 'I' for Inactive)
REMARK    1  A    between atoms: C1_2  and  C2_3 
REMARK    2  A    between atoms: C6_7  and  O2_8 
ROOT
HETATM    1  C2  UNL     1     -29.128  16.770 -24.928  1.00  0.00     0.071 C 
HETATM    2  C3  UNL     1     -27.850  16.922 -24.142  1.00  0.00     0.013 C 
HETATM    3  C4  UNL     1     -27.629  18.333 -23.657  1.00  0.00     0.003 C 
HETATM    4  C5  UNL     1     -26.705  18.257 -22.454  1.00  0.00     0.032 C 
HETATM    5  C6  UNL     1     -27.291  18.985 -21.267  1.00  0.00     0.118 C 
HETATM    6  C7  UNL     1     -26.460  18.599 -20.058  1.00  0.00     0.032 C 
HETATM    7  C8  UNL     1     -27.387  18.319 -18.871  1.00  0.00     0.002 C 
HETATM    8  C9  UNL     1     -27.598  16.858 -18.658  1.00  0.00     0.000 C 
HETATM    9  C10 UNL     1     -28.744  16.290 -19.439  1.00  0.00     0.000 C 
HETATM   10  C11 UNL     1     -30.072  16.756 -18.896  1.00  0.00     0.000 C 
HETATM   11  C12 UNL     1     -31.210  16.350 -19.761  1.00  0.00     0.000 C 
HETATM   12  C13 UNL     1     -31.048  15.026 -20.430  1.00  0.00     0.002 C 
HETATM   13  C14 UNL     1     -31.994  14.840 -21.572  1.00  0.00     0.026 C 
HETATM   14  C15 UNL     1     -31.785  15.800 -22.695  1.00  0.00     0.167 C 
HETATM   15  O3  UNL     1     -30.531  15.665 -23.307  1.00  0.00    -0.390 OA
HETATM   16  C16 UNL     1     -30.332  16.847 -24.028  1.00  0.00     0.179 C 
ENDROOT
BRANCH   1  17
HETATM   17  C1  UNL     1     -29.093  15.543 -25.740  1.00  0.00     0.237 C 
HETATM   18  O1  UNL     1     -28.156  14.766 -25.704  1.00  0.00    -0.306 OA
ENDBRANCH   1  17
BRANCH   5  19
HETATM   19  O2  UNL     1     -27.208  20.349 -21.529  1.00  0.00    -0.396 OA
ATOM     20  H2  UNL     1     -26.488  20.697 -21.017  1.00  0.00     0.210 HD
ENDBRANCH   5  19
TORSDOF 2
ENDMDL
MODEL 4
REMARK VINA RESULT: -7.365569220      4.089      6.532
REMARK  2 active torsions:
REMARK  status: ('A' for Active; 'I' for Inactive)
REMARK    1  A    between atoms: C1_2  and  C2_3 
REMARK    2  A    between atoms: C6_7  and  O2_8 
ROOT
HETATM    1  C2  UNL     1     -31.447  19.628 -16.296  1.00  0.00     0.071 C 
HETATM    2  C3  UNL     1     -30.806  20.341 -17.460  1.00  0.00     0.013 C 
HETATM    3  C4  UNL     1     -29.363  20.697 -17.201  1.00  0.00     0.003 C 
HETATM    4  C5  UNL     1     -28.686  20.849 -18.552  1.00  0.00     0.032 C 
HETATM    5  C6  UNL     1     -27.440  20.001 -18.638  1.00  0.00     0.118 C 
HETATM    6  C7  UNL     1     -27.017  19.982 -20.095  1.00  0.00     0.032 C 
HETATM    7  C8  UNL     1     -26.612  18.560 -20.491  1.00  0.00     0.002 C 
HETATM    8  C9  UNL     1     -27.693  17.857 -21.239  1.00  0.00     0.000 C 
HETATM    9  C10 UNL     1     -28.665  17.128 -20.361  1.00  0.00     0.000 C 
HETATM   10  C11 UNL     1     -28.041  15.906 -19.734  1.00  0.00     0.000 C 
HETATM   11  C12 UNL     1     -28.928  15.273 -18.724  1.00  0.00     0.000 C 
HETATM   12  C13 UNL     1     -30.385  15.346 -19.036  1.00  0.00     0.002 C 
HETATM   13  C14 UNL     1     -31.242  15.071 -17.843  1.00  0.00     0.026 C 
HETATM   14  C15 UNL     1     -31.092  16.070 -16.744  1.00  0.00     0.167 C 
HETATM   15  O3  UNL     1     -31.490  17.361 -17.119  1.00  0.00    -0.390 OA
HETATM   16  C16 UNL     1     -30.929  18.220 -16.168  1.00  0.00     0.179 C 
ENDROOT
BRANCH   1  17
HETATM   17  C1  UNL     1     -32.914  19.695 -16.393  1.00  0.00     0.237 C 
HETATM   18  O1  UNL     1     -33.505  20.740 -16.598  1.00  0.00    -0.306 OA
ENDBRANCH   1  17
BRANCH   5  19
HETATM   19  O2  UNL     1     -26.472  20.594 -17.833  1.00  0.00    -0.396 OA
ATOM     20  H2  UNL     1     -25.702  20.036 -17.852  1.00  0.00     0.210 HD
ENDBRANCH   5  19
TORSDOF 2
ENDMDL
MODEL 5
REMARK VINA RESULT: -7.265804013      2.754      5.784
REMARK  2 active torsions:
REMARK  status: ('A' for Active; 'I' for Inactive)
REMARK    1  A    between atoms: C1_2  and  C2_3 
REMARK    2  A    between atoms: C6_7  and  O2_8 
ROOT
HETATM    1  C2  UNL     1     -25.483  19.441 -21.328  1.00  0.00     0.071 C 
HETATM    2  C3  UNL     1     -25.992  19.166 -19.935  1.00  0.00     0.013 C 
HETATM    3  C4  UNL     1     -26.806  20.307 -19.376  1.00  0.00     0.003 C 
HETATM    4  C5  UNL     1     -27.714  19.730 -18.303  1.00  0.00     0.032 C 
HETATM    5  C6  UNL     1     -29.155  20.112 -18.543  1.00  0.00     0.118 C 
HETATM    6  C7  UNL     1     -29.999  19.256 -17.619  1.00  0.00     0.032 C 
HETATM    7  C8  UNL     1     -31.222  18.737 -18.380  1.00  0.00     0.002 C 
HETATM    8  C9  UNL     1     -31.045  17.325 -18.828  1.00  0.00     0.000 C 
HETATM    9  C10 UNL     1     -30.394  17.191 -20.171  1.00  0.00     0.000 C 
HETATM   10  C11 UNL     1     -31.314  17.630 -21.282  1.00  0.00     0.000 C 
HETATM   11  C12 UNL     1     -30.628  17.674 -22.600  1.00  0.00     0.000 C 
HETATM   12  C13 UNL     1     -29.588  16.623 -22.801  1.00  0.00     0.002 C 
HETATM   13  C14 UNL     1     -28.666  16.937 -23.934  1.00  0.00     0.026 C 
HETATM   14  C15 UNL     1     -27.849  18.169 -23.730  1.00  0.00     0.167 C 
HETATM   15  O3  UNL     1     -26.975  18.071 -22.638  1.00  0.00    -0.390 OA
HETATM   16  C16 UNL     1     -26.600  19.385 -22.336  1.00  0.00     0.179 C 
ENDROOT
BRANCH   1  17
HETATM   17  C1  UNL     1     -24.365  18.544 -21.657  1.00  0.00     0.237 C 
HETATM   18  O1  UNL     1     -23.644  18.062 -20.800  1.00  0.00    -0.306 OA
ENDBRANCH   1  17
BRANCH   5  19
HETATM   19  O2  UNL     1     -29.285  21.466 -18.246  1.00  0.00    -0.396 OA
ATOM     20  H2  UNL     1     -29.356  21.935 -19.070  1.00  0.00     0.210 HD
ENDBRANCH   5  19
TORSDOF 2
ENDMDL
