MODEL 1
REMARK VINA RESULT: -7.431420588      0.000      0.000
REMARK  3 active torsions:
REMARK  status: ('A' for Active; 'I' for Inactive)
REMARK    1  A    between atoms: C7_8  and  C8_9 
REMARK    2  A    between atoms: C8_9  and  O2_10 
REMARK    3  A    between atoms: C11_14  and  C12_15 
ROOT
HETATM    1  C1  UNL     1     -32.654  14.741 -24.012  1.00  0.00     0.010 C 
HETATM    2  C2  UNL     1     -31.600  15.053 -23.017  1.00  0.00    -0.009 C 
HETATM    3  C3  UNL     1     -31.596  16.500 -22.507  1.00  0.00     0.073 C 
HETATM    4  C4  UNL     1     -30.076  16.326 -22.454  1.00  0.00     0.166 C 
HETATM    5  C5  UNL     1     -30.227  15.378 -23.600  1.00  0.00     0.073 C 
HETATM    6  O1  UNL     1     -29.733  15.758 -21.236  1.00  0.00    -0.347 OA
HETATM    7  C6  UNL     1     -29.514  16.912 -20.458  1.00  0.00     0.160 C 
HETATM    8  C7  UNL     1     -28.897  16.583 -19.172  1.00  0.00     0.041 C 
HETATM    9  C9  UNL     1     -27.442  16.787 -19.024  1.00  0.00     0.010 C 
HETATM   10  C10 UNL     1     -26.823  17.771 -19.951  1.00  0.00     0.009 C 
HETATM   11  C11 UNL     1     -27.309  17.433 -21.348  1.00  0.00     0.024 C 
HETATM   12  C16 UNL     1     -28.757  17.777 -21.391  1.00  0.00     0.159 C 
HETATM   13  O3  UNL     1     -29.341  17.453 -22.640  1.00  0.00    -0.347 OA
ENDROOT
BRANCH   8  14
HETATM   14  C8  UNL     1     -29.645  17.346 -18.069  1.00  0.00     0.171 C 
BRANCH  14  15
HETATM   15  O2  UNL     1     -28.951  17.154 -16.897  1.00  0.00    -0.400 OA
ATOM     16  H2  UNL     1     -28.658  18.008 -16.599  1.00  0.00     0.209 HD
ENDBRANCH  14  15
ENDBRANCH   8  14
BRANCH  11  17
HETATM   17  C12 UNL     1     -26.465  18.169 -22.341  1.00  0.00    -0.045 C 
HETATM   18  C13 UNL     1     -26.339  17.400 -23.637  1.00  0.00     0.015 C 
HETATM   19  C14 UNL     1     -25.054  18.259 -21.760  1.00  0.00     0.015 C 
HETATM   20  C15 UNL     1     -26.923  19.576 -22.602  1.00  0.00     0.015 C 
ENDBRANCH  11  17
TORSDOF 3
ENDMDL
MODEL 2
REMARK VINA RESULT: -6.832692294      2.155      2.429
REMARK  3 active torsions:
REMARK  status: ('A' for Active; 'I' for Inactive)
REMARK    1  A    between atoms: C7_8  and  C8_9 
REMARK    2  A    between atoms: C8_9  and  O2_10 
REMARK    3  A    between atoms: C11_14  and  C12_15 
ROOT
HETATM    1  C1  UNL     1     -29.692  15.178 -26.045  1.00  0.00     0.010 C 
HETATM    2  C2  UNL     1     -29.514  15.702 -24.669  1.00  0.00    -0.009 C 
HETATM    3  C3  UNL     1     -29.829  17.194 -24.495  1.00  0.00     0.073 C 
HETATM    4  C4  UNL     1     -28.694  17.167 -23.469  1.00  0.00     0.166 C 
HETATM    5  C5  UNL     1     -28.083  16.081 -24.294  1.00  0.00     0.073 C 
HETATM    6  O1  UNL     1     -29.209  16.782 -22.241  1.00  0.00    -0.347 OA
HETATM    7  C6  UNL     1     -29.531  18.035 -21.684  1.00  0.00     0.160 C 
HETATM    8  C7  UNL     1     -29.879  17.919 -20.266  1.00  0.00     0.041 C 
HETATM    9  C9  UNL     1     -28.852  18.273 -19.266  1.00  0.00     0.010 C 
HETATM   10  C10 UNL     1     -27.779  19.192 -19.727  1.00  0.00     0.009 C 
HETATM   11  C11 UNL     1     -27.263  18.648 -21.046  1.00  0.00     0.024 C 
HETATM   12  C16 UNL     1     -28.349  18.850 -22.046  1.00  0.00     0.159 C 
HETATM   13  O3  UNL     1     -28.004  18.328 -23.315  1.00  0.00    -0.347 OA
ENDROOT
BRANCH   8  14
HETATM   14  C8  UNL     1     -31.155  18.735 -20.013  1.00  0.00     0.171 C 
BRANCH  14  15
HETATM   15  O2  UNL     1     -31.889  18.717 -21.176  1.00  0.00    -0.400 OA
ATOM     16  H2  UNL     1     -31.356  18.295 -21.840  1.00  0.00     0.209 HD
ENDBRANCH  14  15
ENDBRANCH   8  14
BRANCH  11  17
HETATM   17  C12 UNL     1     -25.976  19.336 -21.379  1.00  0.00    -0.045 C 
HETATM   18  C13 UNL     1     -25.008  18.396 -22.061  1.00  0.00     0.015 C 
HETATM   19  C14 UNL     1     -25.321  19.738 -20.058  1.00  0.00     0.015 C 
HETATM   20  C15 UNL     1     -26.151  20.593 -22.184  1.00  0.00     0.015 C 
ENDBRANCH  11  17
TORSDOF 3
ENDMDL
MODEL 3
REMARK VINA RESULT: -6.800449380      2.000      4.303
REMARK  3 active torsions:
REMARK  status: ('A' for Active; 'I' for Inactive)
REMARK    1  A    between atoms: C7_8  and  C8_9 
REMARK    2  A    between atoms: C8_9  and  O2_10 
REMARK    3  A    between atoms: C11_14  and  C12_15 
ROOT
HETATM    1  C1  UNL     1     -32.843  15.655 -17.832  1.00  0.00     0.010 C 
HETATM    2  C2  UNL     1     -32.297  15.979 -19.174  1.00  0.00    -0.009 C 
HETATM    3  C3  UNL     1     -31.053  15.178 -19.579  1.00  0.00     0.073 C 
HETATM    4  C4  UNL     1     -30.633  16.466 -20.291  1.00  0.00     0.166 C 
HETATM    5  C5  UNL     1     -31.386  17.202 -19.231  1.00  0.00     0.073 C 
HETATM    6  O1  UNL     1     -31.196  16.481 -21.559  1.00  0.00    -0.347 OA
HETATM    7  C6  UNL     1     -30.175  15.866 -22.310  1.00  0.00     0.160 C 
HETATM    8  C7  UNL     1     -30.425  15.977 -23.748  1.00  0.00     0.041 C 
HETATM    9  C9  UNL     1     -29.699  17.019 -24.503  1.00  0.00     0.010 C 
HETATM   10  C10 UNL     1     -28.429  17.498 -23.899  1.00  0.00     0.009 C 
HETATM   11  C11 UNL     1     -28.719  17.813 -22.443  1.00  0.00     0.024 C 
HETATM   12  C16 UNL     1     -28.958  16.509 -21.764  1.00  0.00     0.159 C 
HETATM   13  O3  UNL     1     -29.295  16.678 -20.399  1.00  0.00    -0.347 OA
ENDROOT
BRANCH   8  14
HETATM   14  C8  UNL     1     -30.181  14.603 -24.388  1.00  0.00     0.171 C 
BRANCH  14  15
HETATM   15  O2  UNL     1     -29.951  14.812 -25.728  1.00  0.00    -0.400 OA
ATOM     16  H2  UNL     1     -30.154  14.000 -26.179  1.00  0.00     0.209 HD
ENDBRANCH  14  15
ENDBRANCH   8  14
BRANCH  11  17
HETATM   17  C12 UNL     1     -27.577  18.604 -21.886  1.00  0.00    -0.045 C 
HETATM   18  C13 UNL     1     -28.001  19.411 -20.680  1.00  0.00     0.015 C 
HETATM   19  C14 UNL     1     -27.164  19.618 -22.953  1.00  0.00     0.015 C 
HETATM   20  C15 UNL     1     -26.362  17.777 -21.572  1.00  0.00     0.015 C 
ENDBRANCH  11  17
TORSDOF 3
ENDMDL
MODEL 4
REMARK VINA RESULT: -6.783787114      2.151      4.443
REMARK  3 active torsions:
REMARK  status: ('A' for Active; 'I' for Inactive)
REMARK    1  A    between atoms: C7_8  and  C8_9 
REMARK    2  A    between atoms: C8_9  and  O2_10 
REMARK    3  A    between atoms: C11_14  and  C12_15 
ROOT
HETATM    1  C1  UNL     1     -33.141  19.342 -17.553  1.00  0.00     0.010 C 
HETATM    2  C2  UNL     1     -32.615  18.926 -18.876  1.00  0.00    -0.009 C 
HETATM    3  C3  UNL     1     -31.874  17.582 -18.887  1.00  0.00     0.073 C 
HETATM    4  C4  UNL     1     -30.995  18.239 -19.954  1.00  0.00     0.166 C 
HETATM    5  C5  UNL     1     -31.271  19.537 -19.266  1.00  0.00     0.073 C 
HETATM    6  O1  UNL     1     -31.592  18.069 -21.194  1.00  0.00    -0.347 OA
HETATM    7  C6  UNL     1     -30.999  16.861 -21.611  1.00  0.00     0.160 C 
HETATM    8  C7  UNL     1     -31.287  16.579 -23.018  1.00  0.00     0.041 C 
HETATM    9  C9  UNL     1     -30.242  16.883 -24.017  1.00  0.00     0.010 C 
HETATM   10  C10 UNL     1     -28.847  16.938 -23.508  1.00  0.00     0.009 C 
HETATM   11  C11 UNL     1     -28.859  17.816 -22.271  1.00  0.00     0.024 C 
HETATM   12  C16 UNL     1     -29.586  17.057 -21.215  1.00  0.00     0.159 C 
HETATM   13  O3  UNL     1     -29.710  17.802 -20.018  1.00  0.00    -0.347 OA
ENDROOT
BRANCH   8  14
HETATM   14  C8  UNL     1     -31.712  15.109 -23.139  1.00  0.00     0.171 C 
BRANCH  14  15
HETATM   15  O2  UNL     1     -33.060  15.093 -23.410  1.00  0.00    -0.400 OA
ATOM     16  H2  UNL     1     -33.457  14.453 -22.831  1.00  0.00     0.209 HD
ENDBRANCH  14  15
ENDBRANCH   8  14
BRANCH  11  17
HETATM   17  C12 UNL     1     -27.448  18.172 -21.921  1.00  0.00    -0.045 C 
HETATM   18  C13 UNL     1     -27.281  19.665 -21.752  1.00  0.00     0.015 C 
HETATM   19  C14 UNL     1     -26.572  17.776 -23.109  1.00  0.00     0.015 C 
HETATM   20  C15 UNL     1     -26.918  17.440 -20.720  1.00  0.00     0.015 C 
ENDBRANCH  11  17
TORSDOF 3
ENDMDL
MODEL 5
REMARK VINA RESULT: -6.735060292      2.134      2.447
REMARK  3 active torsions:
REMARK  status: ('A' for Active; 'I' for Inactive)
REMARK    1  A    between atoms: C7_8  and  C8_9 
REMARK    2  A    between atoms: C8_9  and  O2_10 
REMARK    3  A    between atoms: C11_14  and  C12_15 
ROOT
HETATM    1  C1  UNL     1     -31.806  15.701 -22.553  1.00  0.00     0.010 C 
HETATM    2  C2  UNL     1     -30.921  16.458 -21.634  1.00  0.00    -0.009 C 
HETATM    3  C3  UNL     1     -30.796  17.957 -21.940  1.00  0.00     0.073 C 
HETATM    4  C4  UNL     1     -29.357  17.791 -21.448  1.00  0.00     0.166 C 
HETATM    5  C5  UNL     1     -29.430  16.388 -21.957  1.00  0.00     0.073 C 
HETATM    6  O1  UNL     1     -29.334  17.938 -20.069  1.00  0.00    -0.347 OA
HETATM    7  C6  UNL     1     -29.095  19.321 -19.954  1.00  0.00     0.160 C 
HETATM    8  C7  UNL     1     -28.785  19.698 -18.574  1.00  0.00     0.041 C 
HETATM    9  C9  UNL     1     -27.368  19.906 -18.209  1.00  0.00     0.010 C 
HETATM   10  C10 UNL     1     -26.448  20.237 -19.328  1.00  0.00     0.009 C 
HETATM   11  C11 UNL     1     -26.710  19.231 -20.433  1.00  0.00     0.024 C 
HETATM   12  C16 UNL     1     -28.057  19.544 -20.986  1.00  0.00     0.159 C 
HETATM   13  O3  UNL     1     -28.439  18.630 -21.997  1.00  0.00    -0.347 OA
ENDROOT
BRANCH   8  14
HETATM   14  C8  UNL     1     -29.602  20.948 -18.219  1.00  0.00     0.171 C 
BRANCH  14  15
HETATM   15  O2  UNL     1     -28.996  21.541 -17.137  1.00  0.00    -0.400 OA
ATOM     16  H2  UNL     1     -28.630  22.365 -17.434  1.00  0.00     0.209 HD
ENDBRANCH  14  15
ENDBRANCH   8  14
BRANCH  11  17
HETATM   17  C12 UNL     1     -25.595  19.310 -21.429  1.00  0.00    -0.045 C 
HETATM   18  C13 UNL     1     -25.450  18.017 -22.199  1.00  0.00     0.015 C 
HETATM   19  C14 UNL     1     -24.296  19.486 -20.644  1.00  0.00     0.015 C 
HETATM   20  C15 UNL     1     -25.703  20.478 -22.369  1.00  0.00     0.015 C 
ENDBRANCH  11  17
TORSDOF 3
ENDMDL
