MODEL 1
REMARK VINA RESULT: -7.691917246      0.000      0.000
REMARK  3 active torsions:
REMARK  status: ('A' for Active; 'I' for Inactive)
REMARK    1  A    between atoms: C12_12  and  C14_14 
REMARK    2  A    between atoms: C14_14  and  O2_16 
REMARK    3  A    between atoms: C17_19  and  O3_20 
ROOT
HETATM    1  C1  UNL     1     -30.954  14.730 -24.877  1.00  0.00     0.017 C 
HETATM    2  C2  UNL     1     -30.394  15.425 -23.905  1.00  0.00    -0.060 C 
HETATM    3  C3  UNL     1     -30.853  15.418 -22.486  1.00  0.00     0.045 C 
HETATM    4  C4  UNL     1     -30.178  16.674 -21.897  1.00  0.00    -0.034 C 
HETATM    5  C5  UNL     1     -31.073  17.792 -22.173  1.00  0.00     0.016 C 
HETATM    6  C6  UNL     1     -29.876  16.556 -20.449  1.00  0.00     0.010 C 
HETATM    7  C7  UNL     1     -28.449  16.451 -20.091  1.00  0.00     0.007 C 
HETATM    8  C8  UNL     1     -27.468  17.259 -20.828  1.00  0.00     0.008 C 
HETATM    9  C9  UNL     1     -27.829  17.518 -22.298  1.00  0.00    -0.002 C 
HETATM   10  C10 UNL     1     -28.071  18.963 -22.410  1.00  0.00     0.007 C 
HETATM   11  C11 UNL     1     -27.994  19.549 -20.992  1.00  0.00     0.020 C 
HETATM   12  C12 UNL     1     -27.136  18.585 -20.256  1.00  0.00     0.048 C 
HETATM   13  C13 UNL     1     -27.287  18.666 -18.764  1.00  0.00     0.026 C 
HETATM   14  C16 UNL     1     -28.885  16.577 -22.636  1.00  0.00     0.031 C 
HETATM   15  C17 UNL     1     -29.220  16.326 -24.072  1.00  0.00     0.151 C 
ENDROOT
BRANCH  12  16
HETATM   16  C14 UNL     1     -25.704  18.920 -20.583  1.00  0.00     0.267 C 
HETATM   17  O1  UNL     1     -24.822  18.034 -20.635  1.00  0.00    -0.264 OA
BRANCH  16  18
HETATM   18  O2  UNL     1     -25.312  20.224 -20.841  1.00  0.00    -0.326 OA
HETATM   19  C15 UNL     1     -24.247  20.539 -21.721  1.00  0.00     0.213 C 
ENDBRANCH  16  18
ENDBRANCH  12  16
BRANCH  15  20
HETATM   20  O3  UNL     1     -29.445  17.424 -24.832  1.00  0.00    -0.391 OA
ATOM     21  H3  UNL     1     -29.194  17.339 -25.744  1.00  0.00     0.210 HD
ENDBRANCH  15  20
TORSDOF 3
ENDMDL
MODEL 2
REMARK VINA RESULT: -7.621690661      0.987      1.089
REMARK  3 active torsions:
REMARK  status: ('A' for Active; 'I' for Inactive)
REMARK    1  A    between atoms: C12_12  and  C14_14 
REMARK    2  A    between atoms: C14_14  and  O2_16 
REMARK    3  A    between atoms: C17_19  and  O3_20 
ROOT
HETATM    1  C1  UNL     1     -30.809  14.866 -24.370  1.00  0.00     0.017 C 
HETATM    2  C2  UNL     1     -30.086  15.664 -23.607  1.00  0.00    -0.060 C 
HETATM    3  C3  UNL     1     -30.213  15.760 -22.124  1.00  0.00     0.045 C 
HETATM    4  C4  UNL     1     -29.496  17.087 -21.800  1.00  0.00    -0.034 C 
HETATM    5  C5  UNL     1     -30.494  18.142 -21.946  1.00  0.00     0.016 C 
HETATM    6  C6  UNL     1     -28.869  17.106 -20.455  1.00  0.00     0.010 C 
HETATM    7  C7  UNL     1     -27.395  17.089 -20.427  1.00  0.00     0.007 C 
HETATM    8  C8  UNL     1     -26.654  17.868 -21.428  1.00  0.00     0.008 C 
HETATM    9  C9  UNL     1     -27.351  17.987 -22.791  1.00  0.00    -0.002 C 
HETATM   10  C10 UNL     1     -27.696  19.406 -22.951  1.00  0.00     0.007 C 
HETATM   11  C11 UNL     1     -27.335  20.113 -21.636  1.00  0.00     0.020 C 
HETATM   12  C12 UNL     1     -26.279  19.251 -21.046  1.00  0.00     0.048 C 
HETATM   13  C13 UNL     1     -26.095  19.453 -19.570  1.00  0.00     0.026 C 
HETATM   14  C16 UNL     1     -28.399  16.979 -22.806  1.00  0.00     0.031 C 
HETATM   15  C17 UNL     1     -29.034  16.593 -24.105  1.00  0.00     0.151 C 
ENDROOT
BRANCH  12  16
HETATM   16  C14 UNL     1     -24.980  19.614 -21.717  1.00  0.00     0.267 C 
HETATM   17  O1  UNL     1     -24.032  18.800 -21.786  1.00  0.00    -0.264 OA
BRANCH  16  18
HETATM   18  O2  UNL     1     -24.788  20.864 -22.285  1.00  0.00    -0.326 OA
HETATM   19  C15 UNL     1     -24.087  21.901 -21.622  1.00  0.00     0.213 C 
ENDBRANCH  16  18
ENDBRANCH  12  16
BRANCH  15  20
HETATM   20  O3  UNL     1     -29.488  17.612 -24.872  1.00  0.00    -0.391 OA
ATOM     21  H3  UNL     1     -29.674  18.416 -24.401  1.00  0.00     0.210 HD
ENDBRANCH  15  20
TORSDOF 3
ENDMDL
MODEL 3
REMARK VINA RESULT: -7.384089595      1.982      3.591
REMARK  3 active torsions:
REMARK  status: ('A' for Active; 'I' for Inactive)
REMARK    1  A    between atoms: C12_12  and  C14_14 
REMARK    2  A    between atoms: C14_14  and  O2_16 
REMARK    3  A    between atoms: C17_19  and  O3_20 
ROOT
HETATM    1  C1  UNL     1     -32.663  19.198 -19.416  1.00  0.00     0.017 C 
HETATM    2  C2  UNL     1     -31.532  18.835 -19.993  1.00  0.00    -0.060 C 
HETATM    3  C3  UNL     1     -31.435  17.882 -21.138  1.00  0.00     0.045 C 
HETATM    4  C4  UNL     1     -29.945  17.484 -21.129  1.00  0.00    -0.034 C 
HETATM    5  C5  UNL     1     -29.820  16.366 -20.199  1.00  0.00     0.016 C 
HETATM    6  C6  UNL     1     -29.419  17.139 -22.474  1.00  0.00     0.010 C 
HETATM    7  C7  UNL     1     -28.462  18.094 -23.060  1.00  0.00     0.007 C 
HETATM    8  C8  UNL     1     -27.463  18.728 -22.188  1.00  0.00     0.008 C 
HETATM    9  C9  UNL     1     -27.933  18.966 -20.745  1.00  0.00    -0.002 C 
HETATM   10  C10 UNL     1     -27.107  18.094 -19.898  1.00  0.00     0.007 C 
HETATM   11  C11 UNL     1     -26.242  17.236 -20.834  1.00  0.00     0.020 C 
HETATM   12  C12 UNL     1     -26.151  18.045 -22.076  1.00  0.00     0.048 C 
HETATM   13  C13 UNL     1     -25.770  17.245 -23.287  1.00  0.00     0.026 C 
HETATM   14  C16 UNL     1     -29.379  18.812 -20.752  1.00  0.00     0.031 C 
HETATM   15  C17 UNL     1     -30.181  19.316 -19.594  1.00  0.00     0.151 C 
ENDROOT
BRANCH  12  16
HETATM   16  C14 UNL     1     -25.075  19.077 -21.860  1.00  0.00     0.267 C 
HETATM   17  O1  UNL     1     -23.972  18.773 -21.352  1.00  0.00    -0.264 OA
BRANCH  16  18
HETATM   18  O2  UNL     1     -25.267  20.403 -22.216  1.00  0.00    -0.326 OA
HETATM   19  C15 UNL     1     -24.414  21.442 -21.771  1.00  0.00     0.213 C 
ENDBRANCH  16  18
ENDBRANCH  12  16
BRANCH  15  20
HETATM   20  O3  UNL     1     -29.772  18.916 -18.367  1.00  0.00    -0.391 OA
ATOM     21  H3  UNL     1     -28.867  18.629 -18.320  1.00  0.00     0.210 HD
ENDBRANCH  15  20
TORSDOF 3
ENDMDL
MODEL 4
REMARK VINA RESULT: -7.358202064      2.040      5.454
REMARK  3 active torsions:
REMARK  status: ('A' for Active; 'I' for Inactive)
REMARK    1  A    between atoms: C12_12  and  C14_14 
REMARK    2  A    between atoms: C14_14  and  O2_16 
REMARK    3  A    between atoms: C17_19  and  O3_20 
ROOT
HETATM    1  C1  UNL     1     -24.299  21.692 -21.745  1.00  0.00     0.017 C 
HETATM    2  C2  UNL     1     -25.173  20.727 -21.528  1.00  0.00    -0.060 C 
HETATM    3  C3  UNL     1     -24.928  19.546 -20.648  1.00  0.00     0.045 C 
HETATM    4  C4  UNL     1     -26.032  18.559 -21.079  1.00  0.00    -0.034 C 
HETATM    5  C5  UNL     1     -25.500  17.813 -22.215  1.00  0.00     0.016 C 
HETATM    6  C6  UNL     1     -26.474  17.656 -19.988  1.00  0.00     0.010 C 
HETATM    7  C7  UNL     1     -27.832  17.890 -19.463  1.00  0.00     0.007 C 
HETATM    8  C8  UNL     1     -28.907  18.244 -20.400  1.00  0.00     0.008 C 
HETATM    9  C9  UNL     1     -28.451  19.059 -21.619  1.00  0.00    -0.002 C 
HETATM   10  C10 UNL     1     -28.657  18.194 -22.788  1.00  0.00     0.007 C 
HETATM   11  C11 UNL     1     -29.102  16.820 -22.266  1.00  0.00     0.020 C 
HETATM   12  C12 UNL     1     -29.708  17.121 -20.944  1.00  0.00     0.048 C 
HETATM   13  C13 UNL     1     -29.792  15.929 -20.036  1.00  0.00     0.026 C 
HETATM   14  C16 UNL     1     -27.120  19.555 -21.308  1.00  0.00     0.031 C 
HETATM   15  C17 UNL     1     -26.535  20.662 -22.126  1.00  0.00     0.151 C 
ENDROOT
BRANCH  12  16
HETATM   16  C14 UNL     1     -31.116  17.595 -21.196  1.00  0.00     0.267 C 
HETATM   17  O1  UNL     1     -31.859  17.023 -22.025  1.00  0.00    -0.264 OA
BRANCH  16  18
HETATM   18  O2  UNL     1     -31.640  18.684 -20.517  1.00  0.00    -0.326 OA
HETATM   19  C15 UNL     1     -32.357  18.551 -19.303  1.00  0.00     0.213 C 
ENDBRANCH  16  18
ENDBRANCH  12  16
BRANCH  15  20
HETATM   20  O3  UNL     1     -26.561  20.489 -23.469  1.00  0.00    -0.391 OA
ATOM     21  H3  UNL     1     -25.765  20.742 -23.922  1.00  0.00     0.210 HD
ENDBRANCH  15  20
TORSDOF 3
ENDMDL
MODEL 5
REMARK VINA RESULT: -7.301306928      2.076      4.086
REMARK  3 active torsions:
REMARK  status: ('A' for Active; 'I' for Inactive)
REMARK    1  A    between atoms: C12_12  and  C14_14 
REMARK    2  A    between atoms: C14_14  and  O2_16 
REMARK    3  A    between atoms: C17_19  and  O3_20 
ROOT
HETATM    1  C1  UNL     1     -31.668  17.074 -16.935  1.00  0.00     0.017 C 
HETATM    2  C2  UNL     1     -30.875  17.138 -17.989  1.00  0.00    -0.060 C 
HETATM    3  C3  UNL     1     -30.991  16.258 -19.189  1.00  0.00     0.045 C 
HETATM    4  C4  UNL     1     -29.624  16.437 -19.881  1.00  0.00    -0.034 C 
HETATM    5  C5  UNL     1     -28.720  15.469 -19.269  1.00  0.00     0.016 C 
HETATM    6  C6  UNL     1     -29.684  16.275 -21.355  1.00  0.00     0.010 C 
HETATM    7  C7  UNL     1     -29.485  17.500 -22.150  1.00  0.00     0.007 C 
HETATM    8  C8  UNL     1     -28.481  18.480 -21.711  1.00  0.00     0.008 C 
HETATM    9  C9  UNL     1     -28.294  18.565 -20.189  1.00  0.00    -0.002 C 
HETATM   10  C10 UNL     1     -26.934  18.081 -19.918  1.00  0.00     0.007 C 
HETATM   11  C11 UNL     1     -26.355  17.578 -21.248  1.00  0.00     0.020 C 
HETATM   12  C12 UNL     1     -27.118  18.331 -22.276  1.00  0.00     0.048 C 
HETATM   13  C13 UNL     1     -27.082  17.697 -23.636  1.00  0.00     0.026 C 
HETATM   14  C16 UNL     1     -29.437  17.890 -19.596  1.00  0.00     0.031 C 
HETATM   15  C17 UNL     1     -29.743  18.093 -18.145  1.00  0.00     0.151 C 
ENDROOT
BRANCH  12  16
HETATM   16  C14 UNL     1     -26.483  19.692 -22.396  1.00  0.00     0.267 C 
HETATM   17  O1  UNL     1     -27.158  20.704 -22.690  1.00  0.00    -0.264 OA
BRANCH  16  18
HETATM   18  O2  UNL     1     -25.125  19.873 -22.185  1.00  0.00    -0.326 OA
HETATM   19  C15 UNL     1     -24.604  21.004 -21.509  1.00  0.00     0.213 C 
ENDBRANCH  16  18
ENDBRANCH  12  16
BRANCH  15  20
HETATM   20  O3  UNL     1     -28.713  17.903 -17.287  1.00  0.00    -0.391 OA
ATOM     21  H3  UNL     1     -28.874  17.264 -16.602  1.00  0.00     0.210 HD
ENDBRANCH  15  20
TORSDOF 3
ENDMDL
