MODEL 1
REMARK VINA RESULT: -7.149295186      0.000      0.000
REMARK  2 active torsions:
REMARK  status: ('A' for Active; 'I' for Inactive)
REMARK    1  A    between atoms: C14_15  and  C16_17 
REMARK    2  A    between atoms: C16_17  and  O2_18 
ROOT
HETATM    1  C1  UNL     1     -31.449  18.275 -21.519  1.00  0.00     0.040 C 
HETATM    2  C2  UNL     1     -30.211  17.919 -20.668  1.00  0.00     0.124 C 
HETATM    3  O1  UNL     1     -29.302  18.813 -20.850  1.00  0.00    -0.380 OA
HETATM    4  C3  UNL     1     -28.525  19.527 -20.116  1.00  0.00     0.132 C 
HETATM    5  C4  UNL     1     -27.275  19.857 -20.963  1.00  0.00     0.036 C 
HETATM    6  C5  UNL     1     -27.483  19.391 -22.414  1.00  0.00     0.040 C 
HETATM    7  C6  UNL     1     -27.515  17.854 -22.471  1.00  0.00     0.058 C 
HETATM    8  C7  UNL     1     -26.231  17.466 -23.225  1.00  0.00     0.046 C 
HETATM    9  C8  UNL     1     -28.677  17.439 -23.285  1.00  0.00     0.038 C 
HETATM   10  C9  UNL     1     -29.640  16.502 -22.657  1.00  0.00     0.013 C 
HETATM   11  C10 UNL     1     -29.668  16.568 -21.167  1.00  0.00     0.043 C 
HETATM   12  C11 UNL     1     -28.230  16.475 -20.720  1.00  0.00     0.129 C 
HETATM   13  C12 UNL     1     -28.229  16.596 -19.202  1.00  0.00     0.033 C 
HETATM   14  C13 UNL     1     -27.437  17.738 -18.704  1.00  0.00     0.016 C 
HETATM   15  C14 UNL     1     -28.022  19.090 -18.784  1.00  0.00     0.004 C 
HETATM   16  C15 UNL     1     -26.838  20.041 -18.484  1.00  0.00     0.020 C 
HETATM   17  O3  UNL     1     -27.400  17.399 -21.220  1.00  0.00    -0.375 OA
ENDROOT
BRANCH  15  18
HETATM   18  C16 UNL     1     -29.004  19.393 -17.641  1.00  0.00     0.175 C 
BRANCH  18  19
HETATM   19  O2  UNL     1     -29.915  20.290 -18.144  1.00  0.00    -0.400 OA
ATOM     20  H2  UNL     1     -29.918  21.030 -17.549  1.00  0.00     0.209 HD
ENDBRANCH  18  19
ENDBRANCH  15  18
TORSDOF 2
ENDMDL
MODEL 2
REMARK VINA RESULT: -7.096888673      1.178      1.293
REMARK  2 active torsions:
REMARK  status: ('A' for Active; 'I' for Inactive)
REMARK    1  A    between atoms: C14_15  and  C16_17 
REMARK    2  A    between atoms: C16_17  and  O2_18 
ROOT
HETATM    1  C1  UNL     1     -31.184  18.485 -21.096  1.00  0.00     0.040 C 
HETATM    2  C2  UNL     1     -29.741  18.190 -20.632  1.00  0.00     0.124 C 
HETATM    3  O1  UNL     1     -28.929  18.971 -21.257  1.00  0.00    -0.380 OA
HETATM    4  C3  UNL     1     -27.945  19.741 -20.954  1.00  0.00     0.132 C 
HETATM    5  C4  UNL     1     -27.035  19.828 -22.200  1.00  0.00     0.036 C 
HETATM    6  C5  UNL     1     -27.712  19.136 -23.396  1.00  0.00     0.040 C 
HETATM    7  C6  UNL     1     -27.782  17.619 -23.152  1.00  0.00     0.058 C 
HETATM    8  C7  UNL     1     -26.818  17.014 -24.189  1.00  0.00     0.046 C 
HETATM    9  C8  UNL     1     -29.151  17.157 -23.463  1.00  0.00     0.038 C 
HETATM   10  C9  UNL     1     -29.869  16.414 -22.398  1.00  0.00     0.013 C 
HETATM   11  C10 UNL     1     -29.410  16.737 -21.016  1.00  0.00     0.043 C 
HETATM   12  C11 UNL     1     -27.905  16.617 -21.040  1.00  0.00     0.129 C 
HETATM   13  C12 UNL     1     -27.408  16.997 -19.652  1.00  0.00     0.033 C 
HETATM   14  C13 UNL     1     -26.482  18.146 -19.653  1.00  0.00     0.016 C 
HETATM   15  C14 UNL     1     -27.042  19.503 -19.794  1.00  0.00     0.004 C 
HETATM   16  C15 UNL     1     -25.812  20.402 -20.068  1.00  0.00     0.020 C 
HETATM   17  O3  UNL     1     -27.271  17.378 -21.941  1.00  0.00    -0.375 OA
ENDROOT
BRANCH  15  18
HETATM   18  C16 UNL     1     -27.594  20.070 -18.476  1.00  0.00     0.175 C 
BRANCH  18  19
HETATM   19  O2  UNL     1     -26.536  20.682 -17.848  1.00  0.00    -0.400 OA
ATOM     20  H2  UNL     1     -26.732  21.611 -17.841  1.00  0.00     0.209 HD
ENDBRANCH  18  19
ENDBRANCH  15  18
TORSDOF 2
ENDMDL
MODEL 3
REMARK VINA RESULT: -6.990830892      1.480      3.839
REMARK  2 active torsions:
REMARK  status: ('A' for Active; 'I' for Inactive)
REMARK    1  A    between atoms: C14_15  and  C16_17 
REMARK    2  A    between atoms: C16_17  and  O2_18 
ROOT
HETATM    1  C1  UNL     1     -27.926  15.601 -18.645  1.00  0.00     0.040 C 
HETATM    2  C2  UNL     1     -28.082  16.386 -19.965  1.00  0.00     0.124 C 
HETATM    3  O1  UNL     1     -28.076  17.648 -19.708  1.00  0.00    -0.380 OA
HETATM    4  C3  UNL     1     -27.489  18.698 -20.163  1.00  0.00     0.132 C 
HETATM    5  C4  UNL     1     -28.418  19.900 -19.875  1.00  0.00     0.036 C 
HETATM    6  C5  UNL     1     -29.598  19.455 -18.995  1.00  0.00     0.040 C 
HETATM    7  C6  UNL     1     -30.521  18.517 -19.792  1.00  0.00     0.058 C 
HETATM    8  C7  UNL     1     -31.820  19.321 -19.984  1.00  0.00     0.046 C 
HETATM    9  C8  UNL     1     -30.823  17.335 -18.957  1.00  0.00     0.038 C 
HETATM   10  C9  UNL     1     -30.524  16.004 -19.540  1.00  0.00     0.013 C 
HETATM   11  C10 UNL     1     -29.448  16.021 -20.573  1.00  0.00     0.043 C 
HETATM   12  C11 UNL     1     -29.814  17.124 -21.536  1.00  0.00     0.129 C 
HETATM   13  C12 UNL     1     -28.699  17.197 -22.571  1.00  0.00     0.033 C 
HETATM   14  C13 UNL     1     -28.031  18.512 -22.623  1.00  0.00     0.016 C 
HETATM   15  C14 UNL     1     -27.045  18.844 -21.577  1.00  0.00     0.004 C 
HETATM   16  C15 UNL     1     -26.793  20.361 -21.751  1.00  0.00     0.020 C 
HETATM   17  O3  UNL     1     -29.976  18.340 -20.999  1.00  0.00    -0.375 OA
ENDROOT
BRANCH  15  18
HETATM   18  C16 UNL     1     -25.658  18.234 -21.838  1.00  0.00     0.175 C 
BRANCH  18  19
HETATM   19  O2  UNL     1     -25.063  18.091 -20.608  1.00  0.00    -0.400 OA
ATOM     20  H2  UNL     1     -24.128  18.038 -20.769  1.00  0.00     0.209 HD
ENDBRANCH  18  19
ENDBRANCH  15  18
TORSDOF 2
ENDMDL
MODEL 4
REMARK VINA RESULT: -6.975659531      1.634      4.270
REMARK  2 active torsions:
REMARK  status: ('A' for Active; 'I' for Inactive)
REMARK    1  A    between atoms: C14_15  and  C16_17 
REMARK    2  A    between atoms: C16_17  and  O2_18 
ROOT
HETATM    1  C1  UNL     1     -28.244  15.623 -18.670  1.00  0.00     0.040 C 
HETATM    2  C2  UNL     1     -29.204  16.482 -19.521  1.00  0.00     0.124 C 
HETATM    3  O1  UNL     1     -28.747  16.561 -20.722  1.00  0.00    -0.380 OA
HETATM    4  C3  UNL     1     -29.206  16.418 -21.914  1.00  0.00     0.132 C 
HETATM    5  C4  UNL     1     -28.336  17.294 -22.845  1.00  0.00     0.036 C 
HETATM    6  C5  UNL     1     -27.138  17.861 -22.066  1.00  0.00     0.040 C 
HETATM    7  C6  UNL     1     -27.626  18.883 -21.025  1.00  0.00     0.058 C 
HETATM    8  C7  UNL     1     -27.098  20.237 -21.532  1.00  0.00     0.046 C 
HETATM    9  C8  UNL     1     -26.975  18.582 -19.732  1.00  0.00     0.038 C 
HETATM   10  C9  UNL     1     -27.863  18.372 -18.563  1.00  0.00     0.013 C 
HETATM   11  C10 UNL     1     -29.232  17.898 -18.918  1.00  0.00     0.043 C 
HETATM   12  C11 UNL     1     -29.728  18.830 -19.996  1.00  0.00     0.129 C 
HETATM   13  C12 UNL     1     -31.105  18.331 -20.415  1.00  0.00     0.033 C 
HETATM   14  C13 UNL     1     -31.192  17.976 -21.845  1.00  0.00     0.016 C 
HETATM   15  C14 UNL     1     -30.621  16.690 -22.289  1.00  0.00     0.004 C 
HETATM   16  C15 UNL     1     -30.603  16.789 -23.834  1.00  0.00     0.020 C 
HETATM   17  O3  UNL     1     -28.960  18.922 -21.090  1.00  0.00    -0.375 OA
ENDROOT
BRANCH  15  18
HETATM   18  C16 UNL     1     -31.552  15.495 -22.032  1.00  0.00     0.175 C 
BRANCH  18  19
HETATM   19  O2  UNL     1     -32.495  15.520 -23.031  1.00  0.00    -0.400 OA
ATOM     20  H2  UNL     1     -33.160  14.887 -22.786  1.00  0.00     0.209 HD
ENDBRANCH  18  19
ENDBRANCH  15  18
TORSDOF 2
ENDMDL
MODEL 5
REMARK VINA RESULT: -6.839037084      2.181      3.926
REMARK  2 active torsions:
REMARK  status: ('A' for Active; 'I' for Inactive)
REMARK    1  A    between atoms: C14_15  and  C16_17 
REMARK    2  A    between atoms: C16_17  and  O2_18 
ROOT
HETATM    1  C1  UNL     1     -30.223  16.516 -17.019  1.00  0.00     0.040 C 
HETATM    2  C2  UNL     1     -30.162  17.974 -17.522  1.00  0.00     0.124 C 
HETATM    3  O1  UNL     1     -30.871  18.081 -18.593  1.00  0.00    -0.380 OA
HETATM    4  C3  UNL     1     -31.774  18.876 -19.047  1.00  0.00     0.132 C 
HETATM    5  C4  UNL     1     -31.688  18.826 -20.590  1.00  0.00     0.036 C 
HETATM    6  C5  UNL     1     -30.709  17.724 -21.028  1.00  0.00     0.040 C 
HETATM    7  C6  UNL     1     -29.272  18.115 -20.638  1.00  0.00     0.058 C 
HETATM    8  C7  UNL     1     -28.560  18.368 -21.979  1.00  0.00     0.046 C 
HETATM    9  C8  UNL     1     -28.633  16.954 -19.982  1.00  0.00     0.038 C 
HETATM   10  C9  UNL     1     -28.060  17.175 -18.632  1.00  0.00     0.013 C 
HETATM   11  C10 UNL     1     -28.699  18.291 -17.876  1.00  0.00     0.043 C 
HETATM   12  C11 UNL     1     -28.715  19.473 -18.815  1.00  0.00     0.129 C 
HETATM   13  C12 UNL     1     -29.413  20.611 -18.083  1.00  0.00     0.033 C 
HETATM   14  C13 UNL     1     -30.618  21.105 -18.778  1.00  0.00     0.016 C 
HETATM   15  C14 UNL     1     -31.861  20.316 -18.681  1.00  0.00     0.004 C 
HETATM   16  C15 UNL     1     -32.794  20.934 -19.751  1.00  0.00     0.020 C 
HETATM   17  O3  UNL     1     -29.332  19.281 -19.987  1.00  0.00    -0.375 OA
ENDROOT
BRANCH  15  18
HETATM   18  C16 UNL     1     -32.631  20.559 -17.373  1.00  0.00     0.175 C 
BRANCH  18  19
HETATM   19  O2  UNL     1     -32.902  21.905 -17.330  1.00  0.00    -0.400 OA
ATOM     20  H2  UNL     1     -32.195  22.334 -17.798  1.00  0.00     0.209 HD
ENDBRANCH  18  19
ENDBRANCH  15  18
TORSDOF 2
ENDMDL
