MODEL 1
REMARK VINA RESULT: -7.166227881      0.000      0.000
REMARK  2 active torsions:
REMARK  status: ('A' for Active; 'I' for Inactive)
REMARK    1  A    between atoms: C6_6  and  N1_7 
REMARK    2  A    between atoms: C9_11  and  O1_13 
ROOT
HETATM    1  N1  UNL     1     -28.704  20.349 -19.542  1.00  0.00    -0.370 N 
ATOM      2  H1  UNL     1     -28.702  21.361 -19.663  1.00  0.00     0.161 HD
HETATM    3  C7  UNL     1     -29.735  19.815 -18.987  1.00  0.00     0.117 C 
HETATM    4  C8  UNL     1     -29.806  18.352 -18.780  1.00  0.00     0.121 C 
HETATM    5  C9  UNL     1     -30.345  18.028 -17.402  1.00  0.00     0.064 C 
HETATM    6  C10 UNL     1     -30.767  16.561 -17.429  1.00  0.00     0.046 C 
HETATM    7  C11 UNL     1     -31.539  18.843 -17.042  1.00  0.00     0.075 C 
HETATM    8  C12 UNL     1     -31.395  20.299 -17.312  1.00  0.00     0.064 C 
HETATM    9  C13 UNL     1     -30.573  21.020 -16.265  1.00  0.00     0.046 C 
HETATM   10  C14 UNL     1     -32.761  20.999 -17.328  1.00  0.00     0.046 C 
HETATM   11  O2  UNL     1     -30.808  20.581 -18.566  1.00  0.00    -0.329 OA
ENDROOT
BRANCH   1  12
HETATM   12  C6  UNL     1     -27.567  19.624 -20.000  1.00  0.00     0.083 C 
HETATM   13  C5  UNL     1     -26.334  20.304 -19.432  1.00  0.00     0.026 C 
HETATM   14  C4  UNL     1     -25.149  19.594 -20.093  1.00  0.00     0.011 C 
HETATM   15  C2  UNL     1     -25.071  20.124 -21.502  1.00  0.00    -0.048 C 
HETATM   16  C1  UNL     1     -24.232  19.153 -22.306  1.00  0.00     0.015 C 
HETATM   17  C3  UNL     1     -24.341  21.455 -21.494  1.00  0.00     0.015 C 
HETATM   18  C16 UNL     1     -26.422  20.358 -22.115  1.00  0.00     0.011 C 
HETATM   19  C15 UNL     1     -27.517  19.546 -21.502  1.00  0.00     0.026 C 
ENDBRANCH   1  12
BRANCH   5  20
HETATM   20  O1  UNL     1     -29.324  18.130 -16.454  1.00  0.00    -0.390 OA
ATOM     21  H1  UNL     1     -29.208  17.298 -16.011  1.00  0.00     0.210 HD
ENDBRANCH   5  20
TORSDOF 2
ENDMDL
MODEL 2
REMARK VINA RESULT: -7.148522494      2.177      6.564
REMARK  2 active torsions:
REMARK  status: ('A' for Active; 'I' for Inactive)
REMARK    1  A    between atoms: C6_6  and  N1_7 
REMARK    2  A    between atoms: C9_11  and  O1_13 
ROOT
HETATM    1  N1  UNL     1     -27.537  18.681 -18.890  1.00  0.00    -0.370 N 
ATOM      2  H1  UNL     1     -27.004  19.039 -18.099  1.00  0.00     0.161 HD
HETATM    3  C7  UNL     1     -26.883  18.317 -19.936  1.00  0.00     0.117 C 
HETATM    4  C8  UNL     1     -27.592  17.787 -21.122  1.00  0.00     0.121 C 
HETATM    5  C9  UNL     1     -27.023  18.373 -22.397  1.00  0.00     0.064 C 
HETATM    6  C10 UNL     1     -27.508  17.488 -23.543  1.00  0.00     0.046 C 
HETATM    7  C11 UNL     1     -25.533  18.374 -22.418  1.00  0.00     0.075 C 
HETATM    8  C12 UNL     1     -24.900  18.892 -21.175  1.00  0.00     0.064 C 
HETATM    9  C13 UNL     1     -24.912  20.404 -21.087  1.00  0.00     0.046 C 
HETATM   10  C14 UNL     1     -23.425  18.478 -21.088  1.00  0.00     0.046 C 
HETATM   11  O2  UNL     1     -25.503  18.404 -19.995  1.00  0.00    -0.329 OA
ENDROOT
BRANCH   1  12
HETATM   12  C6  UNL     1     -28.954  18.618 -18.761  1.00  0.00     0.083 C 
HETATM   13  C5  UNL     1     -29.493  20.022 -18.969  1.00  0.00     0.026 C 
HETATM   14  C4  UNL     1     -30.988  19.925 -18.648  1.00  0.00     0.011 C 
HETATM   15  C2  UNL     1     -31.094  19.861 -17.146  1.00  0.00    -0.048 C 
HETATM   16  C1  UNL     1     -32.470  19.324 -16.811  1.00  0.00     0.015 C 
HETATM   17  C3  UNL     1     -31.007  21.267 -16.580  1.00  0.00     0.015 C 
HETATM   18  C16 UNL     1     -29.995  19.056 -16.515  1.00  0.00     0.011 C 
HETATM   19  C15 UNL     1     -29.373  18.052 -17.431  1.00  0.00     0.026 C 
ENDBRANCH   1  12
BRANCH   5  20
HETATM   20  O1  UNL     1     -27.560  19.643 -22.622  1.00  0.00    -0.390 OA
ATOM     21  H1  UNL     1     -27.242  19.989 -23.447  1.00  0.00     0.210 HD
ENDBRANCH   5  20
TORSDOF 2
ENDMDL
MODEL 3
REMARK VINA RESULT: -7.134625660      1.747      3.273
REMARK  2 active torsions:
REMARK  status: ('A' for Active; 'I' for Inactive)
REMARK    1  A    between atoms: C6_6  and  N1_7 
REMARK    2  A    between atoms: C9_11  and  O1_13 
ROOT
HETATM    1  N1  UNL     1     -28.378  18.380 -19.596  1.00  0.00    -0.370 N 
ATOM      2  H1  UNL     1     -27.793  17.571 -19.392  1.00  0.00     0.161 HD
HETATM    3  C7  UNL     1     -29.589  18.366 -19.162  1.00  0.00     0.117 C 
HETATM    4  C8  UNL     1     -30.495  19.507 -19.422  1.00  0.00     0.121 C 
HETATM    5  C9  UNL     1     -31.870  19.021 -19.832  1.00  0.00     0.064 C 
HETATM    6  C10 UNL     1     -32.821  20.205 -19.674  1.00  0.00     0.046 C 
HETATM    7  C11 UNL     1     -32.372  17.913 -18.972  1.00  0.00     0.075 C 
HETATM    8  C12 UNL     1     -31.387  16.823 -18.735  1.00  0.00     0.064 C 
HETATM    9  C13 UNL     1     -31.258  15.871 -19.906  1.00  0.00     0.046 C 
HETATM   10  C14 UNL     1     -31.793  15.958 -17.534  1.00  0.00     0.046 C 
HETATM   11  O2  UNL     1     -30.088  17.296 -18.442  1.00  0.00    -0.329 OA
ENDROOT
BRANCH   1  12
HETATM   12  C6  UNL     1     -27.800  19.446 -20.342  1.00  0.00     0.083 C 
HETATM   13  C5  UNL     1     -27.254  18.858 -21.631  1.00  0.00     0.026 C 
HETATM   14  C4  UNL     1     -26.498  20.007 -22.303  1.00  0.00     0.011 C 
HETATM   15  C2  UNL     1     -25.198  20.153 -21.554  1.00  0.00    -0.048 C 
HETATM   16  C1  UNL     1     -24.638  21.522 -21.879  1.00  0.00     0.015 C 
HETATM   17  C3  UNL     1     -24.207  19.125 -22.069  1.00  0.00     0.015 C 
HETATM   18  C16 UNL     1     -25.347  19.930 -20.076  1.00  0.00     0.011 C 
HETATM   19  C15 UNL     1     -26.731  20.162 -19.562  1.00  0.00     0.026 C 
ENDBRANCH   1  12
BRANCH   5  20
HETATM   20  O1  UNL     1     -31.874  18.687 -21.188  1.00  0.00    -0.390 OA
ATOM     21  H1  UNL     1     -32.467  19.258 -21.662  1.00  0.00     0.210 HD
ENDBRANCH   5  20
TORSDOF 2
ENDMDL
MODEL 4
REMARK VINA RESULT: -7.071223243      1.619      2.763
REMARK  2 active torsions:
REMARK  status: ('A' for Active; 'I' for Inactive)
REMARK    1  A    between atoms: C6_6  and  N1_7 
REMARK    2  A    between atoms: C9_11  and  O1_13 
ROOT
HETATM    1  N1  UNL     1     -29.250  19.253 -19.603  1.00  0.00    -0.370 N 
ATOM      2  H1  UNL     1     -29.821  18.748 -20.280  1.00  0.00     0.161 HD
HETATM    3  C7  UNL     1     -29.794  19.570 -18.481  1.00  0.00     0.117 C 
HETATM    4  C8  UNL     1     -29.025  20.303 -17.452  1.00  0.00     0.121 C 
HETATM    5  C9  UNL     1     -29.861  21.407 -16.838  1.00  0.00     0.064 C 
HETATM    6  C10 UNL     1     -29.164  21.820 -15.544  1.00  0.00     0.046 C 
HETATM    7  C11 UNL     1     -31.241  20.963 -16.494  1.00  0.00     0.075 C 
HETATM    8  C12 UNL     1     -31.931  20.204 -17.572  1.00  0.00     0.064 C 
HETATM    9  C13 UNL     1     -32.478  21.094 -18.668  1.00  0.00     0.046 C 
HETATM   10  C14 UNL     1     -33.135  19.428 -17.022  1.00  0.00     0.046 C 
HETATM   11  O2  UNL     1     -31.107  19.240 -18.193  1.00  0.00    -0.329 OA
ENDROOT
BRANCH   1  12
HETATM   12  C6  UNL     1     -27.907  19.558 -19.964  1.00  0.00     0.083 C 
HETATM   13  C5  UNL     1     -27.850  19.639 -21.479  1.00  0.00     0.026 C 
HETATM   14  C4  UNL     1     -26.364  19.794 -21.813  1.00  0.00     0.011 C 
HETATM   15  C2  UNL     1     -25.746  18.431 -21.636  1.00  0.00    -0.048 C 
HETATM   16  C1  UNL     1     -24.249  18.624 -21.515  1.00  0.00     0.015 C 
HETATM   17  C3  UNL     1     -25.997  17.604 -22.883  1.00  0.00     0.015 C 
HETATM   18  C16 UNL     1     -26.322  17.674 -20.474  1.00  0.00     0.011 C 
HETATM   19  C15 UNL     1     -26.935  18.545 -19.424  1.00  0.00     0.026 C 
ENDBRANCH   1  12
BRANCH   5  20
HETATM   20  O1  UNL     1     -29.854  22.530 -17.669  1.00  0.00    -0.390 OA
ATOM     21  H1  UNL     1     -29.223  22.413 -18.369  1.00  0.00     0.210 HD
ENDBRANCH   5  20
TORSDOF 2
ENDMDL
MODEL 5
REMARK VINA RESULT: -7.070506644      3.165      3.981
REMARK  2 active torsions:
REMARK  status: ('A' for Active; 'I' for Inactive)
REMARK    1  A    between atoms: C6_6  and  N1_7 
REMARK    2  A    between atoms: C9_11  and  O1_13 
ROOT
HETATM    1  N1  UNL     1     -27.683  17.652 -21.952  1.00  0.00    -0.370 N 
ATOM      2  H1  UNL     1     -27.686  18.105 -22.865  1.00  0.00     0.161 HD
HETATM    3  C7  UNL     1     -28.631  16.821 -21.693  1.00  0.00     0.117 C 
HETATM    4  C8  UNL     1     -28.688  16.127 -20.387  1.00  0.00     0.121 C 
HETATM    5  C9  UNL     1     -30.103  16.113 -19.847  1.00  0.00     0.064 C 
HETATM    6  C10 UNL     1     -30.143  15.052 -18.749  1.00  0.00     0.046 C 
HETATM    7  C11 UNL     1     -31.112  15.743 -20.878  1.00  0.00     0.075 C 
HETATM    8  C12 UNL     1     -30.963  16.464 -22.171  1.00  0.00     0.064 C 
HETATM    9  C13 UNL     1     -31.504  17.878 -22.131  1.00  0.00     0.046 C 
HETATM   10  C14 UNL     1     -31.729  15.753 -23.295  1.00  0.00     0.046 C 
HETATM   11  O2  UNL     1     -29.625  16.545 -22.616  1.00  0.00    -0.329 OA
ENDROOT
BRANCH   1  12
HETATM   12  C6  UNL     1     -26.630  17.982 -21.052  1.00  0.00     0.083 C 
HETATM   13  C5  UNL     1     -26.704  19.476 -20.792  1.00  0.00     0.026 C 
HETATM   14  C4  UNL     1     -25.455  19.798 -19.966  1.00  0.00     0.011 C 
HETATM   15  C2  UNL     1     -24.298  19.794 -20.932  1.00  0.00    -0.048 C 
HETATM   16  C1  UNL     1     -23.028  19.661 -20.117  1.00  0.00     0.015 C 
HETATM   17  C3  UNL     1     -24.240  21.132 -21.645  1.00  0.00     0.015 C 
HETATM   18  C16 UNL     1     -24.418  18.730 -21.985  1.00  0.00     0.011 C 
HETATM   19  C15 UNL     1     -25.284  17.578 -21.589  1.00  0.00     0.026 C 
ENDBRANCH   1  12
BRANCH   5  20
HETATM   20  O1  UNL     1     -30.392  17.333 -19.230  1.00  0.00    -0.390 OA
ATOM     21  H1  UNL     1     -30.905  17.186 -18.444  1.00  0.00     0.210 HD
ENDBRANCH   5  20
TORSDOF 2
ENDMDL
