MODEL 1
REMARK VINA RESULT: -6.475542241      0.000      0.000
REMARK  3 active torsions:
REMARK  status: ('A' for Active; 'I' for Inactive)
REMARK    1  A    between atoms: C2_2  and  S1_3 
REMARK    2  A    between atoms: S1_3  and  C3_4 
REMARK    3  A    between atoms: C5_8  and  N2_9 
ROOT
HETATM    1  N2  UNL     1      12.573  -2.106  52.460  1.00  0.00    -0.373 N 
ATOM      2  H2  UNL     1      12.910  -3.018  52.154  1.00  0.00     0.161 HD
HETATM    3  C6  UNL     1      11.858  -2.125  53.513  1.00  0.00     0.007 C 
HETATM    4  C7  UNL     1      11.609  -3.423  54.147  1.00  0.00     0.054 C 
HETATM    5  C8  UNL     1      10.945  -3.365  55.478  1.00  0.00     0.012 C 
HETATM    6  C9  UNL     1      10.284  -2.082  55.815  1.00  0.00     0.081 C 
HETATM    7  C10 UNL     1       9.984  -1.175  54.675  1.00  0.00     0.264 C 
HETATM    8  F1  UNL     1       9.146  -1.749  53.748  1.00  0.00    -0.204 F 
HETATM    9  F2  UNL     1       9.409  -0.024  55.180  1.00  0.00    -0.204 F 
HETATM   10  C11 UNL     1      11.329  -0.832  54.018  1.00  0.00     0.210 C 
HETATM   11  C12 UNL     1      12.202  -0.310  55.086  1.00  0.00     0.076 C 
HETATM   12  N3  UNL     1      12.905   0.089  55.920  1.00  0.00    -0.196 NA
ENDROOT
BRANCH   1  13
HETATM   13  C5  UNL     1      12.964  -1.040  51.664  1.00  0.00     0.200 C 
HETATM   14  C4  UNL     1      12.384  -1.228  50.258  1.00  0.00     0.168 C 
HETATM   15  N1  UNL     1      13.283  -0.387  49.496  1.00  0.00    -0.367 N 
HETATM   16  C3  UNL     1      14.410  -0.244  50.102  1.00  0.00     0.137 C 
ATOM     17  H1  UNL     1      13.053   0.037  48.596  1.00  0.00     0.161 HD
HETATM   18  N4  UNL     1      14.376  -0.982  51.340  1.00  0.00    -0.348 N 
ATOM     19  H4  UNL     1      15.160  -1.372  51.863  1.00  0.00     0.163 HD
BRANCH  16  20
HETATM   20  S1  UNL     1      15.759   0.727  49.458  1.00  0.00    -0.095 SA
BRANCH  20  21
HETATM   21  C2  UNL     1      17.337   0.114  50.075  1.00  0.00     0.078 C 
HETATM   22  C1  UNL     1      17.451  -1.344  49.668  1.00  0.00     0.016 C 
ENDBRANCH  20  21
ENDBRANCH  16  20
ENDBRANCH   1  13
TORSDOF 3
ENDMDL
MODEL 2
REMARK VINA RESULT: -6.446216924      1.188      1.420
REMARK  3 active torsions:
REMARK  status: ('A' for Active; 'I' for Inactive)
REMARK    1  A    between atoms: C2_2  and  S1_3 
REMARK    2  A    between atoms: S1_3  and  C3_4 
REMARK    3  A    between atoms: C5_8  and  N2_9 
ROOT
HETATM    1  N2  UNL     1      12.794  -2.044  52.345  1.00  0.00    -0.373 N 
ATOM      2  H2  UNL     1      13.177  -2.931  52.018  1.00  0.00     0.161 HD
HETATM    3  C6  UNL     1      12.054  -2.128  53.377  1.00  0.00     0.007 C 
HETATM    4  C7  UNL     1      11.844  -3.456  53.961  1.00  0.00     0.054 C 
HETATM    5  C8  UNL     1      11.145  -3.469  55.276  1.00  0.00     0.012 C 
HETATM    6  C9  UNL     1      10.423  -2.226  55.637  1.00  0.00     0.081 C 
HETATM    7  C10 UNL     1      10.114  -1.295  54.519  1.00  0.00     0.264 C 
HETATM    8  F1  UNL     1       9.324  -1.871  53.553  1.00  0.00    -0.204 F 
HETATM    9  F2  UNL     1       9.479  -0.186  55.046  1.00  0.00    -0.204 F 
HETATM   10  C11 UNL     1      11.459  -0.875  53.910  1.00  0.00     0.210 C 
HETATM   11  C12 UNL     1      12.283  -0.354  55.016  1.00  0.00     0.076 C 
HETATM   12  N3  UNL     1      12.948   0.046  55.881  1.00  0.00    -0.196 NA
ENDROOT
BRANCH   1  13
HETATM   13  C5  UNL     1      13.161  -0.937  51.594  1.00  0.00     0.200 C 
HETATM   14  C4  UNL     1      12.648  -1.114  50.160  1.00  0.00     0.168 C 
HETATM   15  N1  UNL     1      13.531  -0.206  49.459  1.00  0.00    -0.367 N 
HETATM   16  C3  UNL     1      14.624  -0.023  50.115  1.00  0.00     0.137 C 
ATOM     17  H1  UNL     1      13.315   0.231  48.563  1.00  0.00     0.161 HD
HETATM   18  N4  UNL     1      14.579  -0.797  51.330  1.00  0.00    -0.348 N 
ATOM     19  H4  UNL     1      15.361  -1.161  51.875  1.00  0.00     0.163 HD
BRANCH  16  20
HETATM   20  S1  UNL     1      15.945   1.034  49.554  1.00  0.00    -0.095 SA
BRANCH  20  21
HETATM   21  C2  UNL     1      15.516   2.768  49.788  1.00  0.00     0.078 C 
HETATM   22  C1  UNL     1      16.144   3.551  48.649  1.00  0.00     0.016 C 
ENDBRANCH  20  21
ENDBRANCH  16  20
ENDBRANCH   1  13
TORSDOF 3
ENDMDL
MODEL 3
REMARK VINA RESULT: -6.339244907      5.193      6.453
REMARK  3 active torsions:
REMARK  status: ('A' for Active; 'I' for Inactive)
REMARK    1  A    between atoms: C2_2  and  S1_3 
REMARK    2  A    between atoms: S1_3  and  C3_4 
REMARK    3  A    between atoms: C5_8  and  N2_9 
ROOT
HETATM    1  N2  UNL     1      17.335  -3.974  52.510  1.00  0.00    -0.373 N 
ATOM      2  H2  UNL     1      18.134  -3.440  52.851  1.00  0.00     0.161 HD
HETATM    3  C6  UNL     1      17.188  -5.119  53.044  1.00  0.00     0.007 C 
HETATM    4  C7  UNL     1      18.162  -5.528  54.061  1.00  0.00     0.054 C 
HETATM    5  C8  UNL     1      17.828  -6.780  54.794  1.00  0.00     0.012 C 
HETATM    6  C9  UNL     1      16.798  -7.642  54.168  1.00  0.00     0.081 C 
HETATM    7  C10 UNL     1      16.531  -7.406  52.723  1.00  0.00     0.264 C 
HETATM    8  F1  UNL     1      17.645  -7.594  51.941  1.00  0.00    -0.204 F 
HETATM    9  F2  UNL     1      15.526  -8.267  52.325  1.00  0.00    -0.204 F 
HETATM   10  C11 UNL     1      16.045  -5.955  52.596  1.00  0.00     0.210 C 
HETATM   11  C12 UNL     1      14.911  -5.804  53.527  1.00  0.00     0.076 C 
HETATM   12  N3  UNL     1      14.026  -5.666  54.267  1.00  0.00    -0.196 NA
ENDROOT
BRANCH   1  13
HETATM   13  C5  UNL     1      16.578  -3.337  51.537  1.00  0.00     0.200 C 
HETATM   14  C4  UNL     1      17.275  -3.493  50.181  1.00  0.00     0.168 C 
HETATM   15  N1  UNL     1      16.681  -2.388  49.459  1.00  0.00    -0.367 N 
HETATM   16  C3  UNL     1      16.259  -1.479  50.268  1.00  0.00     0.137 C 
ATOM     17  H1  UNL     1      16.607  -2.337  48.443  1.00  0.00     0.161 HD
HETATM   18  N4  UNL     1      16.533  -1.891  51.622  1.00  0.00    -0.348 N 
ATOM     19  H4  UNL     1      16.663  -1.303  52.446  1.00  0.00     0.163 HD
BRANCH  16  20
HETATM   20  S1  UNL     1      15.471   0.027  49.733  1.00  0.00    -0.095 SA
BRANCH  20  21
HETATM   21  C2  UNL     1      13.722   0.021  50.166  1.00  0.00     0.078 C 
HETATM   22  C1  UNL     1      12.972  -0.634  49.020  1.00  0.00     0.016 C 
ENDBRANCH  20  21
ENDBRANCH  16  20
ENDBRANCH   1  13
TORSDOF 3
ENDMDL
MODEL 4
REMARK VINA RESULT: -6.230085998      5.379      6.448
REMARK  3 active torsions:
REMARK  status: ('A' for Active; 'I' for Inactive)
REMARK    1  A    between atoms: C2_2  and  S1_3 
REMARK    2  A    between atoms: S1_3  and  C3_4 
REMARK    3  A    between atoms: C5_8  and  N2_9 
ROOT
HETATM    1  N2  UNL     1      17.387  -3.977  52.500  1.00  0.00    -0.373 N 
ATOM      2  H2  UNL     1      18.180  -3.432  52.839  1.00  0.00     0.161 HD
HETATM    3  C6  UNL     1      17.253  -5.121  53.041  1.00  0.00     0.007 C 
HETATM    4  C7  UNL     1      18.229  -5.513  54.062  1.00  0.00     0.054 C 
HETATM    5  C8  UNL     1      17.908  -6.764  54.802  1.00  0.00     0.012 C 
HETATM    6  C9  UNL     1      16.889  -7.641  54.179  1.00  0.00     0.081 C 
HETATM    7  C10 UNL     1      16.622  -7.417  52.733  1.00  0.00     0.264 C 
HETATM    8  F1  UNL     1      17.739  -7.597  51.953  1.00  0.00    -0.204 F 
HETATM    9  F2  UNL     1      15.627  -8.292  52.338  1.00  0.00    -0.204 F 
HETATM   10  C11 UNL     1      16.119  -5.972  52.596  1.00  0.00     0.210 C 
HETATM   11  C12 UNL     1      14.983  -5.828  53.525  1.00  0.00     0.076 C 
HETATM   12  N3  UNL     1      14.095  -5.696  54.263  1.00  0.00    -0.196 NA
ENDROOT
BRANCH   1  13
HETATM   13  C5  UNL     1      16.625  -3.354  51.522  1.00  0.00     0.200 C 
HETATM   14  C4  UNL     1      17.336  -3.492  50.172  1.00  0.00     0.168 C 
HETATM   15  N1  UNL     1      16.724  -2.399  49.448  1.00  0.00    -0.367 N 
HETATM   16  C3  UNL     1      16.275  -1.501  50.255  1.00  0.00     0.137 C 
ATOM     17  H1  UNL     1      16.657  -2.346  48.431  1.00  0.00     0.161 HD
HETATM   18  N4  UNL     1      16.546  -1.910  51.611  1.00  0.00    -0.348 N 
ATOM     19  H4  UNL     1      16.657  -1.321  52.436  1.00  0.00     0.163 HD
BRANCH  16  20
HETATM   20  S1  UNL     1      15.458  -0.011  49.717  1.00  0.00    -0.095 SA
BRANCH  20  21
HETATM   21  C2  UNL     1      16.647   1.327  49.507  1.00  0.00     0.078 C 
HETATM   22  C1  UNL     1      15.873   2.633  49.538  1.00  0.00     0.016 C 
ENDBRANCH  20  21
ENDBRANCH  16  20
ENDBRANCH   1  13
TORSDOF 3
ENDMDL
MODEL 5
REMARK VINA RESULT: -6.202283824      3.732      6.826
REMARK  3 active torsions:
REMARK  status: ('A' for Active; 'I' for Inactive)
REMARK    1  A    between atoms: C2_2  and  S1_3 
REMARK    2  A    between atoms: S1_3  and  C3_4 
REMARK    3  A    between atoms: C5_8  and  N2_9 
ROOT
HETATM    1  N2  UNL     1      13.650  -0.519  51.397  1.00  0.00    -0.373 N 
ATOM      2  H2  UNL     1      13.208   0.340  51.070  1.00  0.00     0.161 HD
HETATM    3  C6  UNL     1      14.867  -0.660  51.053  1.00  0.00     0.007 C 
HETATM    4  C7  UNL     1      15.476   0.403  50.246  1.00  0.00     0.054 C 
HETATM    5  C8  UNL     1      16.947   0.286  50.046  1.00  0.00     0.012 C 
HETATM    6  C9  UNL     1      17.537  -1.041  50.340  1.00  0.00     0.081 C 
HETATM    7  C10 UNL     1      16.591  -2.189  50.379  1.00  0.00     0.264 C 
HETATM    8  F1  UNL     1      15.932  -2.372  49.187  1.00  0.00    -0.204 F 
HETATM    9  F2  UNL     1      17.308  -3.326  50.700  1.00  0.00    -0.204 F 
HETATM   10  C11 UNL     1      15.578  -1.888  51.493  1.00  0.00     0.210 C 
HETATM   11  C12 UNL     1      16.357  -1.612  52.713  1.00  0.00     0.076 C 
HETATM   12  N3  UNL     1      16.959  -1.379  53.679  1.00  0.00    -0.196 NA
ENDROOT
BRANCH   1  13
HETATM   13  C5  UNL     1      12.831  -1.350  52.147  1.00  0.00     0.200 C 
HETATM   14  C4  UNL     1      11.378  -1.150  51.704  1.00  0.00     0.168 C 
HETATM   15  N1  UNL     1      10.684  -1.641  52.875  1.00  0.00    -0.367 N 
HETATM   16  C3  UNL     1      11.430  -1.566  53.923  1.00  0.00     0.137 C 
ATOM     17  H1  UNL     1       9.728  -2.000  52.872  1.00  0.00     0.161 HD
HETATM   18  N4  UNL     1      12.707  -1.011  53.551  1.00  0.00    -0.348 N 
ATOM     19  H4  UNL     1      13.367  -0.500  54.137  1.00  0.00     0.163 HD
BRANCH  16  20
HETATM   20  S1  UNL     1      10.905  -2.082  55.546  1.00  0.00    -0.095 SA
BRANCH  20  21
HETATM   21  C2  UNL     1       9.205  -1.573  55.858  1.00  0.00     0.078 C 
HETATM   22  C1  UNL     1       8.618  -2.539  56.872  1.00  0.00     0.016 C 
ENDBRANCH  20  21
ENDBRANCH  16  20
ENDBRANCH   1  13
TORSDOF 3
ENDMDL
