MODEL 1
REMARK VINA RESULT: -6.564410312      0.000      0.000
REMARK  6 active torsions:
REMARK  status: ('A' for Active; 'I' for Inactive)
REMARK    1  A    between atoms: C2_2  and  C4_4 
REMARK    2  A    between atoms: C2_2  and  S1_12 
REMARK    3  A    between atoms: C5_5  and  C6_6 
REMARK    4  A    between atoms: C6_6  and  C7_7 
REMARK    5  A    between atoms: C7_7  and  C8_8 
REMARK    6  A    between atoms: S1_12  and  C9_13 
ROOT
HETATM    1  C1  UNL     1      11.430  -3.064  54.520  1.00  0.00     0.041 C 
HETATM    2  C2  UNL     1      11.306  -1.579  54.252  1.00  0.00     0.071 C 
HETATM    3  C3  UNL     1      12.356  -0.790  55.023  1.00  0.00     0.041 C 
ENDROOT
BRANCH   2   4
HETATM    4  C4  UNL     1      11.619  -1.376  52.832  1.00  0.00    -0.086 C 
HETATM    5  C5  UNL     1      11.879  -1.188  51.660  1.00  0.00    -0.105 C 
BRANCH   5   6
HETATM    6  C6  UNL     1      12.179  -0.935  50.255  1.00  0.00     0.103 C 
BRANCH   6   7
HETATM    7  C7  UNL     1      13.624  -1.114  49.917  1.00  0.00     0.129 C 
BRANCH   7   8
HETATM    8  C8  UNL     1      14.485   0.062  50.296  1.00  0.00     0.388 C 
HETATM    9  F1  UNL     1      15.049  -0.267  51.538  1.00  0.00    -0.171 F 
HETATM   10  F2  UNL     1      15.471   0.271  49.371  1.00  0.00    -0.171 F 
HETATM   11  F3  UNL     1      13.713   1.195  50.455  1.00  0.00    -0.171 F 
ENDBRANCH   7   8
ENDBRANCH   6   7
ENDBRANCH   5   6
ENDBRANCH   2   4
BRANCH   2  12
HETATM   12  S1  UNL     1       9.654  -0.962  54.512  1.00  0.00    -0.071 SA
BRANCH  12  13
HETATM   13  C9  UNL     1       8.792  -1.990  55.765  1.00  0.00     0.155 A 
HETATM   14  N1  UNL     1       9.280  -2.100  56.978  1.00  0.00    -0.296 N 
HETATM   15  C10 UNL     1       8.646  -2.841  57.858  1.00  0.00     0.306 A 
ATOM     16  H1  UNL     1      10.141  -1.615  57.234  1.00  0.00     0.171 HD
HETATM   17  O1  UNL     1       8.941  -3.084  59.083  1.00  0.00    -0.258 OA
HETATM   18  S2  UNL     1       7.314  -3.410  56.959  1.00  0.00     0.050 SA
HETATM   19  N2  UNL     1       7.658  -2.654  55.500  1.00  0.00    -0.302 N 
ATOM     20  H2  UNL     1       7.134  -2.691  54.626  1.00  0.00     0.176 HD
ENDBRANCH  12  13
ENDBRANCH   2  12
TORSDOF 6
ENDMDL
MODEL 2
REMARK VINA RESULT: -6.529365633      1.057      1.585
REMARK  6 active torsions:
REMARK  status: ('A' for Active; 'I' for Inactive)
REMARK    1  A    between atoms: C2_2  and  C4_4 
REMARK    2  A    between atoms: C2_2  and  S1_12 
REMARK    3  A    between atoms: C5_5  and  C6_6 
REMARK    4  A    between atoms: C6_6  and  C7_7 
REMARK    5  A    between atoms: C7_7  and  C8_8 
REMARK    6  A    between atoms: S1_12  and  C9_13 
ROOT
HETATM    1  C1  UNL     1      11.750  -3.248  53.929  1.00  0.00     0.041 C 
HETATM    2  C2  UNL     1      11.562  -1.752  53.786  1.00  0.00     0.071 C 
HETATM    3  C3  UNL     1      12.621  -0.986  54.568  1.00  0.00     0.041 C 
ENDROOT
BRANCH   2   4
HETATM    4  C4  UNL     1      11.799  -1.429  52.373  1.00  0.00    -0.086 C 
HETATM    5  C5  UNL     1      12.015  -1.167  51.207  1.00  0.00    -0.105 C 
BRANCH   5   6
HETATM    6  C6  UNL     1      12.303  -0.851  49.813  1.00  0.00     0.103 C 
BRANCH   6   7
HETATM    7  C7  UNL     1      13.762  -0.876  49.488  1.00  0.00     0.129 C 
BRANCH   7   8
HETATM    8  C8  UNL     1      14.536   0.268  50.090  1.00  0.00     0.388 C 
HETATM    9  F1  UNL     1      15.589   0.522  49.196  1.00  0.00    -0.171 F 
HETATM   10  F2  UNL     1      13.752   1.381  50.221  1.00  0.00    -0.171 F 
HETATM   11  F3  UNL     1      15.075  -0.100  51.305  1.00  0.00    -0.171 F 
ENDBRANCH   7   8
ENDBRANCH   6   7
ENDBRANCH   5   6
ENDBRANCH   2   4
BRANCH   2  12
HETATM   12  S1  UNL     1       9.904  -1.220  54.169  1.00  0.00    -0.071 SA
BRANCH  12  13
HETATM   13  C9  UNL     1       9.303  -2.082  55.675  1.00  0.00     0.155 A 
HETATM   14  N1  UNL     1       8.074  -2.538  55.728  1.00  0.00    -0.296 N 
HETATM   15  C10 UNL     1       7.666  -3.151  56.817  1.00  0.00     0.306 A 
ATOM     16  H1  UNL     1       7.443  -2.418  54.935  1.00  0.00     0.171 HD
HETATM   17  O1  UNL     1       6.522  -3.668  57.080  1.00  0.00    -0.258 OA
HETATM   18  S2  UNL     1       9.052  -3.090  57.807  1.00  0.00     0.050 SA
HETATM   19  N2  UNL     1      10.075  -2.275  56.753  1.00  0.00    -0.302 N 
ATOM     20  H2  UNL     1      11.045  -1.995  56.898  1.00  0.00     0.176 HD
ENDBRANCH  12  13
ENDBRANCH   2  12
TORSDOF 6
ENDMDL
MODEL 3
REMARK VINA RESULT: -6.500896676      6.177      7.797
REMARK  6 active torsions:
REMARK  status: ('A' for Active; 'I' for Inactive)
REMARK    1  A    between atoms: C2_2  and  C4_4 
REMARK    2  A    between atoms: C2_2  and  S1_12 
REMARK    3  A    between atoms: C5_5  and  C6_6 
REMARK    4  A    between atoms: C6_6  and  C7_7 
REMARK    5  A    between atoms: C7_7  and  C8_8 
REMARK    6  A    between atoms: S1_12  and  C9_13 
ROOT
HETATM    1  C1  UNL     1      17.714  -2.646  52.843  1.00  0.00     0.041 C 
HETATM    2  C2  UNL     1      17.044  -3.610  51.887  1.00  0.00     0.071 C 
HETATM    3  C3  UNL     1      17.483  -5.044  52.153  1.00  0.00     0.041 C 
ENDROOT
BRANCH   2   4
HETATM    4  C4  UNL     1      15.607  -3.572  52.185  1.00  0.00    -0.086 C 
HETATM    5  C5  UNL     1      14.417  -3.519  52.428  1.00  0.00    -0.105 C 
BRANCH   5   6
HETATM    6  C6  UNL     1      12.993  -3.429  52.726  1.00  0.00     0.103 C 
BRANCH   6   7
HETATM    7  C7  UNL     1      12.543  -2.040  53.050  1.00  0.00     0.129 C 
BRANCH   7   8
HETATM    8  C8  UNL     1      12.064  -1.263  51.852  1.00  0.00     0.388 C 
HETATM    9  F1  UNL     1      10.674  -1.142  52.012  1.00  0.00    -0.171 F 
HETATM   10  F2  UNL     1      12.642  -0.024  51.804  1.00  0.00    -0.171 F 
HETATM   11  F3  UNL     1      12.309  -1.966  50.691  1.00  0.00    -0.171 F 
ENDBRANCH   7   8
ENDBRANCH   6   7
ENDBRANCH   5   6
ENDBRANCH   2   4
BRANCH   2  12
HETATM   12  S1  UNL     1      17.233  -3.138  50.179  1.00  0.00    -0.071 SA
BRANCH  12  13
HETATM   13  C9  UNL     1      16.506  -1.475  49.905  1.00  0.00     0.155 A 
HETATM   14  N1  UNL     1      17.271  -0.409  49.918  1.00  0.00    -0.296 N 
HETATM   15  C10 UNL     1      16.727   0.771  49.720  1.00  0.00     0.306 A 
ATOM     16  H1  UNL     1      18.274  -0.495  50.080  1.00  0.00     0.171 HD
HETATM   17  O1  UNL     1      17.280   1.928  49.692  1.00  0.00    -0.258 OA
HETATM   18  S2  UNL     1      15.081   0.380  49.506  1.00  0.00     0.050 SA
HETATM   19  N2  UNL     1      15.197  -1.286  49.686  1.00  0.00    -0.302 N 
ATOM     20  H2  UNL     1      14.453  -1.983  49.640  1.00  0.00     0.176 HD
ENDBRANCH  12  13
ENDBRANCH   2  12
TORSDOF 6
ENDMDL
MODEL 4
REMARK VINA RESULT: -6.346299575      1.516      2.079
REMARK  6 active torsions:
REMARK  status: ('A' for Active; 'I' for Inactive)
REMARK    1  A    between atoms: C2_2  and  C4_4 
REMARK    2  A    between atoms: C2_2  and  S1_12 
REMARK    3  A    between atoms: C5_5  and  C6_6 
REMARK    4  A    between atoms: C6_6  and  C7_7 
REMARK    5  A    between atoms: C7_7  and  C8_8 
REMARK    6  A    between atoms: S1_12  and  C9_13 
ROOT
HETATM    1  C1  UNL     1      11.115  -0.034  55.290  1.00  0.00     0.041 C 
HETATM    2  C2  UNL     1      10.749  -1.354  54.644  1.00  0.00     0.071 C 
HETATM    3  C3  UNL     1       9.240  -1.489  54.484  1.00  0.00     0.041 C 
ENDROOT
BRANCH   2   4
HETATM    4  C4  UNL     1      11.292  -1.324  53.281  1.00  0.00    -0.086 C 
HETATM    5  C5  UNL     1      11.748  -1.279  52.155  1.00  0.00    -0.105 C 
BRANCH   5   6
HETATM    6  C6  UNL     1      12.294  -1.197  50.806  1.00  0.00     0.103 C 
BRANCH   6   7
HETATM    7  C7  UNL     1      13.678  -0.634  50.760  1.00  0.00     0.129 C 
BRANCH   7   8
HETATM    8  C8  UNL     1      13.912   0.308  49.608  1.00  0.00     0.388 C 
HETATM    9  F1  UNL     1      12.918   0.003  48.664  1.00  0.00    -0.171 F 
HETATM   10  F2  UNL     1      13.800   1.612  50.005  1.00  0.00    -0.171 F 
HETATM   11  F3  UNL     1      15.144   0.073  49.034  1.00  0.00    -0.171 F 
ENDBRANCH   7   8
ENDBRANCH   6   7
ENDBRANCH   5   6
ENDBRANCH   2   4
BRANCH   2  12
HETATM   12  S1  UNL     1      11.483  -2.756  55.465  1.00  0.00    -0.071 SA
BRANCH  12  13
HETATM   13  C9  UNL     1      10.256  -3.538  56.585  1.00  0.00     0.155 A 
HETATM   14  N1  UNL     1       9.689  -2.836  57.537  1.00  0.00    -0.296 N 
HETATM   15  C10 UNL     1       8.814  -3.417  58.326  1.00  0.00     0.306 A 
ATOM     16  H1  UNL     1       9.923  -1.851  57.662  1.00  0.00     0.171 HD
HETATM   17  O1  UNL     1       8.148  -2.926  59.306  1.00  0.00    -0.258 OA
HETATM   18  S2  UNL     1       8.779  -5.010  57.717  1.00  0.00     0.050 SA
HETATM   19  N2  UNL     1       9.899  -4.826  56.479  1.00  0.00    -0.302 N 
ATOM     20  H2  UNL     1      10.228  -5.523  55.811  1.00  0.00     0.176 HD
ENDBRANCH  12  13
ENDBRANCH   2  12
TORSDOF 6
ENDMDL
MODEL 5
REMARK VINA RESULT: -6.333429393      1.620      2.046
REMARK  6 active torsions:
REMARK  status: ('A' for Active; 'I' for Inactive)
REMARK    1  A    between atoms: C2_2  and  C4_4 
REMARK    2  A    between atoms: C2_2  and  S1_12 
REMARK    3  A    between atoms: C5_5  and  C6_6 
REMARK    4  A    between atoms: C6_6  and  C7_7 
REMARK    5  A    between atoms: C7_7  and  C8_8 
REMARK    6  A    between atoms: S1_12  and  C9_13 
ROOT
HETATM    1  C1  UNL     1      12.561  -0.495  55.627  1.00  0.00     0.041 C 
HETATM    2  C2  UNL     1      11.357  -1.195  55.033  1.00  0.00     0.071 C 
HETATM    3  C3  UNL     1      10.083  -0.395  55.269  1.00  0.00     0.041 C 
ENDROOT
BRANCH   2   4
HETATM    4  C4  UNL     1      11.553  -1.213  53.578  1.00  0.00    -0.086 C 
HETATM    5  C5  UNL     1      11.730  -1.212  52.376  1.00  0.00    -0.105 C 
BRANCH   5   6
HETATM    6  C6  UNL     1      11.953  -1.186  50.935  1.00  0.00     0.103 C 
BRANCH   6   7
HETATM    7  C7  UNL     1      13.396  -1.076  50.561  1.00  0.00     0.129 C 
BRANCH   7   8
HETATM    8  C8  UNL     1      13.677  -0.015  49.530  1.00  0.00     0.388 C 
HETATM    9  F1  UNL     1      14.971  -0.283  49.055  1.00  0.00    -0.171 F 
HETATM   10  F2  UNL     1      12.776  -0.075  48.502  1.00  0.00    -0.171 F 
HETATM   11  F3  UNL     1      13.677   1.236  50.111  1.00  0.00    -0.171 F 
ENDBRANCH   7   8
ENDBRANCH   6   7
ENDBRANCH   5   6
ENDBRANCH   2   4
BRANCH   2  12
HETATM   12  S1  UNL     1      11.212  -2.892  55.558  1.00  0.00    -0.071 SA
BRANCH  12  13
HETATM   13  C9  UNL     1       9.796  -3.071  56.713  1.00  0.00     0.155 A 
HETATM   14  N1  UNL     1       8.582  -3.245  56.248  1.00  0.00    -0.296 N 
HETATM   15  C10 UNL     1       7.584  -3.370  57.094  1.00  0.00     0.306 A 
ATOM     16  H1  UNL     1       8.415  -3.284  55.242  1.00  0.00     0.171 HD
HETATM   17  O1  UNL     1       6.336  -3.547  56.860  1.00  0.00    -0.258 OA
HETATM   18  S2  UNL     1       8.370  -3.239  58.601  1.00  0.00     0.050 SA
HETATM   19  N2  UNL     1       9.941  -3.030  58.045  1.00  0.00    -0.302 N 
ATOM     20  H2  UNL     1      10.795  -2.903  58.587  1.00  0.00     0.176 HD
ENDBRANCH  12  13
ENDBRANCH   2  12
TORSDOF 6
ENDMDL
