MODEL 1
REMARK VINA RESULT: -6.144788367      0.000      0.000
REMARK  4 active torsions:
REMARK  status: ('A' for Active; 'I' for Inactive)
REMARK    1  A    between atoms: C2_2  and  C4_4 
REMARK    2  A    between atoms: C6_8  and  N2_9 
REMARK    3  A    between atoms: N2_9  and  N3_11 
REMARK    4  A    between atoms: C7_13  and  C8_14 
ROOT
HETATM    1  C8  UNL     1      14.872   0.207  50.084  1.00  0.00     0.083 C 
HETATM    2 CL1  UNL     1      13.925   1.662  50.258  1.00  0.00    -0.080 Cl
HETATM    3  C9  UNL     1      16.140   0.259  49.736  1.00  0.00     0.137 C 
HETATM    4 CL2  UNL     1      16.867   1.813  49.450  1.00  0.00    -0.070 Cl
HETATM    5  C10 UNL     1      16.946  -0.912  49.584  1.00  0.00     0.113 C 
HETATM    6  N4  UNL     1      17.582  -1.863  49.459  1.00  0.00    -0.190 NA
ENDROOT
BRANCH   1   7
HETATM    7  C7  UNL     1      14.223  -1.070  50.333  1.00  0.00     0.133 C 
HETATM    8  N3  UNL     1      14.276  -1.687  51.447  1.00  0.00    -0.308 N 
ATOM      9  H3  UNL     1      13.779  -2.577  51.501  1.00  0.00     0.186 HD
BRANCH   8  10
HETATM   10  N2  UNL     1      14.938  -1.275  52.595  1.00  0.00    -0.280 N 
ATOM     11  H2  UNL     1      14.592  -0.467  53.113  1.00  0.00     0.189 HD
BRANCH  10  12
HETATM   12  C6  UNL     1      15.999  -1.907  53.021  1.00  0.00     0.163 A 
HETATM   13  N1  UNL     1      16.978  -1.456  53.805  1.00  0.00    -0.344 N 
HETATM   14  C5  UNL     1      17.949  -2.263  54.109  1.00  0.00     0.105 A 
ATOM     15  H1  UNL     1      16.965  -0.499  54.158  1.00  0.00     0.167 HD
HETATM   16  C4  UNL     1      17.920  -3.538  53.609  1.00  0.00     0.005 A 
HETATM   17  S1  UNL     1      16.465  -3.515  52.705  1.00  0.00    -0.056 SA
BRANCH  16  18
HETATM   18  C2  UNL     1      18.917  -4.645  53.814  1.00  0.00     0.019 C 
HETATM   19  C1  UNL     1      18.268  -5.995  53.752  1.00  0.00     0.015 C 
HETATM   20  C3  UNL     1      19.703  -4.426  55.091  1.00  0.00     0.015 C 
ENDBRANCH  16  18
ENDBRANCH  10  12
ENDBRANCH   8  10
ENDBRANCH   1   7
TORSDOF 4
ENDMDL
MODEL 2
REMARK VINA RESULT: -6.139872840      3.320      5.902
REMARK  4 active torsions:
REMARK  status: ('A' for Active; 'I' for Inactive)
REMARK    1  A    between atoms: C2_2  and  C4_4 
REMARK    2  A    between atoms: C6_8  and  N2_9 
REMARK    3  A    between atoms: N2_9  and  N3_11 
REMARK    4  A    between atoms: C7_13  and  C8_14 
ROOT
HETATM    1  C8  UNL     1      17.129  -4.353  53.796  1.00  0.00     0.083 C 
HETATM    2 CL1  UNL     1      16.402  -4.645  55.354  1.00  0.00    -0.080 Cl
HETATM    3  C9  UNL     1      16.660  -4.926  52.708  1.00  0.00     0.137 C 
HETATM    4 CL2  UNL     1      15.290  -5.989  52.846  1.00  0.00    -0.070 Cl
HETATM    5  C10 UNL     1      17.231  -4.710  51.416  1.00  0.00     0.113 C 
HETATM    6  N4  UNL     1      17.704  -4.532  50.382  1.00  0.00    -0.190 NA
ENDROOT
BRANCH   1   7
HETATM    7  C7  UNL     1      18.272  -3.457  53.728  1.00  0.00     0.133 C 
HETATM    8  N3  UNL     1      18.179  -2.185  53.739  1.00  0.00    -0.308 N 
ATOM      9  H3  UNL     1      19.053  -1.661  53.686  1.00  0.00     0.186 HD
BRANCH   8  10
HETATM   10  N2  UNL     1      17.011  -1.438  53.816  1.00  0.00    -0.280 N 
ATOM     11  H2  UNL     1      16.797  -0.926  54.671  1.00  0.00     0.189 HD
BRANCH  10  12
HETATM   12  C6  UNL     1      16.182  -1.384  52.808  1.00  0.00     0.163 A 
HETATM   13  N1  UNL     1      16.447  -1.145  51.524  1.00  0.00    -0.344 N 
HETATM   14  C5  UNL     1      15.461  -1.138  50.678  1.00  0.00     0.105 A 
ATOM     15  H1  UNL     1      17.403  -0.970  51.212  1.00  0.00     0.167 HD
HETATM   16  C4  UNL     1      14.197  -1.375  51.148  1.00  0.00     0.005 A 
HETATM   17  S1  UNL     1      14.493  -1.604  52.820  1.00  0.00    -0.056 SA
BRANCH  16  18
HETATM   18  C2  UNL     1      12.907  -1.419  50.377  1.00  0.00     0.019 C 
HETATM   19  C1  UNL     1      12.959  -0.550  49.156  1.00  0.00     0.015 C 
HETATM   20  C3  UNL     1      11.733  -1.098  51.280  1.00  0.00     0.015 C 
ENDBRANCH  16  18
ENDBRANCH  10  12
ENDBRANCH   8  10
ENDBRANCH   1   7
TORSDOF 4
ENDMDL
MODEL 3
REMARK VINA RESULT: -5.929300417      3.574      6.519
REMARK  4 active torsions:
REMARK  status: ('A' for Active; 'I' for Inactive)
REMARK    1  A    between atoms: C2_2  and  C4_4 
REMARK    2  A    between atoms: C6_8  and  N2_9 
REMARK    3  A    between atoms: N2_9  and  N3_11 
REMARK    4  A    between atoms: C7_13  and  C8_14 
ROOT
HETATM    1  C8  UNL     1      18.080  -4.127  54.548  1.00  0.00     0.083 C 
HETATM    2 CL1  UNL     1      19.756  -4.555  54.319  1.00  0.00    -0.080 Cl
HETATM    3  C9  UNL     1      17.121  -5.007  54.354  1.00  0.00     0.137 C 
HETATM    4 CL2  UNL     1      17.551  -6.620  53.862  1.00  0.00    -0.070 Cl
HETATM    5  C10 UNL     1      15.738  -4.692  54.531  1.00  0.00     0.113 C 
HETATM    6  N4  UNL     1      14.628  -4.423  54.672  1.00  0.00    -0.190 NA
ENDROOT
BRANCH   1   7
HETATM    7  C7  UNL     1      17.767  -2.768  54.960  1.00  0.00     0.133 C 
HETATM    8  N3  UNL     1      17.585  -1.804  54.147  1.00  0.00    -0.308 N 
ATOM      9  H3  UNL     1      17.370  -0.894  54.556  1.00  0.00     0.186 HD
BRANCH   8  10
HETATM   10  N2  UNL     1      17.647  -1.862  52.761  1.00  0.00    -0.280 N 
ATOM     11  H2  UNL     1      18.478  -2.243  52.310  1.00  0.00     0.189 HD
BRANCH  10  12
HETATM   12  C6  UNL     1      16.654  -1.436  52.027  1.00  0.00     0.163 A 
HETATM   13  N1  UNL     1      16.695  -0.847  50.832  1.00  0.00    -0.344 N 
HETATM   14  C5  UNL     1      15.574  -0.500  50.274  1.00  0.00     0.105 A 
ATOM     15  H1  UNL     1      17.585  -0.672  50.367  1.00  0.00     0.167 HD
HETATM   16  C4  UNL     1      14.405  -0.756  50.940  1.00  0.00     0.005 A 
HETATM   17  S1  UNL     1      14.986  -1.500  52.370  1.00  0.00    -0.056 SA
BRANCH  16  18
HETATM   18  C2  UNL     1      12.998  -0.453  50.508  1.00  0.00     0.019 C 
HETATM   19  C1  UNL     1      11.989  -1.150  51.370  1.00  0.00     0.015 C 
HETATM   20  C3  UNL     1      12.817  -0.746  49.032  1.00  0.00     0.015 C 
ENDBRANCH  16  18
ENDBRANCH  10  12
ENDBRANCH   8  10
ENDBRANCH   1   7
TORSDOF 4
ENDMDL
MODEL 4
REMARK VINA RESULT: -5.919968523      7.290      9.311
REMARK  4 active torsions:
REMARK  status: ('A' for Active; 'I' for Inactive)
REMARK    1  A    between atoms: C2_2  and  C4_4 
REMARK    2  A    between atoms: C6_8  and  N2_9 
REMARK    3  A    between atoms: N2_9  and  N3_11 
REMARK    4  A    between atoms: C7_13  and  C8_14 
ROOT
HETATM    1  C8  UNL     1       9.503  -4.564  57.447  1.00  0.00     0.083 C 
HETATM    2 CL1  UNL     1      10.851  -5.498  56.854  1.00  0.00    -0.080 Cl
HETATM    3  C9  UNL     1       8.315  -5.108  57.606  1.00  0.00     0.137 C 
HETATM    4 CL2  UNL     1       8.105  -6.790  57.212  1.00  0.00    -0.070 Cl
HETATM    5  C10 UNL     1       7.189  -4.373  58.089  1.00  0.00     0.113 C 
HETATM    6  N4  UNL     1       6.289  -3.768  58.474  1.00  0.00    -0.190 NA
ENDROOT
BRANCH   1   7
HETATM    7  C7  UNL     1       9.725  -3.162  57.764  1.00  0.00     0.133 C 
HETATM    8  N3  UNL     1       9.821  -2.242  56.887  1.00  0.00    -0.308 N 
ATOM      9  H3  UNL     1       9.977  -1.295  57.233  1.00  0.00     0.186 HD
BRANCH   8  10
HETATM   10  N2  UNL     1       9.736  -2.395  55.510  1.00  0.00    -0.280 N 
ATOM     11  H2  UNL     1       8.918  -2.848  55.104  1.00  0.00     0.189 HD
BRANCH  10  12
HETATM   12  C6  UNL     1      10.690  -1.967  54.728  1.00  0.00     0.163 A 
HETATM   13  N1  UNL     1      11.974  -1.759  55.018  1.00  0.00    -0.344 N 
HETATM   14  C5  UNL     1      12.760  -1.326  54.078  1.00  0.00     0.105 A 
ATOM     15  H1  UNL     1      12.332  -1.934  55.957  1.00  0.00     0.167 HD
HETATM   16  C4  UNL     1      12.230  -1.105  52.835  1.00  0.00     0.005 A 
HETATM   17  S1  UNL     1      10.591  -1.539  53.081  1.00  0.00    -0.056 SA
BRANCH  16  18
HETATM   18  C2  UNL     1      12.926  -0.610  51.597  1.00  0.00     0.019 C 
HETATM   19  C1  UNL     1      12.314  -1.176  50.351  1.00  0.00     0.015 C 
HETATM   20  C3  UNL     1      14.418  -0.860  51.688  1.00  0.00     0.015 C 
ENDBRANCH  16  18
ENDBRANCH  10  12
ENDBRANCH   8  10
ENDBRANCH   1   7
TORSDOF 4
ENDMDL
MODEL 5
REMARK VINA RESULT: -5.919912995      7.933      8.858
REMARK  4 active torsions:
REMARK  status: ('A' for Active; 'I' for Inactive)
REMARK    1  A    between atoms: C2_2  and  C4_4 
REMARK    2  A    between atoms: C6_8  and  N2_9 
REMARK    3  A    between atoms: N2_9  and  N3_11 
REMARK    4  A    between atoms: C7_13  and  C8_14 
ROOT
HETATM    1  C8  UNL     1      11.368  -1.723  54.840  1.00  0.00     0.083 C 
HETATM    2 CL1  UNL     1      11.572  -3.317  54.161  1.00  0.00    -0.080 Cl
HETATM    3  C9  UNL     1      12.393  -0.914  54.997  1.00  0.00     0.137 C 
HETATM    4 CL2  UNL     1      13.973  -1.460  54.513  1.00  0.00    -0.070 Cl
HETATM    5  C10 UNL     1      12.263   0.397  55.551  1.00  0.00     0.113 C 
HETATM    6  N4  UNL     1      12.145   1.449  56.003  1.00  0.00    -0.190 NA
ENDROOT
BRANCH   1   7
HETATM    7  C7  UNL     1      10.030  -1.309  55.230  1.00  0.00     0.133 C 
HETATM    8  N3  UNL     1       9.440  -1.714  56.285  1.00  0.00    -0.308 N 
ATOM      9  H3  UNL     1       8.500  -1.352  56.452  1.00  0.00     0.186 HD
BRANCH   8  10
HETATM   10  N2  UNL     1       9.942  -2.597  57.231  1.00  0.00    -0.280 N 
ATOM     11  H2  UNL     1      10.757  -2.332  57.784  1.00  0.00     0.189 HD
BRANCH  10  12
HETATM   12  C6  UNL     1       9.386  -3.763  57.421  1.00  0.00     0.163 A 
HETATM   13  N1  UNL     1       8.301  -4.273  56.840  1.00  0.00    -0.344 N 
HETATM   14  C5  UNL     1       7.918  -5.467  57.181  1.00  0.00     0.105 A 
ATOM     15  H1  UNL     1       7.782  -3.738  56.143  1.00  0.00     0.167 HD
HETATM   16  C4  UNL     1       8.649  -6.144  58.122  1.00  0.00     0.005 A 
HETATM   17  S1  UNL     1       9.878  -5.006  58.479  1.00  0.00    -0.056 SA
BRANCH  16  18
HETATM   18  C2  UNL     1       8.411  -7.520  58.676  1.00  0.00     0.019 C 
HETATM   19  C1  UNL     1       9.260  -7.788  59.883  1.00  0.00     0.015 C 
HETATM   20  C3  UNL     1       8.576  -8.568  57.594  1.00  0.00     0.015 C 
ENDBRANCH  16  18
ENDBRANCH  10  12
ENDBRANCH   8  10
ENDBRANCH   1   7
TORSDOF 4
ENDMDL
