MODEL 1
REMARK VINA RESULT: -6.733640148      0.000      0.000
REMARK  4 active torsions:
REMARK  status: ('A' for Active; 'I' for Inactive)
REMARK    1  A    between atoms: C2_2  and  N1_4 
REMARK    2  A    between atoms: C2_2  and  C4_8 
REMARK    3  A    between atoms: N3_12  and  C6_13 
REMARK    4  A    between atoms: C13_20  and  C14_21 
ROOT
HETATM    1  C4  UNL     1      11.993  -1.537  53.011  1.00  0.00     0.077 A 
HETATM    2  N2  UNL     1      11.469  -1.183  51.793  1.00  0.00    -0.352 N 
ATOM      3  H2  UNL     1      10.482  -1.264  51.551  1.00  0.00     0.166 HD
HETATM    4  C5  UNL     1      12.389  -0.728  50.973  1.00  0.00     0.184 A 
HETATM    5  N3  UNL     1      13.581  -0.769  51.646  1.00  0.00    -0.333 N 
HETATM    6  C13 UNL     1      13.337  -1.257  52.874  1.00  0.00     0.145 A 
ENDROOT
BRANCH   1   7
HETATM    7  C2  UNL     1      11.178  -2.066  54.091  1.00  0.00     0.160 C 
HETATM    8  C1  UNL     1      11.037  -1.167  55.301  1.00  0.00     0.052 C 
HETATM    9  C3  UNL     1      11.505  -3.479  54.531  1.00  0.00     0.052 C 
BRANCH   7  10
HETATM   10  N1  UNL     1       9.771  -2.189  53.605  1.00  0.00    -0.065 N 
ATOM     11  H13 UNL     1       9.197  -2.856  54.122  1.00  0.00     0.275 HD
ATOM     12  H12 UNL     1       9.182  -1.379  53.794  1.00  0.00     0.275 HD
ATOM     13  H11 UNL     1       9.893  -2.408  52.616  1.00  0.00     0.275 HD
ENDBRANCH   7  10
ENDBRANCH   1   7
BRANCH   6  14
HETATM   14  C14 UNL     1      14.321  -1.471  53.922  1.00  0.00     0.434 C 
HETATM   15  F1  UNL     1      15.615  -1.032  53.599  1.00  0.00    -0.165 F 
HETATM   16  F2  UNL     1      14.571  -2.823  54.209  1.00  0.00    -0.165 F 
HETATM   17  F3  UNL     1      14.086  -0.748  55.098  1.00  0.00    -0.165 F 
ENDBRANCH   6  14
BRANCH   5  18
HETATM   18  C6  UNL     1      14.810  -0.340  51.047  1.00  0.00     0.091 C 
HETATM   19  C7  UNL     1      14.506   0.849  50.166  1.00  0.00     0.026 C 
HETATM   20  C8  UNL     1      15.715   1.651  49.790  1.00  0.00     0.002 C 
HETATM   21  C9  UNL     1      16.614   0.815  48.903  1.00  0.00     0.000 C 
HETATM   22  C10 UNL     1      17.416  -0.084  49.817  1.00  0.00     0.000 C 
HETATM   23  C11 UNL     1      16.812  -1.438  49.960  1.00  0.00     0.002 C 
HETATM   24  C12 UNL     1      15.306  -1.429  50.065  1.00  0.00     0.026 C 
ENDBRANCH   5  18
TORSDOF 4
ENDMDL
MODEL 2
REMARK VINA RESULT: -6.706883515      2.375      5.975
REMARK  4 active torsions:
REMARK  status: ('A' for Active; 'I' for Inactive)
REMARK    1  A    between atoms: C2_2  and  N1_4 
REMARK    2  A    between atoms: C2_2  and  C4_8 
REMARK    3  A    between atoms: N3_12  and  C6_13 
REMARK    4  A    between atoms: C13_20  and  C14_21 
ROOT
HETATM    1  C4  UNL     1      15.378  -1.217  51.849  1.00  0.00     0.077 A 
HETATM    2  N2  UNL     1      15.597  -1.553  53.162  1.00  0.00    -0.352 N 
ATOM      3  H2  UNL     1      16.503  -1.835  53.535  1.00  0.00     0.166 HD
HETATM    4  C5  UNL     1      14.502  -1.468  53.883  1.00  0.00     0.184 A 
HETATM    5  N3  UNL     1      13.500  -1.062  53.044  1.00  0.00    -0.333 N 
HETATM    6  C13 UNL     1      14.033  -0.911  51.819  1.00  0.00     0.145 A 
ENDROOT
BRANCH   1   7
HETATM    7  C2  UNL     1      16.432  -1.229  50.851  1.00  0.00     0.160 C 
HETATM    8  C1  UNL     1      16.636   0.072  50.103  1.00  0.00     0.052 C 
HETATM    9  C3  UNL     1      16.401  -2.388  49.874  1.00  0.00     0.052 C 
BRANCH   7  10
HETATM   10  N1  UNL     1      17.740  -1.418  51.546  1.00  0.00    -0.065 N 
ATOM     11  H13 UNL     1      18.493  -1.766  50.952  1.00  0.00     0.275 HD
ATOM     12  H12 UNL     1      18.211  -0.554  51.812  1.00  0.00     0.275 HD
ATOM     13  H11 UNL     1      17.495  -2.029  52.325  1.00  0.00     0.275 HD
ENDBRANCH   7  10
ENDBRANCH   1   7
BRANCH   6  14
HETATM   14  C14 UNL     1      13.323  -0.493  50.621  1.00  0.00     0.434 C 
HETATM   15  F1  UNL     1      13.718  -1.160  49.451  1.00  0.00    -0.165 F 
HETATM   16  F2  UNL     1      13.556   0.842  50.251  1.00  0.00    -0.165 F 
HETATM   17  F3  UNL     1      11.950  -0.773  50.631  1.00  0.00    -0.165 F 
ENDBRANCH   6  14
BRANCH   5  18
HETATM   18  C6  UNL     1      12.156  -0.862  53.500  1.00  0.00     0.091 C 
HETATM   19  C7  UNL     1      12.212  -0.503  54.966  1.00  0.00     0.026 C 
HETATM   20  C8  UNL     1      10.953   0.117  55.488  1.00  0.00     0.002 C 
HETATM   21  C9  UNL     1       9.838  -0.907  55.452  1.00  0.00     0.000 C 
HETATM   22  C10 UNL     1       9.314  -0.931  54.033  1.00  0.00     0.000 C 
HETATM   23  C11 UNL     1       9.924  -2.017  53.217  1.00  0.00     0.002 C 
HETATM   24  C12 UNL     1      11.401  -2.214  53.464  1.00  0.00     0.026 C 
ENDBRANCH   5  18
TORSDOF 4
ENDMDL
MODEL 3
REMARK VINA RESULT: -6.578824130      1.190      1.327
REMARK  4 active torsions:
REMARK  status: ('A' for Active; 'I' for Inactive)
REMARK    1  A    between atoms: C2_2  and  N1_4 
REMARK    2  A    between atoms: C2_2  and  C4_8 
REMARK    3  A    between atoms: N3_12  and  C6_13 
REMARK    4  A    between atoms: C13_20  and  C14_21 
ROOT
HETATM    1  C4  UNL     1      11.219  -1.331  53.550  1.00  0.00     0.077 A 
HETATM    2  N2  UNL     1      10.889  -1.291  52.218  1.00  0.00    -0.352 N 
ATOM      3  H2  UNL     1       9.934  -1.357  51.866  1.00  0.00     0.166 HD
HETATM    4  C5  UNL     1      11.947  -1.157  51.451  1.00  0.00     0.184 A 
HETATM    5  N3  UNL     1      13.037  -1.104  52.277  1.00  0.00    -0.333 N 
HETATM    6  C13 UNL     1      12.593  -1.209  53.542  1.00  0.00     0.145 A 
ENDROOT
BRANCH   1   7
HETATM    7  C2  UNL     1      10.226  -1.472  54.600  1.00  0.00     0.160 C 
HETATM    8  C1  UNL     1       9.844  -0.190  55.311  1.00  0.00     0.052 C 
HETATM    9  C3  UNL     1      10.489  -2.568  55.614  1.00  0.00     0.052 C 
BRANCH   7  10
HETATM   10  N1  UNL     1       8.938  -1.900  53.978  1.00  0.00    -0.065 N 
ATOM     11  H13 UNL     1       8.919  -2.869  53.660  1.00  0.00     0.275 HD
ATOM     12  H12 UNL     1       8.158  -1.992  54.630  1.00  0.00     0.275 HD
ATOM     13  H11 UNL     1       8.801  -1.207  53.243  1.00  0.00     0.275 HD
ENDBRANCH   7  10
ENDBRANCH   1   7
BRANCH   6  14
HETATM   14  C14 UNL     1      13.415  -1.200  54.741  1.00  0.00     0.434 C 
HETATM   15  F1  UNL     1      14.769  -0.909  54.512  1.00  0.00    -0.165 F 
HETATM   16  F2  UNL     1      13.521  -2.448  55.375  1.00  0.00    -0.165 F 
HETATM   17  F3  UNL     1      13.085  -0.200  55.665  1.00  0.00    -0.165 F 
ENDBRANCH   6  14
BRANCH   5  18
HETATM   18  C6  UNL     1      14.370  -0.958  51.772  1.00  0.00     0.091 C 
HETATM   19  C7  UNL     1      14.293  -0.195  50.471  1.00  0.00     0.026 C 
HETATM   20  C8  UNL     1      15.602   0.380  50.027  1.00  0.00     0.002 C 
HETATM   21  C9  UNL     1      16.553  -0.747  49.680  1.00  0.00     0.000 C 
HETATM   22  C10 UNL     1      17.140  -1.238  50.985  1.00  0.00     0.000 C 
HETATM   23  C11 UNL     1      16.417  -2.423  51.525  1.00  0.00     0.002 C 
HETATM   24  C12 UNL     1      14.917  -2.350  51.369  1.00  0.00     0.026 C 
ENDBRANCH   5  18
TORSDOF 4
ENDMDL
MODEL 4
REMARK VINA RESULT: -6.543810743      3.757      4.923
REMARK  4 active torsions:
REMARK  status: ('A' for Active; 'I' for Inactive)
REMARK    1  A    between atoms: C2_2  and  N1_4 
REMARK    2  A    between atoms: C2_2  and  C4_8 
REMARK    3  A    between atoms: N3_12  and  C6_13 
REMARK    4  A    between atoms: C13_20  and  C14_21 
ROOT
HETATM    1  C4  UNL     1      15.872  -4.817  52.833  1.00  0.00     0.077 A 
HETATM    2  N2  UNL     1      14.686  -4.498  53.447  1.00  0.00    -0.352 N 
ATOM      3  H2  UNL     1      14.329  -4.970  54.277  1.00  0.00     0.166 HD
HETATM    4  C5  UNL     1      14.064  -3.513  52.839  1.00  0.00     0.184 A 
HETATM    5  N3  UNL     1      14.844  -3.143  51.776  1.00  0.00    -0.333 N 
HETATM    6  C13 UNL     1      15.932  -3.931  51.777  1.00  0.00     0.145 A 
ENDROOT
BRANCH   1   7
HETATM    7  C2  UNL     1      16.746  -5.871  53.317  1.00  0.00     0.160 C 
HETATM    8  C1  UNL     1      18.172  -5.452  53.607  1.00  0.00     0.052 C 
HETATM    9  C3  UNL     1      16.737  -7.155  52.512  1.00  0.00     0.052 C 
BRANCH   7  10
HETATM   10  N1  UNL     1      16.254  -6.317  54.654  1.00  0.00    -0.065 N 
ATOM     11  H13 UNL     1      16.896  -6.921  55.166  1.00  0.00     0.275 HD
ATOM     12  H12 UNL     1      16.219  -5.583  55.363  1.00  0.00     0.275 HD
ATOM     13  H11 UNL     1      15.353  -6.741  54.434  1.00  0.00     0.275 HD
ENDBRANCH   7  10
ENDBRANCH   1   7
BRANCH   6  14
HETATM   14  C14 UNL     1      17.026  -3.883  50.821  1.00  0.00     0.434 C 
HETATM   15  F1  UNL     1      16.696  -3.282  49.596  1.00  0.00    -0.165 F 
HETATM   16  F2  UNL     1      17.463  -5.143  50.382  1.00  0.00    -0.165 F 
HETATM   17  F3  UNL     1      18.111  -3.090  51.217  1.00  0.00    -0.165 F 
ENDBRANCH   6  14
BRANCH   5  18
HETATM   18  C6  UNL     1      14.467  -2.085  50.886  1.00  0.00     0.091 C 
HETATM   19  C7  UNL     1      15.191  -0.833  51.320  1.00  0.00     0.026 C 
HETATM   20  C8  UNL     1      15.222   0.243  50.279  1.00  0.00     0.002 C 
HETATM   21  C9  UNL     1      13.815   0.753  50.043  1.00  0.00     0.000 C 
HETATM   22  C10 UNL     1      13.148  -0.227  49.103  1.00  0.00     0.000 C 
HETATM   23  C11 UNL     1      12.332  -1.244  49.823  1.00  0.00     0.002 C 
HETATM   24  C12 UNL     1      12.969  -1.754  51.093  1.00  0.00     0.026 C 
ENDBRANCH   5  18
TORSDOF 4
ENDMDL
MODEL 5
REMARK VINA RESULT: -6.439063427      3.352      4.863
REMARK  4 active torsions:
REMARK  status: ('A' for Active; 'I' for Inactive)
REMARK    1  A    between atoms: C2_2  and  N1_4 
REMARK    2  A    between atoms: C2_2  and  C4_8 
REMARK    3  A    between atoms: N3_12  and  C6_13 
REMARK    4  A    between atoms: C13_20  and  C14_21 
ROOT
HETATM    1  C4  UNL     1      16.581  -3.180  54.233  1.00  0.00     0.077 A 
HETATM    2  N2  UNL     1      15.900  -2.144  54.823  1.00  0.00    -0.352 N 
ATOM      3  H2  UNL     1      16.002  -1.880  55.803  1.00  0.00     0.166 HD
HETATM    4  C5  UNL     1      15.101  -1.533  53.978  1.00  0.00     0.184 A 
HETATM    5  N3  UNL     1      15.235  -2.165  52.771  1.00  0.00    -0.333 N 
HETATM    6  C13 UNL     1      16.129  -3.157  52.930  1.00  0.00     0.145 A 
ENDROOT
BRANCH   1   7
HETATM    7  C2  UNL     1      17.527  -4.009  54.957  1.00  0.00     0.160 C 
HETATM    8  C1  UNL     1      18.988  -3.758  54.641  1.00  0.00     0.052 C 
HETATM    9  C3  UNL     1      17.243  -5.498  54.945  1.00  0.00     0.052 C 
BRANCH   7  10
HETATM   10  N1  UNL     1      17.440  -3.669  56.408  1.00  0.00    -0.065 N 
ATOM     11  H13 UNL     1      16.609  -4.023  56.881  1.00  0.00     0.275 HD
ATOM     12  H12 UNL     1      18.111  -4.157  57.003  1.00  0.00     0.275 HD
ATOM     13  H11 UNL     1      17.530  -2.653  56.408  1.00  0.00     0.275 HD
ENDBRANCH   7  10
ENDBRANCH   1   7
BRANCH   6  14
HETATM   14  C14 UNL     1      16.570  -4.083  51.901  1.00  0.00     0.434 C 
HETATM   15  F1  UNL     1      16.136  -3.760  50.606  1.00  0.00    -0.165 F 
HETATM   16  F2  UNL     1      16.049  -5.381  52.033  1.00  0.00    -0.165 F 
HETATM   17  F3  UNL     1      17.958  -4.123  51.709  1.00  0.00    -0.165 F 
ENDBRANCH   6  14
BRANCH   5  18
HETATM   18  C6  UNL     1      14.503  -1.754  51.610  1.00  0.00     0.091 C 
HETATM   19  C7  UNL     1      15.313  -0.694  50.902  1.00  0.00     0.026 C 
HETATM   20  C8  UNL     1      14.890  -0.452  49.485  1.00  0.00     0.002 C 
HETATM   21  C9  UNL     1      13.499   0.146  49.473  1.00  0.00     0.000 C 
HETATM   22  C10 UNL     1      12.528  -1.003  49.634  1.00  0.00     0.000 C 
HETATM   23  C11 UNL     1      12.101  -1.196  51.047  1.00  0.00     0.002 C 
HETATM   24  C12 UNL     1      13.214  -1.021  52.053  1.00  0.00     0.026 C 
ENDBRANCH   5  18
TORSDOF 4
ENDMDL
