MODEL 1
REMARK VINA RESULT: -7.208932090      0.000      0.000
REMARK  6 active torsions:
REMARK  status: ('A' for Active; 'I' for Inactive)
REMARK    1  A    between atoms: C1_4  and  N2_6 
REMARK    2  A    between atoms: N3_8  and  C2_10 
REMARK    3  A    between atoms: C3_11  and  C4_12 
REMARK    4  A    between atoms: N4_20  and  C11_21 
REMARK    5  A    between atoms: C11_21  and  O1_22 
REMARK    6  A    between atoms: C11_21  and  N5_24 
ROOT
HETATM    1  C2  UNL     1      14.498  -1.560  53.485  1.00  0.00     0.140 A 
HETATM    2  C3  UNL     1      15.156  -1.563  52.296  1.00  0.00     0.029 A 
HETATM    3  C5  UNL     1      14.198  -1.334  51.339  1.00  0.00     0.004 A 
HETATM    4  C6  UNL     1      14.298  -1.216  49.959  1.00  0.00     0.014 A 
HETATM    5  C7  UNL     1      13.177  -0.959  49.224  1.00  0.00     0.001 A 
HETATM    6  C8  UNL     1      11.967  -0.821  49.853  1.00  0.00     0.002 A 
HETATM    7  C9  UNL     1      11.852  -0.937  51.221  1.00  0.00     0.031 A 
HETATM    8  C10 UNL     1      12.967  -1.196  51.981  1.00  0.00     0.055 A 
HETATM    9  N4  UNL     1      13.131  -1.334  53.307  1.00  0.00    -0.261 N 
ENDROOT
BRANCH   1  10
HETATM   10  N3  UNL     1      15.170  -1.785  54.725  1.00  0.00    -0.282 N 
HETATM   11  N2  UNL     1      15.686  -0.894  55.413  1.00  0.00    -0.274 N 
ATOM     12  H2  UNL     1      15.625   0.064  55.068  1.00  0.00     0.189 HD
ATOM     13  H3  UNL     1      15.228  -2.744  55.066  1.00  0.00     0.188 HD
BRANCH  11  14
HETATM   14  C1  UNL     1      16.356  -1.106  56.647  1.00  0.00     0.187 C 
HETATM   15  N1  UNL     1      16.177  -0.233  57.599  1.00  0.00    -0.375 N 
ATOM     16  H12 UNL     1      16.658  -0.385  58.486  1.00  0.00     0.158 HD
ATOM     17  H11 UNL     1      15.571   0.572  57.446  1.00  0.00     0.158 HD
HETATM   18 CL1  UNL     1      17.399  -2.491  56.911  1.00  0.00    -0.044 Cl
ENDBRANCH  11  14
ENDBRANCH   1  10
BRANCH   2  19
HETATM   19  C4  UNL     1      16.600  -1.754  52.028  1.00  0.00     0.265 C 
HETATM   20  F1  UNL     1      17.118  -0.822  51.151  1.00  0.00    -0.250 F 
ENDBRANCH   2  19
BRANCH   9  21
HETATM   21  C11 UNL     1      12.265  -1.245  54.398  1.00  0.00     0.228 C 
BRANCH  21  22
HETATM   22  O1  UNL     1      12.646  -0.264  55.244  1.00  0.00    -0.332 OA
ATOM     23  H1  UNL     1      13.074  -0.621  56.013  1.00  0.00     0.221 HD
ENDBRANCH  21  22
BRANCH  21  24
HETATM   24  N5  UNL     1      11.140  -1.849  54.894  1.00  0.00    -0.347 N 
HETATM   25  C12 UNL     1       9.751  -1.377  54.461  1.00  0.00     0.126 C 
HETATM   26  C13 UNL     1       9.037  -1.333  55.783  1.00  0.00     0.021 C 
HETATM   27  C14 UNL     1       9.436  -2.663  56.375  1.00  0.00     0.021 C 
HETATM   28  C15 UNL     1      10.842  -2.862  55.842  1.00  0.00     0.126 C 
ENDBRANCH  21  24
ENDBRANCH   9  21
TORSDOF 6
ENDMDL
MODEL 2
REMARK VINA RESULT: -7.059207175      1.679      1.880
REMARK  6 active torsions:
REMARK  status: ('A' for Active; 'I' for Inactive)
REMARK    1  A    between atoms: C1_4  and  N2_6 
REMARK    2  A    between atoms: N3_8  and  C2_10 
REMARK    3  A    between atoms: C3_11  and  C4_12 
REMARK    4  A    between atoms: N4_20  and  C11_21 
REMARK    5  A    between atoms: C11_21  and  O1_22 
REMARK    6  A    between atoms: C11_21  and  N5_24 
ROOT
HETATM    1  C2  UNL     1      15.268  -1.402  52.491  1.00  0.00     0.140 A 
HETATM    2  C3  UNL     1      15.672  -1.064  51.239  1.00  0.00     0.029 A 
HETATM    3  C5  UNL     1      14.525  -0.968  50.489  1.00  0.00     0.004 A 
HETATM    4  C6  UNL     1      14.333  -0.637  49.155  1.00  0.00     0.014 A 
HETATM    5  C7  UNL     1      13.066  -0.590  48.650  1.00  0.00     0.001 A 
HETATM    6  C8  UNL     1      11.999  -0.869  49.462  1.00  0.00     0.002 A 
HETATM    7  C9  UNL     1      12.173  -1.201  50.788  1.00  0.00     0.031 A 
HETATM    8  C10 UNL     1      13.440  -1.256  51.317  1.00  0.00     0.055 A 
HETATM    9  N4  UNL     1      13.878  -1.528  52.558  1.00  0.00    -0.261 N 
ENDROOT
BRANCH   1  10
HETATM   10  N3  UNL     1      16.194  -1.611  53.557  1.00  0.00    -0.282 N 
HETATM   11  N2  UNL     1      16.730  -2.697  53.816  1.00  0.00    -0.274 N 
ATOM     12  H2  UNL     1      16.491  -3.494  53.226  1.00  0.00     0.189 HD
ATOM     13  H3  UNL     1      16.430  -0.811  54.145  1.00  0.00     0.188 HD
BRANCH  11  14
HETATM   14  C1  UNL     1      17.652  -2.916  54.874  1.00  0.00     0.187 C 
HETATM   15  N1  UNL     1      17.420  -2.336  56.019  1.00  0.00    -0.375 N 
ATOM     16  H12 UNL     1      18.082  -2.494  56.778  1.00  0.00     0.158 HD
ATOM     17  H11 UNL     1      16.596  -1.746  56.135  1.00  0.00     0.158 HD
HETATM   18 CL1  UNL     1      19.069  -3.930  54.675  1.00  0.00    -0.044 Cl
ENDBRANCH  11  14
ENDBRANCH   1  10
BRANCH   2  19
HETATM   19  C4  UNL     1      17.043  -0.823  50.733  1.00  0.00     0.265 C 
HETATM   20  F1  UNL     1      17.224   0.454  50.240  1.00  0.00    -0.250 F 
ENDBRANCH   2  19
BRANCH   9  21
HETATM   21  C11 UNL     1      13.236  -1.827  53.760  1.00  0.00     0.228 C 
BRANCH  21  22
HETATM   22  O1  UNL     1      13.869  -2.824  54.415  1.00  0.00    -0.332 OA
ATOM     23  H1  UNL     1      14.725  -2.545  54.720  1.00  0.00     0.221 HD
ENDBRANCH  21  22
BRANCH  21  24
HETATM   24  N5  UNL     1      12.152  -1.430  54.496  1.00  0.00    -0.347 N 
HETATM   25  C12 UNL     1      10.904  -2.310  54.579  1.00  0.00     0.126 C 
HETATM   26  C13 UNL     1       9.818  -1.291  54.374  1.00  0.00     0.021 C 
HETATM   27  C14 UNL     1      10.262  -0.198  55.316  1.00  0.00     0.021 C 
HETATM   28  C15 UNL     1      11.775  -0.286  55.247  1.00  0.00     0.126 C 
ENDBRANCH  21  24
ENDBRANCH   9  21
TORSDOF 6
ENDMDL
MODEL 3
REMARK VINA RESULT: -7.042394991      2.642      4.818
REMARK  6 active torsions:
REMARK  status: ('A' for Active; 'I' for Inactive)
REMARK    1  A    between atoms: C1_4  and  N2_6 
REMARK    2  A    between atoms: N3_8  and  C2_10 
REMARK    3  A    between atoms: C3_11  and  C4_12 
REMARK    4  A    between atoms: N4_20  and  C11_21 
REMARK    5  A    between atoms: C11_21  and  O1_22 
REMARK    6  A    between atoms: C11_21  and  N5_24 
ROOT
HETATM    1  C2  UNL     1      13.543  -1.583  53.597  1.00  0.00     0.140 A 
HETATM    2  C3  UNL     1      12.377  -1.312  52.955  1.00  0.00     0.029 A 
HETATM    3  C5  UNL     1      12.710  -1.136  51.634  1.00  0.00     0.004 A 
HETATM    4  C6  UNL     1      11.924  -0.857  50.524  1.00  0.00     0.014 A 
HETATM    5  C7  UNL     1      12.509  -0.753  49.296  1.00  0.00     0.001 A 
HETATM    6  C8  UNL     1      13.863  -0.923  49.169  1.00  0.00     0.002 A 
HETATM    7  C9  UNL     1      14.657  -1.198  50.261  1.00  0.00     0.031 A 
HETATM    8  C10 UNL     1      14.089  -1.307  51.508  1.00  0.00     0.055 A 
HETATM    9  N4  UNL     1      14.622  -1.583  52.710  1.00  0.00    -0.261 N 
ENDROOT
BRANCH   1  10
HETATM   10  N3  UNL     1      13.598  -1.811  55.005  1.00  0.00    -0.282 N 
HETATM   11  N2  UNL     1      13.796  -0.926  55.850  1.00  0.00    -0.274 N 
ATOM     12  H2  UNL     1      13.928   0.027  55.512  1.00  0.00     0.189 HD
ATOM     13  H3  UNL     1      13.466  -2.766  55.339  1.00  0.00     0.188 HD
BRANCH  11  14
HETATM   14  C1  UNL     1      13.853  -1.141  57.253  1.00  0.00     0.187 C 
HETATM   15  N1  UNL     1      13.080  -2.057  57.764  1.00  0.00    -0.375 N 
ATOM     16  H12 UNL     1      13.122  -2.212  58.772  1.00  0.00     0.158 HD
ATOM     17  H11 UNL     1      12.459  -2.596  57.161  1.00  0.00     0.158 HD
HETATM   18 CL1  UNL     1      14.922  -0.214  58.290  1.00  0.00    -0.044 Cl
ENDBRANCH  11  14
ENDBRANCH   1  10
BRANCH   2  19
HETATM   19  C4  UNL     1      11.005  -1.224  53.505  1.00  0.00     0.265 C 
HETATM   20  F1  UNL     1      10.033  -1.617  52.608  1.00  0.00    -0.250 F 
ENDBRANCH   2  19
BRANCH   9  21
HETATM   21  C11 UNL     1      15.914  -1.882  53.144  1.00  0.00     0.228 C 
BRANCH  21  22
HETATM   22  O1  UNL     1      16.368  -0.946  54.006  1.00  0.00    -0.332 OA
ATOM     23  H1  UNL     1      16.789  -1.347  54.756  1.00  0.00     0.221 HD
ENDBRANCH  21  22
BRANCH  21  24
HETATM   24  N5  UNL     1      16.885  -2.832  52.969  1.00  0.00    -0.347 N 
HETATM   25  C12 UNL     1      16.910  -3.693  51.705  1.00  0.00     0.126 C 
HETATM   26  C13 UNL     1      17.156  -5.056  52.289  1.00  0.00     0.021 C 
HETATM   27  C14 UNL     1      18.283  -4.763  53.250  1.00  0.00     0.021 C 
HETATM   28  C15 UNL     1      17.967  -3.357  53.723  1.00  0.00     0.126 C 
ENDBRANCH  21  24
ENDBRANCH   9  21
TORSDOF 6
ENDMDL
MODEL 4
REMARK VINA RESULT: -7.016573521      2.756      5.074
REMARK  6 active torsions:
REMARK  status: ('A' for Active; 'I' for Inactive)
REMARK    1  A    between atoms: C1_4  and  N2_6 
REMARK    2  A    between atoms: N3_8  and  C2_10 
REMARK    3  A    between atoms: C3_11  and  C4_12 
REMARK    4  A    between atoms: N4_20  and  C11_21 
REMARK    5  A    between atoms: C11_21  and  O1_22 
REMARK    6  A    between atoms: C11_21  and  N5_24 
ROOT
HETATM    1  C2  UNL     1      14.533  -1.366  53.187  1.00  0.00     0.140 A 
HETATM    2  C3  UNL     1      13.759  -0.850  52.197  1.00  0.00     0.029 A 
HETATM    3  C5  UNL     1      14.618  -0.565  51.163  1.00  0.00     0.004 A 
HETATM    4  C6  UNL     1      14.381  -0.040  49.900  1.00  0.00     0.014 A 
HETATM    5  C7  UNL     1      15.424   0.127  49.035  1.00  0.00     0.001 A 
HETATM    6  C8  UNL     1      16.691  -0.224  49.422  1.00  0.00     0.002 A 
HETATM    7  C9  UNL     1      16.942  -0.744  50.673  1.00  0.00     0.031 A 
HETATM    8  C10 UNL     1      15.907  -0.920  51.559  1.00  0.00     0.055 A 
HETATM    9  N4  UNL     1      15.876  -1.416  52.808  1.00  0.00    -0.261 N 
ENDROOT
BRANCH   1  10
HETATM   10  N3  UNL     1      13.987  -1.770  54.444  1.00  0.00    -0.282 N 
HETATM   11  N2  UNL     1      13.923  -1.042  55.444  1.00  0.00    -0.274 N 
ATOM     12  H2  UNL     1      14.286  -0.092  55.362  1.00  0.00     0.189 HD
ATOM     13  H3  UNL     1      13.626  -2.720  54.522  1.00  0.00     0.188 HD
BRANCH  11  14
HETATM   14  C1  UNL     1      13.383  -1.433  56.699  1.00  0.00     0.187 C 
HETATM   15  N1  UNL     1      12.283  -2.132  56.701  1.00  0.00    -0.375 N 
ATOM     16  H12 UNL     1      11.895  -2.412  57.602  1.00  0.00     0.158 HD
ATOM     17  H11 UNL     1      11.836  -2.383  55.820  1.00  0.00     0.158 HD
HETATM   18 CL1  UNL     1      14.153  -1.001  58.215  1.00  0.00    -0.044 Cl
ENDBRANCH  11  14
ENDBRANCH   1  10
BRANCH   2  19
HETATM   19  C4  UNL     1      12.295  -0.629  52.173  1.00  0.00     0.265 C 
HETATM   20  F1  UNL     1      11.654  -1.339  51.178  1.00  0.00    -0.250 F 
ENDBRANCH   2  19
BRANCH   9  21
HETATM   21  C11 UNL     1      16.847  -1.952  53.655  1.00  0.00     0.228 C 
BRANCH  21  22
HETATM   22  O1  UNL     1      17.026  -1.176  54.744  1.00  0.00    -0.332 OA
ATOM     23  H1  UNL     1      17.805  -0.639  54.658  1.00  0.00     0.221 HD
ENDBRANCH  21  22
BRANCH  21  24
HETATM   24  N5  UNL     1      17.691  -3.028  53.731  1.00  0.00    -0.347 N 
HETATM   25  C12 UNL     1      17.646  -4.129  52.671  1.00  0.00     0.126 C 
HETATM   26  C13 UNL     1      17.695  -5.360  53.531  1.00  0.00     0.021 C 
HETATM   27  C14 UNL     1      18.820  -5.012  54.476  1.00  0.00     0.021 C 
HETATM   28  C15 UNL     1      18.672  -3.510  54.637  1.00  0.00     0.126 C 
ENDBRANCH  21  24
ENDBRANCH   9  21
TORSDOF 6
ENDMDL
MODEL 5
REMARK VINA RESULT: -6.988896951      3.287      5.613
REMARK  6 active torsions:
REMARK  status: ('A' for Active; 'I' for Inactive)
REMARK    1  A    between atoms: C1_4  and  N2_6 
REMARK    2  A    between atoms: N3_8  and  C2_10 
REMARK    3  A    between atoms: C3_11  and  C4_12 
REMARK    4  A    between atoms: N4_20  and  C11_21 
REMARK    5  A    between atoms: C11_21  and  O1_22 
REMARK    6  A    between atoms: C11_21  and  N5_24 
ROOT
HETATM    1  C2  UNL     1      14.171  -1.449  51.806  1.00  0.00     0.140 A 
HETATM    2  C3  UNL     1      12.863  -1.214  51.527  1.00  0.00     0.029 A 
HETATM    3  C5  UNL     1      12.175  -1.527  52.674  1.00  0.00     0.004 A 
HETATM    4  C6  UNL     1      10.820  -1.463  52.971  1.00  0.00     0.014 A 
HETATM    5  C7  UNL     1      10.388  -1.815  54.217  1.00  0.00     0.001 A 
HETATM    6  C8  UNL     1      11.292  -2.229  55.159  1.00  0.00     0.002 A 
HETATM    7  C9  UNL     1      12.639  -2.300  54.879  1.00  0.00     0.031 A 
HETATM    8  C10 UNL     1      13.097  -1.951  53.632  1.00  0.00     0.055 A 
HETATM    9  N4  UNL     1      14.336  -1.911  53.114  1.00  0.00    -0.261 N 
ENDROOT
BRANCH   1  10
HETATM   10  N3  UNL     1      15.201  -1.251  50.837  1.00  0.00    -0.282 N 
HETATM   11  N2  UNL     1      15.847  -0.203  50.708  1.00  0.00    -0.274 N 
ATOM     12  H2  UNL     1      15.626   0.569  51.338  1.00  0.00     0.189 HD
ATOM     13  H3  UNL     1      15.420  -2.025  50.210  1.00  0.00     0.188 HD
BRANCH  11  14
HETATM   14  C1  UNL     1      16.874   0.006  49.749  1.00  0.00     0.187 C 
HETATM   15  N1  UNL     1      17.016   1.204  49.254  1.00  0.00    -0.375 N 
ATOM     16  H12 UNL     1      17.753   1.354  48.566  1.00  0.00     0.158 HD
ATOM     17  H11 UNL     1      16.400   1.958  49.558  1.00  0.00     0.158 HD
HETATM   18 CL1  UNL     1      17.933  -1.291  49.226  1.00  0.00    -0.044 Cl
ENDBRANCH  11  14
ENDBRANCH   1  10
BRANCH   2  19
HETATM   19  C4  UNL     1      12.249  -0.713  50.276  1.00  0.00     0.265 C 
HETATM   20  F1  UNL     1      12.265  -1.641  49.254  1.00  0.00    -0.250 F 
ENDBRANCH   2  19
BRANCH   9  21
HETATM   21  C11 UNL     1      15.604  -2.177  53.633  1.00  0.00     0.228 C 
BRANCH  21  22
HETATM   22  O1  UNL     1      16.366  -1.063  53.650  1.00  0.00    -0.332 OA
ATOM     23  H1  UNL     1      17.108  -1.146  53.063  1.00  0.00     0.221 HD
ENDBRANCH  21  22
BRANCH  21  24
HETATM   24  N5  UNL     1      16.334  -3.223  54.133  1.00  0.00    -0.347 N 
HETATM   25  C12 UNL     1      17.856  -3.129  54.238  1.00  0.00     0.126 C 
HETATM   26  C13 UNL     1      18.266  -4.470  53.697  1.00  0.00     0.021 C 
HETATM   27  C14 UNL     1      17.327  -5.386  54.445  1.00  0.00     0.021 C 
HETATM   28  C15 UNL     1      16.073  -4.544  54.583  1.00  0.00     0.126 C 
ENDBRANCH  21  24
ENDBRANCH   9  21
TORSDOF 6
ENDMDL
