MODEL 1
REMARK VINA RESULT: -8.233973830      0.000      0.000
REMARK  4 active torsions:
REMARK  status: ('A' for Active; 'I' for Inactive)
REMARK    1  A    between atoms: O1_1  and  N1_3 
REMARK    2  A    between atoms: C1_5  and  C2_6 
REMARK    3  A    between atoms: C1_5  and  N3_13 
REMARK    4  A    between atoms: C7_16  and  C8_17 
ROOT
HETATM    1  N3  UNL     1      14.414  -1.728  51.945  1.00  0.00    -0.365 N 
HETATM    2  C5  UNL     1      13.093  -2.280  51.754  1.00  0.00     0.125 C 
HETATM    3  C6  UNL     1      12.096  -1.344  52.326  1.00  0.00     0.029 C 
HETATM    4  C7  UNL     1      12.319  -0.982  53.760  1.00  0.00     0.021 C 
HETATM    5  C14 UNL     1      13.671  -1.382  54.283  1.00  0.00     0.029 C 
HETATM    6  C15 UNL     1      14.762  -1.367  53.290  1.00  0.00     0.125 C 
ENDROOT
BRANCH   1   7
HETATM    7  C1  UNL     1      15.360  -1.535  50.891  1.00  0.00     0.142 C 
HETATM    8  N1  UNL     1      15.917  -2.579  50.412  1.00  0.00    -0.252 N 
ATOM      9  H1  UNL     1      15.671  -3.493  50.795  1.00  0.00     0.196 HD
BRANCH   8  10
HETATM   10  O1  UNL     1      16.835  -2.507  49.399  1.00  0.00    -0.288 OA
ATOM     11  H1  UNL     1      17.004  -3.244  48.824  1.00  0.00     0.244 HD
ENDBRANCH   8  10
BRANCH   7  12
HETATM   12  C2  UNL     1      15.673  -0.190  50.379  1.00  0.00     0.070 A 
HETATM   13  C3  UNL     1      16.862   0.326  49.936  1.00  0.00     0.113 A 
HETATM   14  N2  UNL     1      16.880   1.554  49.535  1.00  0.00    -0.336 N 
HETATM   15  C4  UNL     1      15.773   2.278  49.558  1.00  0.00     0.231 A 
ATOM     16  H2  UNL     1      17.750   1.966  49.200  1.00  0.00     0.168 HD
HETATM   17  F1  UNL     1      15.605   3.593  49.172  1.00  0.00    -0.178 F 
HETATM   18  S1  UNL     1      14.632   1.173  50.180  1.00  0.00    -0.036 SA
ENDBRANCH   7  12
ENDBRANCH   1   7
BRANCH   4  19
HETATM   19  C8  UNL     1      11.271  -1.515  54.662  1.00  0.00    -0.054 A 
HETATM   20  C9  UNL     1      11.523  -2.638  55.416  1.00  0.00     0.009 A 
HETATM   21  C10 UNL     1      10.602  -3.195  56.279  1.00  0.00     0.024 A 
HETATM   22  C11 UNL     1       9.369  -2.591  56.386  1.00  0.00     0.034 A 
HETATM   23 CL1  UNL     1       8.135  -3.249  57.472  1.00  0.00    -0.084 Cl
HETATM   24  C12 UNL     1       9.115  -1.461  55.628  1.00  0.00     0.024 A 
HETATM   25  C13 UNL     1      10.032  -0.922  54.781  1.00  0.00     0.009 A 
ENDBRANCH   4  19
TORSDOF 4
ENDMDL
MODEL 2
REMARK VINA RESULT: -8.207018731      0.069      1.012
REMARK  4 active torsions:
REMARK  status: ('A' for Active; 'I' for Inactive)
REMARK    1  A    between atoms: O1_1  and  N1_3 
REMARK    2  A    between atoms: C1_5  and  C2_6 
REMARK    3  A    between atoms: C1_5  and  N3_13 
REMARK    4  A    between atoms: C7_16  and  C8_17 
ROOT
HETATM    1  N3  UNL     1      14.466  -1.740  51.941  1.00  0.00    -0.365 N 
HETATM    2  C5  UNL     1      13.143  -2.288  51.756  1.00  0.00     0.125 C 
HETATM    3  C6  UNL     1      12.152  -1.358  52.349  1.00  0.00     0.029 C 
HETATM    4  C7  UNL     1      12.391  -1.016  53.786  1.00  0.00     0.021 C 
HETATM    5  C14 UNL     1      13.746  -1.426  54.290  1.00  0.00     0.029 C 
HETATM    6  C15 UNL     1      14.827  -1.398  53.287  1.00  0.00     0.125 C 
ENDROOT
BRANCH   1   7
HETATM    7  C1  UNL     1      15.402  -1.534  50.881  1.00  0.00     0.142 C 
HETATM    8  N1  UNL     1      15.963  -2.572  50.392  1.00  0.00    -0.252 N 
ATOM      9  H1  UNL     1      15.727  -3.489  50.772  1.00  0.00     0.196 HD
BRANCH   8  10
HETATM   10  O1  UNL     1      16.873  -2.487  49.372  1.00  0.00    -0.288 OA
ATOM     11  H1  UNL     1      17.348  -3.248  49.061  1.00  0.00     0.244 HD
ENDBRANCH   8  10
BRANCH   7  12
HETATM   12  C2  UNL     1      15.700  -0.184  50.373  1.00  0.00     0.070 A 
HETATM   13  C3  UNL     1      16.883   0.346  49.930  1.00  0.00     0.113 A 
HETATM   14  N2  UNL     1      16.888   1.575  49.534  1.00  0.00    -0.336 N 
HETATM   15  C4  UNL     1      15.773   2.288  49.561  1.00  0.00     0.231 A 
ATOM     16  H2  UNL     1      17.753   1.998  49.199  1.00  0.00     0.168 HD
HETATM   17  F1  UNL     1      15.591   3.603  49.181  1.00  0.00    -0.178 F 
HETATM   18  S1  UNL     1      14.645   1.169  50.181  1.00  0.00    -0.036 SA
ENDBRANCH   7  12
ENDBRANCH   1   7
BRANCH   4  19
HETATM   19  C8  UNL     1      11.350  -1.560  54.691  1.00  0.00    -0.054 A 
HETATM   20  C9  UNL     1      10.124  -0.941  54.775  1.00  0.00     0.009 A 
HETATM   21  C10 UNL     1       9.104  -1.385  55.590  1.00  0.00     0.024 A 
HETATM   22  C11 UNL     1       9.332  -2.506  56.359  1.00  0.00     0.034 A 
HETATM   23 CL1  UNL     1       8.071  -3.134  57.431  1.00  0.00    -0.084 Cl
HETATM   24  C12 UNL     1      10.565  -3.129  56.275  1.00  0.00     0.024 A 
HETATM   25  C13 UNL     1      11.562  -2.680  55.466  1.00  0.00     0.009 A 
ENDBRANCH   4  19
TORSDOF 4
ENDMDL
MODEL 3
REMARK VINA RESULT: -7.859573991      6.495      9.055
REMARK  4 active torsions:
REMARK  status: ('A' for Active; 'I' for Inactive)
REMARK    1  A    between atoms: O1_1  and  N1_3 
REMARK    2  A    between atoms: C1_5  and  C2_6 
REMARK    3  A    between atoms: C1_5  and  N3_13 
REMARK    4  A    between atoms: C7_16  and  C8_17 
ROOT
HETATM    1  N3  UNL     1      10.416  -2.875  55.895  1.00  0.00    -0.365 N 
HETATM    2  C5  UNL     1      10.417  -1.532  55.363  1.00  0.00     0.125 C 
HETATM    3  C6  UNL     1      10.315  -1.602  53.885  1.00  0.00     0.029 C 
HETATM    4  C7  UNL     1      11.362  -2.440  53.220  1.00  0.00     0.021 C 
HETATM    5  C14 UNL     1      12.143  -3.302  54.171  1.00  0.00     0.029 C 
HETATM    6  C15 UNL     1      11.399  -3.771  55.355  1.00  0.00     0.125 C 
ENDROOT
BRANCH   1   7
HETATM    7  C1  UNL     1       9.514  -3.335  56.902  1.00  0.00     0.142 C 
HETATM    8  N1  UNL     1       9.000  -2.452  57.669  1.00  0.00    -0.252 N 
ATOM      9  H1  UNL     1       9.251  -1.472  57.535  1.00  0.00     0.196 HD
BRANCH   8  10
HETATM   10  O1  UNL     1       8.122  -2.784  58.665  1.00  0.00    -0.288 OA
ATOM     11  H1  UNL     1       8.068  -2.286  59.472  1.00  0.00     0.244 HD
ENDBRANCH   8  10
BRANCH   7  12
HETATM   12  C2  UNL     1       9.188  -4.764  57.046  1.00  0.00     0.070 A 
HETATM   13  C3  UNL     1       8.080  -5.459  56.637  1.00  0.00     0.113 A 
HETATM   14  N2  UNL     1       8.029  -6.724  56.889  1.00  0.00    -0.336 N 
HETATM   15  C4  UNL     1       9.027  -7.318  57.524  1.00  0.00     0.231 A 
ATOM     16  H2  UNL     1       7.217  -7.268  56.596  1.00  0.00     0.168 HD
HETATM   17  F1  UNL     1       9.143  -8.648  57.876  1.00  0.00    -0.178 F 
HETATM   18  S1  UNL     1      10.106  -6.024  57.787  1.00  0.00    -0.036 SA
ENDBRANCH   7  12
ENDBRANCH   1   7
BRANCH   4  19
HETATM   19  C8  UNL     1      12.304  -1.643  52.398  1.00  0.00    -0.054 A 
HETATM   20  C9  UNL     1      11.895  -1.135  51.187  1.00  0.00     0.009 A 
HETATM   21  C10 UNL     1      12.710  -0.385  50.365  1.00  0.00     0.024 A 
HETATM   22  C11 UNL     1      13.998  -0.136  50.785  1.00  0.00     0.034 A 
HETATM   23 CL1  UNL     1      15.103   0.819  49.782  1.00  0.00    -0.084 Cl
HETATM   24  C12 UNL     1      14.410  -0.646  52.003  1.00  0.00     0.024 A 
HETATM   25  C13 UNL     1      13.596  -1.385  52.804  1.00  0.00     0.009 A 
ENDBRANCH   4  19
TORSDOF 4
ENDMDL
MODEL 4
REMARK VINA RESULT: -7.811422005      6.506      9.023
REMARK  4 active torsions:
REMARK  status: ('A' for Active; 'I' for Inactive)
REMARK    1  A    between atoms: O1_1  and  N1_3 
REMARK    2  A    between atoms: C1_5  and  C2_6 
REMARK    3  A    between atoms: C1_5  and  N3_13 
REMARK    4  A    between atoms: C7_16  and  C8_17 
ROOT
HETATM    1  N3  UNL     1      10.411  -2.904  55.943  1.00  0.00    -0.365 N 
HETATM    2  C5  UNL     1      10.361  -1.586  55.355  1.00  0.00     0.125 C 
HETATM    3  C6  UNL     1      10.320  -1.721  53.879  1.00  0.00     0.029 C 
HETATM    4  C7  UNL     1      11.434  -2.526  53.288  1.00  0.00     0.021 C 
HETATM    5  C14 UNL     1      12.224  -3.305  54.303  1.00  0.00     0.029 C 
HETATM    6  C15 UNL     1      11.460  -3.765  55.478  1.00  0.00     0.125 C 
ENDROOT
BRANCH   1   7
HETATM    7  C1  UNL     1       9.497  -3.372  56.936  1.00  0.00     0.142 C 
HETATM    8  N1  UNL     1       8.974  -2.495  57.704  1.00  0.00    -0.252 N 
ATOM      9  H1  UNL     1       9.227  -1.514  57.581  1.00  0.00     0.196 HD
BRANCH   8  10
HETATM   10  O1  UNL     1       8.084  -2.835  58.686  1.00  0.00    -0.288 OA
ATOM     11  H1  UNL     1       8.016  -2.338  59.493  1.00  0.00     0.244 HD
ENDBRANCH   8  10
BRANCH   7  12
HETATM   12  C2  UNL     1       9.169  -4.802  57.064  1.00  0.00     0.070 A 
HETATM   13  C3  UNL     1       8.066  -5.493  56.637  1.00  0.00     0.113 A 
HETATM   14  N2  UNL     1       8.012  -6.760  56.878  1.00  0.00    -0.336 N 
HETATM   15  C4  UNL     1       9.002  -7.359  57.520  1.00  0.00     0.231 A 
ATOM     16  H2  UNL     1       7.203  -7.301  56.573  1.00  0.00     0.168 HD
HETATM   17  F1  UNL     1       9.114  -8.692  57.862  1.00  0.00    -0.178 F 
HETATM   18  S1  UNL     1      10.079  -6.068  57.806  1.00  0.00    -0.036 SA
ENDBRANCH   7  12
ENDBRANCH   1   7
BRANCH   4  19
HETATM   19  C8  UNL     1      12.363  -1.713  52.467  1.00  0.00    -0.054 A 
HETATM   20  C9  UNL     1      13.689  -1.624  52.821  1.00  0.00     0.009 A 
HETATM   21  C10 UNL     1      14.617  -0.891  52.111  1.00  0.00     0.024 A 
HETATM   22  C11 UNL     1      14.185  -0.214  50.991  1.00  0.00     0.034 A 
HETATM   23 CL1  UNL     1      15.318   0.749  50.029  1.00  0.00    -0.084 Cl
HETATM   24  C12 UNL     1      12.852  -0.303  50.634  1.00  0.00     0.024 A 
HETATM   25  C13 UNL     1      11.947  -1.031  51.344  1.00  0.00     0.009 A 
ENDBRANCH   4  19
TORSDOF 4
ENDMDL
MODEL 5
REMARK VINA RESULT: -7.803011592      6.216      8.709
REMARK  4 active torsions:
REMARK  status: ('A' for Active; 'I' for Inactive)
REMARK    1  A    between atoms: O1_1  and  N1_3 
REMARK    2  A    between atoms: C1_5  and  C2_6 
REMARK    3  A    between atoms: C1_5  and  N3_13 
REMARK    4  A    between atoms: C7_16  and  C8_17 
ROOT
HETATM    1  N3  UNL     1      11.692  -3.026  55.756  1.00  0.00    -0.365 N 
HETATM    2  C5  UNL     1      12.153  -1.677  55.524  1.00  0.00     0.125 C 
HETATM    3  C6  UNL     1      11.544  -1.172  54.270  1.00  0.00     0.029 C 
HETATM    4  C7  UNL     1      11.777  -2.028  53.066  1.00  0.00     0.021 C 
HETATM    5  C14 UNL     1      12.322  -3.392  53.388  1.00  0.00     0.029 C 
HETATM    6  C15 UNL     1      11.889  -3.956  54.680  1.00  0.00     0.125 C 
ENDROOT
BRANCH   1   7
HETATM    7  C1  UNL     1      11.076  -3.463  56.968  1.00  0.00     0.142 C 
HETATM    8  N1  UNL     1      11.440  -2.885  58.047  1.00  0.00    -0.252 N 
ATOM      9  H1  UNL     1      12.145  -2.149  58.001  1.00  0.00     0.196 HD
BRANCH   8  10
HETATM   10  O1  UNL     1      10.910  -3.225  59.262  1.00  0.00    -0.288 OA
ATOM     11  H1  UNL     1      11.377  -3.066  60.074  1.00  0.00     0.244 HD
ENDBRANCH   8  10
BRANCH   7  12
HETATM   12  C2  UNL     1      10.061  -4.531  56.970  1.00  0.00     0.070 A 
HETATM   13  C3  UNL     1       8.710  -4.460  56.755  1.00  0.00     0.113 A 
HETATM   14  N2  UNL     1       8.027  -5.554  56.816  1.00  0.00    -0.336 N 
HETATM   15  C4  UNL     1       8.629  -6.702  57.080  1.00  0.00     0.231 A 
ATOM     16  H2  UNL     1       7.019  -5.533  56.660  1.00  0.00     0.168 HD
HETATM   17  F1  UNL     1       8.065  -7.958  57.185  1.00  0.00    -0.178 F 
HETATM   18  S1  UNL     1      10.257  -6.222  57.255  1.00  0.00    -0.036 SA
ENDBRANCH   7  12
ENDBRANCH   1   7
BRANCH   4  19
HETATM   19  C8  UNL     1      12.648  -1.382  52.056  1.00  0.00    -0.054 A 
HETATM   20  C9  UNL     1      13.982  -1.183  52.329  1.00  0.00     0.009 A 
HETATM   21  C10 UNL     1      14.858  -0.591  51.443  1.00  0.00     0.024 A 
HETATM   22  C11 UNL     1      14.364  -0.179  50.224  1.00  0.00     0.034 A 
HETATM   23 CL1  UNL     1      15.429   0.590  49.036  1.00  0.00    -0.084 Cl
HETATM   24  C12 UNL     1      13.024  -0.380  49.948  1.00  0.00     0.024 A 
HETATM   25  C13 UNL     1      12.171  -0.965  50.832  1.00  0.00     0.009 A 
ENDBRANCH   4  19
TORSDOF 4
ENDMDL
