MODEL 1
REMARK VINA RESULT: -8.000370141      0.000      0.000
REMARK  2 active torsions:
REMARK  status: ('A' for Active; 'I' for Inactive)
REMARK    1  A    between atoms: C1_2  and  C2_3 
REMARK       I    between atoms: C1_2  and  N1_7 
REMARK    2  A    between atoms: C2_3  and  S1_5 
ROOT
HETATM    1  O1  UNL     1      13.246   1.091  51.219  1.00  0.00    -0.269 OA
HETATM    2  C1  UNL     1      13.996   0.294  50.644  1.00  0.00     0.272 C 
HETATM    3  N1  UNL     1      13.986  -1.078  50.906  1.00  0.00    -0.220 N 
HETATM    4  N2  UNL     1      14.889  -1.789  50.273  1.00  0.00    -0.290 N 
ATOM      5  H2  UNL     1      14.993  -1.532  49.290  1.00  0.00     0.188 HD
HETATM    6  C3  UNL     1      15.715  -2.801  50.662  1.00  0.00     0.065 A 
HETATM    7  C4  UNL     1      16.707  -3.071  49.720  1.00  0.00     0.032 A 
HETATM    8  C5  UNL     1      17.642  -4.053  49.928  1.00  0.00     0.002 A 
HETATM    9  C6  UNL     1      17.638  -4.809  51.073  1.00  0.00     0.002 A 
HETATM   10  C7  UNL     1      16.654  -4.564  52.041  1.00  0.00     0.021 A 
HETATM   11  C8  UNL     1      15.726  -3.576  51.812  1.00  0.00     0.033 A 
HETATM   12  S2  UNL     1      14.543  -3.358  53.067  1.00  0.00    -0.086 SA
HETATM   13  C9  UNL     1      13.082  -2.443  52.773  1.00  0.00     0.034 A 
HETATM   14  C10 UNL     1      12.018  -2.756  53.572  1.00  0.00     0.021 A 
HETATM   15  C11 UNL     1      10.824  -2.125  53.363  1.00  0.00     0.002 A 
HETATM   16  C12 UNL     1      10.739  -1.184  52.339  1.00  0.00     0.002 A 
HETATM   17  C13 UNL     1      11.809  -0.875  51.541  1.00  0.00     0.033 A 
HETATM   18  C14 UNL     1      13.048  -1.507  51.738  1.00  0.00     0.077 A 
ENDROOT
BRANCH   2  19
HETATM   19  C2  UNL     1      14.921   0.902  49.631  1.00  0.00     0.253 C 
HETATM   20 CL1  UNL     1      16.616   0.548  49.989  1.00  0.00    -0.102 Cl
BRANCH  19  21
HETATM   21  S1  UNL     1      14.785   2.732  49.662  1.00  0.00    -0.029 SA
HETATM   22 CL2  UNL     1      16.187   3.493  48.292  1.00  0.00    -0.042 Cl
ENDBRANCH  19  21
ENDBRANCH   2  19
TORSDOF 2
ENDMDL
MODEL 2
REMARK VINA RESULT: -7.759777608      3.212      4.784
REMARK  2 active torsions:
REMARK  status: ('A' for Active; 'I' for Inactive)
REMARK    1  A    between atoms: C1_2  and  C2_3 
REMARK       I    between atoms: C1_2  and  N1_7 
REMARK    2  A    between atoms: C2_3  and  S1_5 
ROOT
HETATM    1  O1  UNL     1      13.663  -4.988  53.174  1.00  0.00    -0.269 OA
HETATM    2  C1  UNL     1      14.548  -4.205  52.813  1.00  0.00     0.272 C 
HETATM    3  N1  UNL     1      14.297  -2.863  52.516  1.00  0.00    -0.220 N 
HETATM    4  N2  UNL     1      15.322  -2.173  52.076  1.00  0.00    -0.290 N 
ATOM      5  H2  UNL     1      16.185  -2.353  52.589  1.00  0.00     0.188 HD
HETATM    6  C3  UNL     1      15.465  -1.263  51.071  1.00  0.00     0.065 A 
HETATM    7  C4  UNL     1      16.803  -0.991  50.786  1.00  0.00     0.032 A 
HETATM    8  C5  UNL     1      17.158  -0.104  49.801  1.00  0.00     0.002 A 
HETATM    9  C6  UNL     1      16.209   0.551  49.057  1.00  0.00     0.002 A 
HETATM   10  C7  UNL     1      14.855   0.301  49.318  1.00  0.00     0.021 A 
HETATM   11  C8  UNL     1      14.521  -0.591  50.309  1.00  0.00     0.033 A 
HETATM   12  S2  UNL     1      12.817  -0.823  50.562  1.00  0.00    -0.086 SA
HETATM   13  C9  UNL     1      12.223  -1.596  52.014  1.00  0.00     0.034 A 
HETATM   14  C10 UNL     1      10.945  -1.271  52.375  1.00  0.00     0.021 A 
HETATM   15  C11 UNL     1      10.431  -1.790  53.530  1.00  0.00     0.002 A 
HETATM   16  C12 UNL     1      11.234  -2.632  54.296  1.00  0.00     0.002 A 
HETATM   17  C13 UNL     1      12.514  -2.953  53.929  1.00  0.00     0.033 A 
HETATM   18  C14 UNL     1      13.064  -2.436  52.745  1.00  0.00     0.077 A 
ENDROOT
BRANCH   2  19
HETATM   19  C2  UNL     1      15.926  -4.795  52.721  1.00  0.00     0.253 C 
HETATM   20 CL1  UNL     1      15.877  -6.542  52.450  1.00  0.00    -0.102 Cl
BRANCH  19  21
HETATM   21  S1  UNL     1      16.823  -4.568  54.305  1.00  0.00    -0.029 SA
HETATM   22 CL2  UNL     1      18.178  -2.981  54.042  1.00  0.00    -0.042 Cl
ENDBRANCH  19  21
ENDBRANCH   2  19
TORSDOF 2
ENDMDL
MODEL 3
REMARK VINA RESULT: -7.595996009      3.576      5.084
REMARK  2 active torsions:
REMARK  status: ('A' for Active; 'I' for Inactive)
REMARK    1  A    between atoms: C1_2  and  C2_3 
REMARK       I    between atoms: C1_2  and  N1_7 
REMARK    2  A    between atoms: C2_3  and  S1_5 
ROOT
HETATM    1  O1  UNL     1      11.838  -1.199  51.417  1.00  0.00    -0.269 OA
HETATM    2  C1  UNL     1      12.495  -1.344  52.454  1.00  0.00     0.272 C 
HETATM    3  N1  UNL     1      13.862  -1.068  52.529  1.00  0.00    -0.220 N 
HETATM    4  N2  UNL     1      14.440  -1.340  53.675  1.00  0.00    -0.290 N 
ATOM      5  H2  UNL     1      13.891  -1.052  54.486  1.00  0.00     0.188 HD
HETATM    6  C3  UNL     1      15.626  -1.929  54.001  1.00  0.00     0.065 A 
HETATM    7  C4  UNL     1      15.701  -2.260  55.353  1.00  0.00     0.032 A 
HETATM    8  C5  UNL     1      16.815  -2.867  55.879  1.00  0.00     0.002 A 
HETATM    9  C6  UNL     1      17.897  -3.171  55.093  1.00  0.00     0.002 A 
HETATM   10  C7  UNL     1      17.854  -2.851  53.729  1.00  0.00     0.021 A 
HETATM   11  C8  UNL     1      16.730  -2.244  53.223  1.00  0.00     0.033 A 
HETATM   12  S2  UNL     1      16.779  -1.879  51.524  1.00  0.00    -0.086 SA
HETATM   13  C9  UNL     1      15.630  -0.771  50.811  1.00  0.00     0.034 A 
HETATM   14  C10 UNL     1      16.042  -0.149  49.666  1.00  0.00     0.021 A 
HETATM   15  C11 UNL     1      15.222   0.775  49.081  1.00  0.00     0.002 A 
HETATM   16  C12 UNL     1      13.994   1.048  49.681  1.00  0.00     0.002 A 
HETATM   17  C13 UNL     1      13.587   0.422  50.829  1.00  0.00     0.033 A 
HETATM   18  C14 UNL     1      14.410  -0.534  51.447  1.00  0.00     0.077 A 
ENDROOT
BRANCH   2  19
HETATM   19  C2  UNL     1      11.718  -1.835  53.641  1.00  0.00     0.253 C 
HETATM   20 CL1  UNL     1      11.783  -3.596  53.789  1.00  0.00    -0.102 Cl
BRANCH  19  21
HETATM   21  S1  UNL     1       9.939  -1.424  53.451  1.00  0.00    -0.029 SA
HETATM   22 CL2  UNL     1       9.219  -0.850  55.342  1.00  0.00    -0.042 Cl
ENDBRANCH  19  21
ENDBRANCH   2  19
TORSDOF 2
ENDMDL
MODEL 4
REMARK VINA RESULT: -7.591133678      3.141      5.817
REMARK  2 active torsions:
REMARK  status: ('A' for Active; 'I' for Inactive)
REMARK    1  A    between atoms: C1_2  and  C2_3 
REMARK       I    between atoms: C1_2  and  N1_7 
REMARK    2  A    between atoms: C2_3  and  S1_5 
ROOT
HETATM    1  O1  UNL     1      15.368  -2.861  53.656  1.00  0.00    -0.269 OA
HETATM    2  C1  UNL     1      14.757  -1.956  53.078  1.00  0.00     0.272 C 
HETATM    3  N1  UNL     1      15.020  -1.590  51.755  1.00  0.00    -0.220 N 
HETATM    4  N2  UNL     1      14.342  -0.564  51.299  1.00  0.00    -0.290 N 
ATOM      5  H2  UNL     1      13.356  -0.577  51.561  1.00  0.00     0.188 HD
HETATM    6  C3  UNL     1      14.691   0.518  50.545  1.00  0.00     0.065 A 
HETATM    7  C4  UNL     1      13.701   1.500  50.534  1.00  0.00     0.032 A 
HETATM    8  C5  UNL     1      13.864   2.670  49.836  1.00  0.00     0.002 A 
HETATM    9  C6  UNL     1      15.007   2.919  49.120  1.00  0.00     0.002 A 
HETATM   10  C7  UNL     1      16.022   1.952  49.110  1.00  0.00     0.021 A 
HETATM   11  C8  UNL     1      15.839   0.787  49.816  1.00  0.00     0.033 A 
HETATM   12  S2  UNL     1      17.150  -0.351  49.731  1.00  0.00    -0.086 SA
HETATM   13  C9  UNL     1      16.928  -2.014  50.225  1.00  0.00     0.034 A 
HETATM   14  C10 UNL     1      17.778  -2.918  49.653  1.00  0.00     0.021 A 
HETATM   15  C11 UNL     1      17.629  -4.245  49.945  1.00  0.00     0.002 A 
HETATM   16  C12 UNL     1      16.610  -4.623  50.816  1.00  0.00     0.002 A 
HETATM   17  C13 UNL     1      15.760  -3.712  51.386  1.00  0.00     0.033 A 
HETATM   18  C14 UNL     1      15.896  -2.342  51.105  1.00  0.00     0.077 A 
ENDROOT
BRANCH   2  19
HETATM   19  C2  UNL     1      13.699  -1.273  53.895  1.00  0.00     0.253 C 
HETATM   20 CL1  UNL     1      14.111  -1.247  55.615  1.00  0.00    -0.102 Cl
BRANCH  19  21
HETATM   21  S1  UNL     1      12.115  -2.192  53.783  1.00  0.00    -0.029 SA
HETATM   22 CL2  UNL     1      10.956  -1.273  52.288  1.00  0.00    -0.042 Cl
ENDBRANCH  19  21
ENDBRANCH   2  19
TORSDOF 2
ENDMDL
MODEL 5
REMARK VINA RESULT: -7.565383538      3.410      5.343
REMARK  2 active torsions:
REMARK  status: ('A' for Active; 'I' for Inactive)
REMARK    1  A    between atoms: C1_2  and  C2_3 
REMARK       I    between atoms: C1_2  and  N1_7 
REMARK    2  A    between atoms: C2_3  and  S1_5 
ROOT
HETATM    1  O1  UNL     1      13.334  -3.005  54.913  1.00  0.00    -0.269 OA
HETATM    2  C1  UNL     1      13.162  -2.183  54.006  1.00  0.00     0.272 C 
HETATM    3  N1  UNL     1      13.829  -2.260  52.780  1.00  0.00    -0.220 N 
HETATM    4  N2  UNL     1      13.601  -1.277  51.942  1.00  0.00    -0.290 N 
ATOM      5  H2  UNL     1      12.619  -1.005  51.890  1.00  0.00     0.188 HD
HETATM    6  C3  UNL     1      14.413  -0.544  51.127  1.00  0.00     0.065 A 
HETATM    7  C4  UNL     1      13.775   0.586  50.618  1.00  0.00     0.032 A 
HETATM    8  C5  UNL     1      14.426   1.457  49.780  1.00  0.00     0.002 A 
HETATM    9  C6  UNL     1      15.730   1.249  49.411  1.00  0.00     0.002 A 
HETATM   10  C7  UNL     1      16.401   0.122  49.905  1.00  0.00     0.021 A 
HETATM   11  C8  UNL     1      15.731  -0.738  50.742  1.00  0.00     0.033 A 
HETATM   12  S2  UNL     1      16.646  -2.110  51.292  1.00  0.00    -0.086 SA
HETATM   13  C9  UNL     1      15.849  -3.486  52.021  1.00  0.00     0.034 A 
HETATM   14  C10 UNL     1      16.520  -4.673  51.929  1.00  0.00     0.021 A 
HETATM   15  C11 UNL     1      15.935  -5.805  52.424  1.00  0.00     0.002 A 
HETATM   16  C12 UNL     1      14.672  -5.702  53.003  1.00  0.00     0.002 A 
HETATM   17  C13 UNL     1      14.004  -4.509  53.091  1.00  0.00     0.033 A 
HETATM   18  C14 UNL     1      14.586  -3.331  52.593  1.00  0.00     0.077 A 
ENDROOT
BRANCH   2  19
HETATM   19  C2  UNL     1      12.177  -1.092  54.308  1.00  0.00     0.253 C 
HETATM   20 CL1  UNL     1      12.674  -0.124  55.702  1.00  0.00    -0.102 Cl
BRANCH  19  21
HETATM   21  S1  UNL     1      10.551  -1.810  54.762  1.00  0.00    -0.029 SA
HETATM   22 CL2  UNL     1       9.207  -1.365  53.206  1.00  0.00    -0.042 Cl
ENDBRANCH  19  21
ENDBRANCH   2  19
TORSDOF 2
ENDMDL
