MODEL 1
REMARK VINA RESULT: -7.899666681      0.000      0.000
REMARK  5 active torsions:
REMARK  status: ('A' for Active; 'I' for Inactive)
REMARK    1  A    between atoms: C2_2  and  C3_3 
REMARK       I    between atoms: C3_3  and  N1_5 
REMARK    2  A    between atoms: N1_5  and  C4_7 
REMARK       I    between atoms: N2_11  and  C8_13 
REMARK    3  A    between atoms: C8_13  and  C9_15 
REMARK    4  A    between atoms: C11_17  and  N3_19 
REMARK    5  A    between atoms: C13_22  and  C14_23 
ROOT
HETATM    1  C4  UNL     1       2.174   5.727 -13.703  1.00  0.00     0.179 C 
HETATM    2  C5  UNL     1       1.555   4.809 -14.770  1.00  0.00     0.066 C 
HETATM    3  C6  UNL     1       1.165   3.607 -13.967  1.00  0.00     0.139 C 
HETATM    4  C7  UNL     1      -0.077   2.915 -14.273  1.00  0.00     0.046 C 
HETATM    5  N2  UNL     1      -0.560   2.240 -15.238  1.00  0.00    -0.326 N 
ATOM      6  H2  UNL     1      -1.506   1.866 -15.150  1.00  0.00     0.168 HD
HETATM    7  C8  UNL     1       0.165   1.988 -16.429  1.00  0.00     0.254 C 
HETATM    8  O2  UNL     1       0.527   2.986 -17.141  1.00  0.00    -0.268 OA
HETATM    9  C13 UNL     1      -0.602   3.343 -12.948  1.00  0.00     0.237 C 
HETATM   10  N4  UNL     1       0.505   4.280 -12.823  1.00  0.00    -0.320 N 
HETATM   11  C15 UNL     1       1.420   5.300 -12.479  1.00  0.00     0.244 C 
HETATM   12  O5  UNL     1       1.571   5.775 -11.300  1.00  0.00    -0.271 OA
ENDROOT
BRANCH   9  13
HETATM   13  C14 UNL     1      -0.628   2.346 -11.882  1.00  0.00     0.203 C 
HETATM   14  O3  UNL     1      -1.682   1.718 -11.639  1.00  0.00    -0.646 OA
HETATM   15  O4  UNL     1       0.506   2.093 -11.140  1.00  0.00    -0.646 OA
ENDBRANCH   9  13
BRANCH   7  16
HETATM   16  C9  UNL     1       0.524   0.676 -16.895  1.00  0.00     0.044 C 
HETATM   17  C10 UNL     1      -0.360  -0.024 -17.895  1.00  0.00     0.057 C 
HETATM   18  C11 UNL     1       1.588  -0.007 -16.525  1.00  0.00     0.110 C 
HETATM   19 CL1  UNL     1       2.674   0.724 -15.366  1.00  0.00    -0.064 Cl
BRANCH  18  20
HETATM   20  N3  UNL     1       1.914  -1.289 -16.998  1.00  0.00    -0.384 N 
HETATM   21  C12 UNL     1       3.223  -1.770 -17.318  1.00  0.00     0.147 C 
ATOM     22  H3  UNL     1       1.141  -1.942 -17.126  1.00  0.00     0.160 HD
ENDBRANCH  18  20
ENDBRANCH   7  16
BRANCH   1  23
HETATM   23  N1  UNL     1       1.749   7.080 -13.998  1.00  0.00    -0.348 N 
HETATM   24  C3  UNL     1       2.495   7.966 -14.801  1.00  0.00     0.217 C 
HETATM   25  O1  UNL     1       3.580   7.590 -15.294  1.00  0.00    -0.274 OA
ATOM     26  H1  UNL     1       0.867   7.408 -13.605  1.00  0.00     0.163 HD
BRANCH  24  27
HETATM   27  C2  UNL     1       2.018   9.335 -15.073  1.00  0.00     0.098 C 
HETATM   28  C1  UNL     1       3.131  10.141 -15.667  1.00  0.00     0.014 C 
ENDBRANCH  24  27
ENDBRANCH   1  23
TORSDOF 5
ENDMDL
MODEL 2
REMARK VINA RESULT: -7.756387396      1.177      1.370
REMARK  5 active torsions:
REMARK  status: ('A' for Active; 'I' for Inactive)
REMARK    1  A    between atoms: C2_2  and  C3_3 
REMARK       I    between atoms: C3_3  and  N1_5 
REMARK    2  A    between atoms: N1_5  and  C4_7 
REMARK       I    between atoms: N2_11  and  C8_13 
REMARK    3  A    between atoms: C8_13  and  C9_15 
REMARK    4  A    between atoms: C11_17  and  N3_19 
REMARK    5  A    between atoms: C13_22  and  C14_23 
ROOT
HETATM    1  C4  UNL     1       1.966   6.176 -13.421  1.00  0.00     0.179 C 
HETATM    2  C5  UNL     1       1.701   5.146 -14.532  1.00  0.00     0.066 C 
HETATM    3  C6  UNL     1       1.129   3.993 -13.765  1.00  0.00     0.139 C 
HETATM    4  C7  UNL     1       0.043   3.218 -14.345  1.00  0.00     0.046 C 
HETATM    5  N2  UNL     1      -0.128   2.445 -15.341  1.00  0.00    -0.326 N 
ATOM      6  H2  UNL     1      -1.049   2.033 -15.490  1.00  0.00     0.168 HD
HETATM    7  C8  UNL     1       0.913   2.136 -16.252  1.00  0.00     0.254 C 
HETATM    8  O2  UNL     1       1.437   3.091 -16.921  1.00  0.00    -0.268 OA
HETATM    9  C13 UNL     1      -0.848   3.724 -13.265  1.00  0.00     0.237 C 
HETATM   10  N4  UNL     1       0.153   4.722 -12.920  1.00  0.00    -0.320 N 
HETATM   11  C15 UNL     1       0.906   5.811 -12.425  1.00  0.00     0.244 C 
HETATM   12  O5  UNL     1       0.703   6.384 -11.300  1.00  0.00    -0.271 OA
ENDROOT
BRANCH   9  13
HETATM   13  C14 UNL     1      -1.151   2.815 -12.164  1.00  0.00     0.203 C 
HETATM   14  O3  UNL     1      -1.643   1.689 -12.400  1.00  0.00    -0.646 OA
HETATM   15  O4  UNL     1      -0.897   3.191 -10.863  1.00  0.00    -0.646 OA
ENDBRANCH   9  13
BRANCH   7  16
HETATM   16  C9  UNL     1       1.423   0.811 -16.477  1.00  0.00     0.044 C 
HETATM   17  C10 UNL     1       2.604   0.324 -15.677  1.00  0.00     0.057 C 
HETATM   18  C11 UNL     1       0.948  -0.059 -17.345  1.00  0.00     0.110 C 
HETATM   19 CL1  UNL     1      -0.423   0.417 -18.320  1.00  0.00    -0.064 Cl
BRANCH  18  20
HETATM   20  N3  UNL     1       1.466  -1.349 -17.543  1.00  0.00    -0.384 N 
HETATM   21  C12 UNL     1       2.384  -1.750 -18.565  1.00  0.00     0.147 C 
ATOM     22  H3  UNL     1       1.158  -2.073 -16.894  1.00  0.00     0.160 HD
ENDBRANCH  18  20
ENDBRANCH   7  16
BRANCH   1  23
HETATM   23  N1  UNL     1       1.609   7.478 -13.945  1.00  0.00    -0.348 N 
HETATM   24  C3  UNL     1       2.446   8.224 -14.799  1.00  0.00     0.217 C 
HETATM   25  O1  UNL     1       3.557   7.760 -15.136  1.00  0.00    -0.274 OA
ATOM     26  H1  UNL     1       0.707   7.875 -13.682  1.00  0.00     0.163 HD
BRANCH  24  27
HETATM   27  C2  UNL     1       2.035   9.546 -15.307  1.00  0.00     0.098 C 
HETATM   28  C1  UNL     1       3.160  10.150 -16.088  1.00  0.00     0.014 C 
ENDBRANCH  24  27
ENDBRANCH   1  23
TORSDOF 5
ENDMDL
MODEL 3
REMARK VINA RESULT: -7.410114959      3.129      7.435
REMARK  5 active torsions:
REMARK  status: ('A' for Active; 'I' for Inactive)
REMARK    1  A    between atoms: C2_2  and  C3_3 
REMARK       I    between atoms: C3_3  and  N1_5 
REMARK    2  A    between atoms: N1_5  and  C4_7 
REMARK       I    between atoms: N2_11  and  C8_13 
REMARK    3  A    between atoms: C8_13  and  C9_15 
REMARK    4  A    between atoms: C11_17  and  N3_19 
REMARK    5  A    between atoms: C13_22  and  C14_23 
ROOT
HETATM    1  C4  UNL     1       0.582   2.197 -15.934  1.00  0.00     0.179 C 
HETATM    2  C5  UNL     1       0.937   3.678 -16.148  1.00  0.00     0.066 C 
HETATM    3  C6  UNL     1       2.138   3.846 -15.270  1.00  0.00     0.139 C 
HETATM    4  C7  UNL     1       3.239   4.686 -15.716  1.00  0.00     0.046 C 
HETATM    5  N2  UNL     1       3.435   5.918 -15.965  1.00  0.00    -0.326 N 
ATOM      6  H2  UNL     1       4.360   6.214 -16.276  1.00  0.00     0.168 HD
HETATM    7  C8  UNL     1       2.417   6.894 -15.825  1.00  0.00     0.254 C 
HETATM    8  O2  UNL     1       1.369   6.785 -16.549  1.00  0.00    -0.268 OA
HETATM    9  C13 UNL     1       4.092   3.468 -15.792  1.00  0.00     0.237 C 
HETATM   10  N4  UNL     1       2.902   2.639 -15.666  1.00  0.00    -0.320 N 
HETATM   11  C15 UNL     1       1.929   1.615 -15.627  1.00  0.00     0.244 C 
HETATM   12  O5  UNL     1       2.176   0.387 -15.368  1.00  0.00    -0.271 OA
ENDROOT
BRANCH   9  13
HETATM   13  C14 UNL     1       5.053   3.254 -14.714  1.00  0.00     0.203 C 
HETATM   14  O3  UNL     1       6.102   2.609 -14.931  1.00  0.00    -0.646 OA
HETATM   15  O4  UNL     1       4.809   3.760 -13.455  1.00  0.00    -0.646 OA
ENDBRANCH   9  13
BRANCH   7  16
HETATM   16  C9  UNL     1       2.484   8.009 -14.919  1.00  0.00     0.044 C 
HETATM   17  C10 UNL     1       3.195   9.268 -15.343  1.00  0.00     0.057 C 
HETATM   18  C11 UNL     1       1.968   8.047 -13.708  1.00  0.00     0.110 C 
HETATM   19 CL1  UNL     1       1.123   6.630 -13.128  1.00  0.00    -0.064 Cl
BRANCH  18  20
HETATM   20  N3  UNL     1       2.048   9.151 -12.844  1.00  0.00    -0.384 N 
HETATM   21  C12 UNL     1       1.142   9.469 -11.784  1.00  0.00     0.147 C 
ATOM     22  H3  UNL     1       2.830   9.790 -12.986  1.00  0.00     0.160 HD
ENDBRANCH  18  20
ENDBRANCH   7  16
BRANCH   1  23
HETATM   23  N1  UNL     1       0.182   1.659 -17.218  1.00  0.00    -0.348 N 
HETATM   24  C3  UNL     1      -1.030   0.969 -17.423  1.00  0.00     0.217 C 
HETATM   25  O1  UNL     1      -1.815   0.800 -16.466  1.00  0.00    -0.274 OA
ATOM     26  H1  UNL     1       0.809   1.784 -18.012  1.00  0.00     0.163 HD
BRANCH  24  27
HETATM   27  C2  UNL     1      -1.392   0.440 -18.752  1.00  0.00     0.098 C 
HETATM   28  C1  UNL     1      -2.832   0.035 -18.750  1.00  0.00     0.014 C 
ENDBRANCH  24  27
ENDBRANCH   1  23
TORSDOF 5
ENDMDL
MODEL 4
REMARK VINA RESULT: -7.336602257      3.019      7.305
REMARK  5 active torsions:
REMARK  status: ('A' for Active; 'I' for Inactive)
REMARK    1  A    between atoms: C2_2  and  C3_3 
REMARK       I    between atoms: C3_3  and  N1_5 
REMARK    2  A    between atoms: N1_5  and  C4_7 
REMARK       I    between atoms: N2_11  and  C8_13 
REMARK    3  A    between atoms: C8_13  and  C9_15 
REMARK    4  A    between atoms: C11_17  and  N3_19 
REMARK    5  A    between atoms: C13_22  and  C14_23 
ROOT
HETATM    1  C4  UNL     1       0.642   1.577 -15.749  1.00  0.00     0.179 C 
HETATM    2  C5  UNL     1       0.735   3.110 -15.675  1.00  0.00     0.066 C 
HETATM    3  C6  UNL     1       1.971   3.314 -14.855  1.00  0.00     0.139 C 
HETATM    4  C7  UNL     1       2.876   4.404 -15.184  1.00  0.00     0.046 C 
HETATM    5  N2  UNL     1       2.849   5.676 -15.186  1.00  0.00    -0.326 N 
ATOM      6  H2  UNL     1       3.681   6.184 -15.485  1.00  0.00     0.168 HD
HETATM    7  C8  UNL     1       1.705   6.413 -14.789  1.00  0.00     0.254 C 
HETATM    8  O2  UNL     1       0.625   6.263 -15.456  1.00  0.00    -0.268 OA
HETATM    9  C13 UNL     1       3.902   3.393 -15.559  1.00  0.00     0.237 C 
HETATM   10  N4  UNL     1       2.877   2.359 -15.535  1.00  0.00    -0.320 N 
HETATM   11  C15 UNL     1       2.089   1.192 -15.649  1.00  0.00     0.244 C 
HETATM   12  O5  UNL     1       2.552  -0.000 -15.662  1.00  0.00    -0.271 OA
ENDROOT
BRANCH   9  13
HETATM   13  C14 UNL     1       4.981   3.148 -14.607  1.00  0.00     0.203 C 
HETATM   14  O3  UNL     1       5.836   2.267 -14.845  1.00  0.00    -0.646 OA
HETATM   15  O4  UNL     1       5.063   3.884 -13.445  1.00  0.00    -0.646 OA
ENDBRANCH   9  13
BRANCH   7  16
HETATM   16  C9  UNL     1       1.678   7.327 -13.680  1.00  0.00     0.044 C 
HETATM   17  C10 UNL     1       2.090   8.762 -13.890  1.00  0.00     0.057 C 
HETATM   18  C11 UNL     1       1.315   7.031 -12.448  1.00  0.00     0.110 C 
HETATM   19 CL1  UNL     1       0.820   5.389 -12.109  1.00  0.00    -0.064 Cl
BRANCH  18  20
HETATM   20  N3  UNL     1       1.297   7.946 -11.383  1.00  0.00    -0.384 N 
HETATM   21  C12 UNL     1       0.626   7.781 -10.130  1.00  0.00     0.147 C 
ATOM     22  H3  UNL     1       1.814   8.815 -11.515  1.00  0.00     0.160 HD
ENDBRANCH  18  20
ENDBRANCH   7  16
BRANCH   1  23
HETATM   23  N1  UNL     1       0.216   1.233 -17.089  1.00  0.00    -0.348 N 
HETATM   24  C3  UNL     1      -1.111   0.884 -17.413  1.00  0.00     0.217 C 
HETATM   25  O1  UNL     1      -1.980   0.861 -16.515  1.00  0.00    -0.274 OA
ATOM     26  H1  UNL     1       0.910   1.244 -17.836  1.00  0.00     0.163 HD
BRANCH  24  27
HETATM   27  C2  UNL     1      -1.495   0.542 -18.795  1.00  0.00     0.098 C 
HETATM   28  C1  UNL     1      -2.877  -0.033 -18.799  1.00  0.00     0.014 C 
ENDBRANCH  24  27
ENDBRANCH   1  23
TORSDOF 5
ENDMDL
MODEL 5
REMARK VINA RESULT: -7.319141883      3.327      7.609
REMARK  5 active torsions:
REMARK  status: ('A' for Active; 'I' for Inactive)
REMARK    1  A    between atoms: C2_2  and  C3_3 
REMARK       I    between atoms: C3_3  and  N1_5 
REMARK    2  A    between atoms: N1_5  and  C4_7 
REMARK       I    between atoms: N2_11  and  C8_13 
REMARK    3  A    between atoms: C8_13  and  C9_15 
REMARK    4  A    between atoms: C11_17  and  N3_19 
REMARK    5  A    between atoms: C13_22  and  C14_23 
ROOT
HETATM    1  C4  UNL     1       0.769   1.248 -16.254  1.00  0.00     0.179 C 
HETATM    2  C5  UNL     1       0.817   2.775 -16.078  1.00  0.00     0.066 C 
HETATM    3  C6  UNL     1       2.129   2.973 -15.383  1.00  0.00     0.139 C 
HETATM    4  C7  UNL     1       2.954   4.120 -15.728  1.00  0.00     0.046 C 
HETATM    5  N2  UNL     1       2.883   5.387 -15.633  1.00  0.00    -0.326 N 
ATOM      6  H2  UNL     1       3.660   5.950 -15.982  1.00  0.00     0.168 HD
HETATM    7  C8  UNL     1       1.767   6.046 -15.060  1.00  0.00     0.254 C 
HETATM    8  O2  UNL     1       0.625   5.898 -15.615  1.00  0.00    -0.268 OA
HETATM    9  C13 UNL     1       3.965   3.182 -16.286  1.00  0.00     0.237 C 
HETATM   10  N4  UNL     1       2.986   2.107 -16.227  1.00  0.00    -0.320 N 
HETATM   11  C15 UNL     1       2.229   0.919 -16.341  1.00  0.00     0.244 C 
HETATM   12  O5  UNL     1       2.728  -0.250 -16.492  1.00  0.00    -0.271 OA
ENDROOT
BRANCH   9  13
HETATM   13  C14 UNL     1       5.152   2.916 -15.478  1.00  0.00     0.203 C 
HETATM   14  O3  UNL     1       6.126   2.312 -15.978  1.00  0.00    -0.646 OA
HETATM   15  O4  UNL     1       5.204   3.330 -14.164  1.00  0.00    -0.646 OA
ENDBRANCH   9  13
BRANCH   7  16
HETATM   16  C9  UNL     1       1.832   6.879 -13.890  1.00  0.00     0.044 C 
HETATM   17  C10 UNL     1       1.732   6.248 -12.524  1.00  0.00     0.057 C 
HETATM   18  C11 UNL     1       1.976   8.188 -13.884  1.00  0.00     0.110 C 
HETATM   19 CL1  UNL     1       2.100   9.008 -15.423  1.00  0.00    -0.064 Cl
BRANCH  18  20
HETATM   20  N3  UNL     1       2.037   8.976 -12.724  1.00  0.00    -0.384 N 
HETATM   21  C12 UNL     1       2.010  10.406 -12.664  1.00  0.00     0.147 C 
ATOM     22  H3  UNL     1       2.108   8.481 -11.835  1.00  0.00     0.160 HD
ENDBRANCH  18  20
ENDBRANCH   7  16
BRANCH   1  23
HETATM   23  N1  UNL     1       0.207   0.981 -17.561  1.00  0.00    -0.348 N 
HETATM   24  C3  UNL     1      -1.159   0.708 -17.775  1.00  0.00     0.217 C 
HETATM   25  O1  UNL     1      -1.945   0.690 -16.803  1.00  0.00    -0.274 OA
ATOM     26  H1  UNL     1       0.831   0.990 -18.368  1.00  0.00     0.163 HD
BRANCH  24  27
HETATM   27  C2  UNL     1      -1.683   0.444 -19.128  1.00  0.00     0.098 C 
HETATM   28  C1  UNL     1      -3.117   0.028 -19.034  1.00  0.00     0.014 C 
ENDBRANCH  24  27
ENDBRANCH   1  23
TORSDOF 5
ENDMDL
