MODEL 1
REMARK VINA RESULT: -6.472518535      0.000      0.000
REMARK  7 active torsions:
REMARK  status: ('A' for Active; 'I' for Inactive)
REMARK    1  A    between atoms: C2_2  and  C3_3 
REMARK    2  A    between atoms: C3_3  and  N1_4 
REMARK    3  A    between atoms: N1_4  and  C4_6 
REMARK    4  A    between atoms: C4_6  and  N2_8 
REMARK       I    between atoms: N2_8  and  C5_10 
REMARK       I    between atoms: C5_10  and  N3_12 
REMARK    5  A    between atoms: N3_12  and  C6_14 
REMARK    6  A    between atoms: C7_16  and  C8_17 
REMARK    7  A    between atoms: C8_17  and  C9_18 
ROOT
HETATM    1  N2  UNL     1       1.123   7.731 -13.812  1.00  0.00    -0.285 N 
ATOM      2  H2  UNL     1       0.193   8.146 -13.753  1.00  0.00     0.173 HD
HETATM    3  C5  UNL     1       1.184   6.345 -13.641  1.00  0.00     0.324 C 
HETATM    4  O1  UNL     1       2.303   5.766 -13.675  1.00  0.00    -0.247 OA
HETATM    5  N3  UNL     1      -0.014   5.556 -13.416  1.00  0.00    -0.309 N 
ATOM      6  H3  UNL     1      -0.939   5.985 -13.416  1.00  0.00     0.167 HD
ENDROOT
BRANCH   5   7
HETATM    7  C6  UNL     1       0.155   4.150 -13.191  1.00  0.00     0.305 C 
HETATM    8  O2  UNL     1      -0.285   3.427 -14.260  1.00  0.00    -0.346 OA
HETATM    9  C7  UNL     1      -1.334   2.635 -13.939  1.00  0.00     0.203 C 
HETATM   10  C10 UNL     1      -1.261   2.473 -12.442  1.00  0.00     0.228 C 
HETATM   11  O3  UNL     1      -1.719   1.523 -11.735  1.00  0.00    -0.286 OA
HETATM   12  C11 UNL     1      -0.541   3.657 -11.995  1.00  0.00     0.245 C 
HETATM   13  O4  UNL     1      -0.530   4.141 -10.838  1.00  0.00    -0.284 OA
BRANCH   9  14
HETATM   14  C8  UNL     1      -1.453   1.314 -14.605  1.00  0.00     0.051 C 
BRANCH  14  15
HETATM   15  C9  UNL     1      -0.555   0.993 -15.714  1.00  0.00     0.088 C 
HETATM   16 BR1  UNL     1      -1.318   0.799 -17.433  1.00  0.00    -0.096 Br
ENDBRANCH  14  15
ENDBRANCH   9  14
ENDBRANCH   5   7
BRANCH   1  17
HETATM   17  C4  UNL     1       2.165   8.614 -14.051  1.00  0.00     0.175 C 
HETATM   18  S1  UNL     1       2.175  10.063 -13.256  1.00  0.00    -0.041 SA
BRANCH  17  19
HETATM   19  N1  UNL     1       3.179   8.396 -15.011  1.00  0.00    -0.363 N 
ATOM     20  H1  UNL     1       4.102   8.071 -14.724  1.00  0.00     0.162 HD
BRANCH  19  21
HETATM   21  C3  UNL     1       2.885   8.642 -16.424  1.00  0.00     0.148 C 
BRANCH  21  22
HETATM   22  C2  UNL     1       2.759   7.453 -17.220  1.00  0.00    -0.018 C 
HETATM   23  C1  UNL     1       3.299   6.271 -17.047  1.00  0.00     0.008 C 
ENDBRANCH  21  22
ENDBRANCH  19  21
ENDBRANCH  17  19
ENDBRANCH   1  17
TORSDOF 7
ENDMDL
MODEL 2
REMARK VINA RESULT: -6.461670532      8.456     10.625
REMARK  7 active torsions:
REMARK  status: ('A' for Active; 'I' for Inactive)
REMARK    1  A    between atoms: C2_2  and  C3_3 
REMARK    2  A    between atoms: C3_3  and  N1_4 
REMARK    3  A    between atoms: N1_4  and  C4_6 
REMARK    4  A    between atoms: C4_6  and  N2_8 
REMARK       I    between atoms: N2_8  and  C5_10 
REMARK       I    between atoms: C5_10  and  N3_12 
REMARK    5  A    between atoms: N3_12  and  C6_14 
REMARK    6  A    between atoms: C7_16  and  C8_17 
REMARK    7  A    between atoms: C8_17  and  C9_18 
ROOT
HETATM    1  N2  UNL     1       1.877  -0.312 -18.647  1.00  0.00    -0.285 N 
ATOM      2  H2  UNL     1       2.003   0.161 -19.541  1.00  0.00     0.173 HD
HETATM    3  C5  UNL     1       2.641  -1.466 -18.454  1.00  0.00     0.324 C 
HETATM    4  O1  UNL     1       2.518  -2.119 -17.383  1.00  0.00    -0.247 OA
HETATM    5  N3  UNL     1       3.569  -1.938 -19.467  1.00  0.00    -0.309 N 
ATOM      6  H3  UNL     1       3.721  -1.417 -20.330  1.00  0.00     0.167 HD
ENDROOT
BRANCH   5   7
HETATM    7  C6  UNL     1       4.264  -3.164 -19.205  1.00  0.00     0.305 C 
HETATM    8  O2  UNL     1       5.586  -2.936 -18.962  1.00  0.00    -0.346 OA
HETATM    9  C7  UNL     1       6.380  -3.509 -19.896  1.00  0.00     0.203 C 
HETATM   10  C10 UNL     1       5.534  -4.591 -20.520  1.00  0.00     0.228 C 
HETATM   11  O3  UNL     1       5.924  -5.649 -21.102  1.00  0.00    -0.286 OA
HETATM   12  C11 UNL     1       4.168  -4.141 -20.298  1.00  0.00     0.245 C 
HETATM   13  O4  UNL     1       3.141  -4.513 -20.915  1.00  0.00    -0.284 OA
BRANCH   9  14
HETATM   14  C8  UNL     1       7.696  -4.048 -19.473  1.00  0.00     0.051 C 
BRANCH  14  15
HETATM   15  C9  UNL     1       7.975  -4.205 -18.046  1.00  0.00     0.088 C 
HETATM   16 BR1  UNL     1       7.017  -5.537 -17.106  1.00  0.00    -0.096 Br
ENDBRANCH  14  15
ENDBRANCH   9  14
ENDBRANCH   5   7
BRANCH   1  17
HETATM   17  C4  UNL     1       0.968   0.272 -17.776  1.00  0.00     0.175 C 
HETATM   18  S1  UNL     1       1.358   1.719 -17.079  1.00  0.00    -0.041 SA
BRANCH  17  19
HETATM   19  N1  UNL     1      -0.238  -0.340 -17.368  1.00  0.00    -0.363 N 
ATOM     20  H1  UNL     1      -0.230  -1.265 -16.938  1.00  0.00     0.162 HD
BRANCH  19  21
HETATM   21  C3  UNL     1      -1.500   0.374 -17.570  1.00  0.00     0.148 C 
BRANCH  21  22
HETATM   22  C2  UNL     1      -1.957   0.398 -18.932  1.00  0.00    -0.018 C 
HETATM   23  C1  UNL     1      -3.105   0.012 -19.434  1.00  0.00     0.008 C 
ENDBRANCH  21  22
ENDBRANCH  19  21
ENDBRANCH  17  19
ENDBRANCH   1  17
TORSDOF 7
ENDMDL
MODEL 3
REMARK VINA RESULT: -6.393385332      8.530     10.463
REMARK  7 active torsions:
REMARK  status: ('A' for Active; 'I' for Inactive)
REMARK    1  A    between atoms: C2_2  and  C3_3 
REMARK    2  A    between atoms: C3_3  and  N1_4 
REMARK    3  A    between atoms: N1_4  and  C4_6 
REMARK    4  A    between atoms: C4_6  and  N2_8 
REMARK       I    between atoms: N2_8  and  C5_10 
REMARK       I    between atoms: C5_10  and  N3_12 
REMARK    5  A    between atoms: N3_12  and  C6_14 
REMARK    6  A    between atoms: C7_16  and  C8_17 
REMARK    7  A    between atoms: C8_17  and  C9_18 
ROOT
HETATM    1  N2  UNL     1       1.652  -0.444 -18.607  1.00  0.00    -0.285 N 
ATOM      2  H2  UNL     1       1.841   0.136 -19.425  1.00  0.00     0.173 HD
HETATM    3  C5  UNL     1       2.463  -1.573 -18.460  1.00  0.00     0.324 C 
HETATM    4  O1  UNL     1       2.270  -2.351 -17.486  1.00  0.00    -0.247 OA
HETATM    5  N3  UNL     1       3.519  -1.876 -19.409  1.00  0.00    -0.309 N 
ATOM      6  H3  UNL     1       3.727  -1.252 -20.188  1.00  0.00     0.167 HD
ENDROOT
BRANCH   5   7
HETATM    7  C6  UNL     1       4.258  -3.088 -19.208  1.00  0.00     0.305 C 
HETATM    8  O2  UNL     1       5.593  -2.836 -19.102  1.00  0.00    -0.346 OA
HETATM    9  C7  UNL     1       6.298  -3.406 -20.107  1.00  0.00     0.203 C 
HETATM   10  C10 UNL     1       5.413  -4.508 -20.633  1.00  0.00     0.228 C 
HETATM   11  O3  UNL     1       5.760  -5.566 -21.242  1.00  0.00    -0.286 OA
HETATM   12  C11 UNL     1       4.068  -4.078 -20.277  1.00  0.00     0.245 C 
HETATM   13  O4  UNL     1       2.991  -4.473 -20.784  1.00  0.00    -0.284 OA
BRANCH   9  14
HETATM   14  C8  UNL     1       7.660  -3.920 -19.815  1.00  0.00     0.051 C 
BRANCH  14  15
HETATM   15  C9  UNL     1       7.936  -4.495 -18.499  1.00  0.00     0.088 C 
HETATM   16 BR1  UNL     1       8.758  -3.383 -17.210  1.00  0.00    -0.096 Br
ENDBRANCH  14  15
ENDBRANCH   9  14
ENDBRANCH   5   7
BRANCH   1  17
HETATM   17  C4  UNL     1       0.624  -0.011 -17.784  1.00  0.00     0.175 C 
HETATM   18  S1  UNL     1      -0.696   0.706 -18.474  1.00  0.00    -0.041 SA
BRANCH  17  19
HETATM   19  N1  UNL     1       0.671  -0.056 -16.372  1.00  0.00    -0.363 N 
ATOM     20  H1  UNL     1       0.379  -0.896 -15.871  1.00  0.00     0.162 HD
BRANCH  19  21
HETATM   21  C3  UNL     1       1.145   1.119 -15.639  1.00  0.00     0.148 C 
BRANCH  21  22
HETATM   22  C2  UNL     1       2.575   1.233 -15.562  1.00  0.00    -0.018 C 
HETATM   23  C1  UNL     1       3.479   0.299 -15.390  1.00  0.00     0.008 C 
ENDBRANCH  21  22
ENDBRANCH  19  21
ENDBRANCH  17  19
ENDBRANCH   1  17
TORSDOF 7
ENDMDL
MODEL 4
REMARK VINA RESULT: -6.376291118      6.770      8.823
REMARK  7 active torsions:
REMARK  status: ('A' for Active; 'I' for Inactive)
REMARK    1  A    between atoms: C2_2  and  C3_3 
REMARK    2  A    between atoms: C3_3  and  N1_4 
REMARK    3  A    between atoms: N1_4  and  C4_6 
REMARK    4  A    between atoms: C4_6  and  N2_8 
REMARK       I    between atoms: N2_8  and  C5_10 
REMARK       I    between atoms: C5_10  and  N3_12 
REMARK    5  A    between atoms: N3_12  and  C6_14 
REMARK    6  A    between atoms: C7_16  and  C8_17 
REMARK    7  A    between atoms: C8_17  and  C9_18 
ROOT
HETATM    1  N2  UNL     1       0.187  -0.304 -16.417  1.00  0.00    -0.285 N 
ATOM      2  H2  UNL     1      -0.108  -1.178 -15.983  1.00  0.00     0.173 HD
HETATM    3  C5  UNL     1       1.497  -0.278 -16.906  1.00  0.00     0.324 C 
HETATM    4  O1  UNL     1       1.940   0.778 -17.432  1.00  0.00    -0.247 OA
HETATM    5  N3  UNL     1       2.364  -1.439 -16.812  1.00  0.00    -0.309 N 
ATOM      6  H3  UNL     1       2.028  -2.321 -16.424  1.00  0.00     0.167 HD
ENDROOT
BRANCH   5   7
HETATM    7  C6  UNL     1       3.709  -1.298 -17.286  1.00  0.00     0.305 C 
HETATM    8  O2  UNL     1       4.099  -2.398 -17.989  1.00  0.00    -0.346 OA
HETATM    9  C7  UNL     1       5.128  -3.043 -17.391  1.00  0.00     0.203 C 
HETATM   10  C10 UNL     1       5.765  -2.017 -16.489  1.00  0.00     0.228 C 
HETATM   11  O3  UNL     1       6.962  -1.982 -16.068  1.00  0.00    -0.286 OA
HETATM   12  C11 UNL     1       4.690  -1.074 -16.215  1.00  0.00     0.245 C 
HETATM   13  O4  UNL     1       4.627  -0.257 -15.266  1.00  0.00    -0.284 OA
BRANCH   9  14
HETATM   14  C8  UNL     1       6.149  -3.696 -18.248  1.00  0.00     0.051 C 
BRANCH  14  15
HETATM   15  C9  UNL     1       6.228  -3.332 -19.663  1.00  0.00     0.088 C 
HETATM   16 BR1  UNL     1       5.383  -4.474 -20.911  1.00  0.00    -0.096 Br
ENDBRANCH  14  15
ENDBRANCH   9  14
ENDBRANCH   5   7
BRANCH   1  17
HETATM   17  C4  UNL     1      -0.761   0.707 -16.448  1.00  0.00     0.175 C 
HETATM   18  S1  UNL     1      -1.455   1.186 -15.026  1.00  0.00    -0.041 SA
BRANCH  17  19
HETATM   19  N1  UNL     1      -1.249   1.295 -17.636  1.00  0.00    -0.363 N 
ATOM     20  H1  UNL     1      -1.447   2.295 -17.676  1.00  0.00     0.162 HD
BRANCH  19  21
HETATM   21  C3  UNL     1      -1.466   0.448 -18.811  1.00  0.00     0.148 C 
BRANCH  21  22
HETATM   22  C2  UNL     1      -2.822   0.006 -18.982  1.00  0.00    -0.018 C 
HETATM   23  C1  UNL     1      -3.556  -0.035 -20.068  1.00  0.00     0.008 C 
ENDBRANCH  21  22
ENDBRANCH  19  21
ENDBRANCH  17  19
ENDBRANCH   1  17
TORSDOF 7
ENDMDL
MODEL 5
REMARK VINA RESULT: -6.366492650      8.182     10.347
REMARK  7 active torsions:
REMARK  status: ('A' for Active; 'I' for Inactive)
REMARK    1  A    between atoms: C2_2  and  C3_3 
REMARK    2  A    between atoms: C3_3  and  N1_4 
REMARK    3  A    between atoms: N1_4  and  C4_6 
REMARK    4  A    between atoms: C4_6  and  N2_8 
REMARK       I    between atoms: N2_8  and  C5_10 
REMARK       I    between atoms: C5_10  and  N3_12 
REMARK    5  A    between atoms: N3_12  and  C6_14 
REMARK    6  A    between atoms: C7_16  and  C8_17 
REMARK    7  A    between atoms: C8_17  and  C9_18 
ROOT
HETATM    1  N2  UNL     1       1.692  -0.181 -18.760  1.00  0.00    -0.285 N 
ATOM      2  H2  UNL     1       1.773   0.211 -19.698  1.00  0.00     0.173 HD
HETATM    3  C5  UNL     1       2.458  -1.323 -18.508  1.00  0.00     0.324 C 
HETATM    4  O1  UNL     1       2.389  -1.879 -17.379  1.00  0.00    -0.247 OA
HETATM    5  N3  UNL     1       3.328  -1.891 -19.523  1.00  0.00    -0.309 N 
ATOM      6  H3  UNL     1       3.436  -1.449 -20.436  1.00  0.00     0.167 HD
ENDROOT
BRANCH   5   7
HETATM    7  C6  UNL     1       4.028  -3.097 -19.192  1.00  0.00     0.305 C 
HETATM    8  O2  UNL     1       5.331  -2.839 -18.886  1.00  0.00    -0.346 OA
HETATM    9  C7  UNL     1       6.183  -3.421 -19.762  1.00  0.00     0.203 C 
HETATM   10  C10 UNL     1       5.390  -4.534 -20.401  1.00  0.00     0.228 C 
HETATM   11  O3  UNL     1       5.828  -5.600 -20.933  1.00  0.00    -0.286 OA
HETATM   12  C11 UNL     1       4.006  -4.103 -20.263  1.00  0.00     0.245 C 
HETATM   13  O4  UNL     1       3.020  -4.509 -20.924  1.00  0.00    -0.284 OA
BRANCH   9  14
HETATM   14  C8  UNL     1       7.483  -3.926 -19.255  1.00  0.00     0.051 C 
BRANCH  14  15
HETATM   15  C9  UNL     1       7.679  -4.066 -17.813  1.00  0.00     0.088 C 
HETATM   16 BR1  UNL     1       6.699  -5.415 -16.921  1.00  0.00    -0.096 Br
ENDBRANCH  14  15
ENDBRANCH   9  14
ENDBRANCH   5   7
BRANCH   1  17
HETATM   17  C4  UNL     1       0.835   0.486 -17.897  1.00  0.00     0.175 C 
HETATM   18  S1  UNL     1       1.104   2.089 -17.597  1.00  0.00    -0.041 SA
BRANCH  17  19
HETATM   19  N1  UNL     1      -0.204  -0.142 -17.176  1.00  0.00    -0.363 N 
ATOM     20  H1  UNL     1      -0.114  -1.113 -16.876  1.00  0.00     0.162 HD
BRANCH  19  21
HETATM   21  C3  UNL     1      -1.414   0.621 -16.863  1.00  0.00     0.148 C 
BRANCH  21  22
HETATM   22  C2  UNL     1      -1.679   0.766 -15.459  1.00  0.00    -0.018 C 
HETATM   23  C1  UNL     1      -1.317   1.719 -14.635  1.00  0.00     0.008 C 
ENDBRANCH  21  22
ENDBRANCH  19  21
ENDBRANCH  17  19
ENDBRANCH   1  17
TORSDOF 7
ENDMDL
