MODEL 1
REMARK VINA RESULT: -7.566301184      0.000      0.000
REMARK  6 active torsions:
REMARK  status: ('A' for Active; 'I' for Inactive)
REMARK    1  A    between atoms: C2_2  and  C3_3 
REMARK    2  A    between atoms: C2_2  and  C6_11 
REMARK       I    between atoms: C3_3  and  N1_5 
REMARK    3  A    between atoms: N1_5  and  C4_7 
REMARK    4  A    between atoms: C4_7  and  C5_8 
REMARK       I    between atoms: C6_11  and  N2_13 
REMARK    5  A    between atoms: C9_17  and  C10_18 
REMARK       I    between atoms: C10_18  and  N3_20 
REMARK    6  A    between atoms: N3_20  and  C11_22 
ROOT
HETATM    1  C6  UNL     1       0.852   2.336 -16.748  1.00  0.00     0.234 C 
HETATM    2  O4  UNL     1       0.353   2.683 -17.858  1.00  0.00    -0.272 OA
HETATM    3  N2  UNL     1       1.884   3.159 -16.215  1.00  0.00    -0.328 N 
HETATM    4  C7  UNL     1       2.606   2.974 -14.960  1.00  0.00     0.200 C 
HETATM    5  S1  UNL     1       4.313   3.139 -15.636  1.00  0.00    -0.147 SA
HETATM    6  C8  UNL     1       3.889   4.230 -17.019  1.00  0.00     0.110 C 
HETATM    7  C9  UNL     1       2.393   4.347 -16.858  1.00  0.00     0.189 C 
ENDROOT
BRANCH   1   8
HETATM    8  C2  UNL     1       0.338   1.124 -16.098  1.00  0.00     0.166 C 
HETATM    9  C1  UNL     1      -0.061   0.097 -17.139  1.00  0.00     0.030 C 
BRANCH   8  10
HETATM   10  C3  UNL     1      -0.713   1.339 -15.097  1.00  0.00     0.231 C 
HETATM   11  O1  UNL     1      -1.646   0.514 -14.998  1.00  0.00    -0.273 OA
HETATM   12  N1  UNL     1      -0.735   2.447 -14.217  1.00  0.00    -0.350 N 
ATOM     13  H1  UNL     1       0.024   3.124 -14.293  1.00  0.00     0.163 HD
BRANCH  12  14
HETATM   14  C4  UNL     1      -1.735   2.690 -13.234  1.00  0.00     0.235 C 
BRANCH  14  15
HETATM   15  C5  UNL     1      -1.290   2.194 -11.918  1.00  0.00     0.191 C 
HETATM   16  O2  UNL     1      -2.038   1.431 -11.257  1.00  0.00    -0.647 OA
HETATM   17  O3  UNL     1      -0.067   2.529 -11.355  1.00  0.00    -0.647 OA
ENDBRANCH  14  15
ENDBRANCH  12  14
ENDBRANCH   8  10
ENDBRANCH   1   8
BRANCH   7  18
HETATM   18  C10 UNL     1       1.994   5.609 -16.209  1.00  0.00     0.242 C 
HETATM   19  O5  UNL     1       0.944   5.582 -15.509  1.00  0.00    -0.271 OA
HETATM   20  N3  UNL     1       2.681   6.842 -16.297  1.00  0.00    -0.351 N 
ATOM     21  H3  UNL     1       3.534   6.882 -16.854  1.00  0.00     0.163 HD
BRANCH  20  22
HETATM   22  C11 UNL     1       2.235   8.046 -15.638  1.00  0.00     0.022 C 
HETATM   23  C12 UNL     1       0.769   8.304 -15.837  1.00  0.00     0.037 C 
HETATM   24  C13 UNL     1       2.989   9.228 -16.245  1.00  0.00     0.037 C 
HETATM   25  C14 UNL     1       2.483   7.981 -14.137  1.00  0.00     0.037 C 
ENDBRANCH  20  22
ENDBRANCH   7  18
TORSDOF 6
ENDMDL
MODEL 2
REMARK VINA RESULT: -7.246636703      2.604      5.427
REMARK  6 active torsions:
REMARK  status: ('A' for Active; 'I' for Inactive)
REMARK    1  A    between atoms: C2_2  and  C3_3 
REMARK    2  A    between atoms: C2_2  and  C6_11 
REMARK       I    between atoms: C3_3  and  N1_5 
REMARK    3  A    between atoms: N1_5  and  C4_7 
REMARK    4  A    between atoms: C4_7  and  C5_8 
REMARK       I    between atoms: C6_11  and  N2_13 
REMARK    5  A    between atoms: C9_17  and  C10_18 
REMARK       I    between atoms: C10_18  and  N3_20 
REMARK    6  A    between atoms: N3_20  and  C11_22 
ROOT
HETATM    1  C6  UNL     1       0.846   4.615 -11.850  1.00  0.00     0.234 C 
HETATM    2  O4  UNL     1       1.288   3.642 -11.171  1.00  0.00    -0.272 OA
HETATM    3  N2  UNL     1       1.404   4.809 -13.145  1.00  0.00    -0.328 N 
HETATM    4  C7  UNL     1       1.060   5.848 -14.111  1.00  0.00     0.200 C 
HETATM    5  S1  UNL     1       2.774   6.420 -14.474  1.00  0.00    -0.147 SA
HETATM    6  C8  UNL     1       3.599   4.841 -14.142  1.00  0.00     0.110 C 
HETATM    7  C9  UNL     1       2.435   3.979 -13.722  1.00  0.00     0.189 C 
ENDROOT
BRANCH   1   8
HETATM    8  C2  UNL     1      -0.197   5.463 -11.260  1.00  0.00     0.166 C 
HETATM    9  C1  UNL     1       0.428   6.632 -10.525  1.00  0.00     0.030 C 
BRANCH   8  10
HETATM   10  C3  UNL     1      -1.196   4.763 -10.445  1.00  0.00     0.231 C 
HETATM   11  O1  UNL     1      -1.317   5.054  -9.236  1.00  0.00    -0.273 OA
HETATM   12  N1  UNL     1      -2.051   3.757 -10.954  1.00  0.00    -0.350 N 
ATOM     13  H1  UNL     1      -1.957   3.515 -11.941  1.00  0.00     0.163 HD
BRANCH  12  14
HETATM   14  C4  UNL     1      -3.031   3.057 -10.196  1.00  0.00     0.235 C 
BRANCH  14  15
HETATM   15  C5  UNL     1      -2.940   1.608 -10.457  1.00  0.00     0.191 C 
HETATM   16  O2  UNL     1      -2.270   1.194 -11.437  1.00  0.00    -0.647 OA
HETATM   17  O3  UNL     1      -3.564   0.653  -9.666  1.00  0.00    -0.647 OA
ENDBRANCH  14  15
ENDBRANCH  12  14
ENDBRANCH   8  10
ENDBRANCH   1   8
BRANCH   7  18
HETATM   18  C10 UNL     1       1.968   3.096 -14.807  1.00  0.00     0.242 C 
HETATM   19  O5  UNL     1       2.692   3.029 -15.839  1.00  0.00    -0.271 OA
HETATM   20  N3  UNL     1       0.786   2.319 -14.794  1.00  0.00    -0.351 N 
ATOM     21  H3  UNL     1       0.191   2.357 -13.967  1.00  0.00     0.163 HD
BRANCH  20  22
HETATM   22  C11 UNL     1       0.381   1.476 -15.894  1.00  0.00     0.022 C 
HETATM   23  C12 UNL     1       0.308   2.220 -17.196  1.00  0.00     0.037 C 
HETATM   24  C13 UNL     1      -1.020   0.946 -15.595  1.00  0.00     0.037 C 
HETATM   25  C14 UNL     1       1.349   0.317 -16.088  1.00  0.00     0.037 C 
ENDBRANCH  20  22
ENDBRANCH   7  18
TORSDOF 6
ENDMDL
MODEL 3
REMARK VINA RESULT: -7.194075895      1.947      3.519
REMARK  6 active torsions:
REMARK  status: ('A' for Active; 'I' for Inactive)
REMARK    1  A    between atoms: C2_2  and  C3_3 
REMARK    2  A    between atoms: C2_2  and  C6_11 
REMARK       I    between atoms: C3_3  and  N1_5 
REMARK    3  A    between atoms: N1_5  and  C4_7 
REMARK    4  A    between atoms: C4_7  and  C5_8 
REMARK       I    between atoms: C6_11  and  N2_13 
REMARK    5  A    between atoms: C9_17  and  C10_18 
REMARK       I    between atoms: C10_18  and  N3_20 
REMARK    6  A    between atoms: N3_20  and  C11_22 
ROOT
HETATM    1  C6  UNL     1       0.899   2.290 -16.502  1.00  0.00     0.234 C 
HETATM    2  O4  UNL     1       0.381   2.617 -17.610  1.00  0.00    -0.272 OA
HETATM    3  N2  UNL     1       1.896   3.157 -15.971  1.00  0.00    -0.328 N 
HETATM    4  C7  UNL     1       2.631   3.001 -14.720  1.00  0.00     0.200 C 
HETATM    5  S1  UNL     1       4.327   3.243 -15.401  1.00  0.00    -0.147 SA
HETATM    6  C8  UNL     1       3.849   4.317 -16.780  1.00  0.00     0.110 C 
HETATM    7  C9  UNL     1       2.350   4.367 -16.614  1.00  0.00     0.189 C 
ENDROOT
BRANCH   1   8
HETATM    8  C2  UNL     1       0.442   1.055 -15.853  1.00  0.00     0.166 C 
HETATM    9  C1  UNL     1       1.425  -0.070 -16.110  1.00  0.00     0.030 C 
BRANCH   8  10
HETATM   10  C3  UNL     1      -0.941   0.663 -16.141  1.00  0.00     0.231 C 
HETATM   11  O1  UNL     1      -1.766   0.584 -15.206  1.00  0.00    -0.273 OA
HETATM   12  N1  UNL     1      -1.412   0.363 -17.442  1.00  0.00    -0.350 N 
ATOM     13  H1  UNL     1      -0.743   0.426 -18.210  1.00  0.00     0.163 HD
BRANCH  12  14
HETATM   14  C4  UNL     1      -2.744  -0.021 -17.761  1.00  0.00     0.235 C 
BRANCH  14  15
HETATM   15  C5  UNL     1      -2.961   0.048 -19.218  1.00  0.00     0.191 C 
HETATM   16  O2  UNL     1      -2.012   0.380 -19.972  1.00  0.00    -0.647 OA
HETATM   17  O3  UNL     1      -4.179  -0.240 -19.819  1.00  0.00    -0.647 OA
ENDBRANCH  14  15
ENDBRANCH  12  14
ENDBRANCH   8  10
ENDBRANCH   1   8
BRANCH   7  18
HETATM   18  C10 UNL     1       1.898   5.609 -15.960  1.00  0.00     0.242 C 
HETATM   19  O5  UNL     1       0.763   5.582 -15.408  1.00  0.00    -0.271 OA
HETATM   20  N3  UNL     1       2.620   6.823 -15.894  1.00  0.00    -0.351 N 
ATOM     21  H3  UNL     1       3.542   6.863 -16.329  1.00  0.00     0.163 HD
BRANCH  20  22
HETATM   22  C11 UNL     1       2.119   8.008 -15.239  1.00  0.00     0.022 C 
HETATM   23  C12 UNL     1       0.736   8.378 -15.694  1.00  0.00     0.037 C 
HETATM   24  C13 UNL     1       3.040   9.173 -15.596  1.00  0.00     0.037 C 
HETATM   25  C14 UNL     1       2.066   7.827 -13.729  1.00  0.00     0.037 C 
ENDBRANCH  20  22
ENDBRANCH   7  18
TORSDOF 6
ENDMDL
MODEL 4
REMARK VINA RESULT: -7.096486559      1.707      2.235
REMARK  6 active torsions:
REMARK  status: ('A' for Active; 'I' for Inactive)
REMARK    1  A    between atoms: C2_2  and  C3_3 
REMARK    2  A    between atoms: C2_2  and  C6_11 
REMARK       I    between atoms: C3_3  and  N1_5 
REMARK    3  A    between atoms: N1_5  and  C4_7 
REMARK    4  A    between atoms: C4_7  and  C5_8 
REMARK       I    between atoms: C6_11  and  N2_13 
REMARK    5  A    between atoms: C9_17  and  C10_18 
REMARK       I    between atoms: C10_18  and  N3_20 
REMARK    6  A    between atoms: N3_20  and  C11_22 
ROOT
HETATM    1  C6  UNL     1       0.258   2.011 -15.777  1.00  0.00     0.234 C 
HETATM    2  O4  UNL     1      -0.107   2.103 -16.986  1.00  0.00    -0.272 OA
HETATM    3  N2  UNL     1       1.585   2.425 -15.467  1.00  0.00    -0.328 N 
HETATM    4  C7  UNL     1       2.232   2.419 -14.159  1.00  0.00     0.200 C 
HETATM    5  S1  UNL     1       3.779   1.549 -14.655  1.00  0.00    -0.147 SA
HETATM    6  C8  UNL     1       3.796   2.113 -16.377  1.00  0.00     0.110 C 
HETATM    7  C9  UNL     1       2.529   2.930 -16.436  1.00  0.00     0.189 C 
ENDROOT
BRANCH   1   8
HETATM    8  C2  UNL     1      -0.699   1.490 -14.794  1.00  0.00     0.166 C 
HETATM    9  C1  UNL     1      -1.879   0.848 -15.497  1.00  0.00     0.030 C 
BRANCH   8  10
HETATM   10  C3  UNL     1      -1.119   2.438 -13.756  1.00  0.00     0.231 C 
HETATM   11  O1  UNL     1      -1.064   3.665 -13.984  1.00  0.00    -0.273 OA
HETATM   12  N1  UNL     1      -1.593   2.040 -12.483  1.00  0.00    -0.350 N 
ATOM     13  H1  UNL     1      -1.640   1.039 -12.291  1.00  0.00     0.163 HD
BRANCH  12  14
HETATM   14  C4  UNL     1      -2.008   2.927 -11.451  1.00  0.00     0.235 C 
BRANCH  14  15
HETATM   15  C5  UNL     1      -2.842   2.212 -10.466  1.00  0.00     0.191 C 
HETATM   16  O2  UNL     1      -3.435   2.860  -9.568  1.00  0.00    -0.647 OA
HETATM   17  O3  UNL     1      -3.014   0.835 -10.474  1.00  0.00    -0.647 OA
ENDBRANCH  14  15
ENDBRANCH  12  14
ENDBRANCH   8  10
ENDBRANCH   1   8
BRANCH   7  18
HETATM   18  C10 UNL     1       2.787   4.378 -16.335  1.00  0.00     0.242 C 
HETATM   19  O5  UNL     1       3.951   4.771 -16.626  1.00  0.00    -0.271 OA
HETATM   20  N3  UNL     1       1.851   5.363 -15.944  1.00  0.00    -0.351 N 
ATOM     21  H3  UNL     1       0.904   5.065 -15.709  1.00  0.00     0.163 HD
BRANCH  20  22
HETATM   22  C11 UNL     1       2.168   6.769 -15.860  1.00  0.00     0.022 C 
HETATM   23  C12 UNL     1       3.226   7.062 -14.836  1.00  0.00     0.037 C 
HETATM   24  C13 UNL     1       0.906   7.516 -15.434  1.00  0.00     0.037 C 
HETATM   25  C14 UNL     1       2.668   7.304 -17.195  1.00  0.00     0.037 C 
ENDBRANCH  20  22
ENDBRANCH   7  18
TORSDOF 6
ENDMDL
MODEL 5
REMARK VINA RESULT: -7.069791576      2.856      4.187
REMARK  6 active torsions:
REMARK  status: ('A' for Active; 'I' for Inactive)
REMARK    1  A    between atoms: C2_2  and  C3_3 
REMARK    2  A    between atoms: C2_2  and  C6_11 
REMARK       I    between atoms: C3_3  and  N1_5 
REMARK    3  A    between atoms: N1_5  and  C4_7 
REMARK    4  A    between atoms: C4_7  and  C5_8 
REMARK       I    between atoms: C6_11  and  N2_13 
REMARK    5  A    between atoms: C9_17  and  C10_18 
REMARK       I    between atoms: C10_18  and  N3_20 
REMARK    6  A    between atoms: N3_20  and  C11_22 
ROOT
HETATM    1  C6  UNL     1       2.993   3.010 -14.262  1.00  0.00     0.234 C 
HETATM    2  O4  UNL     1       4.234   3.231 -14.151  1.00  0.00    -0.272 OA
HETATM    3  N2  UNL     1       2.109   3.969 -13.690  1.00  0.00    -0.328 N 
HETATM    4  C7  UNL     1       0.651   3.942 -13.691  1.00  0.00     0.200 C 
HETATM    5  S1  UNL     1       0.400   4.241 -11.889  1.00  0.00    -0.147 SA
HETATM    6  C8  UNL     1       1.920   5.190 -11.620  1.00  0.00     0.110 C 
HETATM    7  C9  UNL     1       2.539   5.160 -12.995  1.00  0.00     0.189 C 
ENDROOT
BRANCH   1   8
HETATM    8  C2  UNL     1       2.558   1.796 -14.963  1.00  0.00     0.166 C 
HETATM    9  C1  UNL     1       3.651   0.747 -14.928  1.00  0.00     0.030 C 
BRANCH   8  10
HETATM   10  C3  UNL     1       2.026   2.000 -16.314  1.00  0.00     0.231 C 
HETATM   11  O1  UNL     1       2.729   2.577 -17.171  1.00  0.00    -0.273 OA
HETATM   12  N1  UNL     1       0.738   1.575 -16.718  1.00  0.00    -0.350 N 
ATOM     13  H1  UNL     1       0.159   1.103 -16.022  1.00  0.00     0.163 HD
BRANCH  12  14
HETATM   14  C4  UNL     1       0.187   1.755 -18.017  1.00  0.00     0.235 C 
BRANCH  14  15
HETATM   15  C5  UNL     1      -1.074   1.001 -18.148  1.00  0.00     0.191 C 
HETATM   16  O2  UNL     1      -1.733   0.711 -17.117  1.00  0.00    -0.647 OA
HETATM   17  O3  UNL     1      -1.586   0.584 -19.368  1.00  0.00    -0.647 OA
ENDBRANCH  14  15
ENDBRANCH  12  14
ENDBRANCH   8  10
ENDBRANCH   1   8
BRANCH   7  18
HETATM   18  C10 UNL     1       2.315   6.412 -13.740  1.00  0.00     0.242 C 
HETATM   19  O5  UNL     1       1.751   7.354 -13.116  1.00  0.00    -0.271 OA
HETATM   20  N3  UNL     1       2.675   6.653 -15.087  1.00  0.00    -0.351 N 
ATOM     21  H3  UNL     1       3.136   5.906 -15.606  1.00  0.00     0.163 HD
BRANCH  20  22
HETATM   22  C11 UNL     1       2.424   7.904 -15.762  1.00  0.00     0.022 C 
HETATM   23  C12 UNL     1       0.973   8.290 -15.741  1.00  0.00     0.037 C 
HETATM   24  C13 UNL     1       2.828   7.743 -17.226  1.00  0.00     0.037 C 
HETATM   25  C14 UNL     1       3.206   9.044 -15.126  1.00  0.00     0.037 C 
ENDBRANCH  20  22
ENDBRANCH   7  18
TORSDOF 6
ENDMDL
