MODEL 1
REMARK VINA RESULT: -8.474537579      0.000      0.000
REMARK  6 active torsions:
REMARK  status: ('A' for Active; 'I' for Inactive)
REMARK    1  A    between atoms: N1_2  and  C2_5 
REMARK    2  A    between atoms: C6_10  and  C7_11 
REMARK    3  A    between atoms: C7_11  and  N2_12 
REMARK       I    between atoms: N2_12  and  C8_14 
REMARK    4  A    between atoms: C8_14  and  C9_16 
REMARK    5  A    between atoms: C9_16  and  S1_18 
REMARK    6  A    between atoms: C16_26  and  N3_27 
ROOT
HETATM    1  C2  UNL     1       1.795   0.600 -16.843  1.00  0.00     0.198 C 
HETATM    2  C3  UNL     1       1.021   1.353 -17.884  1.00  0.00     0.048 C 
HETATM    3  C4  UNL     1       1.851   2.547 -18.226  1.00  0.00     0.018 C 
HETATM    4  C5  UNL     1       2.563   3.124 -17.246  1.00  0.00     0.096 C 
HETATM    5  F1  UNL     1       3.289   4.195 -17.614  1.00  0.00    -0.211 F 
HETATM    6  C6  UNL     1       2.579   2.649 -15.864  1.00  0.00     0.072 C 
HETATM    7  C12 UNL     1       1.617   1.493 -15.637  1.00  0.00     0.034 C 
HETATM    8  C13 UNL     1       0.221   1.992 -15.756  1.00  0.00     0.005 A 
HETATM    9  C14 UNL     1      -0.862   0.968 -15.460  1.00  0.00     0.017 A 
HETATM   10  C15 UNL     1      -1.849   1.579 -14.466  1.00  0.00     0.012 C 
HETATM   11  C16 UNL     1      -1.327   1.039 -16.876  1.00  0.00     0.192 A 
HETATM   12  C17 UNL     1      -0.197   1.928 -17.205  1.00  0.00     0.031 A 
ENDROOT
BRANCH   6  13
HETATM   13  C7  UNL     1       2.475   3.660 -14.787  1.00  0.00     0.134 C 
BRANCH  13  14
HETATM   14  N2  UNL     1       2.090   4.982 -15.240  1.00  0.00    -0.359 N 
HETATM   15  C8  UNL     1       2.966   6.057 -14.952  1.00  0.00     0.235 C 
HETATM   16  O1  UNL     1       4.025   5.821 -14.321  1.00  0.00    -0.272 OA
ATOM     17  H2  UNL     1       1.219   5.133 -15.749  1.00  0.00     0.162 HD
BRANCH  15  18
HETATM   18  C9  UNL     1       2.706   7.460 -15.354  1.00  0.00     0.195 C 
HETATM   19  C10 UNL     1       2.802   7.630 -16.844  1.00  0.00     0.036 C 
BRANCH  18  20
HETATM   20  S1  UNL     1       1.105   7.933 -14.794  1.00  0.00     0.153 S 
HETATM   21  C11 UNL     1       1.001   7.922 -13.013  1.00  0.00     0.162 C 
HETATM   22  O2  UNL     1       0.027   7.025 -15.305  1.00  0.00    -0.227 OA
HETATM   23  O3  UNL     1       0.782   9.328 -15.264  1.00  0.00    -0.227 OA
ENDBRANCH  18  20
ENDBRANCH  15  18
ENDBRANCH  13  14
ENDBRANCH   6  13
BRANCH   1  24
HETATM   24  N1  UNL     1       1.439  -0.751 -16.638  1.00  0.00    -0.074 N 
HETATM   25  C1  UNL     1       1.957  -1.533 -17.745  1.00  0.00     0.267 C 
ATOM     26  H12 UNL     1       0.437  -0.877 -16.504  1.00  0.00     0.277 HD
ATOM     27  H11 UNL     1       1.746  -1.104 -15.731  1.00  0.00     0.277 HD
ENDBRANCH   1  24
BRANCH  11  28
HETATM   28  N3  UNL     1      -1.488  -0.186 -17.596  1.00  0.00    -0.074 N 
ATOM     29  H33 UNL     1      -1.368  -0.969 -16.954  1.00  0.00     0.274 HD
ATOM     30  H32 UNL     1      -2.468  -0.294 -17.855  1.00  0.00     0.274 HD
ATOM     31  H31 UNL     1      -0.907  -0.340 -18.421  1.00  0.00     0.274 HD
ENDBRANCH  11  28
TORSDOF 6
ENDMDL
MODEL 2
REMARK VINA RESULT: -8.333621401      1.188      1.668
REMARK  6 active torsions:
REMARK  status: ('A' for Active; 'I' for Inactive)
REMARK    1  A    between atoms: N1_2  and  C2_5 
REMARK    2  A    between atoms: C6_10  and  C7_11 
REMARK    3  A    between atoms: C7_11  and  N2_12 
REMARK       I    between atoms: N2_12  and  C8_14 
REMARK    4  A    between atoms: C8_14  and  C9_16 
REMARK    5  A    between atoms: C9_16  and  S1_18 
REMARK    6  A    between atoms: C16_26  and  N3_27 
ROOT
HETATM    1  C2  UNL     1       1.718   0.466 -17.027  1.00  0.00     0.198 C 
HETATM    2  C3  UNL     1       0.961   1.393 -17.931  1.00  0.00     0.048 C 
HETATM    3  C4  UNL     1       1.870   2.552 -18.181  1.00  0.00     0.018 C 
HETATM    4  C5  UNL     1       2.671   2.954 -17.182  1.00  0.00     0.096 C 
HETATM    5  F1  UNL     1       3.465   4.002 -17.466  1.00  0.00    -0.211 F 
HETATM    6  C6  UNL     1       2.711   2.320 -15.867  1.00  0.00     0.072 C 
HETATM    7  C12 UNL     1       1.669   1.221 -15.719  1.00  0.00     0.034 C 
HETATM    8  C13 UNL     1       0.315   1.837 -15.704  1.00  0.00     0.005 A 
HETATM    9  C14 UNL     1      -0.834   0.870 -15.467  1.00  0.00     0.017 A 
HETATM   10  C15 UNL     1      -1.720   1.434 -14.357  1.00  0.00     0.012 C 
HETATM   11  C16 UNL     1      -1.356   1.142 -16.838  1.00  0.00     0.192 A 
HETATM   12  C17 UNL     1      -0.173   1.975 -17.126  1.00  0.00     0.031 A 
ENDROOT
BRANCH   6  13
HETATM   13  C7  UNL     1       2.740   3.202 -14.677  1.00  0.00     0.134 C 
BRANCH  13  14
HETATM   14  N2  UNL     1       2.402   4.586 -14.948  1.00  0.00    -0.359 N 
HETATM   15  C8  UNL     1       1.338   5.158 -14.210  1.00  0.00     0.235 C 
HETATM   16  O1  UNL     1       0.739   4.451 -13.364  1.00  0.00    -0.272 OA
ATOM     17  H2  UNL     1       2.911   5.127 -15.646  1.00  0.00     0.162 HD
BRANCH  15  18
HETATM   18  C9  UNL     1       0.883   6.560 -14.378  1.00  0.00     0.195 C 
HETATM   19  C10 UNL     1       0.828   7.281 -13.061  1.00  0.00     0.036 C 
BRANCH  18  20
HETATM   20  S1  UNL     1       1.976   7.393 -15.478  1.00  0.00     0.153 S 
HETATM   21  C11 UNL     1       1.651   9.147 -15.527  1.00  0.00     0.162 C 
HETATM   22  O2  UNL     1       1.872   6.885 -16.884  1.00  0.00    -0.227 OA
HETATM   23  O3  UNL     1       3.404   7.204 -15.033  1.00  0.00    -0.227 OA
ENDBRANCH  18  20
ENDBRANCH  15  18
ENDBRANCH  13  14
ENDBRANCH   6  13
BRANCH   1  24
HETATM   24  N1  UNL     1       1.262  -0.869 -16.957  1.00  0.00    -0.074 N 
HETATM   25  C1  UNL     1       2.134  -1.693 -17.774  1.00  0.00     0.267 C 
ATOM     26  H12 UNL     1       0.280  -0.963 -17.214  1.00  0.00     0.277 HD
ATOM     27  H11 UNL     1       1.187  -1.209 -15.998  1.00  0.00     0.277 HD
ENDBRANCH   1  24
BRANCH  11  28
HETATM   28  N3  UNL     1      -1.649   0.026 -17.683  1.00  0.00    -0.074 N 
ATOM     29  H33 UNL     1      -0.777  -0.346 -18.058  1.00  0.00     0.274 HD
ATOM     30  H32 UNL     1      -1.963  -0.754 -17.107  1.00  0.00     0.274 HD
ATOM     31  H31 UNL     1      -2.310   0.163 -18.448  1.00  0.00     0.274 HD
ENDBRANCH  11  28
TORSDOF 6
ENDMDL
MODEL 3
REMARK VINA RESULT: -8.322095258      0.819      1.492
REMARK  6 active torsions:
REMARK  status: ('A' for Active; 'I' for Inactive)
REMARK    1  A    between atoms: N1_2  and  C2_5 
REMARK    2  A    between atoms: C6_10  and  C7_11 
REMARK    3  A    between atoms: C7_11  and  N2_12 
REMARK       I    between atoms: N2_12  and  C8_14 
REMARK    4  A    between atoms: C8_14  and  C9_16 
REMARK    5  A    between atoms: C9_16  and  S1_18 
REMARK    6  A    between atoms: C16_26  and  N3_27 
ROOT
HETATM    1  C2  UNL     1       1.814   0.636 -16.932  1.00  0.00     0.198 C 
HETATM    2  C3  UNL     1       1.017   1.481 -17.880  1.00  0.00     0.048 C 
HETATM    3  C4  UNL     1       1.855   2.686 -18.158  1.00  0.00     0.018 C 
HETATM    4  C5  UNL     1       2.612   3.172 -17.163  1.00  0.00     0.096 C 
HETATM    5  F1  UNL     1       3.344   4.258 -17.473  1.00  0.00    -0.211 F 
HETATM    6  C6  UNL     1       2.671   2.589 -15.825  1.00  0.00     0.072 C 
HETATM    7  C12 UNL     1       1.697   1.432 -15.653  1.00  0.00     0.034 C 
HETATM    8  C13 UNL     1       0.307   1.961 -15.680  1.00  0.00     0.005 A 
HETATM    9  C14 UNL     1      -0.783   0.932 -15.425  1.00  0.00     0.017 A 
HETATM   10  C15 UNL     1      -1.721   1.477 -14.349  1.00  0.00     0.012 C 
HETATM   11  C16 UNL     1      -1.298   1.123 -16.812  1.00  0.00     0.192 A 
HETATM   12  C17 UNL     1      -0.165   2.019 -17.113  1.00  0.00     0.031 A 
ENDROOT
BRANCH   6  13
HETATM   13  C7  UNL     1       2.624   3.512 -14.667  1.00  0.00     0.134 C 
BRANCH  13  14
HETATM   14  N2  UNL     1       1.774   4.670 -14.858  1.00  0.00    -0.359 N 
HETATM   15  C8  UNL     1       1.782   5.664 -13.850  1.00  0.00     0.235 C 
HETATM   16  O1  UNL     1       2.514   5.500 -12.845  1.00  0.00    -0.272 OA
ATOM     17  H2  UNL     1       1.191   4.766 -15.689  1.00  0.00     0.162 HD
BRANCH  15  18
HETATM   18  C9  UNL     1       0.967   6.902 -13.911  1.00  0.00     0.195 C 
HETATM   19  C10 UNL     1       1.114   7.718 -12.658  1.00  0.00     0.036 C 
BRANCH  18  20
HETATM   20  S1  UNL     1       1.460   7.849 -15.311  1.00  0.00     0.153 S 
HETATM   21  C11 UNL     1       3.151   8.401 -15.169  1.00  0.00     0.162 C 
HETATM   22  O2  UNL     1       0.612   9.069 -15.505  1.00  0.00    -0.227 OA
HETATM   23  O3  UNL     1       1.352   7.018 -16.564  1.00  0.00    -0.227 OA
ENDBRANCH  18  20
ENDBRANCH  15  18
ENDBRANCH  13  14
ENDBRANCH   6  13
BRANCH   1  24
HETATM   24  N1  UNL     1       1.442  -0.722 -16.821  1.00  0.00    -0.074 N 
HETATM   25  C1  UNL     1       2.141  -1.472 -17.848  1.00  0.00     0.267 C 
ATOM     26  H12 UNL     1       0.432  -0.856 -16.856  1.00  0.00     0.277 HD
ATOM     27  H11 UNL     1       1.600  -1.097 -15.885  1.00  0.00     0.277 HD
ENDBRANCH   1  24
BRANCH  11  28
HETATM   28  N3  UNL     1      -1.507  -0.038 -17.620  1.00  0.00    -0.074 N 
ATOM     29  H33 UNL     1      -0.615  -0.331 -18.020  1.00  0.00     0.274 HD
ATOM     30  H32 UNL     1      -1.719  -0.831 -17.016  1.00  0.00     0.274 HD
ATOM     31  H31 UNL     1      -2.205   0.012 -18.363  1.00  0.00     0.274 HD
ENDBRANCH  11  28
TORSDOF 6
ENDMDL
MODEL 4
REMARK VINA RESULT: -8.277605088      1.983      3.147
REMARK  6 active torsions:
REMARK  status: ('A' for Active; 'I' for Inactive)
REMARK    1  A    between atoms: N1_2  and  C2_5 
REMARK    2  A    between atoms: C6_10  and  C7_11 
REMARK    3  A    between atoms: C7_11  and  N2_12 
REMARK       I    between atoms: N2_12  and  C8_14 
REMARK    4  A    between atoms: C8_14  and  C9_16 
REMARK    5  A    between atoms: C9_16  and  S1_18 
REMARK    6  A    between atoms: C16_26  and  N3_27 
ROOT
HETATM    1  C2  UNL     1      -0.287   1.943 -16.868  1.00  0.00     0.198 C 
HETATM    2  C3  UNL     1      -0.499   0.797 -15.924  1.00  0.00     0.048 C 
HETATM    3  C4  UNL     1      -1.241   1.362 -14.756  1.00  0.00     0.018 C 
HETATM    4  C5  UNL     1      -0.957   2.617 -14.374  1.00  0.00     0.096 C 
HETATM    5  F1  UNL     1      -1.655   3.069 -13.317  1.00  0.00    -0.211 F 
HETATM    6  C6  UNL     1       0.030   3.466 -15.037  1.00  0.00     0.072 C 
HETATM    7  C12 UNL     1       0.777   2.734 -16.142  1.00  0.00     0.034 C 
HETATM    8  C13 UNL     1       1.650   1.695 -15.531  1.00  0.00     0.005 A 
HETATM    9  C14 UNL     1       2.536   0.937 -16.507  1.00  0.00     0.017 A 
HETATM   10  C15 UNL     1       3.967   0.949 -15.971  1.00  0.00     0.012 C 
HETATM   11  C16 UNL     1       1.800  -0.325 -16.206  1.00  0.00     0.192 A 
HETATM   12  C17 UNL     1       0.851   0.425 -15.363  1.00  0.00     0.031 A 
ENDROOT
BRANCH   6  13
HETATM   13  C7  UNL     1       0.956   4.244 -14.181  1.00  0.00     0.134 C 
BRANCH  13  14
HETATM   14  N2  UNL     1       1.317   5.542 -14.715  1.00  0.00    -0.359 N 
HETATM   15  C8  UNL     1       2.669   5.750 -15.080  1.00  0.00     0.235 C 
HETATM   16  O1  UNL     1       3.488   4.812 -14.925  1.00  0.00    -0.272 OA
ATOM     17  H2  UNL     1       0.621   6.280 -14.824  1.00  0.00     0.162 HD
BRANCH  15  18
HETATM   18  C9  UNL     1       3.182   7.023 -15.641  1.00  0.00     0.195 C 
HETATM   19  C10 UNL     1       3.146   7.014 -17.143  1.00  0.00     0.036 C 
BRANCH  18  20
HETATM   20  S1  UNL     1       2.216   8.357 -15.021  1.00  0.00     0.153 S 
HETATM   21  C11 UNL     1       3.000   9.932 -15.319  1.00  0.00     0.162 C 
HETATM   22  O2  UNL     1       1.978   8.255 -13.545  1.00  0.00    -0.227 OA
HETATM   23  O3  UNL     1       0.868   8.381 -15.697  1.00  0.00    -0.227 OA
ENDBRANCH  18  20
ENDBRANCH  15  18
ENDBRANCH  13  14
ENDBRANCH   6  13
BRANCH   1  24
HETATM   24  N1  UNL     1       0.028   1.617 -18.205  1.00  0.00    -0.074 N 
HETATM   25  C1  UNL     1      -1.086   0.876 -18.769  1.00  0.00     0.267 C 
ATOM     26  H12 UNL     1       0.913   1.118 -18.290  1.00  0.00     0.277 HD
ATOM     27  H11 UNL     1       0.276   2.435 -18.761  1.00  0.00     0.277 HD
ENDBRANCH   1  24
BRANCH  11  28
HETATM   28  N3  UNL     1       1.305  -1.096 -17.304  1.00  0.00    -0.074 N 
ATOM     29  H33 UNL     1       1.029  -0.466 -18.056  1.00  0.00     0.274 HD
ATOM     30  H32 UNL     1       2.082  -1.592 -17.740  1.00  0.00     0.274 HD
ATOM     31  H31 UNL     1       0.546  -1.755 -17.126  1.00  0.00     0.274 HD
ENDBRANCH  11  28
TORSDOF 6
ENDMDL
MODEL 5
REMARK VINA RESULT: -8.175510401      1.572      2.224
REMARK  6 active torsions:
REMARK  status: ('A' for Active; 'I' for Inactive)
REMARK    1  A    between atoms: N1_2  and  C2_5 
REMARK    2  A    between atoms: C6_10  and  C7_11 
REMARK    3  A    between atoms: C7_11  and  N2_12 
REMARK       I    between atoms: N2_12  and  C8_14 
REMARK    4  A    between atoms: C8_14  and  C9_16 
REMARK    5  A    between atoms: C9_16  and  S1_18 
REMARK    6  A    between atoms: C16_26  and  N3_27 
ROOT
HETATM    1  C2  UNL     1       2.311   1.513 -16.269  1.00  0.00     0.198 C 
HETATM    2  C3  UNL     1       1.660   1.684 -17.609  1.00  0.00     0.048 C 
HETATM    3  C4  UNL     1       2.007   3.065 -18.059  1.00  0.00     0.018 C 
HETATM    4  C5  UNL     1       2.094   4.030 -17.129  1.00  0.00     0.096 C 
HETATM    5  F1  UNL     1       2.409   5.252 -17.595  1.00  0.00    -0.211 F 
HETATM    6  C6  UNL     1       1.875   3.807 -15.703  1.00  0.00     0.072 C 
HETATM    7  C12 UNL     1       1.434   2.383 -15.399  1.00  0.00     0.034 C 
HETATM    8  C13 UNL     1       0.063   2.175 -15.939  1.00  0.00     0.005 A 
HETATM    9  C14 UNL     1      -0.557   0.821 -15.631  1.00  0.00     0.017 A 
HETATM   10  C15 UNL     1      -1.957   1.049 -15.063  1.00  0.00     0.012 C 
HETATM   11  C16 UNL     1      -0.555   0.481 -17.084  1.00  0.00     0.192 A 
HETATM   12  C17 UNL     1       0.170   1.731 -17.379  1.00  0.00     0.031 A 
ENDROOT
BRANCH   6  13
HETATM   13  C7  UNL     1       1.054   4.797 -14.968  1.00  0.00     0.134 C 
BRANCH  13  14
HETATM   14  N2  UNL     1       1.672   6.101 -14.828  1.00  0.00    -0.359 N 
HETATM   15  C8  UNL     1       0.855   7.240 -15.027  1.00  0.00     0.235 C 
HETATM   16  O1  UNL     1      -0.355   7.073 -15.316  1.00  0.00    -0.272 OA
ATOM     17  H2  UNL     1       2.660   6.195 -14.594  1.00  0.00     0.162 HD
BRANCH  15  18
HETATM   18  C9  UNL     1       1.347   8.634 -14.914  1.00  0.00     0.195 C 
HETATM   19  C10 UNL     1       1.565   9.024 -13.480  1.00  0.00     0.036 C 
BRANCH  18  20
HETATM   20  S1  UNL     1       2.849   8.790 -15.818  1.00  0.00     0.153 S 
HETATM   21  C11 UNL     1       3.345  10.496 -15.981  1.00  0.00     0.162 C 
HETATM   22  O2  UNL     1       2.746   8.227 -17.203  1.00  0.00    -0.227 OA
HETATM   23  O3  UNL     1       3.960   8.055 -15.112  1.00  0.00    -0.227 OA
ENDBRANCH  18  20
ENDBRANCH  15  18
ENDBRANCH  13  14
ENDBRANCH   6  13
BRANCH   1  24
HETATM   24  N1  UNL     1       2.477   0.189 -15.806  1.00  0.00    -0.074 N 
HETATM   25  C1  UNL     1       3.813  -0.253 -16.159  1.00  0.00     0.267 C 
ATOM     26  H12 UNL     1       1.753  -0.440 -16.148  1.00  0.00     0.277 HD
ATOM     27  H11 UNL     1       2.284   0.095 -14.809  1.00  0.00     0.277 HD
ENDBRANCH   1  24
BRANCH  11  28
HETATM   28  N3  UNL     1       0.013  -0.769 -17.483  1.00  0.00    -0.074 N 
ATOM     29  H33 UNL     1       0.107  -0.783 -18.499  1.00  0.00     0.274 HD
ATOM     30  H32 UNL     1       0.991  -0.797 -17.197  1.00  0.00     0.274 HD
ATOM     31  H31 UNL     1      -0.448  -1.627 -17.180  1.00  0.00     0.274 HD
ENDBRANCH  11  28
TORSDOF 6
ENDMDL
