MODEL 1
REMARK VINA RESULT: -5.626564468      0.000      0.000
REMARK  4 active torsions:
REMARK  status: ('A' for Active; 'I' for Inactive)
REMARK    1  A    between atoms: C3_3  and  C4_4 
REMARK    2  A    between atoms: C4_4  and  C5_5 
REMARK    3  A    between atoms: C5_5  and  C6_6 
REMARK    4  A    between atoms: C7_7  and  C8_8 
ROOT
HETATM    1  C1  UNL     1      34.254  -9.499   5.545  1.00  0.00     0.113 C 
HETATM    2  C2  UNL     1      34.022  -8.047   5.709  1.00  0.00    -0.097 C 
HETATM    3  C3  UNL     1      33.818  -6.862   5.832  1.00  0.00    -0.015 C 
ENDROOT
BRANCH   3   4
HETATM    4  C4  UNL     1      33.567  -5.473   5.970  1.00  0.00    -0.009 C 
BRANCH   4   5
HETATM    5  C5  UNL     1      33.339  -4.284   6.077  1.00  0.00    -0.045 C 
BRANCH   5   6
HETATM    6  C6  UNL     1      33.070  -2.881   6.177  1.00  0.00     0.112 A 
HETATM    7  C7  UNL     1      33.761  -1.906   5.486  1.00  0.00     0.060 A 
HETATM    8  N1  UNL     1      33.258  -0.691   5.807  1.00  0.00    -0.300 N 
HETATM    9  N2  UNL     1      32.278  -0.877   6.676  1.00  0.00    -0.265 N 
ATOM     10  H1  UNL     1      33.577   0.208   5.444  1.00  0.00     0.186 HD
HETATM   11  C9  UNL     1      32.137  -2.192   6.923  1.00  0.00     0.280 A 
ATOM     12  H2  UNL     1      31.715  -0.137   7.095  1.00  0.00     0.190 HD
HETATM   13  O1  UNL     1      31.317  -2.784   7.692  1.00  0.00    -0.265 OA
BRANCH   7  14
HETATM   14  C8  UNL     1      34.869  -2.149   4.545  1.00  0.00     0.145 C 
HETATM   15 BR1  UNL     1      36.260  -0.828   4.915  1.00  0.00    -0.090 Br
ENDBRANCH   7  14
ENDBRANCH   5   6
ENDBRANCH   4   5
ENDBRANCH   3   4
TORSDOF 4
ENDMDL
MODEL 2
REMARK VINA RESULT: -5.608358285      4.263      5.080
REMARK  4 active torsions:
REMARK  status: ('A' for Active; 'I' for Inactive)
REMARK    1  A    between atoms: C3_3  and  C4_4 
REMARK    2  A    between atoms: C4_4  and  C5_5 
REMARK    3  A    between atoms: C5_5  and  C6_6 
REMARK    4  A    between atoms: C7_7  and  C8_8 
ROOT
HETATM    1  C1  UNL     1      28.971  -3.792  -0.128  1.00  0.00     0.113 C 
HETATM    2  C2  UNL     1      29.770  -3.920   1.110  1.00  0.00    -0.097 C 
HETATM    3  C3  UNL     1      30.435  -4.035   2.113  1.00  0.00    -0.015 C 
ENDROOT
BRANCH   3   4
HETATM    4  C4  UNL     1      31.226  -4.176   3.282  1.00  0.00    -0.009 C 
BRANCH   4   5
HETATM    5  C5  UNL     1      31.917  -4.298   4.273  1.00  0.00    -0.045 C 
BRANCH   5   6
HETATM    6  C6  UNL     1      32.751  -4.431   5.431  1.00  0.00     0.112 A 
HETATM    7  C7  UNL     1      33.708  -5.412   5.590  1.00  0.00     0.060 A 
HETATM    8  N1  UNL     1      34.314  -5.254   6.790  1.00  0.00    -0.300 N 
HETATM    9  N2  UNL     1      33.765  -4.206   7.383  1.00  0.00    -0.265 N 
ATOM     10  H1  UNL     1      35.060  -5.837   7.169  1.00  0.00     0.186 HD
HETATM   11  C9  UNL     1      32.815  -3.684   6.587  1.00  0.00     0.280 A 
ATOM     12  H2  UNL     1      34.023  -3.849   8.303  1.00  0.00     0.190 HD
HETATM   13  O1  UNL     1      32.060  -2.681   6.786  1.00  0.00    -0.265 OA
BRANCH   7  14
HETATM   14  C8  UNL     1      34.022  -6.466   4.608  1.00  0.00     0.145 C 
HETATM   15 BR1  UNL     1      34.247  -8.141   5.589  1.00  0.00    -0.090 Br
ENDBRANCH   7  14
ENDBRANCH   5   6
ENDBRANCH   4   5
ENDBRANCH   3   4
TORSDOF 4
ENDMDL
MODEL 3
REMARK VINA RESULT: -5.574450434      2.812      2.826
REMARK  4 active torsions:
REMARK  status: ('A' for Active; 'I' for Inactive)
REMARK    1  A    between atoms: C3_3  and  C4_4 
REMARK    2  A    between atoms: C4_4  and  C5_5 
REMARK    3  A    between atoms: C5_5  and  C6_6 
REMARK    4  A    between atoms: C7_7  and  C8_8 
ROOT
HETATM    1  C1  UNL     1      34.983  -8.845   5.538  1.00  0.00     0.113 C 
HETATM    2  C2  UNL     1      34.184  -7.600   5.564  1.00  0.00    -0.097 C 
HETATM    3  C3  UNL     1      33.520  -6.591   5.598  1.00  0.00    -0.015 C 
ENDROOT
BRANCH   3   4
HETATM    4  C4  UNL     1      32.735  -5.410   5.650  1.00  0.00    -0.009 C 
BRANCH   4   5
HETATM    5  C5  UNL     1      32.052  -4.408   5.704  1.00  0.00    -0.045 C 
BRANCH   5   6
HETATM    6  C6  UNL     1      31.228  -3.237   5.755  1.00  0.00     0.112 A 
HETATM    7  C7  UNL     1      30.905  -2.465   4.657  1.00  0.00     0.060 A 
HETATM    8  N1  UNL     1      30.115  -1.439   5.049  1.00  0.00    -0.300 N 
HETATM    9  N2  UNL     1      29.936  -1.545   6.356  1.00  0.00    -0.265 N 
ATOM     10  H1  UNL     1      29.727  -0.713   4.446  1.00  0.00     0.186 HD
HETATM   11  C9  UNL     1      30.596  -2.623   6.816  1.00  0.00     0.280 A 
ATOM     12  H2  UNL     1      29.382  -0.907   6.927  1.00  0.00     0.190 HD
HETATM   13  O1  UNL     1      30.678  -3.072   8.002  1.00  0.00    -0.265 OA
BRANCH   7  14
HETATM   14  C8  UNL     1      31.349  -2.720   3.275  1.00  0.00     0.145 C 
HETATM   15 BR1  UNL     1      30.306  -4.223   2.586  1.00  0.00    -0.090 Br
ENDBRANCH   7  14
ENDBRANCH   5   6
ENDBRANCH   4   5
ENDBRANCH   3   4
TORSDOF 4
ENDMDL
MODEL 4
REMARK VINA RESULT: -5.555293714      1.965      2.468
REMARK  4 active torsions:
REMARK  status: ('A' for Active; 'I' for Inactive)
REMARK    1  A    between atoms: C3_3  and  C4_4 
REMARK    2  A    between atoms: C4_4  and  C5_5 
REMARK    3  A    between atoms: C5_5  and  C6_6 
REMARK    4  A    between atoms: C7_7  and  C8_8 
ROOT
HETATM    1  C1  UNL     1      33.813 -11.498   3.769  1.00  0.00     0.113 C 
HETATM    2  C2  UNL     1      33.835 -10.111   4.283  1.00  0.00    -0.097 C 
HETATM    3  C3  UNL     1      33.850  -8.971   4.686  1.00  0.00    -0.015 C 
ENDROOT
BRANCH   3   4
HETATM    4  C4  UNL     1      33.861  -7.630   5.147  1.00  0.00    -0.009 C 
BRANCH   4   5
HETATM    5  C5  UNL     1      33.857  -6.478   5.532  1.00  0.00    -0.045 C 
BRANCH   5   6
HETATM    6  C6  UNL     1      33.831  -5.115   5.974  1.00  0.00     0.112 A 
HETATM    7  C7  UNL     1      34.315  -4.051   5.239  1.00  0.00     0.060 A 
HETATM    8  N1  UNL     1      34.138  -2.908   5.941  1.00  0.00    -0.300 N 
HETATM    9  N2  UNL     1      33.561  -3.225   7.089  1.00  0.00    -0.265 N 
ATOM     10  H1  UNL     1      34.402  -1.970   5.640  1.00  0.00     0.186 HD
HETATM   11  C9  UNL     1      33.361  -4.554   7.141  1.00  0.00     0.280 A 
ATOM     12  H2  UNL     1      33.306  -2.563   7.821  1.00  0.00     0.190 HD
HETATM   13  O1  UNL     1      32.838  -5.254   8.064  1.00  0.00    -0.265 OA
BRANCH   7  14
HETATM   14  C8  UNL     1      34.926  -4.145   3.901  1.00  0.00     0.145 C 
HETATM   15 BR1  UNL     1      35.490  -2.348   3.381  1.00  0.00    -0.090 Br
ENDBRANCH   7  14
ENDBRANCH   5   6
ENDBRANCH   4   5
ENDBRANCH   3   4
TORSDOF 4
ENDMDL
MODEL 5
REMARK VINA RESULT: -5.482234562      2.428      2.899
REMARK  4 active torsions:
REMARK  status: ('A' for Active; 'I' for Inactive)
REMARK    1  A    between atoms: C3_3  and  C4_4 
REMARK    2  A    between atoms: C4_4  and  C5_5 
REMARK    3  A    between atoms: C5_5  and  C6_6 
REMARK    4  A    between atoms: C7_7  and  C8_8 
ROOT
HETATM    1  C1  UNL     1      34.247  -9.574   5.516  1.00  0.00     0.113 C 
HETATM    2  C2  UNL     1      34.102  -8.106   5.626  1.00  0.00    -0.097 C 
HETATM    3  C3  UNL     1      33.968  -6.907   5.707  1.00  0.00    -0.015 C 
ENDROOT
BRANCH   3   4
HETATM    4  C4  UNL     1      33.798  -5.502   5.797  1.00  0.00    -0.009 C 
BRANCH   4   5
HETATM    5  C5  UNL     1      33.638  -4.300   5.866  1.00  0.00    -0.045 C 
BRANCH   5   6
HETATM    6  C6  UNL     1      33.449  -2.881   5.922  1.00  0.00     0.112 A 
HETATM    7  C7  UNL     1      32.453  -2.257   6.647  1.00  0.00     0.060 A 
HETATM    8  N1  UNL     1      32.556  -0.917   6.484  1.00  0.00    -0.300 N 
HETATM    9  N2  UNL     1      33.582  -0.686   5.681  1.00  0.00    -0.265 N 
ATOM     10  H1  UNL     1      31.951  -0.212   6.905  1.00  0.00     0.186 HD
HETATM   11  C9  UNL     1      34.146  -1.854   5.322  1.00  0.00     0.280 A 
ATOM     12  H2  UNL     1      33.897   0.236   5.381  1.00  0.00     0.190 HD
HETATM   13  O1  UNL     1      35.145  -2.067   4.567  1.00  0.00    -0.265 OA
BRANCH   7  14
HETATM   14  C8  UNL     1      31.440  -2.942   7.469  1.00  0.00     0.145 C 
HETATM   15 BR1  UNL     1      29.712  -2.112   7.091  1.00  0.00    -0.090 Br
ENDBRANCH   7  14
ENDBRANCH   5   6
ENDBRANCH   4   5
ENDBRANCH   3   4
TORSDOF 4
ENDMDL
