MODEL 1
REMARK VINA RESULT: -5.855780133      0.000      0.000
REMARK  3 active torsions:
REMARK  status: ('A' for Active; 'I' for Inactive)
REMARK    1  A    between atoms: C2_2  and  C3_3 
REMARK    2  A    between atoms: C4_4  and  C5_5 
REMARK    3  A    between atoms: C6_6  and  C7_7 
ROOT
HETATM    1  C7  UNL     1      33.482  -1.895   6.120  1.00  0.00     0.167 C 
HETATM    2  C8  UNL     1      33.069  -1.492   7.511  1.00  0.00     0.063 C 
HETATM    3  C9  UNL     1      33.705  -0.152   7.697  1.00  0.00     0.152 C 
HETATM    4 BR1  UNL     1      34.573   0.028   9.406  1.00  0.00    -0.081 Br
HETATM    5  C10 UNL     1      34.753  -0.060   6.647  1.00  0.00     0.233 C 
HETATM    6  O1  UNL     1      35.435   0.976   6.411  1.00  0.00    -0.272 OA
HETATM    7  N1  UNL     1      34.808  -1.327   6.007  1.00  0.00    -0.345 N 
ATOM      8  H1  UNL     1      35.620  -1.751   5.557  1.00  0.00     0.163 HD
ENDROOT
BRANCH   1   9
HETATM    9  C6  UNL     1      33.625  -3.348   5.986  1.00  0.00    -0.067 C 
HETATM   10  C5  UNL     1      33.745  -4.546   5.895  1.00  0.00    -0.013 C 
BRANCH  10  11
HETATM   11  C4  UNL     1      33.889  -5.953   5.810  1.00  0.00    -0.015 C 
HETATM   12  C3  UNL     1      34.013  -7.157   5.754  1.00  0.00    -0.093 C 
BRANCH  12  13
HETATM   13  C2  UNL     1      34.162  -8.625   5.706  1.00  0.00     0.090 C 
HETATM   14  C1  UNL     1      33.964  -9.049   4.265  1.00  0.00     0.018 C 
ENDBRANCH  12  13
ENDBRANCH  10  11
ENDBRANCH   1   9
TORSDOF 3
ENDMDL
MODEL 2
REMARK VINA RESULT: -5.822013356      6.113      6.626
REMARK  3 active torsions:
REMARK  status: ('A' for Active; 'I' for Inactive)
REMARK    1  A    between atoms: C2_2  and  C3_3 
REMARK    2  A    between atoms: C4_4  and  C5_5 
REMARK    3  A    between atoms: C6_6  and  C7_7 
ROOT
HETATM    1  C7  UNL     1      31.804  -3.277   3.608  1.00  0.00     0.167 C 
HETATM    2  C8  UNL     1      31.298  -2.179   4.506  1.00  0.00     0.063 C 
HETATM    3  C9  UNL     1      31.722  -2.612   5.872  1.00  0.00     0.152 C 
HETATM    4 BR1  UNL     1      30.323  -2.424   7.181  1.00  0.00    -0.081 Br
HETATM    5  C10 UNL     1      32.033  -4.061   5.751  1.00  0.00     0.233 C 
HETATM    6  O1  UNL     1      32.534  -4.762   6.675  1.00  0.00    -0.272 OA
HETATM    7  N1  UNL     1      31.662  -4.454   4.437  1.00  0.00    -0.345 N 
ATOM      8  H1  UNL     1      31.357  -5.381   4.138  1.00  0.00     0.163 HD
ENDROOT
BRANCH   1   9
HETATM    9  C6  UNL     1      30.944  -3.471   2.436  1.00  0.00    -0.067 C 
HETATM   10  C5  UNL     1      30.237  -3.650   1.475  1.00  0.00    -0.013 C 
BRANCH  10  11
HETATM   11  C4  UNL     1      29.404  -3.881   0.352  1.00  0.00    -0.015 C 
HETATM   12  C3  UNL     1      28.682  -4.089  -0.598  1.00  0.00    -0.093 C 
BRANCH  12  13
HETATM   13  C2  UNL     1      27.790  -4.351  -1.745  1.00  0.00     0.090 C 
HETATM   14  C1  UNL     1      26.469  -3.671  -1.450  1.00  0.00     0.018 C 
ENDBRANCH  12  13
ENDBRANCH  10  11
ENDBRANCH   1   9
TORSDOF 3
ENDMDL
MODEL 3
REMARK VINA RESULT: -5.786714590      3.179      3.612
REMARK  3 active torsions:
REMARK  status: ('A' for Active; 'I' for Inactive)
REMARK    1  A    between atoms: C2_2  and  C3_3 
REMARK    2  A    between atoms: C4_4  and  C5_5 
REMARK    3  A    between atoms: C6_6  and  C7_7 
ROOT
HETATM    1  C7  UNL     1      33.222  -4.244   6.687  1.00  0.00     0.167 C 
HETATM    2  C8  UNL     1      32.943  -3.360   5.500  1.00  0.00     0.063 C 
HETATM    3  C9  UNL     1      31.974  -2.352   6.028  1.00  0.00     0.152 C 
HETATM    4 BR1  UNL     1      30.490  -2.052   4.839  1.00  0.00    -0.081 Br
HETATM    5  C10 UNL     1      31.434  -2.938   7.283  1.00  0.00     0.233 C 
HETATM    6  O1  UNL     1      30.665  -2.331   8.080  1.00  0.00    -0.272 OA
HETATM    7  N1  UNL     1      31.951  -4.258   7.377  1.00  0.00    -0.345 N 
ATOM      8  H1  UNL     1      31.513  -5.056   7.839  1.00  0.00     0.163 HD
ENDROOT
BRANCH   1   9
HETATM    9  C6  UNL     1      33.510  -5.626   6.289  1.00  0.00    -0.067 C 
HETATM   10  C5  UNL     1      33.727  -6.766   5.959  1.00  0.00    -0.013 C 
BRANCH  10  11
HETATM   11  C4  UNL     1      33.961  -8.108   5.567  1.00  0.00    -0.015 C 
HETATM   12  C3  UNL     1      34.144  -9.257   5.230  1.00  0.00    -0.093 C 
BRANCH  12  13
HETATM   13  C2  UNL     1      34.349 -10.659   4.812  1.00  0.00     0.090 C 
HETATM   14  C1  UNL     1      33.382 -10.935   3.679  1.00  0.00     0.018 C 
ENDBRANCH  12  13
ENDBRANCH  10  11
ENDBRANCH   1   9
TORSDOF 3
ENDMDL
MODEL 4
REMARK VINA RESULT: -5.763059858      7.869      8.786
REMARK  3 active torsions:
REMARK  status: ('A' for Active; 'I' for Inactive)
REMARK    1  A    between atoms: C2_2  and  C3_3 
REMARK    2  A    between atoms: C4_4  and  C5_5 
REMARK    3  A    between atoms: C6_6  and  C7_7 
ROOT
HETATM    1  C7  UNL     1      29.722  -2.734  -0.088  1.00  0.00     0.167 C 
HETATM    2  C8  UNL     1      29.044  -3.936  -0.692  1.00  0.00     0.063 C 
HETATM    3  C9  UNL     1      28.099  -3.347  -1.690  1.00  0.00     0.152 C 
HETATM    4 BR1  UNL     1      26.346  -4.137  -1.611  1.00  0.00    -0.081 Br
HETATM    5  C10 UNL     1      27.965  -1.915  -1.315  1.00  0.00     0.233 C 
HETATM    6  O1  UNL     1      27.334  -1.057  -1.993  1.00  0.00    -0.272 OA
HETATM    7  N1  UNL     1      28.669  -1.741  -0.092  1.00  0.00    -0.345 N 
ATOM      8  H1  UNL     1      28.471  -1.054   0.636  1.00  0.00     0.163 HD
ENDROOT
BRANCH   1   9
HETATM    9  C6  UNL     1      30.095  -2.958   1.313  1.00  0.00    -0.067 C 
HETATM   10  C5  UNL     1      30.406  -3.123   2.467  1.00  0.00    -0.013 C 
BRANCH  10  11
HETATM   11  C4  UNL     1      30.776  -3.295   3.824  1.00  0.00    -0.015 C 
HETATM   12  C3  UNL     1      31.105  -3.431   4.982  1.00  0.00    -0.093 C 
BRANCH  12  13
HETATM   13  C2  UNL     1      31.518  -3.581   6.392  1.00  0.00     0.090 C 
HETATM   14  C1  UNL     1      30.599  -2.710   7.223  1.00  0.00     0.018 C 
ENDBRANCH  12  13
ENDBRANCH  10  11
ENDBRANCH   1   9
TORSDOF 3
ENDMDL
MODEL 5
REMARK VINA RESULT: -5.636939464      2.879      3.099
REMARK  3 active torsions:
REMARK  status: ('A' for Active; 'I' for Inactive)
REMARK    1  A    between atoms: C2_2  and  C3_3 
REMARK    2  A    between atoms: C4_4  and  C5_5 
REMARK    3  A    between atoms: C6_6  and  C7_7 
ROOT
HETATM    1  C7  UNL     1      36.794  -2.737   4.270  1.00  0.00     0.167 C 
HETATM    2  C8  UNL     1      35.935  -1.552   4.628  1.00  0.00     0.063 C 
HETATM    3  C9  UNL     1      36.924  -0.466   4.905  1.00  0.00     0.152 C 
HETATM    4 BR1  UNL     1      36.516   0.519   6.508  1.00  0.00    -0.081 Br
HETATM    5  C10 UNL     1      38.224  -1.157   5.120  1.00  0.00     0.233 C 
HETATM    6  O1  UNL     1      39.328  -0.564   5.271  1.00  0.00    -0.272 OA
HETATM    7  N1  UNL     1      37.955  -2.552   5.114  1.00  0.00    -0.345 N 
ATOM      8  H1  UNL     1      38.476  -3.278   5.607  1.00  0.00     0.163 HD
ENDROOT
BRANCH   1   9
HETATM    9  C6  UNL     1      36.174  -4.006   4.664  1.00  0.00    -0.067 C 
HETATM   10  C5  UNL     1      35.663  -5.056   4.970  1.00  0.00    -0.013 C 
BRANCH  10  11
HETATM   11  C4  UNL     1      35.064  -6.295   5.307  1.00  0.00    -0.015 C 
HETATM   12  C3  UNL     1      34.548  -7.356   5.579  1.00  0.00    -0.093 C 
BRANCH  12  13
HETATM   13  C2  UNL     1      33.919  -8.655   5.892  1.00  0.00     0.090 C 
HETATM   14  C1  UNL     1      33.796  -9.419   4.589  1.00  0.00     0.018 C 
ENDBRANCH  12  13
ENDBRANCH  10  11
ENDBRANCH   1   9
TORSDOF 3
ENDMDL
