MODEL 1
REMARK VINA RESULT: -8.474914878      0.000      0.000
REMARK  9 active torsions:
REMARK  status: ('A' for Active; 'I' for Inactive)
REMARK    1  A    between atoms: C2_2  and  N1_3 
REMARK    2  A    between atoms: C3_4  and  C4_5 
REMARK    3  A    between atoms: N3_15  and  C11_16 
REMARK    4  A    between atoms: C11_16  and  C12_17 
REMARK    5  A    between atoms: C12_17  and  O1_18 
REMARK    6  A    between atoms: C12_17  and  N4_20 
REMARK    7  A    between atoms: C15_25  and  C16_26 
REMARK    8  A    between atoms: C16_26  and  C17_27 
REMARK    9  A    between atoms: C22_32  and  C23_33 
ROOT
HETATM    1  N1  UNL     1      34.109  38.523  23.008  1.00  0.00    -0.308 N 
HETATM    2  C3  UNL     1      34.065  37.193  23.065  1.00  0.00     0.119 A 
HETATM    3  N5  UNL     1      34.829  36.739  22.062  1.00  0.00    -0.345 N 
ATOM      4  H5  UNL     1      34.978  35.750  21.863  1.00  0.00     0.167 HD
HETATM    5  C15 UNL     1      35.379  37.741  21.344  1.00  0.00     0.043 A 
HETATM    6  C22 UNL     1      34.911  38.881  21.949  1.00  0.00     0.146 A 
ENDROOT
BRANCH   2   7
HETATM    7  C4  UNL     1      33.376  36.202  23.993  1.00  0.00     0.118 C 
HETATM    8  C5  UNL     1      31.961  36.589  23.982  1.00  0.00     0.271 C 
HETATM    9  N2  UNL     1      31.188  36.352  25.169  1.00  0.00    -0.072 N 
HETATM   10  C6  UNL     1      31.831  36.817  26.367  1.00  0.00     0.233 C 
ATOM     11  H22 UNL     1      30.254  36.752  25.079  1.00  0.00     0.277 HD
ATOM     12  H21 UNL     1      30.940  35.365  25.249  1.00  0.00     0.277 HD
HETATM   13  C7  UNL     1      33.137  36.107  26.526  1.00  0.00     0.035 C 
HETATM   14  C8  UNL     1      34.036  36.145  25.349  1.00  0.00     0.026 C 
HETATM   15  C9  UNL     1      34.777  34.770  25.407  1.00  0.00     0.027 C 
HETATM   16  C10 UNL     1      35.059  34.635  23.930  1.00  0.00     0.124 C 
HETATM   17  N3  UNL     1      33.663  34.909  23.498  1.00  0.00    -0.371 N 
BRANCH  17  18
HETATM   18  C11 UNL     1      32.965  33.760  23.526  1.00  0.00     0.122 C 
BRANCH  18  19
HETATM   19  C12 UNL     1      31.813  33.489  22.586  1.00  0.00     0.395 C 
BRANCH  19  20
HETATM   20  O1  UNL     1      32.245  32.920  21.383  1.00  0.00    -0.364 OA
ATOM     21  H1  UNL     1      32.854  32.205  21.529  1.00  0.00     0.212 HD
ENDBRANCH  19  20
BRANCH  19  22
HETATM   22  N4  UNL     1      30.937  32.420  23.160  1.00  0.00     0.113 N 
HETATM   23  C13 UNL     1      31.381  31.125  22.701  1.00  0.00     0.313 C 
HETATM   24  C14 UNL     1      31.132  32.518  24.590  1.00  0.00     0.313 C 
ENDBRANCH  19  22
ENDBRANCH  18  19
ENDBRANCH  17  18
ENDBRANCH   2   7
BRANCH   1  25
HETATM   25  C2  UNL     1      33.426  39.415  23.851  1.00  0.00     0.067 C 
HETATM   26  C1  UNL     1      33.981  39.655  25.255  1.00  0.00     0.055 C 
ENDBRANCH   1  25
BRANCH   6  27
HETATM   27  C23 UNL     1      35.106  40.203  21.386  1.00  0.00     0.435 C 
HETATM   28  F1  UNL     1      33.842  40.708  20.898  1.00  0.00    -0.165 F 
HETATM   29  F2  UNL     1      35.701  41.086  22.231  1.00  0.00    -0.165 F 
HETATM   30  F3  UNL     1      35.851  40.310  20.239  1.00  0.00    -0.165 F 
ENDBRANCH   6  27
BRANCH   5  31
HETATM   31  C16 UNL     1      36.354  37.407  20.322  1.00  0.00     0.064 C 
BRANCH  31  32
HETATM   32  C17 UNL     1      35.910  37.606  18.899  1.00  0.00    -0.009 C 
HETATM   33  C18 UNL     1      36.676  36.586  18.044  1.00  0.00     0.005 C 
HETATM   34  C19 UNL     1      35.609  35.525  17.879  1.00  0.00     0.000 C 
HETATM   35  C20 UNL     1      34.369  36.319  17.574  1.00  0.00     0.000 C 
HETATM   36  C21 UNL     1      34.518  37.533  18.499  1.00  0.00     0.005 C 
ENDBRANCH  31  32
ENDBRANCH   5  31
TORSDOF 9
ENDMDL
MODEL 2
REMARK VINA RESULT: -8.284180997      1.353      1.777
REMARK  9 active torsions:
REMARK  status: ('A' for Active; 'I' for Inactive)
REMARK    1  A    between atoms: C2_2  and  N1_3 
REMARK    2  A    between atoms: C3_4  and  C4_5 
REMARK    3  A    between atoms: N3_15  and  C11_16 
REMARK    4  A    between atoms: C11_16  and  C12_17 
REMARK    5  A    between atoms: C12_17  and  O1_18 
REMARK    6  A    between atoms: C12_17  and  N4_20 
REMARK    7  A    between atoms: C15_25  and  C16_26 
REMARK    8  A    between atoms: C16_26  and  C17_27 
REMARK    9  A    between atoms: C22_32  and  C23_33 
ROOT
HETATM    1  N1  UNL     1      34.467  38.767  23.684  1.00  0.00    -0.308 N 
HETATM    2  C3  UNL     1      34.065  37.520  23.923  1.00  0.00     0.119 A 
HETATM    3  N5  UNL     1      34.158  36.857  22.762  1.00  0.00    -0.345 N 
ATOM      4  H5  UNL     1      33.911  35.874  22.648  1.00  0.00     0.167 HD
HETATM    5  C15 UNL     1      34.615  37.639  21.761  1.00  0.00     0.043 A 
HETATM    6  C22 UNL     1      34.806  38.862  22.355  1.00  0.00     0.146 A 
ENDROOT
BRANCH   2   7
HETATM    7  C4  UNL     1      33.582  36.791  25.169  1.00  0.00     0.118 C 
HETATM    8  C5  UNL     1      32.235  37.313  25.419  1.00  0.00     0.271 C 
HETATM    9  N2  UNL     1      31.777  37.376  26.778  1.00  0.00    -0.072 N 
HETATM   10  C6  UNL     1      32.728  37.984  27.669  1.00  0.00     0.233 C 
ATOM     11  H22 UNL     1      30.874  37.848  26.836  1.00  0.00     0.277 HD
ATOM     12  H21 UNL     1      31.505  36.452  27.113  1.00  0.00     0.277 HD
HETATM   13  C7  UNL     1      33.992  37.184  27.651  1.00  0.00     0.035 C 
HETATM   14  C8  UNL     1      34.562  36.915  26.311  1.00  0.00     0.026 C 
HETATM   15  C9  UNL     1      35.217  35.504  26.466  1.00  0.00     0.027 C 
HETATM   16  C10 UNL     1      35.107  35.074  25.023  1.00  0.00     0.124 C 
HETATM   17  N3  UNL     1      33.664  35.407  24.892  1.00  0.00    -0.371 N 
BRANCH  17  18
HETATM   18  C11 UNL     1      32.935  34.360  25.317  1.00  0.00     0.122 C 
BRANCH  18  19
HETATM   19  C12 UNL     1      31.826  33.754  24.487  1.00  0.00     0.395 C 
BRANCH  19  20
HETATM   20  O1  UNL     1      32.301  33.257  23.268  1.00  0.00    -0.364 OA
ATOM     21  H1  UNL     1      31.675  32.674  22.856  1.00  0.00     0.212 HD
ENDBRANCH  19  20
BRANCH  19  22
HETATM   22  N4  UNL     1      31.308  32.524  25.163  1.00  0.00     0.113 N 
HETATM   23  C13 UNL     1      30.456  32.894  26.269  1.00  0.00     0.313 C 
HETATM   24  C14 UNL     1      30.520  31.856  24.150  1.00  0.00     0.313 C 
ENDBRANCH  19  22
ENDBRANCH  18  19
ENDBRANCH  17  18
ENDBRANCH   2   7
BRANCH   1  25
HETATM   25  C2  UNL     1      34.504  39.822  24.612  1.00  0.00     0.067 C 
HETATM   26  C1  UNL     1      35.680  39.891  25.585  1.00  0.00     0.055 C 
ENDBRANCH   1  25
BRANCH   6  27
HETATM   27  C23 UNL     1      35.118  40.059  21.597  1.00  0.00     0.435 C 
HETATM   28  F1  UNL     1      33.896  40.774  21.303  1.00  0.00    -0.165 F 
HETATM   29  F2  UNL     1      36.036  40.868  22.189  1.00  0.00    -0.165 F 
HETATM   30  F3  UNL     1      35.603  39.906  20.323  1.00  0.00    -0.165 F 
ENDBRANCH   6  27
BRANCH   5  31
HETATM   31  C16 UNL     1      34.914  37.022  20.482  1.00  0.00     0.064 C 
BRANCH  31  32
HETATM   32  C17 UNL     1      36.296  36.448  20.334  1.00  0.00    -0.009 C 
HETATM   33  C18 UNL     1      36.231  35.408  19.206  1.00  0.00     0.005 C 
HETATM   34  C19 UNL     1      36.805  36.219  18.065  1.00  0.00     0.000 C 
HETATM   35  C20 UNL     1      37.986  36.913  18.687  1.00  0.00     0.000 C 
HETATM   36  C21 UNL     1      37.461  37.275  20.081  1.00  0.00     0.005 C 
ENDBRANCH  31  32
ENDBRANCH   5  31
TORSDOF 9
ENDMDL
MODEL 3
REMARK VINA RESULT: -8.276057080      0.735      1.188
REMARK  9 active torsions:
REMARK  status: ('A' for Active; 'I' for Inactive)
REMARK    1  A    between atoms: C2_2  and  N1_3 
REMARK    2  A    between atoms: C3_4  and  C4_5 
REMARK    3  A    between atoms: N3_15  and  C11_16 
REMARK    4  A    between atoms: C11_16  and  C12_17 
REMARK    5  A    between atoms: C12_17  and  O1_18 
REMARK    6  A    between atoms: C12_17  and  N4_20 
REMARK    7  A    between atoms: C15_25  and  C16_26 
REMARK    8  A    between atoms: C16_26  and  C17_27 
REMARK    9  A    between atoms: C22_32  and  C23_33 
ROOT
HETATM    1  N1  UNL     1      34.455  38.626  23.119  1.00  0.00    -0.308 N 
HETATM    2  C3  UNL     1      34.109  37.342  23.060  1.00  0.00     0.119 A 
HETATM    3  N5  UNL     1      34.340  36.938  21.803  1.00  0.00    -0.345 N 
ATOM      4  H5  UNL     1      34.163  35.991  21.469  1.00  0.00     0.167 HD
HETATM    5  C15 UNL     1      34.835  37.928  21.031  1.00  0.00     0.043 A 
HETATM    6  C22 UNL     1      34.901  39.009  21.875  1.00  0.00     0.146 A 
ENDROOT
BRANCH   2   7
HETATM    7  C4  UNL     1      33.563  36.351  24.080  1.00  0.00     0.118 C 
HETATM    8  C5  UNL     1      32.210  36.825  24.387  1.00  0.00     0.271 C 
HETATM    9  N2  UNL     1      31.691  36.579  25.703  1.00  0.00    -0.072 N 
HETATM   10  C6  UNL     1      32.606  36.945  26.750  1.00  0.00     0.233 C 
ATOM     11  H22 UNL     1      30.791  37.040  25.831  1.00  0.00     0.277 HD
ATOM     12  H21 UNL     1      31.397  35.607  25.801  1.00  0.00     0.277 HD
HETATM   13  C7  UNL     1      33.862  36.149  26.600  1.00  0.00     0.035 C 
HETATM   14  C8  UNL     1      34.491  36.188  25.260  1.00  0.00     0.026 C 
HETATM   15  C9  UNL     1      35.128  34.768  25.110  1.00  0.00     0.027 C 
HETATM   16  C10 UNL     1      35.080  34.689  23.603  1.00  0.00     0.124 C 
HETATM   17  N3  UNL     1      33.647  35.069  23.491  1.00  0.00    -0.371 N 
BRANCH  17  18
HETATM   18  C11 UNL     1      32.892  33.965  23.630  1.00  0.00     0.122 C 
BRANCH  18  19
HETATM   19  C12 UNL     1      31.814  33.592  22.637  1.00  0.00     0.395 C 
BRANCH  19  20
HETATM   20  O1  UNL     1      32.351  33.038  21.469  1.00  0.00    -0.364 OA
ATOM     21  H1  UNL     1      32.281  32.091  21.463  1.00  0.00     0.212 HD
ENDBRANCH  19  20
BRANCH  19  22
HETATM   22  N4  UNL     1      30.994  32.468  23.186  1.00  0.00     0.113 N 
HETATM   23  C13 UNL     1      31.496  31.207  22.694  1.00  0.00     0.313 C 
HETATM   24  C14 UNL     1      31.190  32.539  24.618  1.00  0.00     0.313 C 
ENDBRANCH  19  22
ENDBRANCH  18  19
ENDBRANCH  17  18
ENDBRANCH   2   7
BRANCH   1  25
HETATM   25  C2  UNL     1      34.349  39.467  24.241  1.00  0.00     0.067 C 
HETATM   26  C1  UNL     1      35.535  39.548  25.201  1.00  0.00     0.055 C 
ENDBRANCH   1  25
BRANCH   6  27
HETATM   27  C23 UNL     1      35.207  40.348  21.410  1.00  0.00     0.435 C 
HETATM   28  F1  UNL     1      33.978  41.029  21.068  1.00  0.00    -0.165 F 
HETATM   29  F2  UNL     1      35.956  41.081  22.276  1.00  0.00    -0.165 F 
HETATM   30  F3  UNL     1      35.877  40.478  20.220  1.00  0.00    -0.165 F 
ENDBRANCH   6  27
BRANCH   5  31
HETATM   31  C16 UNL     1      35.279  37.602  19.688  1.00  0.00     0.064 C 
BRANCH  31  32
HETATM   32  C17 UNL     1      36.545  36.796  19.591  1.00  0.00    -0.009 C 
HETATM   33  C18 UNL     1      36.401  35.883  18.365  1.00  0.00     0.005 C 
HETATM   34  C19 UNL     1      37.213  36.665  17.355  1.00  0.00     0.000 C 
HETATM   35  C20 UNL     1      38.436  37.074  18.130  1.00  0.00     0.000 C 
HETATM   36  C21 UNL     1      37.856  37.411  19.508  1.00  0.00     0.005 C 
ENDBRANCH  31  32
ENDBRANCH   5  31
TORSDOF 9
ENDMDL
MODEL 4
REMARK VINA RESULT: -8.143443139      2.644      4.331
REMARK  9 active torsions:
REMARK  status: ('A' for Active; 'I' for Inactive)
REMARK    1  A    between atoms: C2_2  and  N1_3 
REMARK    2  A    between atoms: C3_4  and  C4_5 
REMARK    3  A    between atoms: N3_15  and  C11_16 
REMARK    4  A    between atoms: C11_16  and  C12_17 
REMARK    5  A    between atoms: C12_17  and  O1_18 
REMARK    6  A    between atoms: C12_17  and  N4_20 
REMARK    7  A    between atoms: C15_25  and  C16_26 
REMARK    8  A    between atoms: C16_26  and  C17_27 
REMARK    9  A    between atoms: C22_32  and  C23_33 
ROOT
HETATM    1  N1  UNL     1      34.626  38.769  23.679  1.00  0.00    -0.308 N 
HETATM    2  C3  UNL     1      34.232  37.519  23.915  1.00  0.00     0.119 A 
HETATM    3  N5  UNL     1      34.277  36.873  22.741  1.00  0.00    -0.345 N 
ATOM      4  H5  UNL     1      34.024  35.893  22.623  1.00  0.00     0.167 HD
HETATM    5  C15 UNL     1      34.695  37.669  21.735  1.00  0.00     0.043 A 
HETATM    6  C22 UNL     1      34.912  38.884  22.338  1.00  0.00     0.146 A 
ENDROOT
BRANCH   2   7
HETATM    7  C4  UNL     1      33.797  36.772  25.168  1.00  0.00     0.118 C 
HETATM    8  C5  UNL     1      35.045  36.342  25.809  1.00  0.00     0.271 C 
HETATM    9  N2  UNL     1      35.029  35.123  26.567  1.00  0.00    -0.072 N 
HETATM   10  C6  UNL     1      34.417  34.028  25.866  1.00  0.00     0.233 C 
ATOM     11  H22 UNL     1      35.969  34.876  26.876  1.00  0.00     0.277 HD
ATOM     12  H21 UNL     1      34.586  35.266  27.475  1.00  0.00     0.277 HD
HETATM   13  C7  UNL     1      33.000  34.384  25.548  1.00  0.00     0.035 C 
HETATM   14  C8  UNL     1      32.803  35.679  24.857  1.00  0.00     0.026 C 
HETATM   15  C9  UNL     1      31.428  36.184  25.405  1.00  0.00     0.027 C 
HETATM   16  C10 UNL     1      31.677  37.663  25.231  1.00  0.00     0.124 C 
HETATM   17  N3  UNL     1      32.995  37.661  25.919  1.00  0.00    -0.371 N 
BRANCH  17  18
HETATM   18  C11 UNL     1      32.796  37.793  27.242  1.00  0.00     0.122 C 
BRANCH  18  19
HETATM   19  C12 UNL     1      33.544  38.808  28.077  1.00  0.00     0.395 C 
BRANCH  19  20
HETATM   20  O1  UNL     1      32.827  39.170  29.223  1.00  0.00    -0.364 OA
ATOM     21  H1  UNL     1      32.367  38.429  29.601  1.00  0.00     0.212 HD
ENDBRANCH  19  20
BRANCH  19  22
HETATM   22  N4  UNL     1      34.777  38.179  28.645  1.00  0.00     0.113 N 
HETATM   23  C13 UNL     1      35.513  39.153  29.417  1.00  0.00     0.313 C 
HETATM   24  C14 UNL     1      34.285  37.140  29.524  1.00  0.00     0.313 C 
ENDBRANCH  19  22
ENDBRANCH  18  19
ENDBRANCH  17  18
ENDBRANCH   2   7
BRANCH   1  25
HETATM   25  C2  UNL     1      34.702  39.810  24.620  1.00  0.00     0.067 C 
HETATM   26  C1  UNL     1      35.899  39.844  25.569  1.00  0.00     0.055 C 
ENDBRANCH   1  25
BRANCH   6  27
HETATM   27  C23 UNL     1      35.197  40.091  21.587  1.00  0.00     0.435 C 
HETATM   28  F1  UNL     1      33.960  40.789  21.313  1.00  0.00    -0.165 F 
HETATM   29  F2  UNL     1      36.109  40.910  22.174  1.00  0.00    -0.165 F 
HETATM   30  F3  UNL     1      35.668  39.955  20.306  1.00  0.00    -0.165 F 
ENDBRANCH   6  27
BRANCH   5  31
HETATM   31  C16 UNL     1      34.942  37.071  20.436  1.00  0.00     0.064 C 
BRANCH  31  32
HETATM   32  C17 UNL     1      36.304  36.465  20.237  1.00  0.00    -0.009 C 
HETATM   33  C18 UNL     1      36.170  35.416  19.124  1.00  0.00     0.005 C 
HETATM   34  C19 UNL     1      36.713  36.203  17.951  1.00  0.00     0.000 C 
HETATM   35  C20 UNL     1      37.933  36.877  18.517  1.00  0.00     0.000 C 
HETATM   36  C21 UNL     1      37.475  37.264  19.927  1.00  0.00     0.005 C 
ENDBRANCH  31  32
ENDBRANCH   5  31
TORSDOF 9
ENDMDL
MODEL 5
REMARK VINA RESULT: -7.899219213      1.780      2.610
REMARK  9 active torsions:
REMARK  status: ('A' for Active; 'I' for Inactive)
REMARK    1  A    between atoms: C2_2  and  N1_3 
REMARK    2  A    between atoms: C3_4  and  C4_5 
REMARK    3  A    between atoms: N3_15  and  C11_16 
REMARK    4  A    between atoms: C11_16  and  C12_17 
REMARK    5  A    between atoms: C12_17  and  O1_18 
REMARK    6  A    between atoms: C12_17  and  N4_20 
REMARK    7  A    between atoms: C15_25  and  C16_26 
REMARK    8  A    between atoms: C16_26  and  C17_27 
REMARK    9  A    between atoms: C22_32  and  C23_33 
ROOT
HETATM    1  N1  UNL     1      35.964  37.197  21.916  1.00  0.00    -0.308 N 
HETATM    2  C3  UNL     1      34.968  36.445  22.379  1.00  0.00     0.119 A 
HETATM    3  N5  UNL     1      34.747  35.491  21.463  1.00  0.00    -0.345 N 
ATOM      4  H5  UNL     1      34.033  34.770  21.555  1.00  0.00     0.167 HD
HETATM    5  C15 UNL     1      35.578  35.596  20.405  1.00  0.00     0.043 A 
HETATM    6  C22 UNL     1      36.352  36.692  20.696  1.00  0.00     0.146 A 
ENDROOT
BRANCH   2   7
HETATM    7  C4  UNL     1      34.132  36.473  23.651  1.00  0.00     0.118 C 
HETATM    8  C5  UNL     1      32.956  37.284  23.318  1.00  0.00     0.271 C 
HETATM    9  N2  UNL     1      32.344  38.049  24.367  1.00  0.00    -0.072 N 
HETATM   10  C6  UNL     1      33.288  38.817  25.133  1.00  0.00     0.233 C 
ATOM     11  H22 UNL     1      31.605  38.647  23.997  1.00  0.00     0.277 HD
ATOM     12  H21 UNL     1      31.786  37.449  24.976  1.00  0.00     0.277 HD
HETATM   13  C7  UNL     1      34.275  37.887  25.763  1.00  0.00     0.035 C 
HETATM   14  C8  UNL     1      34.935  36.932  24.844  1.00  0.00     0.026 C 
HETATM   15  C9  UNL     1      35.153  35.661  25.728  1.00  0.00     0.027 C 
HETATM   16  C10 UNL     1      35.136  34.641  24.614  1.00  0.00     0.124 C 
HETATM   17  N3  UNL     1      33.872  35.128  24.002  1.00  0.00    -0.371 N 
BRANCH  17  18
HETATM   18  C11 UNL     1      32.833  34.546  24.625  1.00  0.00     0.122 C 
BRANCH  18  19
HETATM   19  C12 UNL     1      31.818  33.700  23.891  1.00  0.00     0.395 C 
BRANCH  19  20
HETATM   20  O1  UNL     1      32.388  33.031  22.802  1.00  0.00    -0.364 OA
ATOM     21  H1  UNL     1      32.380  33.565  22.016  1.00  0.00     0.212 HD
ENDBRANCH  19  20
BRANCH  19  22
HETATM   22  N4  UNL     1      31.372  32.575  24.771  1.00  0.00     0.113 N 
HETATM   23  C13 UNL     1      30.630  33.096  25.895  1.00  0.00     0.313 C 
HETATM   24  C14 UNL     1      30.491  31.787  23.936  1.00  0.00     0.313 C 
ENDBRANCH  19  22
ENDBRANCH  18  19
ENDBRANCH  17  18
ENDBRANCH   2   7
BRANCH   1  25
HETATM   25  C2  UNL     1      36.507  38.335  22.536  1.00  0.00     0.067 C 
HETATM   26  C1  UNL     1      35.730  39.648  22.449  1.00  0.00     0.055 C 
ENDBRANCH   1  25
BRANCH   6  27
HETATM   27  C23 UNL     1      37.265  37.282  19.736  1.00  0.00     0.435 C 
HETATM   28  F1  UNL     1      36.659  38.462  19.159  1.00  0.00    -0.165 F 
HETATM   29  F2  UNL     1      38.500  37.553  20.236  1.00  0.00    -0.165 F 
HETATM   30  F3  UNL     1      37.534  36.581  18.588  1.00  0.00    -0.165 F 
ENDBRANCH   6  27
BRANCH   5  31
HETATM   31  C16 UNL     1      35.563  34.544  19.405  1.00  0.00     0.064 C 
BRANCH  31  32
HETATM   32  C17 UNL     1      34.547  34.694  18.307  1.00  0.00    -0.009 C 
HETATM   33  C18 UNL     1      34.477  36.188  17.962  1.00  0.00     0.005 C 
HETATM   34  C19 UNL     1      35.338  36.214  16.718  1.00  0.00     0.000 C 
HETATM   35  C20 UNL     1      34.873  35.010  15.945  1.00  0.00     0.000 C 
HETATM   36  C21 UNL     1      34.645  33.974  17.051  1.00  0.00     0.005 C 
ENDBRANCH  31  32
ENDBRANCH   5  31
TORSDOF 9
ENDMDL
