MODEL 1
REMARK VINA RESULT: -7.836573217      0.000      0.000
REMARK  12 active torsions:
REMARK  status: ('A' for Active; 'I' for Inactive)
REMARK    1  A    between atoms: C2_2  and  C3_3 
REMARK    2  A    between atoms: C3_3  and  O1_4 
REMARK    3  A    between atoms: C3_3  and  C4_6 
REMARK    4  A    between atoms: C6_8  and  C7_9 
REMARK    5  A    between atoms: C7_9  and  N1_10 
REMARK    6  A    between atoms: C11_14  and  N2_15 
REMARK    7  A    between atoms: C11_14  and  C12_21 
REMARK    8  A    between atoms: N2_15  and  N3_17 
REMARK    9  A    between atoms: N3_17  and  N4_18 
REMARK   10  A    between atoms: C15_26  and  O4_27 
REMARK   11  A    between atoms: C15_26  and  C16_29 
REMARK   12  A    between atoms: C16_29  and  C17_31 
ROOT
HETATM    1  C4  UNL     1      34.790  36.747  22.744  1.00  0.00    -0.025 C 
HETATM    2  C5  UNL     1      35.836  37.188  21.993  1.00  0.00    -0.010 C 
HETATM    3  C6  UNL     1      35.958  38.540  21.453  1.00  0.00     0.040 C 
HETATM    4  C14 UNL     1      35.147  39.603  22.091  1.00  0.00     0.057 C 
HETATM    5  C15 UNL     1      34.169  39.160  23.098  1.00  0.00     0.135 C 
HETATM    6  C18 UNL     1      33.755  37.693  22.985  1.00  0.00     0.059 C 
HETATM    7  C19 UNL     1      32.801  37.352  24.089  1.00  0.00     0.018 C 
ENDROOT
BRANCH   3   8
HETATM    8  C7  UNL     1      35.755  38.540  19.922  1.00  0.00     0.281 C 
BRANCH   8   9
HETATM    9  N1  UNL     1      35.889  37.174  19.449  1.00  0.00     0.092 N 
HETATM   10  C8  UNL     1      37.150  36.920  18.830  1.00  0.00     0.280 C 
HETATM   11  C9  UNL     1      36.884  36.276  17.483  1.00  0.00     0.053 C 
HETATM   12  C10 UNL     1      36.900  37.327  16.411  1.00  0.00     0.015 C 
HETATM   13  C11 UNL     1      35.484  35.739  17.699  1.00  0.00     0.178 C 
HETATM   14  C13 UNL     1      34.860  36.853  18.511  1.00  0.00     0.317 C 
BRANCH  13  15
HETATM   15  N2  UNL     1      35.516  34.560  18.545  1.00  0.00    -0.230 N 
ATOM     16  H2  UNL     1      36.309  33.922  18.479  1.00  0.00     0.198 HD
BRANCH  15  17
HETATM   17  N3  UNL     1      34.605  34.308  19.346  1.00  0.00    -0.247 NA
BRANCH  17  18
HETATM   18  N4  UNL     1      33.585  33.849  19.838  1.00  0.00    -0.261 N 
ATOM     19  H42 UNL     1      33.770  32.884  19.562  1.00  0.00     0.193 HD
ATOM     20  H41 UNL     1      32.693  33.774  20.326  1.00  0.00     0.193 HD
ENDBRANCH  17  18
ENDBRANCH  15  17
ENDBRANCH  13  15
BRANCH  13  21
HETATM   21  C12 UNL     1      34.749  35.480  16.449  1.00  0.00     0.207 C 
HETATM   22  O2  UNL     1      33.603  35.888  16.207  1.00  0.00    -0.646 OA
HETATM   23  O3  UNL     1      35.396  34.713  15.463  1.00  0.00    -0.646 OA
ENDBRANCH  13  21
ENDBRANCH   8   9
ENDBRANCH   3   8
BRANCH   1  24
HETATM   24  C3  UNL     1      34.859  35.391  23.175  1.00  0.00     0.049 C 
BRANCH  24  25
HETATM   25  C2  UNL     1      35.650  34.685  24.165  1.00  0.00     0.060 C 
HETATM   26  C1  UNL     1      34.932  34.721  25.534  1.00  0.00     0.012 C 
ENDBRANCH  24  25
BRANCH  24  27
HETATM   27  O1  UNL     1      34.027  34.537  22.562  1.00  0.00    -0.364 OA
ATOM     28  H1  UNL     1      34.175  34.558  21.624  1.00  0.00     0.217 HD
ENDBRANCH  24  27
ENDBRANCH   1  24
BRANCH   5  29
HETATM   29  O4  UNL     1      32.938  39.821  22.779  1.00  0.00    -0.381 OA
ATOM     30  H4  UNL     1      32.298  39.133  22.633  1.00  0.00     0.211 HD
ENDBRANCH   5  29
BRANCH   5  31
HETATM   31  C16 UNL     1      34.461  39.538  24.503  1.00  0.00     0.267 C 
HETATM   32  O5  UNL     1      33.614  40.220  25.127  1.00  0.00    -0.285 OA
BRANCH  31  33
HETATM   33  C17 UNL     1      35.657  39.208  25.285  1.00  0.00     0.454 C 
HETATM   34  F1  UNL     1      36.821  39.043  24.599  1.00  0.00    -0.163 F 
HETATM   35  F2  UNL     1      35.828  40.104  26.361  1.00  0.00    -0.163 F 
HETATM   36  F3  UNL     1      35.476  37.986  25.953  1.00  0.00    -0.163 F 
ENDBRANCH  31  33
ENDBRANCH   5  31
TORSDOF 12
ENDMDL
MODEL 2
REMARK VINA RESULT: -7.523540781      1.221      1.489
REMARK  12 active torsions:
REMARK  status: ('A' for Active; 'I' for Inactive)
REMARK    1  A    between atoms: C2_2  and  C3_3 
REMARK    2  A    between atoms: C3_3  and  O1_4 
REMARK    3  A    between atoms: C3_3  and  C4_6 
REMARK    4  A    between atoms: C6_8  and  C7_9 
REMARK    5  A    between atoms: C7_9  and  N1_10 
REMARK    6  A    between atoms: C11_14  and  N2_15 
REMARK    7  A    between atoms: C11_14  and  C12_21 
REMARK    8  A    between atoms: N2_15  and  N3_17 
REMARK    9  A    between atoms: N3_17  and  N4_18 
REMARK   10  A    between atoms: C15_26  and  O4_27 
REMARK   11  A    between atoms: C15_26  and  C16_29 
REMARK   12  A    between atoms: C16_29  and  C17_31 
ROOT
HETATM    1  C4  UNL     1      34.516  36.736  22.796  1.00  0.00    -0.025 C 
HETATM    2  C5  UNL     1      35.467  37.147  21.912  1.00  0.00    -0.010 C 
HETATM    3  C6  UNL     1      35.569  38.502  21.375  1.00  0.00     0.040 C 
HETATM    4  C14 UNL     1      34.900  39.586  22.132  1.00  0.00     0.057 C 
HETATM    5  C15 UNL     1      34.053  39.166  23.260  1.00  0.00     0.135 C 
HETATM    6  C18 UNL     1      33.565  37.719  23.188  1.00  0.00     0.059 C 
HETATM    7  C19 UNL     1      32.760  37.398  24.410  1.00  0.00     0.018 C 
ENDROOT
BRANCH   3   8
HETATM    8  C7  UNL     1      35.157  38.536  19.887  1.00  0.00     0.281 C 
BRANCH   8   9
HETATM    9  N1  UNL     1      35.502  37.256  19.294  1.00  0.00     0.092 N 
HETATM   10  C8  UNL     1      36.737  36.732  19.779  1.00  0.00     0.280 C 
HETATM   11  C9  UNL     1      37.586  36.359  18.578  1.00  0.00     0.053 C 
HETATM   12  C10 UNL     1      38.526  37.485  18.258  1.00  0.00     0.015 C 
HETATM   13  C11 UNL     1      36.520  36.220  17.512  1.00  0.00     0.178 C 
HETATM   14  C13 UNL     1      35.589  37.358  17.871  1.00  0.00     0.317 C 
BRANCH  13  15
HETATM   15  N2  UNL     1      35.776  34.986  17.693  1.00  0.00    -0.230 N 
ATOM     16  H2  UNL     1      35.909  34.447  18.549  1.00  0.00     0.198 HD
BRANCH  15  17
HETATM   17  N3  UNL     1      34.983  34.571  16.836  1.00  0.00    -0.247 NA
BRANCH  17  18
HETATM   18  N4  UNL     1      34.346  33.825  16.109  1.00  0.00    -0.261 N 
ATOM     19  H42 UNL     1      35.114  33.177  15.936  1.00  0.00     0.193 HD
ATOM     20  H41 UNL     1      33.584  33.417  15.567  1.00  0.00     0.193 HD
ENDBRANCH  17  18
ENDBRANCH  15  17
ENDBRANCH  13  15
BRANCH  13  21
HETATM   21  C12 UNL     1      37.037  36.334  16.138  1.00  0.00     0.207 C 
HETATM   22  O2  UNL     1      37.800  35.516  15.600  1.00  0.00    -0.646 OA
HETATM   23  O3  UNL     1      36.638  37.453  15.384  1.00  0.00    -0.646 OA
ENDBRANCH  13  21
ENDBRANCH   8   9
ENDBRANCH   3   8
BRANCH   1  24
HETATM   24  C3  UNL     1      34.587  35.371  23.198  1.00  0.00     0.049 C 
BRANCH  24  25
HETATM   25  C2  UNL     1      35.472  34.618  24.067  1.00  0.00     0.060 C 
HETATM   26  C1  UNL     1      34.963  34.694  25.525  1.00  0.00     0.012 C 
ENDBRANCH  24  25
BRANCH  24  27
HETATM   27  O1  UNL     1      33.649  34.560  22.689  1.00  0.00    -0.364 OA
ATOM     28  H1  UNL     1      33.277  34.947  21.906  1.00  0.00     0.217 HD
ENDBRANCH  24  27
ENDBRANCH   1  24
BRANCH   5  29
HETATM   29  O4  UNL     1      32.819  39.880  23.122  1.00  0.00    -0.381 OA
ATOM     30  H4  UNL     1      33.002  40.778  23.375  1.00  0.00     0.211 HD
ENDBRANCH   5  29
BRANCH   5  31
HETATM   31  C16 UNL     1      34.552  39.508  24.615  1.00  0.00     0.267 C 
HETATM   32  O5  UNL     1      33.829  40.214  25.357  1.00  0.00    -0.285 OA
BRANCH  31  33
HETATM   33  C17 UNL     1      35.829  39.116  25.219  1.00  0.00     0.454 C 
HETATM   34  F1  UNL     1      36.886  38.942  24.380  1.00  0.00    -0.163 F 
HETATM   35  F2  UNL     1      36.170  39.967  26.291  1.00  0.00    -0.163 F 
HETATM   36  F3  UNL     1      35.697  37.876  25.866  1.00  0.00    -0.163 F 
ENDBRANCH  31  33
ENDBRANCH   5  31
TORSDOF 12
ENDMDL
MODEL 3
REMARK VINA RESULT: -7.486371103      1.451      1.836
REMARK  12 active torsions:
REMARK  status: ('A' for Active; 'I' for Inactive)
REMARK    1  A    between atoms: C2_2  and  C3_3 
REMARK    2  A    between atoms: C3_3  and  O1_4 
REMARK    3  A    between atoms: C3_3  and  C4_6 
REMARK    4  A    between atoms: C6_8  and  C7_9 
REMARK    5  A    between atoms: C7_9  and  N1_10 
REMARK    6  A    between atoms: C11_14  and  N2_15 
REMARK    7  A    between atoms: C11_14  and  C12_21 
REMARK    8  A    between atoms: N2_15  and  N3_17 
REMARK    9  A    between atoms: N3_17  and  N4_18 
REMARK   10  A    between atoms: C15_26  and  O4_27 
REMARK   11  A    between atoms: C15_26  and  C16_29 
REMARK   12  A    between atoms: C16_29  and  C17_31 
ROOT
HETATM    1  C4  UNL     1      33.974  36.557  22.924  1.00  0.00    -0.025 C 
HETATM    2  C5  UNL     1      35.014  36.815  22.084  1.00  0.00    -0.010 C 
HETATM    3  C6  UNL     1      35.393  38.145  21.617  1.00  0.00     0.040 C 
HETATM    4  C14 UNL     1      34.918  39.305  22.407  1.00  0.00     0.057 C 
HETATM    5  C15 UNL     1      33.968  39.009  23.492  1.00  0.00     0.135 C 
HETATM    6  C18 UNL     1      33.216  37.687  23.339  1.00  0.00     0.059 C 
HETATM    7  C19 UNL     1      32.323  37.476  24.524  1.00  0.00     0.018 C 
ENDROOT
BRANCH   3   8
HETATM    8  C7  UNL     1      35.045  38.321  20.122  1.00  0.00     0.281 C 
BRANCH   8   9
HETATM    9  N1  UNL     1      35.403  37.097  19.429  1.00  0.00     0.092 N 
HETATM   10  C8  UNL     1      36.644  36.549  19.869  1.00  0.00     0.280 C 
HETATM   11  C9  UNL     1      37.495  36.283  18.642  1.00  0.00     0.053 C 
HETATM   12  C10 UNL     1      38.423  37.441  18.412  1.00  0.00     0.015 C 
HETATM   13  C11 UNL     1      36.429  36.218  17.568  1.00  0.00     0.178 C 
HETATM   14  C13 UNL     1      35.486  37.313  18.018  1.00  0.00     0.317 C 
BRANCH  13  15
HETATM   15  N2  UNL     1      35.699  34.965  17.651  1.00  0.00    -0.230 N 
ATOM     16  H2  UNL     1      35.819  34.373  18.473  1.00  0.00     0.198 HD
BRANCH  15  17
HETATM   17  N3  UNL     1      34.933  34.596  16.750  1.00  0.00    -0.247 NA
BRANCH  17  18
HETATM   18  N4  UNL     1      34.327  33.892  15.957  1.00  0.00    -0.261 N 
ATOM     19  H42 UNL     1      34.719  33.011  16.290  1.00  0.00     0.193 HD
ATOM     20  H41 UNL     1      33.708  33.590  15.205  1.00  0.00     0.193 HD
ENDBRANCH  17  18
ENDBRANCH  15  17
ENDBRANCH  13  15
BRANCH  13  21
HETATM   21  C12 UNL     1      36.943  36.447  16.208  1.00  0.00     0.207 C 
HETATM   22  O2  UNL     1      36.618  37.400  15.481  1.00  0.00    -0.646 OA
HETATM   23  O3  UNL     1      37.867  35.517  15.697  1.00  0.00    -0.646 OA
ENDBRANCH  13  21
ENDBRANCH   8   9
ENDBRANCH   3   8
BRANCH   1  24
HETATM   24  C3  UNL     1      33.768  35.188  23.261  1.00  0.00     0.049 C 
BRANCH  24  25
HETATM   25  C2  UNL     1      32.747  34.210  22.937  1.00  0.00     0.060 C 
HETATM   26  C1  UNL     1      31.929  33.866  24.203  1.00  0.00     0.012 C 
ENDBRANCH  24  25
BRANCH  24  27
HETATM   27  O1  UNL     1      34.699  34.631  24.049  1.00  0.00    -0.364 OA
ATOM     28  H1  UNL     1      34.817  35.157  24.831  1.00  0.00     0.217 HD
ENDBRANCH  24  27
ENDBRANCH   1  24
BRANCH   5  29
HETATM   29  O4  UNL     1      32.899  39.953  23.358  1.00  0.00    -0.381 OA
ATOM     30  H4  UNL     1      32.283  39.759  24.056  1.00  0.00     0.211 HD
ENDBRANCH   5  29
BRANCH   5  31
HETATM   31  C16 UNL     1      34.478  39.190  24.874  1.00  0.00     0.267 C 
HETATM   32  O5  UNL     1      33.864  39.972  25.639  1.00  0.00    -0.285 OA
BRANCH  31  33
HETATM   33  C17 UNL     1      35.650  38.554  25.483  1.00  0.00     0.454 C 
HETATM   34  F1  UNL     1      35.555  37.228  25.775  1.00  0.00    -0.163 F 
HETATM   35  F2  UNL     1      36.821  38.825  24.744  1.00  0.00    -0.163 F 
HETATM   36  F3  UNL     1      35.942  39.158  26.717  1.00  0.00    -0.163 F 
ENDBRANCH  31  33
ENDBRANCH   5  31
TORSDOF 12
ENDMDL
MODEL 4
REMARK VINA RESULT: -7.450895151      1.752      2.802
REMARK  12 active torsions:
REMARK  status: ('A' for Active; 'I' for Inactive)
REMARK    1  A    between atoms: C2_2  and  C3_3 
REMARK    2  A    between atoms: C3_3  and  O1_4 
REMARK    3  A    between atoms: C3_3  and  C4_6 
REMARK    4  A    between atoms: C6_8  and  C7_9 
REMARK    5  A    between atoms: C7_9  and  N1_10 
REMARK    6  A    between atoms: C11_14  and  N2_15 
REMARK    7  A    between atoms: C11_14  and  C12_21 
REMARK    8  A    between atoms: N2_15  and  N3_17 
REMARK    9  A    between atoms: N3_17  and  N4_18 
REMARK   10  A    between atoms: C15_26  and  O4_27 
REMARK   11  A    between atoms: C15_26  and  C16_29 
REMARK   12  A    between atoms: C16_29  and  C17_31 
ROOT
HETATM    1  C4  UNL     1      33.909  35.636  24.904  1.00  0.00    -0.025 C 
HETATM    2  C5  UNL     1      34.985  35.446  24.092  1.00  0.00    -0.010 C 
HETATM    3  C6  UNL     1      35.327  36.298  22.956  1.00  0.00     0.040 C 
HETATM    4  C14 UNL     1      34.751  37.663  22.932  1.00  0.00     0.057 C 
HETATM    5  C15 UNL     1      33.753  37.968  23.970  1.00  0.00     0.135 C 
HETATM    6  C18 UNL     1      33.074  36.742  24.582  1.00  0.00     0.059 C 
HETATM    7  C19 UNL     1      32.123  37.177  25.654  1.00  0.00     0.018 C 
ENDROOT
BRANCH   3   8
HETATM    8  C7  UNL     1      35.063  35.567  21.622  1.00  0.00     0.281 C 
BRANCH   8   9
HETATM    9  N1  UNL     1      36.030  36.042  20.648  1.00  0.00     0.092 N 
HETATM   10  C8  UNL     1      35.899  37.434  20.365  1.00  0.00     0.280 C 
HETATM   11  C9  UNL     1      35.834  37.598  18.859  1.00  0.00     0.053 C 
HETATM   12  C10 UNL     1      34.399  37.673  18.422  1.00  0.00     0.015 C 
HETATM   13  C11 UNL     1      36.473  36.301  18.407  1.00  0.00     0.178 C 
HETATM   14  C13 UNL     1      35.912  35.324  19.417  1.00  0.00     0.317 C 
BRANCH  13  15
HETATM   15  N2  UNL     1      37.910  36.345  18.608  1.00  0.00    -0.230 N 
ATOM     16  H2  UNL     1      38.350  35.645  19.205  1.00  0.00     0.198 HD
BRANCH  15  17
HETATM   17  N3  UNL     1      38.617  37.211  18.073  1.00  0.00    -0.247 NA
BRANCH  17  18
HETATM   18  N4  UNL     1      39.299  37.812  17.257  1.00  0.00    -0.261 N 
ATOM     19  H42 UNL     1      38.894  37.358  16.439  1.00  0.00     0.193 HD
ATOM     20  H41 UNL     1      39.984  38.446  16.845  1.00  0.00     0.193 HD
ENDBRANCH  17  18
ENDBRANCH  15  17
ENDBRANCH  13  15
BRANCH  13  21
HETATM   21  C12 UNL     1      36.138  35.926  17.023  1.00  0.00     0.207 C 
HETATM   22  O2  UNL     1      36.534  36.530  16.013  1.00  0.00    -0.646 OA
HETATM   23  O3  UNL     1      35.311  34.804  16.835  1.00  0.00    -0.646 OA
ENDBRANCH  13  21
ENDBRANCH   8   9
ENDBRANCH   3   8
BRANCH   1  24
HETATM   24  C3  UNL     1      33.749  34.691  25.958  1.00  0.00     0.049 C 
BRANCH  24  25
HETATM   25  C2  UNL     1      34.197  34.629  27.336  1.00  0.00     0.060 C 
HETATM   26  C1  UNL     1      32.997  34.329  28.265  1.00  0.00     0.012 C 
ENDBRANCH  24  25
BRANCH  24  27
HETATM   27  O1  UNL     1      33.030  33.598  25.663  1.00  0.00    -0.364 OA
ATOM     28  H1  UNL     1      33.262  33.283  24.798  1.00  0.00     0.217 HD
ENDBRANCH  24  27
ENDBRANCH   1  24
BRANCH   5  29
HETATM   29  O4  UNL     1      32.650  38.587  23.296  1.00  0.00    -0.381 OA
ATOM     30  H4  UNL     1      31.927  37.972  23.349  1.00  0.00     0.211 HD
ENDBRANCH   5  29
BRANCH   5  31
HETATM   31  C16 UNL     1      34.169  38.939  25.012  1.00  0.00     0.267 C 
HETATM   32  O5  UNL     1      33.475  39.971  25.177  1.00  0.00    -0.285 OA
BRANCH  31  33
HETATM   33  C17 UNL     1      35.329  38.848  25.903  1.00  0.00     0.454 C 
HETATM   34  F1  UNL     1      35.420  37.744  26.694  1.00  0.00    -0.163 F 
HETATM   35  F2  UNL     1      36.533  39.065  25.200  1.00  0.00    -0.163 F 
HETATM   36  F3  UNL     1      35.328  39.921  26.810  1.00  0.00    -0.163 F 
ENDBRANCH  31  33
ENDBRANCH   5  31
TORSDOF 12
ENDMDL
MODEL 5
REMARK VINA RESULT: -7.324950648      1.724      2.774
REMARK  12 active torsions:
REMARK  status: ('A' for Active; 'I' for Inactive)
REMARK    1  A    between atoms: C2_2  and  C3_3 
REMARK    2  A    between atoms: C3_3  and  O1_4 
REMARK    3  A    between atoms: C3_3  and  C4_6 
REMARK    4  A    between atoms: C6_8  and  C7_9 
REMARK    5  A    between atoms: C7_9  and  N1_10 
REMARK    6  A    between atoms: C11_14  and  N2_15 
REMARK    7  A    between atoms: C11_14  and  C12_21 
REMARK    8  A    between atoms: N2_15  and  N3_17 
REMARK    9  A    between atoms: N3_17  and  N4_18 
REMARK   10  A    between atoms: C15_26  and  O4_27 
REMARK   11  A    between atoms: C15_26  and  C16_29 
REMARK   12  A    between atoms: C16_29  and  C17_31 
ROOT
HETATM    1  C4  UNL     1      33.466  36.592  23.464  1.00  0.00    -0.025 C 
HETATM    2  C5  UNL     1      34.524  35.857  23.024  1.00  0.00    -0.010 C 
HETATM    3  C6  UNL     1      35.501  36.317  22.042  1.00  0.00     0.040 C 
HETATM    4  C14 UNL     1      35.617  37.779  21.829  1.00  0.00     0.057 C 
HETATM    5  C15 UNL     1      34.614  38.617  22.507  1.00  0.00     0.135 C 
HETATM    6  C18 UNL     1      33.327  37.887  22.892  1.00  0.00     0.059 C 
HETATM    7  C19 UNL     1      32.412  38.827  23.616  1.00  0.00     0.018 C 
ENDROOT
BRANCH   3   8
HETATM    8  C7  UNL     1      35.316  35.581  20.697  1.00  0.00     0.281 C 
BRANCH   8   9
HETATM    9  N1  UNL     1      35.774  36.458  19.635  1.00  0.00     0.092 N 
HETATM   10  C8  UNL     1      34.723  37.236  19.063  1.00  0.00     0.280 C 
HETATM   11  C9  UNL     1      34.789  37.067  17.557  1.00  0.00     0.053 C 
HETATM   12  C10 UNL     1      33.831  35.993  17.128  1.00  0.00     0.015 C 
HETATM   13  C11 UNL     1      36.224  36.617  17.386  1.00  0.00     0.178 C 
HETATM   14  C13 UNL     1      36.398  35.713  18.587  1.00  0.00     0.317 C 
BRANCH  13  15
HETATM   15  N2  UNL     1      37.133  37.736  17.558  1.00  0.00    -0.230 N 
ATOM     16  H2  UNL     1      36.765  38.686  17.519  1.00  0.00     0.198 HD
BRANCH  15  17
HETATM   17  N3  UNL     1      38.345  37.567  17.753  1.00  0.00    -0.247 NA
BRANCH  17  18
HETATM   18  N4  UNL     1      39.556  37.557  17.595  1.00  0.00    -0.261 N 
ATOM     19  H42 UNL     1      39.732  38.406  18.133  1.00  0.00     0.193 HD
ATOM     20  H41 UNL     1      40.493  37.285  17.297  1.00  0.00     0.193 HD
ENDBRANCH  17  18
ENDBRANCH  15  17
ENDBRANCH  13  15
BRANCH  13  21
HETATM   21  C12 UNL     1      36.478  35.914  16.117  1.00  0.00     0.207 C 
HETATM   22  O2  UNL     1      36.355  34.690  15.951  1.00  0.00    -0.646 OA
HETATM   23  O3  UNL     1      36.890  36.688  15.016  1.00  0.00    -0.646 OA
ENDBRANCH  13  21
ENDBRANCH   8   9
ENDBRANCH   3   8
BRANCH   1  24
HETATM   24  C3  UNL     1      32.625  35.961  24.426  1.00  0.00     0.049 C 
BRANCH  24  25
HETATM   25  C2  UNL     1      32.716  35.740  25.857  1.00  0.00     0.060 C 
HETATM   26  C1  UNL     1      31.973  36.866  26.611  1.00  0.00     0.012 C 
ENDBRANCH  24  25
BRANCH  24  27
HETATM   27  O1  UNL     1      31.481  35.443  23.957  1.00  0.00    -0.364 OA
ATOM     28  H1  UNL     1      31.126  34.823  24.583  1.00  0.00     0.217 HD
ENDBRANCH  24  27
ENDBRANCH   1  24
BRANCH   5  29
HETATM   29  O4  UNL     1      34.127  39.536  21.522  1.00  0.00    -0.381 OA
ATOM     30  H4  UNL     1      34.751  40.252  21.495  1.00  0.00     0.211 HD
ENDBRANCH   5  29
BRANCH   5  31
HETATM   31  C16 UNL     1      35.114  39.464  23.618  1.00  0.00     0.267 C 
HETATM   32  O5  UNL     1      34.876  40.695  23.584  1.00  0.00    -0.285 OA
BRANCH  31  33
HETATM   33  C17 UNL     1      35.881  39.035  24.791  1.00  0.00     0.454 C 
HETATM   34  F1  UNL     1      35.466  37.904  25.425  1.00  0.00    -0.163 F 
HETATM   35  F2  UNL     1      37.261  38.976  24.507  1.00  0.00    -0.163 F 
HETATM   36  F3  UNL     1      35.834  40.024  25.788  1.00  0.00    -0.163 F 
ENDBRANCH  31  33
ENDBRANCH   5  31
TORSDOF 12
ENDMDL
