MODEL 1
REMARK VINA RESULT: -7.679674294      0.000      0.000
REMARK  8 active torsions:
REMARK  status: ('A' for Active; 'I' for Inactive)
REMARK    1  A    between atoms: C2_2  and  C3_3 
REMARK    2  A    between atoms: C3_3  and  N1_5 
REMARK    3  A    between atoms: C6_10  and  N3_11 
REMARK    4  A    between atoms: C10_15  and  C11_16 
REMARK    5  A    between atoms: C12_21  and  O1_22 
REMARK    6  A    between atoms: O1_22  and  C13_23 
REMARK    7  A    between atoms: C15_25  and  O2_27 
REMARK    8  A    between atoms: C17_29  and  N5_31 
ROOT
HETATM    1  N1  UNL     1      35.571  39.704  27.220  1.00  0.00    -0.366 N 
ATOM      2  H1  UNL     1      36.362  40.199  26.806  1.00  0.00     0.161 HD
HETATM    3  C5  UNL     1      34.857  39.266  26.312  1.00  0.00     0.161 A 
HETATM    4  N2  UNL     1      35.187  39.481  24.988  1.00  0.00    -0.173 N 
ATOM      5  H2  UNL     1      36.033  40.010  24.776  1.00  0.00     0.186 HD
HETATM    6  C6  UNL     1      34.456  39.033  23.986  1.00  0.00     0.684 A 
HETATM    7  N4  UNL     1      33.339  38.337  24.212  1.00  0.00    -0.167 N 
ATOM      8  H4  UNL     1      32.794  38.004  23.417  1.00  0.00     0.186 HD
HETATM    9  C12 UNL     1      32.899  38.055  25.489  1.00  0.00     0.201 A 
HETATM   10  C22 UNL     1      33.700  38.545  26.511  1.00  0.00     0.211 A 
HETATM   11  F3  UNL     1      33.251  38.256  27.768  1.00  0.00    -0.197 F 
ENDROOT
BRANCH   9  12
HETATM   12  O1  UNL     1      31.753  37.341  25.601  1.00  0.00    -0.327 OA
BRANCH  12  13
HETATM   13  C13 UNL     1      31.364  36.051  25.502  1.00  0.00     0.136 C 
HETATM   14  C14 UNL     1      31.772  35.454  24.154  1.00  0.00     0.072 C 
HETATM   15  C15 UNL     1      32.225  34.052  24.434  1.00  0.00     0.092 C 
HETATM   16  C16 UNL     1      31.491  33.105  23.547  1.00  0.00     0.048 C 
HETATM   17  C17 UNL     1      31.973  33.825  25.908  1.00  0.00     0.187 C 
HETATM   18  C18 UNL     1      30.543  33.536  26.223  1.00  0.00     0.053 C 
HETATM   19  C21 UNL     1      32.271  35.230  26.447  1.00  0.00     0.077 C 
BRANCH  15  20
HETATM   20  O2  UNL     1      33.610  34.009  24.253  1.00  0.00    -0.387 OA
ATOM     21  H2  UNL     1      33.776  33.835  23.334  1.00  0.00     0.210 HD
ENDBRANCH  15  20
BRANCH  17  22
HETATM   22  N5  UNL     1      32.912  32.932  26.511  1.00  0.00     0.092 N 
HETATM   23  C19 UNL     1      32.326  31.702  26.975  1.00  0.00     0.310 C 
HETATM   24  C20 UNL     1      33.506  33.599  27.648  1.00  0.00     0.310 C 
ENDBRANCH  17  22
ENDBRANCH  12  13
ENDBRANCH   9  12
BRANCH   6  25
HETATM   25  N3  UNL     1      34.838  39.281  22.617  1.00  0.00    -0.207 N 
HETATM   26  C7  UNL     1      35.385  40.533  22.134  1.00  0.00     0.142 C 
HETATM   27  C8  UNL     1      35.091  40.584  20.655  1.00  0.00     0.023 C 
HETATM   28  C9  UNL     1      34.393  39.281  20.360  1.00  0.00     0.033 C 
HETATM   29  C10 UNL     1      34.755  38.372  21.509  1.00  0.00     0.167 C 
BRANCH  29  30
HETATM   30  C11 UNL     1      36.068  37.678  21.218  1.00  0.00     0.376 C 
HETATM   31  F1  UNL     1      36.327  37.626  19.864  1.00  0.00    -0.212 F 
HETATM   32  F2  UNL     1      36.100  36.396  21.737  1.00  0.00    -0.212 F 
ENDBRANCH  29  30
ENDBRANCH   6  25
BRANCH   1  33
HETATM   33  C3  UNL     1      35.681  39.762  28.593  1.00  0.00     0.101 C 
HETATM   34  C4  UNL     1      36.619  40.873  29.052  1.00  0.00     0.036 C 
BRANCH  33  35
HETATM   35  C2  UNL     1      35.941  38.490  29.320  1.00  0.00    -0.013 C 
HETATM   36  C1  UNL     1      36.433  38.509  30.545  1.00  0.00     0.009 C 
ENDBRANCH  33  35
ENDBRANCH   1  33
TORSDOF 8
ENDMDL
MODEL 2
REMARK VINA RESULT: -7.476653623      2.407      7.014
REMARK  8 active torsions:
REMARK  status: ('A' for Active; 'I' for Inactive)
REMARK    1  A    between atoms: C2_2  and  C3_3 
REMARK    2  A    between atoms: C3_3  and  N1_5 
REMARK    3  A    between atoms: C6_10  and  N3_11 
REMARK    4  A    between atoms: C10_15  and  C11_16 
REMARK    5  A    between atoms: C12_21  and  O1_22 
REMARK    6  A    between atoms: O1_22  and  C13_23 
REMARK    7  A    between atoms: C15_25  and  O2_27 
REMARK    8  A    between atoms: C17_29  and  N5_31 
ROOT
HETATM    1  N1  UNL     1      31.567  34.495  26.494  1.00  0.00    -0.366 N 
ATOM      2  H1  UNL     1      31.883  34.108  27.384  1.00  0.00     0.161 HD
HETATM    3  C5  UNL     1      32.063  35.617  26.350  1.00  0.00     0.161 A 
HETATM    4  N2  UNL     1      32.896  36.150  27.314  1.00  0.00    -0.173 N 
ATOM      5  H2  UNL     1      33.094  35.597  28.148  1.00  0.00     0.186 HD
HETATM    6  C6  UNL     1      33.447  37.343  27.203  1.00  0.00     0.684 A 
HETATM    7  N4  UNL     1      33.218  38.106  26.131  1.00  0.00    -0.167 N 
ATOM      8  H4  UNL     1      33.658  39.024  26.074  1.00  0.00     0.186 HD
HETATM    9  C12 UNL     1      32.404  37.690  25.098  1.00  0.00     0.201 A 
HETATM   10  C22 UNL     1      31.846  36.429  25.257  1.00  0.00     0.211 A 
HETATM   11  F3  UNL     1      31.044  36.032  24.226  1.00  0.00    -0.197 F 
ENDROOT
BRANCH   9  12
HETATM   12  O1  UNL     1      32.242  38.545  24.060  1.00  0.00    -0.327 OA
BRANCH  12  13
HETATM   13  C13 UNL     1      32.911  38.897  22.939  1.00  0.00     0.136 C 
HETATM   14  C14 UNL     1      33.918  40.011  23.225  1.00  0.00     0.072 C 
HETATM   15  C15 UNL     1      35.144  39.688  22.424  1.00  0.00     0.092 C 
HETATM   16  C16 UNL     1      35.522  40.869  21.596  1.00  0.00     0.048 C 
HETATM   17  C17 UNL     1      34.791  38.463  21.609  1.00  0.00     0.187 C 
HETATM   18  C18 UNL     1      33.960  38.772  20.409  1.00  0.00     0.053 C 
HETATM   19  C21 UNL     1      33.878  37.737  22.606  1.00  0.00     0.077 C 
BRANCH  15  20
HETATM   20  O2  UNL     1      36.146  39.301  23.316  1.00  0.00    -0.387 OA
ATOM     21  H2  UNL     1      36.960  39.697  23.026  1.00  0.00     0.210 HD
ENDBRANCH  15  20
BRANCH  17  22
HETATM   22  N5  UNL     1      35.910  37.609  21.361  1.00  0.00     0.092 N 
HETATM   23  C19 UNL     1      36.306  37.561  19.977  1.00  0.00     0.310 C 
HETATM   24  C20 UNL     1      35.555  36.268  21.769  1.00  0.00     0.310 C 
ENDBRANCH  17  22
ENDBRANCH  12  13
ENDBRANCH   9  12
BRANCH   6  25
HETATM   25  N3  UNL     1      34.313  37.861  28.234  1.00  0.00    -0.207 N 
HETATM   26  C7  UNL     1      35.019  37.041  29.197  1.00  0.00     0.142 C 
HETATM   27  C8  UNL     1      35.295  37.924  30.390  1.00  0.00     0.023 C 
HETATM   28  C9  UNL     1      34.735  39.269  30.004  1.00  0.00     0.033 C 
HETATM   29  C10 UNL     1      34.631  39.236  28.498  1.00  0.00     0.167 C 
BRANCH  29  30
HETATM   30  C11 UNL     1      35.947  39.663  27.885  1.00  0.00     0.376 C 
HETATM   31  F1  UNL     1      36.303  40.935  28.283  1.00  0.00    -0.212 F 
HETATM   32  F2  UNL     1      35.913  39.610  26.503  1.00  0.00    -0.212 F 
ENDBRANCH  29  30
ENDBRANCH   6  25
BRANCH   1  33
HETATM   33  C3  UNL     1      30.739  33.578  25.881  1.00  0.00     0.101 C 
HETATM   34  C4  UNL     1      30.062  32.650  26.883  1.00  0.00     0.036 C 
BRANCH  33  35
HETATM   35  C2  UNL     1      31.281  32.827  24.717  1.00  0.00    -0.013 C 
HETATM   36  C1  UNL     1      30.637  31.779  24.239  1.00  0.00     0.009 C 
ENDBRANCH  33  35
ENDBRANCH   1  33
TORSDOF 8
ENDMDL
MODEL 3
REMARK VINA RESULT: -7.257481354      2.382      6.124
REMARK  8 active torsions:
REMARK  status: ('A' for Active; 'I' for Inactive)
REMARK    1  A    between atoms: C2_2  and  C3_3 
REMARK    2  A    between atoms: C3_3  and  N1_5 
REMARK    3  A    between atoms: C6_10  and  N3_11 
REMARK    4  A    between atoms: C10_15  and  C11_16 
REMARK    5  A    between atoms: C12_21  and  O1_22 
REMARK    6  A    between atoms: O1_22  and  C13_23 
REMARK    7  A    between atoms: C15_25  and  O2_27 
REMARK    8  A    between atoms: C17_29  and  N5_31 
ROOT
HETATM    1  N1  UNL     1      31.655  33.269  23.903  1.00  0.00    -0.366 N 
ATOM      2  H1  UNL     1      32.110  32.948  23.047  1.00  0.00     0.161 HD
HETATM    3  C5  UNL     1      32.049  34.411  24.158  1.00  0.00     0.161 A 
HETATM    4  N2  UNL     1      32.963  35.043  23.337  1.00  0.00    -0.173 N 
ATOM      5  H2  UNL     1      33.304  34.547  22.514  1.00  0.00     0.186 HD
HETATM    6  C6  UNL     1      33.411  36.261  23.570  1.00  0.00     0.684 A 
HETATM    7  N4  UNL     1      32.995  36.952  24.635  1.00  0.00    -0.167 N 
ATOM      8  H4  UNL     1      33.361  37.891  24.789  1.00  0.00     0.186 HD
HETATM    9  C12 UNL     1      32.085  36.433  25.533  1.00  0.00     0.201 A 
HETATM   10  C22 UNL     1      31.640  35.150  25.248  1.00  0.00     0.211 A 
HETATM   11  F3  UNL     1      30.740  34.652  26.145  1.00  0.00    -0.197 F 
ENDROOT
BRANCH   9  12
HETATM   12  O1  UNL     1      31.734  37.222  26.576  1.00  0.00    -0.327 OA
BRANCH  12  13
HETATM   13  C13 UNL     1      32.234  37.567  27.783  1.00  0.00     0.136 C 
HETATM   14  C14 UNL     1      32.831  36.356  28.500  1.00  0.00     0.072 C 
HETATM   15  C15 UNL     1      34.083  36.837  29.172  1.00  0.00     0.092 C 
HETATM   16  C16 UNL     1      34.045  36.467  30.616  1.00  0.00     0.048 C 
HETATM   17  C17 UNL     1      34.132  38.329  28.927  1.00  0.00     0.187 C 
HETATM   18  C18 UNL     1      33.226  39.104  29.826  1.00  0.00     0.053 C 
HETATM   19  C21 UNL     1      33.519  38.388  27.523  1.00  0.00     0.077 C 
BRANCH  15  20
HETATM   20  O2  UNL     1      35.171  36.283  28.493  1.00  0.00    -0.387 OA
ATOM     21  H2  UNL     1      35.964  36.600  28.911  1.00  0.00     0.210 HD
ENDBRANCH  15  20
BRANCH  17  22
HETATM   22  N5  UNL     1      35.463  38.841  28.831  1.00  0.00     0.092 N 
HETATM   23  C19 UNL     1      35.813  39.749  29.892  1.00  0.00     0.310 C 
HETATM   24  C20 UNL     1      35.583  39.554  27.578  1.00  0.00     0.310 C 
ENDBRANCH  17  22
ENDBRANCH  12  13
ENDBRANCH   9  12
BRANCH   6  25
HETATM   25  N3  UNL     1      34.365  36.884  22.685  1.00  0.00    -0.207 N 
HETATM   26  C7  UNL     1      35.016  36.211  21.580  1.00  0.00     0.142 C 
HETATM   27  C8  UNL     1      36.296  36.966  21.314  1.00  0.00     0.023 C 
HETATM   28  C9  UNL     1      36.281  38.100  22.306  1.00  0.00     0.033 C 
HETATM   29  C10 UNL     1      34.837  38.239  22.725  1.00  0.00     0.167 C 
BRANCH  29  30
HETATM   30  C11 UNL     1      34.109  39.144  21.755  1.00  0.00     0.376 C 
HETATM   31  F1  UNL     1      34.229  40.471  22.111  1.00  0.00    -0.212 F 
HETATM   32  F2  UNL     1      32.769  38.819  21.654  1.00  0.00    -0.212 F 
ENDBRANCH  29  30
ENDBRANCH   6  25
BRANCH   1  33
HETATM   33  C3  UNL     1      30.819  32.272  24.361  1.00  0.00     0.101 C 
HETATM   34  C4  UNL     1      31.388  31.556  25.581  1.00  0.00     0.036 C 
BRANCH  33  35
HETATM   35  C2  UNL     1      30.279  31.310  23.363  1.00  0.00    -0.013 C 
HETATM   36  C1  UNL     1      31.096  30.548  22.660  1.00  0.00     0.009 C 
ENDBRANCH  33  35
ENDBRANCH   1  33
TORSDOF 8
ENDMDL
MODEL 4
REMARK VINA RESULT: -7.241385613      2.462      7.331
REMARK  8 active torsions:
REMARK  status: ('A' for Active; 'I' for Inactive)
REMARK    1  A    between atoms: C2_2  and  C3_3 
REMARK    2  A    between atoms: C3_3  and  N1_5 
REMARK    3  A    between atoms: C6_10  and  N3_11 
REMARK    4  A    between atoms: C10_15  and  C11_16 
REMARK    5  A    between atoms: C12_21  and  O1_22 
REMARK    6  A    between atoms: O1_22  and  C13_23 
REMARK    7  A    between atoms: C15_25  and  O2_27 
REMARK    8  A    between atoms: C17_29  and  N5_31 
ROOT
HETATM    1  N1  UNL     1      31.566  34.571  26.783  1.00  0.00    -0.366 N 
ATOM      2  H1  UNL     1      31.853  34.206  27.692  1.00  0.00     0.161 HD
HETATM    3  C5  UNL     1      32.042  35.702  26.641  1.00  0.00     0.161 A 
HETATM    4  N2  UNL     1      32.822  36.269  27.630  1.00  0.00    -0.173 N 
ATOM      5  H2  UNL     1      32.997  35.734  28.481  1.00  0.00     0.186 HD
HETATM    6  C6  UNL     1      33.352  37.472  27.522  1.00  0.00     0.684 A 
HETATM    7  N4  UNL     1      33.151  38.212  26.428  1.00  0.00    -0.167 N 
ATOM      8  H4  UNL     1      33.573  39.139  26.375  1.00  0.00     0.186 HD
HETATM    9  C12 UNL     1      32.390  37.761  25.370  1.00  0.00     0.201 A 
HETATM   10  C22 UNL     1      31.854  36.491  25.527  1.00  0.00     0.211 A 
HETATM   11  F3  UNL     1      31.106  36.059  24.470  1.00  0.00    -0.197 F 
ENDROOT
BRANCH   9  12
HETATM   12  O1  UNL     1      32.254  38.595  24.312  1.00  0.00    -0.327 OA
BRANCH  12  13
HETATM   13  C13 UNL     1      32.926  38.892  23.177  1.00  0.00     0.136 C 
HETATM   14  C14 UNL     1      33.964  39.987  23.422  1.00  0.00     0.072 C 
HETATM   15  C15 UNL     1      35.177  39.605  22.626  1.00  0.00     0.092 C 
HETATM   16  C16 UNL     1      35.583  40.747  21.758  1.00  0.00     0.048 C 
HETATM   17  C17 UNL     1      34.787  38.363  21.855  1.00  0.00     0.187 C 
HETATM   18  C18 UNL     1      33.958  38.655  20.648  1.00  0.00     0.053 C 
HETATM   19  C21 UNL     1      33.860  37.696  22.878  1.00  0.00     0.077 C 
BRANCH  15  20
HETATM   20  O2  UNL     1      36.173  39.221  23.527  1.00  0.00    -0.387 OA
ATOM     21  H2  UNL     1      36.688  38.538  23.114  1.00  0.00     0.210 HD
ENDBRANCH  15  20
BRANCH  17  22
HETATM   22  N5  UNL     1      35.882  37.472  21.630  1.00  0.00     0.092 N 
HETATM   23  C19 UNL     1      36.311  37.417  20.257  1.00  0.00     0.310 C 
HETATM   24  C20 UNL     1      35.469  36.142  22.021  1.00  0.00     0.310 C 
ENDBRANCH  17  22
ENDBRANCH  12  13
ENDBRANCH   9  12
BRANCH   6  25
HETATM   25  N3  UNL     1      34.161  38.026  28.580  1.00  0.00    -0.207 N 
HETATM   26  C7  UNL     1      34.906  39.265  28.476  1.00  0.00     0.142 C 
HETATM   27  C8  UNL     1      36.022  39.177  29.489  1.00  0.00     0.023 C 
HETATM   28  C9  UNL     1      35.817  37.847  30.167  1.00  0.00     0.033 C 
HETATM   29  C10 UNL     1      34.379  37.480  29.889  1.00  0.00     0.167 C 
BRANCH  29  30
HETATM   30  C11 UNL     1      33.483  38.098  30.940  1.00  0.00     0.376 C 
HETATM   31  F1  UNL     1      34.163  38.327  32.118  1.00  0.00    -0.212 F 
HETATM   32  F2  UNL     1      32.375  37.312  31.200  1.00  0.00    -0.212 F 
ENDBRANCH  29  30
ENDBRANCH   6  25
BRANCH   1  33
HETATM   33  C3  UNL     1      30.785  33.626  26.152  1.00  0.00     0.101 C 
HETATM   34  C4  UNL     1      30.117  32.675  27.138  1.00  0.00     0.036 C 
BRANCH  33  35
HETATM   35  C2  UNL     1      31.380  32.894  25.001  1.00  0.00    -0.013 C 
HETATM   36  C1  UNL     1      30.691  31.956  24.378  1.00  0.00     0.009 C 
ENDBRANCH  33  35
ENDBRANCH   1  33
TORSDOF 8
ENDMDL
MODEL 5
REMARK VINA RESULT: -7.194232735      2.151      5.719
REMARK  8 active torsions:
REMARK  status: ('A' for Active; 'I' for Inactive)
REMARK    1  A    between atoms: C2_2  and  C3_3 
REMARK    2  A    between atoms: C3_3  and  N1_5 
REMARK    3  A    between atoms: C6_10  and  N3_11 
REMARK    4  A    between atoms: C10_15  and  C11_16 
REMARK    5  A    between atoms: C12_21  and  O1_22 
REMARK    6  A    between atoms: O1_22  and  C13_23 
REMARK    7  A    between atoms: C15_25  and  O2_27 
REMARK    8  A    between atoms: C17_29  and  N5_31 
ROOT
HETATM    1  N1  UNL     1      36.435  37.024  20.783  1.00  0.00    -0.366 N 
ATOM      2  H1  UNL     1      36.931  37.885  21.015  1.00  0.00     0.161 HD
HETATM    3  C5  UNL     1      35.703  36.720  21.730  1.00  0.00     0.161 A 
HETATM    4  N2  UNL     1      35.654  37.505  22.865  1.00  0.00    -0.173 N 
ATOM      5  H2  UNL     1      36.236  38.342  22.905  1.00  0.00     0.186 HD
HETATM    6  C6  UNL     1      34.888  37.221  23.900  1.00  0.00     0.684 A 
HETATM    7  N4  UNL     1      34.109  36.135  23.897  1.00  0.00    -0.167 N 
ATOM      8  H4  UNL     1      33.528  35.942  24.712  1.00  0.00     0.186 HD
HETATM    9  C12 UNL     1      34.067  35.269  22.824  1.00  0.00     0.201 A 
HETATM   10  C22 UNL     1      34.888  35.608  21.758  1.00  0.00     0.211 A 
HETATM   11  F3  UNL     1      34.834  34.742  20.705  1.00  0.00    -0.197 F 
ENDROOT
BRANCH   9  12
HETATM   12  O1  UNL     1      33.241  34.201  22.929  1.00  0.00    -0.327 OA
BRANCH  12  13
HETATM   13  C13 UNL     1      32.152  33.844  23.646  1.00  0.00     0.136 C 
HETATM   14  C14 UNL     1      31.485  32.602  23.054  1.00  0.00     0.072 C 
HETATM   15  C15 UNL     1      31.054  31.759  24.217  1.00  0.00     0.092 C 
HETATM   16  C16 UNL     1      29.607  31.425  24.080  1.00  0.00     0.048 C 
HETATM   17  C17 UNL     1      31.376  32.570  25.453  1.00  0.00     0.187 C 
HETATM   18  C18 UNL     1      30.379  33.646  25.728  1.00  0.00     0.053 C 
HETATM   19  C21 UNL     1      32.662  33.265  24.986  1.00  0.00     0.077 C 
BRANCH  15  20
HETATM   20  O2  UNL     1      31.875  30.630  24.253  1.00  0.00    -0.387 OA
ATOM     21  H2  UNL     1      32.210  30.543  25.138  1.00  0.00     0.210 HD
ENDBRANCH  15  20
BRANCH  17  22
HETATM   22  N5  UNL     1      31.717  31.764  26.583  1.00  0.00     0.092 N 
HETATM   23  C19 UNL     1      30.679  31.695  27.579  1.00  0.00     0.310 C 
HETATM   24  C20 UNL     1      32.893  32.331  27.205  1.00  0.00     0.310 C 
ENDBRANCH  17  22
ENDBRANCH  12  13
ENDBRANCH   9  12
BRANCH   6  25
HETATM   25  N3  UNL     1      34.867  38.069  25.066  1.00  0.00    -0.207 N 
HETATM   26  C7  UNL     1      35.531  39.355  25.154  1.00  0.00     0.142 C 
HETATM   27  C8  UNL     1      35.769  39.612  26.622  1.00  0.00     0.023 C 
HETATM   28  C9  UNL     1      35.167  38.420  27.320  1.00  0.00     0.033 C 
HETATM   29  C10 UNL     1      34.212  37.818  26.318  1.00  0.00     0.167 C 
BRANCH  29  30
HETATM   30  C11 UNL     1      32.864  38.498  26.424  1.00  0.00     0.376 C 
HETATM   31  F1  UNL     1      32.389  38.487  27.719  1.00  0.00    -0.212 F 
HETATM   32  F2  UNL     1      31.926  37.916  25.590  1.00  0.00    -0.212 F 
ENDBRANCH  29  30
ENDBRANCH   6  25
BRANCH   1  33
HETATM   33  C3  UNL     1      36.822  36.614  19.524  1.00  0.00     0.101 C 
HETATM   34  C4  UNL     1      38.273  36.970  19.220  1.00  0.00     0.036 C 
BRANCH  33  35
HETATM   35  C2  UNL     1      35.926  36.946  18.384  1.00  0.00    -0.013 C 
HETATM   36  C1  UNL     1      34.897  37.754  18.556  1.00  0.00     0.009 C 
ENDBRANCH  33  35
ENDBRANCH   1  33
TORSDOF 8
ENDMDL
