MODEL 1
REMARK VINA RESULT: -9.593605734      0.000      0.000
REMARK  9 active torsions:
REMARK  status: ('A' for Active; 'I' for Inactive)
REMARK    1  A    between atoms: C2_2  and  C3_3 
REMARK    2  A    between atoms: C3_3  and  C4_4 
REMARK    3  A    between atoms: C4_4  and  N1_5 
REMARK    4  A    between atoms: N1_5  and  C5_7 
REMARK    5  A    between atoms: C6_10  and  C7_11 
REMARK    6  A    between atoms: N4_19  and  C11_21 
REMARK    7  A    between atoms: C11_21  and  C12_22 
REMARK    8  A    between atoms: C12_22  and  N5_23 
REMARK    9  A    between atoms: N6_26  and  C15_27 
ROOT
HETATM    1  C5  UNL     1      34.639  34.736  16.151  1.00  0.00     0.680 A 
HETATM    2  N2  UNL     1      35.706  35.324  15.570  1.00  0.00    -0.185 N 
ATOM      3  H2  UNL     1      35.809  35.272  14.557  1.00  0.00     0.184 HD
HETATM    4  C6  UNL     1      36.632  35.974  16.284  1.00  0.00     0.157 A 
HETATM    5  C8  UNL     1      36.459  36.025  17.665  1.00  0.00     0.120 A 
HETATM    6  C9  UNL     1      37.474  36.722  18.374  1.00  0.00     0.105 C 
HETATM    7  N3  UNL     1      38.324  37.299  18.927  1.00  0.00    -0.191 NA
HETATM    8  C10 UNL     1      35.394  35.444  18.295  1.00  0.00     0.140 A 
HETATM    9  N4  UNL     1      35.198  35.468  19.518  1.00  0.00    -0.373 N 
ATOM     10  H4  UNL     1      34.344  34.972  19.773  1.00  0.00     0.161 HD
HETATM   11  N7  UNL     1      34.483  34.791  17.472  1.00  0.00    -0.175 N 
ATOM     12  H7  UNL     1      33.670  34.342  17.893  1.00  0.00     0.186 HD
ENDROOT
BRANCH   4  13
HETATM   13  C7  UNL     1      37.791  36.608  15.623  1.00  0.00     0.434 C 
HETATM   14  F1  UNL     1      38.997  36.183  16.142  1.00  0.00    -0.165 F 
HETATM   15  F2  UNL     1      37.652  37.961  15.626  1.00  0.00    -0.165 F 
HETATM   16  F3  UNL     1      37.753  36.187  14.286  1.00  0.00    -0.165 F 
ENDBRANCH   4  13
BRANCH   9  17
HETATM   17  C11 UNL     1      35.834  35.991  20.628  1.00  0.00     0.141 C 
BRANCH  17  18
HETATM   18  C12 UNL     1      35.229  37.368  21.042  1.00  0.00     0.146 C 
BRANCH  18  19
HETATM   19  N5  UNL     1      34.731  37.346  22.375  1.00  0.00    -0.369 N 
HETATM   20  C13 UNL     1      34.377  38.618  22.849  1.00  0.00     0.083 C 
HETATM   21  C14 UNL     1      35.186  39.123  24.025  1.00  0.00     0.168 C 
HETATM   22  N6  UNL     1      35.225  38.075  25.002  1.00  0.00    -0.366 N 
HETATM   23  C19 UNL     1      35.176  36.680  24.706  1.00  0.00     0.168 C 
HETATM   24  C20 UNL     1      35.206  36.362  23.247  1.00  0.00     0.083 C 
BRANCH  22  25
HETATM   25  C15 UNL     1      35.326  38.466  26.389  1.00  0.00     0.072 A 
HETATM   26  C16 UNL     1      35.799  39.650  26.890  1.00  0.00     0.037 A 
HETATM   27  C17 UNL     1      35.799  39.800  28.218  1.00  0.00     0.010 A 
HETATM   28  C18 UNL     1      35.327  38.762  28.975  1.00  0.00     0.052 A 
HETATM   29  S1  UNL     1      34.896  37.602  27.798  1.00  0.00    -0.084 SA
ENDBRANCH  22  25
ENDBRANCH  18  19
ENDBRANCH  17  18
ENDBRANCH   9  17
BRANCH   1  30
HETATM   30  N1  UNL     1      33.740  34.103  15.479  1.00  0.00    -0.226 N 
ATOM     31  H1  UNL     1      32.991  33.674  16.023  1.00  0.00     0.177 HD
BRANCH  30  32
HETATM   32  C4  UNL     1      33.669  33.936  14.074  1.00  0.00     0.138 C 
BRANCH  32  33
HETATM   33  C3  UNL     1      32.476  34.621  13.440  1.00  0.00     0.020 C 
BRANCH  33  34
HETATM   34  C2  UNL     1      31.900  33.619  12.437  1.00  0.00    -0.003 C 
HETATM   35  C1  UNL     1      32.934  33.459  11.329  1.00  0.00     0.005 C 
ENDBRANCH  33  34
ENDBRANCH  32  33
ENDBRANCH  30  32
ENDBRANCH   1  30
TORSDOF 9
ENDMDL
MODEL 2
REMARK VINA RESULT: -9.578631630      0.666      1.110
REMARK  9 active torsions:
REMARK  status: ('A' for Active; 'I' for Inactive)
REMARK    1  A    between atoms: C2_2  and  C3_3 
REMARK    2  A    between atoms: C3_3  and  C4_4 
REMARK    3  A    between atoms: C4_4  and  N1_5 
REMARK    4  A    between atoms: N1_5  and  C5_7 
REMARK    5  A    between atoms: C6_10  and  C7_11 
REMARK    6  A    between atoms: N4_19  and  C11_21 
REMARK    7  A    between atoms: C11_21  and  C12_22 
REMARK    8  A    between atoms: C12_22  and  N5_23 
REMARK    9  A    between atoms: N6_26  and  C15_27 
ROOT
HETATM    1  C5  UNL     1      34.667  34.743  16.147  1.00  0.00     0.680 A 
HETATM    2  N2  UNL     1      35.733  35.341  15.573  1.00  0.00    -0.185 N 
ATOM      3  H2  UNL     1      35.840  35.295  14.560  1.00  0.00     0.184 HD
HETATM    4  C6  UNL     1      36.653  35.991  16.294  1.00  0.00     0.157 A 
HETATM    5  C8  UNL     1      36.474  36.034  17.675  1.00  0.00     0.120 A 
HETATM    6  C9  UNL     1      37.483  36.732  18.392  1.00  0.00     0.105 C 
HETATM    7  N3  UNL     1      38.327  37.310  18.952  1.00  0.00    -0.191 NA
HETATM    8  C10 UNL     1      35.410  35.443  18.298  1.00  0.00     0.140 A 
HETATM    9  N4  UNL     1      35.210  35.459  19.520  1.00  0.00    -0.373 N 
ATOM     10  H4  UNL     1      34.357  34.956  19.768  1.00  0.00     0.161 HD
HETATM   11  N7  UNL     1      34.506  34.790  17.467  1.00  0.00    -0.175 N 
ATOM     12  H7  UNL     1      33.694  34.334  17.882  1.00  0.00     0.186 HD
ENDROOT
BRANCH   4  13
HETATM   13  C7  UNL     1      37.811  36.636  15.641  1.00  0.00     0.434 C 
HETATM   14  F1  UNL     1      39.018  36.201  16.150  1.00  0.00    -0.165 F 
HETATM   15  F2  UNL     1      37.673  37.989  15.668  1.00  0.00    -0.165 F 
HETATM   16  F3  UNL     1      37.770  36.238  14.298  1.00  0.00    -0.165 F 
ENDBRANCH   4  13
BRANCH   9  17
HETATM   17  C11 UNL     1      35.838  35.979  20.635  1.00  0.00     0.141 C 
BRANCH  17  18
HETATM   18  C12 UNL     1      35.274  37.384  21.011  1.00  0.00     0.146 C 
BRANCH  18  19
HETATM   19  N5  UNL     1      35.666  37.775  22.323  1.00  0.00    -0.369 N 
HETATM   20  C13 UNL     1      35.561  36.734  23.258  1.00  0.00     0.083 C 
HETATM   21  C14 UNL     1      34.559  36.958  24.371  1.00  0.00     0.168 C 
HETATM   22  N6  UNL     1      34.795  38.265  24.907  1.00  0.00    -0.366 N 
HETATM   23  C19 UNL     1      35.309  39.372  24.166  1.00  0.00     0.168 C 
HETATM   24  C20 UNL     1      35.476  39.105  22.706  1.00  0.00     0.083 C 
BRANCH  22  25
HETATM   25  C15 UNL     1      34.485  38.475  26.302  1.00  0.00     0.072 A 
HETATM   26  C16 UNL     1      35.331  38.907  27.289  1.00  0.00     0.037 A 
HETATM   27  C17 UNL     1      34.827  39.035  28.520  1.00  0.00     0.010 A 
HETATM   28  C18 UNL     1      33.506  38.724  28.701  1.00  0.00     0.052 A 
HETATM   29  S1  UNL     1      33.009  38.262  27.134  1.00  0.00    -0.084 SA
ENDBRANCH  22  25
ENDBRANCH  18  19
ENDBRANCH  17  18
ENDBRANCH   9  17
BRANCH   1  30
HETATM   30  N1  UNL     1      33.774  34.110  15.468  1.00  0.00    -0.226 N 
ATOM     31  H1  UNL     1      33.032  33.663  16.007  1.00  0.00     0.177 HD
BRANCH  30  32
HETATM   32  C4  UNL     1      33.702  33.963  14.060  1.00  0.00     0.138 C 
BRANCH  32  33
HETATM   33  C3  UNL     1      32.490  34.630  13.441  1.00  0.00     0.020 C 
BRANCH  33  34
HETATM   34  C2  UNL     1      31.947  33.640  12.408  1.00  0.00    -0.003 C 
HETATM   35  C1  UNL     1      32.990  33.539  11.302  1.00  0.00     0.005 C 
ENDBRANCH  33  34
ENDBRANCH  32  33
ENDBRANCH  30  32
ENDBRANCH   1  30
TORSDOF 9
ENDMDL
MODEL 3
REMARK VINA RESULT: -9.330695383      2.155      3.023
REMARK  9 active torsions:
REMARK  status: ('A' for Active; 'I' for Inactive)
REMARK    1  A    between atoms: C2_2  and  C3_3 
REMARK    2  A    between atoms: C3_3  and  C4_4 
REMARK    3  A    between atoms: C4_4  and  N1_5 
REMARK    4  A    between atoms: N1_5  and  C5_7 
REMARK    5  A    between atoms: C6_10  and  C7_11 
REMARK    6  A    between atoms: N4_19  and  C11_21 
REMARK    7  A    between atoms: C11_21  and  C12_22 
REMARK    8  A    between atoms: C12_22  and  N5_23 
REMARK    9  A    between atoms: N6_26  and  C15_27 
ROOT
HETATM    1  C5  UNL     1      34.511  35.521  16.603  1.00  0.00     0.680 A 
HETATM    2  N2  UNL     1      35.647  35.855  15.955  1.00  0.00    -0.185 N 
ATOM      3  H2  UNL     1      35.677  35.782  14.938  1.00  0.00     0.184 HD
HETATM    4  C6  UNL     1      36.735  36.280  16.607  1.00  0.00     0.157 A 
HETATM    5  C8  UNL     1      36.658  36.368  17.996  1.00  0.00     0.120 A 
HETATM    6  C9  UNL     1      37.842  36.819  18.638  1.00  0.00     0.105 C 
HETATM    7  N3  UNL     1      38.830  37.191  19.135  1.00  0.00    -0.191 NA
HETATM    8  C10 UNL     1      35.528  36.041  18.692  1.00  0.00     0.140 A 
HETATM    9  N4  UNL     1      35.414  36.107  19.924  1.00  0.00    -0.373 N 
ATOM     10  H4  UNL     1      34.486  35.815  20.232  1.00  0.00     0.161 HD
HETATM   11  N7  UNL     1      34.448  35.609  17.930  1.00  0.00    -0.175 N 
ATOM     12  H7  UNL     1      33.581  35.353  18.402  1.00  0.00     0.186 HD
ENDROOT
BRANCH   4  13
HETATM   13  C7  UNL     1      37.966  36.639  15.874  1.00  0.00     0.434 C 
HETATM   14  F1  UNL     1      39.009  35.773  16.132  1.00  0.00    -0.165 F 
HETATM   15  F2  UNL     1      38.283  37.943  16.096  1.00  0.00    -0.165 F 
HETATM   16  F3  UNL     1      37.658  36.510  14.513  1.00  0.00    -0.165 F 
ENDBRANCH   4  13
BRANCH   9  17
HETATM   17  C11 UNL     1      36.213  36.473  20.989  1.00  0.00     0.141 C 
BRANCH  17  18
HETATM   18  C12 UNL     1      35.679  37.758  21.695  1.00  0.00     0.146 C 
BRANCH  18  19
HETATM   19  N5  UNL     1      34.984  37.448  22.898  1.00  0.00    -0.369 N 
HETATM   20  C13 UNL     1      35.508  36.327  23.559  1.00  0.00     0.083 C 
HETATM   21  C14 UNL     1      34.572  35.141  23.672  1.00  0.00     0.168 C 
HETATM   22  N6  UNL     1      33.316  35.630  24.159  1.00  0.00    -0.366 N 
HETATM   23  C19 UNL     1      32.798  36.937  23.916  1.00  0.00     0.168 C 
HETATM   24  C20 UNL     1      33.624  37.759  22.981  1.00  0.00     0.083 C 
BRANCH  22  25
HETATM   25  C15 UNL     1      32.515  34.725  24.951  1.00  0.00     0.072 A 
HETATM   26  C16 UNL     1      31.732  33.695  24.504  1.00  0.00     0.037 A 
HETATM   27  C17 UNL     1      31.074  32.978  25.421  1.00  0.00     0.010 A 
HETATM   28  C18 UNL     1      31.234  33.329  26.735  1.00  0.00     0.052 A 
HETATM   29  S1  UNL     1      32.305  34.656  26.644  1.00  0.00    -0.084 SA
ENDBRANCH  22  25
ENDBRANCH  18  19
ENDBRANCH  17  18
ENDBRANCH   9  17
BRANCH   1  30
HETATM   30  N1  UNL     1      33.455  35.107  15.991  1.00  0.00    -0.226 N 
ATOM     31  H1  UNL     1      32.766  34.619  16.563  1.00  0.00     0.177 HD
BRANCH  30  32
HETATM   32  C4  UNL     1      33.141  35.251  14.617  1.00  0.00     0.138 C 
BRANCH  32  33
HETATM   33  C3  UNL     1      33.283  33.968  13.823  1.00  0.00     0.020 C 
BRANCH  33  34
HETATM   34  C2  UNL     1      32.202  34.020  12.742  1.00  0.00    -0.003 C 
HETATM   35  C1  UNL     1      32.751  33.275  11.531  1.00  0.00     0.005 C 
ENDBRANCH  33  34
ENDBRANCH  32  33
ENDBRANCH  30  32
ENDBRANCH   1  30
TORSDOF 9
ENDMDL
MODEL 4
REMARK VINA RESULT: -9.206877993      1.645      1.879
REMARK  9 active torsions:
REMARK  status: ('A' for Active; 'I' for Inactive)
REMARK    1  A    between atoms: C2_2  and  C3_3 
REMARK    2  A    between atoms: C3_3  and  C4_4 
REMARK    3  A    between atoms: C4_4  and  N1_5 
REMARK    4  A    between atoms: N1_5  and  C5_7 
REMARK    5  A    between atoms: C6_10  and  C7_11 
REMARK    6  A    between atoms: N4_19  and  C11_21 
REMARK    7  A    between atoms: C11_21  and  C12_22 
REMARK    8  A    between atoms: C12_22  and  N5_23 
REMARK    9  A    between atoms: N6_26  and  C15_27 
ROOT
HETATM    1  C5  UNL     1      34.499  35.083  16.369  1.00  0.00     0.680 A 
HETATM    2  N2  UNL     1      35.623  35.526  15.766  1.00  0.00    -0.185 N 
ATOM      3  H2  UNL     1      35.715  35.427  14.756  1.00  0.00     0.184 HD
HETATM    4  C6  UNL     1      36.619  36.093  16.456  1.00  0.00     0.157 A 
HETATM    5  C8  UNL     1      36.459  36.213  17.835  1.00  0.00     0.120 A 
HETATM    6  C9  UNL     1      37.548  36.817  18.519  1.00  0.00     0.105 C 
HETATM    7  N3  UNL     1      38.460  37.314  19.050  1.00  0.00    -0.191 NA
HETATM    8  C10 UNL     1      35.338  35.779  18.486  1.00  0.00     0.140 A 
HETATM    9  N4  UNL     1      35.151  35.869  19.707  1.00  0.00    -0.373 N 
ATOM     10  H4  UNL     1      34.247  35.481  19.979  1.00  0.00     0.161 HD
HETATM   11  N7  UNL     1      34.355  35.203  17.687  1.00  0.00    -0.175 N 
ATOM     12  H7  UNL     1      33.499  34.863  18.124  1.00  0.00     0.186 HD
ENDROOT
BRANCH   4  13
HETATM   13  C7  UNL     1      37.839  36.569  15.773  1.00  0.00     0.434 C 
HETATM   14  F1  UNL     1      38.984  35.961  16.246  1.00  0.00    -0.165 F 
HETATM   15  F2  UNL     1      37.898  37.927  15.807  1.00  0.00    -0.165 F 
HETATM   16  F3  UNL     1      37.704  36.190  14.430  1.00  0.00    -0.165 F 
ENDBRANCH   4  13
BRANCH   9  17
HETATM   17  C11 UNL     1      35.846  36.357  20.797  1.00  0.00     0.141 C 
BRANCH  17  18
HETATM   18  C12 UNL     1      35.448  37.830  21.120  1.00  0.00     0.146 C 
BRANCH  18  19
HETATM   19  N5  UNL     1      35.009  37.974  22.467  1.00  0.00    -0.369 N 
HETATM   20  C13 UNL     1      35.961  37.542  23.402  1.00  0.00     0.083 C 
HETATM   21  C14 UNL     1      35.549  36.358  24.252  1.00  0.00     0.168 C 
HETATM   22  N6  UNL     1      34.240  36.632  24.766  1.00  0.00    -0.366 N 
HETATM   23  C19 UNL     1      33.253  37.426  24.107  1.00  0.00     0.168 C 
HETATM   24  C20 UNL     1      33.641  37.872  22.735  1.00  0.00     0.083 C 
BRANCH  22  25
HETATM   25  C15 UNL     1      33.896  36.055  26.045  1.00  0.00     0.072 A 
HETATM   26  C16 UNL     1      34.735  35.434  26.932  1.00  0.00     0.037 A 
HETATM   27  C17 UNL     1      34.199  34.974  28.067  1.00  0.00     0.010 A 
HETATM   28  C18 UNL     1      32.855  35.158  28.255  1.00  0.00     0.052 A 
HETATM   29  S1  UNL     1      32.382  35.973  26.831  1.00  0.00    -0.084 SA
ENDBRANCH  22  25
ENDBRANCH  18  19
ENDBRANCH  17  18
ENDBRANCH   9  17
BRANCH   1  30
HETATM   30  N1  UNL     1      33.531  34.532  15.721  1.00  0.00    -0.226 N 
ATOM     31  H1  UNL     1      32.646  34.446  16.220  1.00  0.00     0.177 HD
BRANCH  30  32
HETATM   32  C4  UNL     1      33.554  34.032  14.395  1.00  0.00     0.138 C 
BRANCH  32  33
HETATM   33  C3  UNL     1      32.600  34.747  13.460  1.00  0.00     0.020 C 
BRANCH  33  34
HETATM   34  C2  UNL     1      31.987  33.661  12.573  1.00  0.00    -0.003 C 
HETATM   35  C1  UNL     1      32.893  33.521  11.356  1.00  0.00     0.005 C 
ENDBRANCH  33  34
ENDBRANCH  32  33
ENDBRANCH  30  32
ENDBRANCH   1  30
TORSDOF 9
ENDMDL
MODEL 5
REMARK VINA RESULT: -8.288155443      1.286      1.566
REMARK  9 active torsions:
REMARK  status: ('A' for Active; 'I' for Inactive)
REMARK    1  A    between atoms: C2_2  and  C3_3 
REMARK    2  A    between atoms: C3_3  and  C4_4 
REMARK    3  A    between atoms: C4_4  and  N1_5 
REMARK    4  A    between atoms: N1_5  and  C5_7 
REMARK    5  A    between atoms: C6_10  and  C7_11 
REMARK    6  A    between atoms: N4_19  and  C11_21 
REMARK    7  A    between atoms: C11_21  and  C12_22 
REMARK    8  A    between atoms: C12_22  and  N5_23 
REMARK    9  A    between atoms: N6_26  and  C15_27 
ROOT
HETATM    1  C5  UNL     1      34.588  34.690  15.603  1.00  0.00     0.680 A 
HETATM    2  N2  UNL     1      35.690  35.430  15.358  1.00  0.00    -0.185 N 
ATOM      3  H2  UNL     1      35.955  35.619  14.392  1.00  0.00     0.184 HD
HETATM    4  C6  UNL     1      36.445  35.922  16.347  1.00  0.00     0.157 A 
HETATM    5  C8  UNL     1      36.053  35.644  17.654  1.00  0.00     0.120 A 
HETATM    6  C9  UNL     1      36.893  36.185  18.664  1.00  0.00     0.105 C 
HETATM    7  N3  UNL     1      37.604  36.642  19.469  1.00  0.00    -0.191 NA
HETATM    8  C10 UNL     1      34.944  34.900  17.947  1.00  0.00     0.140 A 
HETATM    9  N4  UNL     1      34.556  34.632  19.093  1.00  0.00    -0.373 N 
ATOM     10  H4  UNL     1      33.708  34.064  19.080  1.00  0.00     0.161 HD
HETATM   11  N7  UNL     1      34.221  34.431  16.856  1.00  0.00    -0.175 N 
ATOM     12  H7  UNL     1      33.384  33.871  17.020  1.00  0.00     0.186 HD
ENDROOT
BRANCH   4  13
HETATM   13  C7  UNL     1      37.648  36.727  16.052  1.00  0.00     0.434 C 
HETATM   14  F1  UNL     1      38.818  36.077  16.389  1.00  0.00    -0.165 F 
HETATM   15  F2  UNL     1      37.538  37.961  16.615  1.00  0.00    -0.165 F 
HETATM   16  F3  UNL     1      37.667  36.902  14.662  1.00  0.00    -0.165 F 
ENDBRANCH   4  13
BRANCH   9  17
HETATM   17  C11 UNL     1      34.971  34.899  20.383  1.00  0.00     0.141 C 
BRANCH  17  18
HETATM   18  C12 UNL     1      33.841  34.617  21.421  1.00  0.00     0.146 C 
BRANCH  18  19
HETATM   19  N5  UNL     1      34.275  34.868  22.753  1.00  0.00    -0.369 N 
HETATM   20  C13 UNL     1      33.252  35.359  23.578  1.00  0.00     0.083 C 
HETATM   21  C14 UNL     1      33.463  36.761  24.113  1.00  0.00     0.168 C 
HETATM   22  N6  UNL     1      34.789  36.821  24.650  1.00  0.00    -0.366 N 
HETATM   23  C19 UNL     1      35.898  36.054  24.180  1.00  0.00     0.168 C 
HETATM   24  C20 UNL     1      35.606  35.240  22.962  1.00  0.00     0.083 C 
BRANCH  22  25
HETATM   25  C15 UNL     1      35.019  37.732  25.748  1.00  0.00     0.072 A 
HETATM   26  C16 UNL     1      34.729  37.533  27.071  1.00  0.00     0.037 A 
HETATM   27  C17 UNL     1      35.032  38.517  27.923  1.00  0.00     0.010 A 
HETATM   28  C18 UNL     1      35.607  39.648  27.408  1.00  0.00     0.052 A 
HETATM   29  S1  UNL     1      35.706  39.295  25.741  1.00  0.00    -0.084 SA
ENDBRANCH  22  25
ENDBRANCH  18  19
ENDBRANCH  17  18
ENDBRANCH   9  17
BRANCH   1  30
HETATM   30  N1  UNL     1      33.851  34.206  14.663  1.00  0.00    -0.226 N 
ATOM     31  H1  UNL     1      33.993  33.220  14.442  1.00  0.00     0.177 HD
BRANCH  30  32
HETATM   32  C4  UNL     1      32.866  34.883  13.901  1.00  0.00     0.138 C 
BRANCH  32  33
HETATM   33  C3  UNL     1      32.064  33.970  12.996  1.00  0.00     0.020 C 
BRANCH  33  34
HETATM   34  C2  UNL     1      32.637  34.163  11.590  1.00  0.00    -0.003 C 
HETATM   35  C1  UNL     1      33.000  32.779  11.067  1.00  0.00     0.005 C 
ENDBRANCH  33  34
ENDBRANCH  32  33
ENDBRANCH  30  32
ENDBRANCH   1  30
TORSDOF 9
ENDMDL
