MODEL 1
REMARK VINA RESULT: -7.875946898      0.000      0.000
REMARK  5 active torsions:
REMARK  status: ('A' for Active; 'I' for Inactive)
REMARK    1  A    between atoms: C1_2  and  C2_4 
REMARK    2  A    between atoms: C5_8  and  C6_9 
REMARK    3  A    between atoms: C6_9  and  O3_10 
REMARK    4  A    between atoms: C6_9  and  O4_12 
REMARK    5  A    between atoms: C10_17  and  O5_18 
ROOT
HETATM    1  C2  UNL     1      14.317  15.918  22.220  1.00  0.00     0.093 A 
HETATM    2  S1  UNL     1      13.795  15.468  20.628  1.00  0.00    -0.084 SA
HETATM    3  C3  UNL     1      15.066  16.116  19.724  1.00  0.00     0.019 A 
HETATM    4  C4  UNL     1      15.880  16.674  20.665  1.00  0.00    -0.030 A 
HETATM    5  C5  UNL     1      15.488  16.571  21.969  1.00  0.00     0.027 A 
HETATM    6  C7  UNL     1      17.168  17.365  20.181  1.00  0.00     0.040 C 
HETATM    7  C8  UNL     1      17.551  16.678  18.924  1.00  0.00     0.007 C 
HETATM    8  C9  UNL     1      16.476  16.967  17.901  1.00  0.00     0.037 C 
HETATM    9  C10 UNL     1      15.305  16.116  18.247  1.00  0.00     0.158 C 
ENDROOT
BRANCH   5  10
HETATM   10  C6  UNL     1      16.279  17.198  23.119  1.00  0.00     0.290 C 
BRANCH  10  11
HETATM   11  O3  UNL     1      15.422  17.916  23.912  1.00  0.00    -0.367 OA
ATOM     12  H3  UNL     1      15.708  17.851  24.815  1.00  0.00     0.213 HD
ENDBRANCH  10  11
BRANCH  10  13
HETATM   13  O4  UNL     1      16.916  16.179  23.839  1.00  0.00    -0.367 OA
ATOM     14  H4  UNL     1      16.459  16.052  24.662  1.00  0.00     0.213 HD
ENDBRANCH  10  13
ENDBRANCH   5  10
BRANCH   1  15
HETATM   15  C1  UNL     1      13.606  15.596  23.472  1.00  0.00     0.217 C 
HETATM   16  O1  UNL     1      13.730  14.618  24.183  1.00  0.00    -0.643 OA
HETATM   17  O2  UNL     1      12.657  16.553  23.899  1.00  0.00    -0.643 OA
ENDBRANCH   1  15
BRANCH   9  18
HETATM   18  O5  UNL     1      15.438  14.811  17.763  1.00  0.00    -0.390 OA
ATOM     19  H5  UNL     1      14.920  14.686  16.976  1.00  0.00     0.210 HD
ENDBRANCH   9  18
TORSDOF 5
ENDMDL
MODEL 2
REMARK VINA RESULT: -6.577296438      2.103      5.241
REMARK  5 active torsions:
REMARK  status: ('A' for Active; 'I' for Inactive)
REMARK    1  A    between atoms: C1_2  and  C2_4 
REMARK    2  A    between atoms: C5_8  and  C6_9 
REMARK    3  A    between atoms: C6_9  and  O3_10 
REMARK    4  A    between atoms: C6_9  and  O4_12 
REMARK    5  A    between atoms: C10_17  and  O5_18 
ROOT
HETATM    1  C2  UNL     1      13.279  16.704  18.825  1.00  0.00     0.093 A 
HETATM    2  S1  UNL     1      12.148  16.950  20.118  1.00  0.00    -0.084 SA
HETATM    3  C3  UNL     1      13.126  16.523  21.427  1.00  0.00     0.019 A 
HETATM    4  C4  UNL     1      14.316  16.194  20.849  1.00  0.00    -0.030 A 
HETATM    5  C5  UNL     1      14.396  16.288  19.489  1.00  0.00     0.027 A 
HETATM    6  C7  UNL     1      15.465  15.752  21.773  1.00  0.00     0.040 C 
HETATM    7  C8  UNL     1      15.230  16.431  23.070  1.00  0.00     0.007 C 
HETATM    8  C9  UNL     1      13.949  15.873  23.650  1.00  0.00     0.037 C 
HETATM    9  C10 UNL     1      12.824  16.489  22.892  1.00  0.00     0.158 C 
ENDROOT
BRANCH   5  10
HETATM   10  C6  UNL     1      15.653  15.899  18.708  1.00  0.00     0.290 C 
BRANCH  10  11
HETATM   11  O3  UNL     1      15.328  14.939  17.786  1.00  0.00    -0.367 OA
ATOM     12  H3  UNL     1      16.117  14.662  17.335  1.00  0.00     0.213 HD
ENDBRANCH  10  11
BRANCH  10  13
HETATM   13  O4  UNL     1      16.179  17.045  18.097  1.00  0.00    -0.367 OA
ATOM     14  H4  UNL     1      15.876  17.812  18.568  1.00  0.00     0.213 HD
ENDBRANCH  10  13
ENDBRANCH   5  10
BRANCH   1  15
HETATM   15  C1  UNL     1      13.004  16.945  17.395  1.00  0.00     0.217 C 
HETATM   16  O1  UNL     1      13.758  17.365  16.539  1.00  0.00    -0.643 OA
HETATM   17  O2  UNL     1      11.690  16.647  16.967  1.00  0.00    -0.643 OA
ENDBRANCH   1  15
BRANCH   9  18
HETATM   18  O5  UNL     1      12.503  17.765  23.366  1.00  0.00    -0.390 OA
ATOM     19  H5  UNL     1      13.228  18.138  23.854  1.00  0.00     0.210 HD
ENDBRANCH   9  18
TORSDOF 5
ENDMDL
MODEL 3
REMARK VINA RESULT: -6.555439791      1.995      3.646
REMARK  5 active torsions:
REMARK  status: ('A' for Active; 'I' for Inactive)
REMARK    1  A    between atoms: C1_2  and  C2_4 
REMARK    2  A    between atoms: C5_8  and  C6_9 
REMARK    3  A    between atoms: C6_9  and  O3_10 
REMARK    4  A    between atoms: C6_9  and  O4_12 
REMARK    5  A    between atoms: C10_17  and  O5_18 
ROOT
HETATM    1  C2  UNL     1      17.277  16.990  21.395  1.00  0.00     0.093 A 
HETATM    2  S1  UNL     1      17.147  16.723  19.685  1.00  0.00    -0.084 SA
HETATM    3  C3  UNL     1      15.491  16.410  19.578  1.00  0.00     0.019 A 
HETATM    4  C4  UNL     1      15.058  16.514  20.867  1.00  0.00    -0.030 A 
HETATM    5  C5  UNL     1      15.992  16.817  21.816  1.00  0.00     0.027 A 
HETATM    6  C7  UNL     1      13.560  16.288  21.141  1.00  0.00     0.040 C 
HETATM    7  C8  UNL     1      12.853  16.685  19.899  1.00  0.00     0.007 C 
HETATM    8  C9  UNL     1      13.262  15.713  18.814  1.00  0.00     0.037 C 
HETATM    9  C10 UNL     1      14.639  16.087  18.391  1.00  0.00     0.158 C 
ENDROOT
BRANCH   5  10
HETATM   10  C6  UNL     1      15.652  16.911  23.305  1.00  0.00     0.290 C 
BRANCH  10  11
HETATM   11  O3  UNL     1      16.332  15.932  23.982  1.00  0.00    -0.367 OA
ATOM     12  H3  UNL     1      17.242  16.189  24.066  1.00  0.00     0.213 HD
ENDBRANCH  10  11
BRANCH  10  13
HETATM   13  O4  UNL     1      15.993  18.189  23.768  1.00  0.00    -0.367 OA
ATOM     14  H4  UNL     1      16.494  18.102  24.570  1.00  0.00     0.213 HD
ENDBRANCH  10  13
ENDBRANCH   5  10
BRANCH   1  15
HETATM   15  C1  UNL     1      18.519  17.342  22.110  1.00  0.00     0.217 C 
HETATM   16  O1  UNL     1      18.691  17.481  23.305  1.00  0.00    -0.643 OA
HETATM   17  O2  UNL     1      19.657  17.543  21.296  1.00  0.00    -0.643 OA
ENDBRANCH   1  15
BRANCH   9  18
HETATM   18  O5  UNL     1      14.643  17.141  17.472  1.00  0.00    -0.390 OA
ATOM     19  H5  UNL     1      14.487  16.823  16.591  1.00  0.00     0.210 HD
ENDBRANCH   9  18
TORSDOF 5
ENDMDL
MODEL 4
REMARK VINA RESULT: -6.437404674      1.796      2.290
REMARK  5 active torsions:
REMARK  status: ('A' for Active; 'I' for Inactive)
REMARK    1  A    between atoms: C1_2  and  C2_4 
REMARK    2  A    between atoms: C5_8  and  C6_9 
REMARK    3  A    between atoms: C6_9  and  O3_10 
REMARK    4  A    between atoms: C6_9  and  O4_12 
REMARK    5  A    between atoms: C10_17  and  O5_18 
ROOT
HETATM    1  C2  UNL     1      13.293  16.686  21.972  1.00  0.00     0.093 A 
HETATM    2  S1  UNL     1      12.115  16.967  20.730  1.00  0.00    -0.084 SA
HETATM    3  C3  UNL     1      13.098  16.790  19.369  1.00  0.00     0.019 A 
HETATM    4  C4  UNL     1      14.327  16.516  19.891  1.00  0.00    -0.030 A 
HETATM    5  C5  UNL     1      14.429  16.463  21.252  1.00  0.00     0.027 A 
HETATM    6  C7  UNL     1      15.490  16.286  18.908  1.00  0.00     0.040 C 
HETATM    7  C8  UNL     1      14.877  15.748  17.670  1.00  0.00     0.007 C 
HETATM    8  C9  UNL     1      14.004  16.836  17.085  1.00  0.00     0.037 C 
HETATM    9  C10 UNL     1      12.768  16.895  17.913  1.00  0.00     0.158 C 
ENDROOT
BRANCH   5  10
HETATM   10  C6  UNL     1      15.759  16.219  21.970  1.00  0.00     0.290 C 
BRANCH  10  11
HETATM   11  O3  UNL     1      16.623  17.239  21.668  1.00  0.00    -0.367 OA
ATOM     12  H3  UNL     1      17.409  16.874  21.280  1.00  0.00     0.213 HD
ENDBRANCH  10  11
BRANCH  10  13
HETATM   13  O4  UNL     1      15.520  16.135  23.348  1.00  0.00    -0.367 OA
ATOM     14  H4  UNL     1      14.742  16.638  23.556  1.00  0.00     0.213 HD
ENDBRANCH  10  13
ENDBRANCH   5  10
BRANCH   1  15
HETATM   15  C1  UNL     1      13.018  16.685  23.422  1.00  0.00     0.217 C 
HETATM   16  O1  UNL     1      12.797  17.632  24.152  1.00  0.00    -0.643 OA
HETATM   17  O2  UNL     1      13.013  15.415  24.042  1.00  0.00    -0.643 OA
ENDBRANCH   1  15
BRANCH   9  18
HETATM   18  O5  UNL     1      11.835  15.922  17.541  1.00  0.00    -0.390 OA
ATOM     19  H5  UNL     1      11.693  15.930  16.602  1.00  0.00     0.210 HD
ENDBRANCH   9  18
TORSDOF 5
ENDMDL
MODEL 5
REMARK VINA RESULT: -6.421621737      1.886      5.561
REMARK  5 active torsions:
REMARK  status: ('A' for Active; 'I' for Inactive)
REMARK    1  A    between atoms: C1_2  and  C2_4 
REMARK    2  A    between atoms: C5_8  and  C6_9 
REMARK    3  A    between atoms: C6_9  and  O3_10 
REMARK    4  A    between atoms: C6_9  and  O4_12 
REMARK    5  A    between atoms: C10_17  and  O5_18 
ROOT
HETATM    1  C2  UNL     1      16.766  16.969  19.284  1.00  0.00     0.093 A 
HETATM    2  S1  UNL     1      17.288  17.442  20.869  1.00  0.00    -0.084 SA
HETATM    3  C3  UNL     1      15.995  16.846  21.777  1.00  0.00     0.019 A 
HETATM    4  C4  UNL     1      15.173  16.289  20.843  1.00  0.00    -0.030 A 
HETATM    5  C5  UNL     1      15.576  16.354  19.540  1.00  0.00     0.027 A 
HETATM    6  C7  UNL     1      13.870  15.632  21.334  1.00  0.00     0.040 C 
HETATM    7  C8  UNL     1      14.143  15.164  22.714  1.00  0.00     0.007 C 
HETATM    8  C9  UNL     1      14.379  16.388  23.571  1.00  0.00     0.037 C 
HETATM    9  C10 UNL     1      15.745  16.887  23.252  1.00  0.00     0.158 C 
ENDROOT
BRANCH   5  10
HETATM   10  C6  UNL     1      14.725  15.816  18.387  1.00  0.00     0.290 C 
BRANCH  10  11
HETATM   11  O3  UNL     1      14.379  16.856  17.564  1.00  0.00    -0.367 OA
ATOM     12  H3  UNL     1      13.485  17.115  17.752  1.00  0.00     0.213 HD
ENDBRANCH  10  11
BRANCH  10  13
HETATM   13  O4  UNL     1      15.458  14.837  17.702  1.00  0.00    -0.367 OA
ATOM     14  H4  UNL     1      14.884  14.399  17.085  1.00  0.00     0.213 HD
ENDBRANCH  10  13
ENDBRANCH   5  10
BRANCH   1  15
HETATM   15  C1  UNL     1      17.518  17.200  18.035  1.00  0.00     0.217 C 
HETATM   16  O1  UNL     1      17.085  17.393  16.916  1.00  0.00    -0.643 OA
HETATM   17  O2  UNL     1      18.926  17.195  18.159  1.00  0.00    -0.643 OA
ENDBRANCH   1  15
BRANCH   9  18
HETATM   18  O5  UNL     1      16.738  16.189  23.946  1.00  0.00    -0.390 OA
ATOM     19  H5  UNL     1      17.360  15.796  23.344  1.00  0.00     0.210 HD
ENDBRANCH   9  18
TORSDOF 5
ENDMDL
