MODEL 1
REMARK VINA RESULT: -6.567904764      0.000      0.000
REMARK  7 active torsions:
REMARK  status: ('A' for Active; 'I' for Inactive)
REMARK    1  A    between atoms: C2_2  and  O1_4 
REMARK    2  A    between atoms: C2_2  and  C4_6 
REMARK    3  A    between atoms: C4_6  and  N1_7 
REMARK    4  A    between atoms: N1_7  and  C5_9 
REMARK    5  A    between atoms: N2_14  and  O2_15 
REMARK    6  A    between atoms: C10_17  and  N3_18 
REMARK    7  A    between atoms: C11_22  and  N4_23 
ROOT
HETATM    1  C5  UNL     1      15.464  16.299  20.892  1.00  0.00     0.034 C 
HETATM    2  C6  UNL     1      14.172  15.841  21.406  1.00  0.00     0.091 C 
HETATM    3  C7  UNL     1      13.810  16.341  22.754  1.00  0.00     0.055 C 
HETATM    4  C8  UNL     1      13.754  15.185  23.764  1.00  0.00     0.041 C 
HETATM    5  C9  UNL     1      12.383  16.867  22.664  1.00  0.00     0.041 C 
HETATM    6  N2  UNL     1      14.608  17.422  23.229  1.00  0.00    -0.250 N 
HETATM    7  C10 UNL     1      16.019  17.235  23.139  1.00  0.00     0.356 C 
HETATM    8  C11 UNL     1      16.380  17.053  21.719  1.00  0.00     0.077 C 
ENDROOT
BRANCH   1   9
HETATM    9  N1  UNL     1      15.789  16.026  19.686  1.00  0.00    -0.389 N 
ATOM     10  H1  UNL     1      16.553  15.368  19.534  1.00  0.00     0.159 HD
BRANCH   9  11
HETATM   11  C4  UNL     1      15.144  16.589  18.532  1.00  0.00     0.156 C 
BRANCH  11  12
HETATM   12  C2  UNL     1      14.582  15.489  17.661  1.00  0.00     0.066 C 
HETATM   13  C1  UNL     1      13.146  15.200  17.938  1.00  0.00     0.047 C 
HETATM   14  C3  UNL     1      14.738  15.922  16.225  1.00  0.00     0.047 C 
BRANCH  12  15
HETATM   15  O1  UNL     1      15.350  14.347  17.861  1.00  0.00    -0.389 OA
ATOM     16  H1  UNL     1      16.256  14.516  17.630  1.00  0.00     0.210 HD
ENDBRANCH  12  15
ENDBRANCH  11  12
ENDBRANCH   9  11
ENDBRANCH   1   9
BRANCH   8  17
HETATM   17  N4  UNL     1      17.461  17.553  21.270  1.00  0.00    -0.398 N 
ATOM     18  H42 UNL     1      17.996  17.053  20.559  1.00  0.00     0.156 HD
ATOM     19  H41 UNL     1      17.831  18.448  21.592  1.00  0.00     0.156 HD
ENDBRANCH   8  17
BRANCH   7  20
HETATM   20  N3  UNL     1      16.512  16.097  23.870  1.00  0.00    -0.051 N 
ATOM     21  H33 UNL     1      16.363  15.239  23.338  1.00  0.00     0.277 HD
ATOM     22  H32 UNL     1      17.531  16.107  23.901  1.00  0.00     0.277 HD
ATOM     23  H31 UNL     1      16.128  16.005  24.811  1.00  0.00     0.277 HD
ENDBRANCH   7  20
BRANCH   6  24
HETATM   24  O2  UNL     1      14.162  17.943  24.353  1.00  0.00    -0.289 OA
ATOM     25  H2  UNL     1      14.767  18.559  24.748  1.00  0.00     0.244 HD
ENDBRANCH   6  24
TORSDOF 7
ENDMDL
MODEL 2
REMARK VINA RESULT: -6.230095123      2.161      5.384
REMARK  7 active torsions:
REMARK  status: ('A' for Active; 'I' for Inactive)
REMARK    1  A    between atoms: C2_2  and  O1_4 
REMARK    2  A    between atoms: C2_2  and  C4_6 
REMARK    3  A    between atoms: C4_6  and  N1_7 
REMARK    4  A    between atoms: N1_7  and  C5_9 
REMARK    5  A    between atoms: N2_14  and  O2_15 
REMARK    6  A    between atoms: C10_17  and  N3_18 
REMARK    7  A    between atoms: C11_22  and  N4_23 
ROOT
HETATM    1  C5  UNL     1      14.275  15.297  20.895  1.00  0.00     0.034 C 
HETATM    2  C6  UNL     1      13.936  16.484  20.107  1.00  0.00     0.091 C 
HETATM    3  C7  UNL     1      13.320  16.217  18.786  1.00  0.00     0.055 C 
HETATM    4  C8  UNL     1      14.248  16.674  17.651  1.00  0.00     0.041 C 
HETATM    5  C9  UNL     1      12.088  17.109  18.683  1.00  0.00     0.041 C 
HETATM    6  N2  UNL     1      12.865  14.880  18.594  1.00  0.00    -0.250 N 
HETATM    7  C10 UNL     1      13.806  13.857  18.910  1.00  0.00     0.356 C 
HETATM    8  C11 UNL     1      14.158  13.967  20.339  1.00  0.00     0.077 C 
ENDROOT
BRANCH   1   9
HETATM    9  N1  UNL     1      14.683  15.440  22.097  1.00  0.00    -0.389 N 
ATOM     10  H1  UNL     1      15.027  14.614  22.587  1.00  0.00     0.159 HD
BRANCH   9  11
HETATM   11  C4  UNL     1      14.688  16.693  22.802  1.00  0.00     0.156 C 
BRANCH  11  12
HETATM   12  C2  UNL     1      16.108  17.120  23.094  1.00  0.00     0.066 C 
HETATM   13  C1  UNL     1      16.951  17.227  21.870  1.00  0.00     0.047 C 
HETATM   14  C3  UNL     1      16.046  18.462  23.780  1.00  0.00     0.047 C 
BRANCH  12  15
HETATM   15  O1  UNL     1      16.661  16.200  23.979  1.00  0.00    -0.389 OA
ATOM     16  H1  UNL     1      16.771  15.358  23.551  1.00  0.00     0.210 HD
ENDBRANCH  12  15
ENDBRANCH  11  12
ENDBRANCH   9  11
ENDBRANCH   1   9
BRANCH   8  17
HETATM   17  N4  UNL     1      14.345  12.914  21.030  1.00  0.00    -0.398 N 
ATOM     18  H42 UNL     1      15.262  12.465  21.037  1.00  0.00     0.156 HD
ATOM     19  H41 UNL     1      13.609  12.485  21.592  1.00  0.00     0.156 HD
ENDBRANCH   8  17
BRANCH   7  20
HETATM   20  N3  UNL     1      15.026  13.918  18.147  1.00  0.00    -0.051 N 
ATOM     21  H33 UNL     1      15.720  13.277  18.532  1.00  0.00     0.277 HD
ATOM     22  H32 UNL     1      14.893  13.498  17.228  1.00  0.00     0.277 HD
ATOM     23  H31 UNL     1      15.417  14.856  18.057  1.00  0.00     0.277 HD
ENDBRANCH   7  20
BRANCH   6  24
HETATM   24  O2  UNL     1      12.184  14.719  17.478  1.00  0.00    -0.289 OA
ATOM     25  H2  UNL     1      12.501  13.999  16.946  1.00  0.00     0.244 HD
ENDBRANCH   6  24
TORSDOF 7
ENDMDL
MODEL 3
REMARK VINA RESULT: -6.098360528      2.823      6.235
REMARK  7 active torsions:
REMARK  status: ('A' for Active; 'I' for Inactive)
REMARK    1  A    between atoms: C2_2  and  O1_4 
REMARK    2  A    between atoms: C2_2  and  C4_6 
REMARK    3  A    between atoms: C4_6  and  N1_7 
REMARK    4  A    between atoms: N1_7  and  C5_9 
REMARK    5  A    between atoms: N2_14  and  O2_15 
REMARK    6  A    between atoms: C10_17  and  N3_18 
REMARK    7  A    between atoms: C11_22  and  N4_23 
ROOT
HETATM    1  C5  UNL     1      13.255  15.851  18.003  1.00  0.00     0.034 C 
HETATM    2  C6  UNL     1      12.337  16.680  17.220  1.00  0.00     0.091 C 
HETATM    3  C7  UNL     1      12.691  16.845  15.790  1.00  0.00     0.055 C 
HETATM    4  C8  UNL     1      13.049  18.307  15.485  1.00  0.00     0.041 C 
HETATM    5  C9  UNL     1      11.427  16.564  14.985  1.00  0.00     0.041 C 
HETATM    6  N2  UNL     1      13.684  15.944  15.308  1.00  0.00    -0.250 N 
HETATM    7  C10 UNL     1      14.868  15.850  16.097  1.00  0.00     0.356 C 
HETATM    8  C11 UNL     1      14.499  15.369  17.443  1.00  0.00     0.077 C 
ENDROOT
BRANCH   1   9
HETATM    9  N1  UNL     1      12.950  15.546  19.206  1.00  0.00    -0.389 N 
ATOM     10  H1  UNL     1      12.537  14.630  19.378  1.00  0.00     0.159 HD
BRANCH   9  11
HETATM   11  C4  UNL     1      13.155  16.416  20.332  1.00  0.00     0.156 C 
BRANCH  11  12
HETATM   12  C2  UNL     1      14.238  15.860  21.228  1.00  0.00     0.066 C 
HETATM   13  C1  UNL     1      15.559  16.521  21.028  1.00  0.00     0.047 C 
HETATM   14  C3  UNL     1      13.791  16.056  22.655  1.00  0.00     0.047 C 
BRANCH  12  15
HETATM   15  O1  UNL     1      14.342  14.495  20.984  1.00  0.00    -0.389 OA
ATOM     16  H1  UNL     1      13.741  14.239  20.293  1.00  0.00     0.210 HD
ENDBRANCH  12  15
ENDBRANCH  11  12
ENDBRANCH   9  11
ENDBRANCH   1   9
BRANCH   8  17
HETATM   17  N4  UNL     1      15.266  14.563  18.062  1.00  0.00    -0.398 N 
ATOM     18  H42 UNL     1      16.102  14.915  18.531  1.00  0.00     0.156 HD
ATOM     19  H41 UNL     1      15.084  13.561  18.116  1.00  0.00     0.156 HD
ENDBRANCH   8  17
BRANCH   7  20
HETATM   20  N3  UNL     1      15.577  17.093  16.249  1.00  0.00    -0.051 N 
ATOM     21  H33 UNL     1      14.938  17.882  16.155  1.00  0.00     0.277 HD
ATOM     22  H32 UNL     1      15.869  17.221  17.218  1.00  0.00     0.277 HD
ATOM     23  H31 UNL     1      16.373  17.202  15.621  1.00  0.00     0.277 HD
ENDBRANCH   7  20
BRANCH   6  24
HETATM   24  O2  UNL     1      13.858  16.012  14.004  1.00  0.00    -0.289 OA
ATOM     25  H2  UNL     1      13.332  15.385  13.522  1.00  0.00     0.244 HD
ENDBRANCH   6  24
TORSDOF 7
ENDMDL
MODEL 4
REMARK VINA RESULT: -6.095488019      2.923      6.462
REMARK  7 active torsions:
REMARK  status: ('A' for Active; 'I' for Inactive)
REMARK    1  A    between atoms: C2_2  and  O1_4 
REMARK    2  A    between atoms: C2_2  and  C4_6 
REMARK    3  A    between atoms: C4_6  and  N1_7 
REMARK    4  A    between atoms: N1_7  and  C5_9 
REMARK    5  A    between atoms: N2_14  and  O2_15 
REMARK    6  A    between atoms: C10_17  and  N3_18 
REMARK    7  A    between atoms: C11_22  and  N4_23 
ROOT
HETATM    1  C5  UNL     1      14.271  15.801  17.489  1.00  0.00     0.034 C 
HETATM    2  C6  UNL     1      14.618  16.791  16.468  1.00  0.00     0.091 C 
HETATM    3  C7  UNL     1      13.558  17.078  15.473  1.00  0.00     0.055 C 
HETATM    4  C8  UNL     1      13.988  16.617  14.073  1.00  0.00     0.041 C 
HETATM    5  C9  UNL     1      13.438  18.595  15.378  1.00  0.00     0.041 C 
HETATM    6  N2  UNL     1      12.262  16.593  15.818  1.00  0.00    -0.250 N 
HETATM    7  C10 UNL     1      12.201  15.226  16.217  1.00  0.00     0.356 C 
HETATM    8  C11 UNL     1      13.037  15.049  17.420  1.00  0.00     0.077 C 
ENDROOT
BRANCH   1   9
HETATM    9  N1  UNL     1      15.075  15.596  18.461  1.00  0.00    -0.389 N 
ATOM     10  H1  UNL     1      15.585  14.713  18.483  1.00  0.00     0.159 HD
BRANCH   9  11
HETATM   11  C4  UNL     1      15.307  16.535  19.525  1.00  0.00     0.156 C 
BRANCH  11  12
HETATM   12  C2  UNL     1      14.777  15.984  20.829  1.00  0.00     0.066 C 
HETATM   13  C1  UNL     1      15.598  16.380  22.008  1.00  0.00     0.047 C 
HETATM   14  C3  UNL     1      13.370  16.501  21.000  1.00  0.00     0.047 C 
BRANCH  12  15
HETATM   15  O1  UNL     1      14.726  14.598  20.722  1.00  0.00    -0.389 OA
ATOM     16  H1  UNL     1      15.116  14.317  19.902  1.00  0.00     0.210 HD
ENDBRANCH  12  15
ENDBRANCH  11  12
ENDBRANCH   9  11
ENDBRANCH   1   9
BRANCH   8  17
HETATM   17  N4  UNL     1      12.660  14.259  18.345  1.00  0.00    -0.398 N 
ATOM     18  H42 UNL     1      13.307  13.561  18.713  1.00  0.00     0.156 HD
ATOM     19  H41 UNL     1      11.723  14.288  18.746  1.00  0.00     0.156 HD
ENDBRANCH   8  17
BRANCH   7  20
HETATM   20  N3  UNL     1      12.662  14.297  15.217  1.00  0.00    -0.051 N 
ATOM     21  H33 UNL     1      11.977  14.214  14.466  1.00  0.00     0.277 HD
ATOM     22  H32 UNL     1      13.444  14.692  14.697  1.00  0.00     0.277 HD
ATOM     23  H31 UNL     1      12.906  13.376  15.581  1.00  0.00     0.277 HD
ENDBRANCH   7  20
BRANCH   6  24
HETATM   24  O2  UNL     1      11.319  17.001  14.994  1.00  0.00    -0.289 OA
ATOM     25  H2  UNL     1      10.759  17.671  15.367  1.00  0.00     0.244 HD
ENDBRANCH   6  24
TORSDOF 7
ENDMDL
MODEL 5
REMARK VINA RESULT: -5.979204960      1.988      5.417
REMARK  7 active torsions:
REMARK  status: ('A' for Active; 'I' for Inactive)
REMARK    1  A    between atoms: C2_2  and  O1_4 
REMARK    2  A    between atoms: C2_2  and  C4_6 
REMARK    3  A    between atoms: C4_6  and  N1_7 
REMARK    4  A    between atoms: N1_7  and  C5_9 
REMARK    5  A    between atoms: N2_14  and  O2_15 
REMARK    6  A    between atoms: C10_17  and  N3_18 
REMARK    7  A    between atoms: C11_22  and  N4_23 
ROOT
HETATM    1  C5  UNL     1      14.526  15.527  20.772  1.00  0.00     0.034 C 
HETATM    2  C6  UNL     1      14.196  16.654  19.898  1.00  0.00     0.091 C 
HETATM    3  C7  UNL     1      13.466  16.304  18.656  1.00  0.00     0.055 C 
HETATM    4  C8  UNL     1      14.330  16.592  17.419  1.00  0.00     0.041 C 
HETATM    5  C9  UNL     1      12.283  17.259  18.553  1.00  0.00     0.041 C 
HETATM    6  N2  UNL     1      12.923  14.986  18.629  1.00  0.00    -0.250 N 
HETATM    7  C10 UNL     1      13.826  13.939  18.977  1.00  0.00     0.356 C 
HETATM    8  C11 UNL     1      14.292  14.160  20.360  1.00  0.00     0.077 C 
ENDROOT
BRANCH   1   9
HETATM    9  N1  UNL     1      15.032  15.756  21.923  1.00  0.00    -0.389 N 
ATOM     10  H1  UNL     1      15.661  15.057  22.317  1.00  0.00     0.159 HD
BRANCH   9  11
HETATM   11  C4  UNL     1      14.769  16.939  22.697  1.00  0.00     0.156 C 
BRANCH  11  12
HETATM   12  C2  UNL     1      13.548  16.733  23.564  1.00  0.00     0.066 C 
HETATM   13  C1  UNL     1      12.268  16.887  22.817  1.00  0.00     0.047 C 
HETATM   14  C3  UNL     1      13.630  15.340  24.137  1.00  0.00     0.047 C 
BRANCH  12  15
HETATM   15  O1  UNL     1      13.606  17.643  24.613  1.00  0.00    -0.389 OA
ATOM     16  H1  UNL     1      14.094  18.416  24.351  1.00  0.00     0.210 HD
ENDBRANCH  12  15
ENDBRANCH  11  12
ENDBRANCH   9  11
ENDBRANCH   1   9
BRANCH   8  17
HETATM   17  N4  UNL     1      14.471  13.167  21.137  1.00  0.00    -0.398 N 
ATOM     18  H42 UNL     1      14.334  13.276  22.142  1.00  0.00     0.156 HD
ATOM     19  H41 UNL     1      14.752  12.247  20.798  1.00  0.00     0.156 HD
ENDBRANCH   8  17
BRANCH   7  20
HETATM   20  N3  UNL     1      14.986  13.851  18.128  1.00  0.00    -0.051 N 
ATOM     21  H33 UNL     1      14.716  13.929  17.148  1.00  0.00     0.277 HD
ATOM     22  H32 UNL     1      15.558  14.690  18.218  1.00  0.00     0.277 HD
ATOM     23  H31 UNL     1      15.552  13.016  18.278  1.00  0.00     0.277 HD
ENDBRANCH   7  20
BRANCH   6  24
HETATM   24  O2  UNL     1      12.151  14.764  17.585  1.00  0.00    -0.289 OA
ATOM     25  H2  UNL     1      12.066  13.843  17.371  1.00  0.00     0.244 HD
ENDBRANCH   6  24
TORSDOF 7
ENDMDL
