MODEL 1
REMARK VINA RESULT: -7.383347716      0.000      0.000
REMARK  5 active torsions:
REMARK  status: ('A' for Active; 'I' for Inactive)
REMARK    1  A    between atoms: C3_5  and  N2_6 
REMARK    2  A    between atoms: N2_6  and  C4_8 
REMARK    3  A    between atoms: C10_16  and  C11_17 
REMARK    4  A    between atoms: C11_17  and  O1_18 
REMARK    5  A    between atoms: N4_20  and  O2_22 
ROOT
HETATM    1  C1  UNL     1      14.415  14.351  20.748  1.00  0.00     0.035 C 
HETATM    2  C2  UNL     1      15.079  15.720  20.829  1.00  0.00     0.126 C 
HETATM    3  N1  UNL     1      14.594  16.409  19.603  1.00  0.00    -0.220 N 
ATOM      4  H1  UNL     1      15.125  16.700  18.782  1.00  0.00     0.178 HD
HETATM    5  C3  UNL     1      13.181  16.565  19.871  1.00  0.00     0.671 C 
HETATM    6  N3  UNL     1      13.019  16.644  21.169  1.00  0.00    -0.212 N 
ATOM      7  H3  UNL     1      12.124  16.756  21.645  1.00  0.00     0.178 HD
HETATM    8  C10 UNL     1      14.326  16.547  21.833  1.00  0.00     0.198 C 
ENDROOT
BRANCH   5   9
HETATM    9  N2  UNL     1      12.105  16.630  18.953  1.00  0.00    -0.222 N 
ATOM     10  H2  UNL     1      11.185  16.886  19.311  1.00  0.00     0.178 HD
BRANCH   9  11
HETATM   11  C4  UNL     1      12.229  16.357  17.560  1.00  0.00     0.099 C 
HETATM   12  C5  UNL     1      12.609  14.916  17.265  1.00  0.00     0.026 C 
HETATM   13  C6  UNL     1      12.280  14.692  15.798  1.00  0.00     0.002 C 
HETATM   14  C7  UNL     1      13.154  15.583  14.966  1.00  0.00     0.000 C 
HETATM   15  C8  UNL     1      14.001  16.522  15.786  1.00  0.00     0.002 C 
HETATM   16  C9  UNL     1      13.238  17.234  16.859  1.00  0.00     0.026 C 
ENDBRANCH   9  11
ENDBRANCH   5   9
BRANCH   8  17
HETATM   17  C11 UNL     1      14.279  16.015  23.175  1.00  0.00     0.161 C 
HETATM   18  N4  UNL     1      15.253  16.013  23.987  1.00  0.00    -0.249 N 
ATOM     19  H4  UNL     1      15.047  15.595  24.895  1.00  0.00     0.196 HD
BRANCH  17  20
HETATM   20  O1  UNL     1      13.086  15.456  23.656  1.00  0.00    -0.346 OA
ATOM     21  H1  UNL     1      12.575  15.930  24.302  1.00  0.00     0.219 HD
ENDBRANCH  17  20
BRANCH  18  22
HETATM   22  O2  UNL     1      16.505  16.465  23.857  1.00  0.00    -0.288 OA
ATOM     23  H2  UNL     1      17.141  16.733  24.508  1.00  0.00     0.244 HD
ENDBRANCH  18  22
ENDBRANCH   8  17
TORSDOF 5
ENDMDL
MODEL 2
REMARK VINA RESULT: -7.360024513      0.627      1.328
REMARK  5 active torsions:
REMARK  status: ('A' for Active; 'I' for Inactive)
REMARK    1  A    between atoms: C3_5  and  N2_6 
REMARK    2  A    between atoms: N2_6  and  C4_8 
REMARK    3  A    between atoms: C10_16  and  C11_17 
REMARK    4  A    between atoms: C11_17  and  O1_18 
REMARK    5  A    between atoms: N4_20  and  O2_22 
ROOT
HETATM    1  C1  UNL     1      14.372  14.283  21.139  1.00  0.00     0.035 C 
HETATM    2  C2  UNL     1      15.167  15.571  20.963  1.00  0.00     0.126 C 
HETATM    3  N1  UNL     1      14.684  16.097  19.659  1.00  0.00    -0.220 N 
ATOM      4  H1  UNL     1      15.194  16.193  18.781  1.00  0.00     0.178 HD
HETATM    5  C3  UNL     1      13.309  16.439  19.950  1.00  0.00     0.671 C 
HETATM    6  N3  UNL     1      13.227  16.746  21.222  1.00  0.00    -0.212 N 
ATOM      7  H3  UNL     1      12.374  17.026  21.706  1.00  0.00     0.178 HD
HETATM    8  C10 UNL     1      14.553  16.624  21.842  1.00  0.00     0.198 C 
ENDROOT
BRANCH   5   9
HETATM    9  N2  UNL     1      12.196  16.464  19.077  1.00  0.00    -0.222 N 
ATOM     10  H2  UNL     1      11.270  16.598  19.484  1.00  0.00     0.178 HD
BRANCH   9  11
HETATM   11  C4  UNL     1      12.289  16.313  17.663  1.00  0.00     0.099 C 
HETATM   12  C5  UNL     1      12.659  14.902  17.236  1.00  0.00     0.026 C 
HETATM   13  C6  UNL     1      12.298  14.805  15.763  1.00  0.00     0.002 C 
HETATM   14  C7  UNL     1      13.156  15.765  14.993  1.00  0.00     0.000 C 
HETATM   15  C8  UNL     1      14.022  16.629  15.872  1.00  0.00     0.002 C 
HETATM   16  C9  UNL     1      13.285  17.247  17.019  1.00  0.00     0.026 C 
ENDBRANCH   9  11
ENDBRANCH   5   9
BRANCH   8  17
HETATM   17  C11 UNL     1      14.530  16.326  23.255  1.00  0.00     0.161 C 
HETATM   18  N4  UNL     1      13.483  16.292  23.970  1.00  0.00    -0.249 N 
ATOM     19  H4  UNL     1      13.647  16.066  24.952  1.00  0.00     0.196 HD
BRANCH  17  20
HETATM   20  O1  UNL     1      15.730  16.043  23.922  1.00  0.00    -0.346 OA
ATOM     21  H1  UNL     1      16.455  16.654  23.863  1.00  0.00     0.219 HD
ENDBRANCH  17  20
BRANCH  18  22
HETATM   22  O2  UNL     1      12.200  16.500  23.657  1.00  0.00    -0.288 OA
ATOM     23  H2  UNL     1      11.544  15.917  23.294  1.00  0.00     0.244 HD
ENDBRANCH  18  22
ENDBRANCH   8  17
TORSDOF 5
ENDMDL
MODEL 3
REMARK VINA RESULT: -7.185384889      0.625      1.341
REMARK  5 active torsions:
REMARK  status: ('A' for Active; 'I' for Inactive)
REMARK    1  A    between atoms: C3_5  and  N2_6 
REMARK    2  A    between atoms: N2_6  and  C4_8 
REMARK    3  A    between atoms: C10_16  and  C11_17 
REMARK    4  A    between atoms: C11_17  and  O1_18 
REMARK    5  A    between atoms: N4_20  and  O2_22 
ROOT
HETATM    1  C1  UNL     1      14.377  14.423  21.101  1.00  0.00     0.035 C 
HETATM    2  C2  UNL     1      14.992  15.816  21.174  1.00  0.00     0.126 C 
HETATM    3  N1  UNL     1      14.778  16.357  19.806  1.00  0.00    -0.220 N 
ATOM      4  H1  UNL     1      15.471  16.579  19.091  1.00  0.00     0.178 HD
HETATM    5  C3  UNL     1      13.338  16.490  19.744  1.00  0.00     0.671 C 
HETATM    6  N3  UNL     1      12.897  16.698  20.961  1.00  0.00    -0.212 N 
ATOM      7  H3  UNL     1      11.918  16.827  21.218  1.00  0.00     0.178 HD
HETATM    8  C10 UNL     1      14.029  16.716  21.897  1.00  0.00     0.198 C 
ENDROOT
BRANCH   5   9
HETATM    9  N2  UNL     1      12.488  16.422  18.615  1.00  0.00    -0.222 N 
ATOM     10  H2  UNL     1      11.498  16.629  18.748  1.00  0.00     0.178 HD
BRANCH   9  11
HETATM   11  C4  UNL     1      12.929  16.080  17.304  1.00  0.00     0.099 C 
HETATM   12  C5  UNL     1      12.553  17.116  16.258  1.00  0.00     0.026 C 
HETATM   13  C6  UNL     1      13.439  16.834  15.056  1.00  0.00     0.002 C 
HETATM   14  C7  UNL     1      13.097  15.478  14.513  1.00  0.00     0.000 C 
HETATM   15  C8  UNL     1      12.093  14.734  15.355  1.00  0.00     0.002 C 
HETATM   16  C9  UNL     1      12.409  14.749  16.818  1.00  0.00     0.026 C 
ENDBRANCH   9  11
ENDBRANCH   5   9
BRANCH   8  17
HETATM   17  C11 UNL     1      13.697  16.324  23.247  1.00  0.00     0.161 C 
HETATM   18  N4  UNL     1      14.544  16.099  24.164  1.00  0.00    -0.249 N 
ATOM     19  H4  UNL     1      14.136  15.830  25.060  1.00  0.00     0.196 HD
BRANCH  17  20
HETATM   20  O1  UNL     1      12.352  16.176  23.613  1.00  0.00    -0.346 OA
ATOM     21  H1  UNL     1      12.076  15.395  24.077  1.00  0.00     0.219 HD
ENDBRANCH  17  20
BRANCH  18  22
HETATM   22  O2  UNL     1      15.880  16.154  24.157  1.00  0.00    -0.288 OA
ATOM     23  H2  UNL     1      16.525  15.705  24.691  1.00  0.00     0.244 HD
ENDBRANCH  18  22
ENDBRANCH   8  17
TORSDOF 5
ENDMDL
MODEL 4
REMARK VINA RESULT: -7.083716580      1.104      1.746
REMARK  5 active torsions:
REMARK  status: ('A' for Active; 'I' for Inactive)
REMARK    1  A    between atoms: C3_5  and  N2_6 
REMARK    2  A    between atoms: N2_6  and  C4_8 
REMARK    3  A    between atoms: C10_16  and  C11_17 
REMARK    4  A    between atoms: C11_17  and  O1_18 
REMARK    5  A    between atoms: N4_20  and  O2_22 
ROOT
HETATM    1  C1  UNL     1      14.228  14.036  21.035  1.00  0.00     0.035 C 
HETATM    2  C2  UNL     1      15.039  15.310  21.234  1.00  0.00     0.126 C 
HETATM    3  N1  UNL     1      14.898  16.013  19.931  1.00  0.00    -0.220 N 
ATOM      4  H1  UNL     1      15.611  16.204  19.228  1.00  0.00     0.178 HD
HETATM    5  C3  UNL     1      13.493  16.358  19.914  1.00  0.00     0.671 C 
HETATM    6  N3  UNL     1      13.094  16.503  21.155  1.00  0.00    -0.212 N 
ATOM      7  H3  UNL     1      12.147  16.745  21.444  1.00  0.00     0.178 HD
HETATM    8  C10 UNL     1      14.224  16.261  22.063  1.00  0.00     0.198 C 
ENDROOT
BRANCH   5   9
HETATM    9  N2  UNL     1      12.634  16.530  18.803  1.00  0.00    -0.222 N 
ATOM     10  H2  UNL     1      11.726  16.966  18.962  1.00  0.00     0.178 HD
BRANCH   9  11
HETATM   11  C4  UNL     1      12.960  16.129  17.475  1.00  0.00     0.099 C 
HETATM   12  C5  UNL     1      12.364  17.039  16.413  1.00  0.00     0.026 C 
HETATM   13  C6  UNL     1      13.135  16.749  15.136  1.00  0.00     0.002 C 
HETATM   14  C7  UNL     1      12.877  15.328  14.730  1.00  0.00     0.000 C 
HETATM   15  C8  UNL     1      12.056  14.560  15.733  1.00  0.00     0.002 C 
HETATM   16  C9  UNL     1      12.529  14.721  17.144  1.00  0.00     0.026 C 
ENDBRANCH   9  11
ENDBRANCH   5   9
BRANCH   8  17
HETATM   17  C11 UNL     1      13.847  15.786  23.374  1.00  0.00     0.161 C 
HETATM   18  N4  UNL     1      13.133  16.430  24.201  1.00  0.00    -0.249 N 
ATOM     19  H4  UNL     1      12.964  15.946  25.083  1.00  0.00     0.196 HD
BRANCH  17  20
HETATM   20  O1  UNL     1      14.277  14.521  23.801  1.00  0.00    -0.346 OA
ATOM     21  H1  UNL     1      14.213  14.290  24.721  1.00  0.00     0.219 HD
ENDBRANCH  17  20
BRANCH  18  22
HETATM   22  O2  UNL     1      12.563  17.637  24.112  1.00  0.00    -0.288 OA
ATOM     23  H2  UNL     1      12.345  18.168  23.356  1.00  0.00     0.244 HD
ENDBRANCH  18  22
ENDBRANCH   8  17
TORSDOF 5
ENDMDL
MODEL 5
REMARK VINA RESULT: -6.675550259      1.696      2.532
REMARK  5 active torsions:
REMARK  status: ('A' for Active; 'I' for Inactive)
REMARK    1  A    between atoms: C3_5  and  N2_6 
REMARK    2  A    between atoms: N2_6  and  C4_8 
REMARK    3  A    between atoms: C10_16  and  C11_17 
REMARK    4  A    between atoms: C11_17  and  O1_18 
REMARK    5  A    between atoms: N4_20  and  O2_22 
ROOT
HETATM    1  C1  UNL     1      13.116  16.536  21.159  1.00  0.00     0.035 C 
HETATM    2  C2  UNL     1      13.997  15.311  21.370  1.00  0.00     0.126 C 
HETATM    3  N1  UNL     1      14.580  15.071  20.023  1.00  0.00    -0.220 N 
ATOM      4  H1  UNL     1      14.420  14.289  19.388  1.00  0.00     0.178 HD
HETATM    5  C3  UNL     1      15.431  16.226  19.842  1.00  0.00     0.671 C 
HETATM    6  N3  UNL     1      15.829  16.628  21.025  1.00  0.00    -0.212 N 
ATOM      7  H3  UNL     1      16.440  17.426  21.200  1.00  0.00     0.178 HD
HETATM    8  C10 UNL     1      15.258  15.752  22.057  1.00  0.00     0.198 C 
ENDROOT
BRANCH   5   9
HETATM    9  N2  UNL     1      15.816  16.866  18.639  1.00  0.00    -0.222 N 
ATOM     10  H2  UNL     1      16.581  17.539  18.679  1.00  0.00     0.178 HD
BRANCH   9  11
HETATM   11  C4  UNL     1      15.198  16.628  17.377  1.00  0.00     0.099 C 
HETATM   12  C5  UNL     1      15.843  17.403  16.241  1.00  0.00     0.026 C 
HETATM   13  C6  UNL     1      15.377  16.730  14.961  1.00  0.00     0.002 C 
HETATM   14  C7  UNL     1      13.890  16.888  14.847  1.00  0.00     0.000 C 
HETATM   15  C8  UNL     1      13.265  17.536  16.055  1.00  0.00     0.002 C 
HETATM   16  C9  UNL     1      13.724  16.951  17.354  1.00  0.00     0.026 C 
ENDBRANCH   9  11
ENDBRANCH   5   9
BRANCH   8  17
HETATM   17  C11 UNL     1      15.084  16.380  23.346  1.00  0.00     0.161 C 
HETATM   18  N4  UNL     1      14.363  15.921  24.284  1.00  0.00    -0.249 N 
ATOM     19  H4  UNL     1      14.351  16.493  25.128  1.00  0.00     0.196 HD
BRANCH  17  20
HETATM   20  O1  UNL     1      15.746  17.585  23.624  1.00  0.00    -0.346 OA
ATOM     21  H1  UNL     1      15.256  18.398  23.629  1.00  0.00     0.219 HD
ENDBRANCH  17  20
BRANCH  18  22
HETATM   22  O2  UNL     1      13.618  14.813  24.354  1.00  0.00    -0.288 OA
ATOM     23  H2  UNL     1      13.863  13.896  24.349  1.00  0.00     0.244 HD
ENDBRANCH  18  22
ENDBRANCH   8  17
TORSDOF 5
ENDMDL
