MODEL 1
REMARK VINA RESULT: -6.695593642      0.000      0.000
REMARK  5 active torsions:
REMARK  status: ('A' for Active; 'I' for Inactive)
REMARK    1  A    between atoms: C2_2  and  N1_3 
REMARK       I    between atoms: C3_5  and  N3_7 
REMARK       I    between atoms: N4_9  and  C4_11 
REMARK    2  A    between atoms: C4_11  and  C5_13 
REMARK    3  A    between atoms: C5_13  and  N5_14 
REMARK    4  A    between atoms: C6_15  and  O2_16 
REMARK    5  A    between atoms: C9_20  and  O3_21 
ROOT
HETATM    1  N1  UNL     1      12.287  17.371  16.204  1.00  0.00    -0.364 N 
ATOM      2  H1  UNL     1      12.262  18.290  16.647  1.00  0.00     0.162 HD
HETATM    3  C3  UNL     1      12.272  16.329  16.944  1.00  0.00     0.203 C 
HETATM    4  N2  UNL     1      12.303  15.024  16.403  1.00  0.00    -0.062 NA
HETATM    5  N3  UNL     1      12.221  16.482  18.348  1.00  0.00    -0.271 N 
ATOM      6  H3  UNL     1      11.406  16.885  18.810  1.00  0.00     0.189 HD
HETATM    7  N4  UNL     1      13.236  16.093  19.013  1.00  0.00    -0.266 N 
ATOM      8  H4  UNL     1      14.043  15.691  18.535  1.00  0.00     0.190 HD
HETATM    9  C4  UNL     1      13.230  16.227  20.416  1.00  0.00     0.254 C 
HETATM   10  O1  UNL     1      12.496  17.076  20.953  1.00  0.00    -0.270 OA
ENDROOT
BRANCH   9  11
HETATM   11  C5  UNL     1      14.090  15.363  21.241  1.00  0.00     0.237 C 
BRANCH  11  12
HETATM   12  N5  UNL     1      15.117  16.150  21.878  1.00  0.00    -0.300 N 
HETATM   13  C6  UNL     1      15.257  16.391  23.193  1.00  0.00     0.144 A 
HETATM   14  C7  UNL     1      16.376  17.187  23.314  1.00  0.00     0.060 A 
HETATM   15  C8  UNL     1      16.921  17.431  22.073  1.00  0.00     0.060 A 
HETATM   16  C9  UNL     1      16.105  16.764  21.182  1.00  0.00     0.144 A 
BRANCH  13  17
HETATM   17  O2  UNL     1      14.424  15.924  24.225  1.00  0.00    -0.346 OA
ATOM     18  H2  UNL     1      14.680  15.746  25.123  1.00  0.00     0.219 HD
ENDBRANCH  13  17
BRANCH  16  19
HETATM   19  O3  UNL     1      16.282  16.736  19.805  1.00  0.00    -0.346 OA
ATOM     20  H3  UNL     1      16.828  16.129  19.320  1.00  0.00     0.219 HD
ENDBRANCH  16  19
ENDBRANCH  11  12
ENDBRANCH   9  11
BRANCH   1  21
HETATM   21  C2  UNL     1      12.337  17.294  14.769  1.00  0.00     0.118 C 
HETATM   22  C1  UNL     1      13.697  17.752  14.318  1.00  0.00     0.026 C 
ENDBRANCH   1  21
TORSDOF 5
ENDMDL
MODEL 2
REMARK VINA RESULT: -6.689709787      0.128      1.896
REMARK  5 active torsions:
REMARK  status: ('A' for Active; 'I' for Inactive)
REMARK    1  A    between atoms: C2_2  and  N1_3 
REMARK       I    between atoms: C3_5  and  N3_7 
REMARK       I    between atoms: N4_9  and  C4_11 
REMARK    2  A    between atoms: C4_11  and  C5_13 
REMARK    3  A    between atoms: C5_13  and  N5_14 
REMARK    4  A    between atoms: C6_15  and  O2_16 
REMARK    5  A    between atoms: C9_20  and  O3_21 
ROOT
HETATM    1  N1  UNL     1      12.299  17.385  16.219  1.00  0.00    -0.364 N 
ATOM      2  H1  UNL     1      12.290  18.316  16.635  1.00  0.00     0.162 HD
HETATM    3  C3  UNL     1      12.229  16.366  16.988  1.00  0.00     0.203 C 
HETATM    4  N2  UNL     1      12.235  15.046  16.486  1.00  0.00    -0.062 NA
HETATM    5  N3  UNL     1      12.142  16.561  18.385  1.00  0.00    -0.271 N 
ATOM      6  H3  UNL     1      11.327  17.003  18.810  1.00  0.00     0.189 HD
HETATM    7  N4  UNL     1      13.124  16.162  19.091  1.00  0.00    -0.266 N 
ATOM      8  H4  UNL     1      13.932  15.721  18.650  1.00  0.00     0.190 HD
HETATM    9  C4  UNL     1      13.081  16.337  20.488  1.00  0.00     0.254 C 
HETATM   10  O1  UNL     1      12.358  17.224  20.979  1.00  0.00    -0.270 OA
ENDROOT
BRANCH   9  11
HETATM   11  C5  UNL     1      13.888  15.472  21.363  1.00  0.00     0.237 C 
BRANCH  11  12
HETATM   12  N5  UNL     1      15.028  16.200  21.866  1.00  0.00    -0.300 N 
HETATM   13  C6  UNL     1      16.028  16.740  21.147  1.00  0.00     0.144 A 
HETATM   14  C7  UNL     1      16.875  17.327  22.062  1.00  0.00     0.060 A 
HETATM   15  C8  UNL     1      16.393  17.148  23.340  1.00  0.00     0.060 A 
HETATM   16  C9  UNL     1      15.223  16.431  23.187  1.00  0.00     0.144 A 
BRANCH  13  17
HETATM   17  O2  UNL     1      16.170  16.705  19.749  1.00  0.00    -0.346 OA
ATOM     18  H2  UNL     1      16.188  17.453  19.163  1.00  0.00     0.219 HD
ENDBRANCH  13  17
BRANCH  16  19
HETATM   19  O3  UNL     1      14.395  16.023  24.225  1.00  0.00    -0.346 OA
ATOM     20  H3  UNL     1      14.330  15.145  24.581  1.00  0.00     0.219 HD
ENDBRANCH  16  19
ENDBRANCH  11  12
ENDBRANCH   9  11
BRANCH   1  21
HETATM   21  C2  UNL     1      12.389  17.264  14.789  1.00  0.00     0.118 C 
HETATM   22  C1  UNL     1      13.710  17.833  14.349  1.00  0.00     0.026 C 
ENDBRANCH   1  21
TORSDOF 5
ENDMDL
MODEL 3
REMARK VINA RESULT: -6.363631496      1.612      2.640
REMARK  5 active torsions:
REMARK  status: ('A' for Active; 'I' for Inactive)
REMARK    1  A    between atoms: C2_2  and  N1_3 
REMARK       I    between atoms: C3_5  and  N3_7 
REMARK       I    between atoms: N4_9  and  C4_11 
REMARK    2  A    between atoms: C4_11  and  C5_13 
REMARK    3  A    between atoms: C5_13  and  N5_14 
REMARK    4  A    between atoms: C6_15  and  O2_16 
REMARK    5  A    between atoms: C9_20  and  O3_21 
ROOT
HETATM    1  N1  UNL     1      13.036  14.732  16.084  1.00  0.00    -0.364 N 
ATOM      2  H1  UNL     1      12.707  13.831  16.430  1.00  0.00     0.162 HD
HETATM    3  C3  UNL     1      13.812  15.429  16.823  1.00  0.00     0.203 C 
HETATM    4  N2  UNL     1      14.309  16.687  16.413  1.00  0.00    -0.062 NA
HETATM    5  N3  UNL     1      14.189  14.931  18.090  1.00  0.00    -0.271 N 
ATOM      6  H3  UNL     1      14.766  14.095  18.183  1.00  0.00     0.189 HD
HETATM    7  N4  UNL     1      13.777  15.569  19.113  1.00  0.00    -0.266 N 
ATOM      8  H4  UNL     1      13.201  16.404  19.003  1.00  0.00     0.190 HD
HETATM    9  C4  UNL     1      14.127  15.108  20.398  1.00  0.00     0.254 C 
HETATM   10  O1  UNL     1      14.429  13.912  20.564  1.00  0.00    -0.270 OA
ENDROOT
BRANCH   9  11
HETATM   11  C5  UNL     1      14.135  16.039  21.537  1.00  0.00     0.237 C 
BRANCH  11  12
HETATM   12  N5  UNL     1      15.475  16.516  21.779  1.00  0.00    -0.300 N 
HETATM   13  C6  UNL     1      16.364  16.941  20.865  1.00  0.00     0.144 A 
HETATM   14  C7  UNL     1      17.494  17.292  21.571  1.00  0.00     0.060 A 
HETATM   15  C8  UNL     1      17.296  17.083  22.918  1.00  0.00     0.060 A 
HETATM   16  C9  UNL     1      16.010  16.591  23.022  1.00  0.00     0.144 A 
BRANCH  13  17
HETATM   17  O2  UNL     1      16.170  17.007  19.474  1.00  0.00    -0.346 OA
ATOM     18  H2  UNL     1      16.486  17.686  18.889  1.00  0.00     0.219 HD
ENDBRANCH  13  17
BRANCH  16  19
HETATM   19  O3  UNL     1      15.384  16.238  24.211  1.00  0.00    -0.346 OA
ATOM     20  H3  UNL     1      14.933  15.422  24.389  1.00  0.00     0.219 HD
ENDBRANCH  16  19
ENDBRANCH  11  12
ENDBRANCH   9  11
BRANCH   1  21
HETATM   21  C2  UNL     1      12.612  15.174  14.784  1.00  0.00     0.118 C 
HETATM   22  C1  UNL     1      11.280  15.858  14.928  1.00  0.00     0.026 C 
ENDBRANCH   1  21
TORSDOF 5
ENDMDL
MODEL 4
REMARK VINA RESULT: -6.321080371      1.936      2.893
REMARK  5 active torsions:
REMARK  status: ('A' for Active; 'I' for Inactive)
REMARK    1  A    between atoms: C2_2  and  N1_3 
REMARK       I    between atoms: C3_5  and  N3_7 
REMARK       I    between atoms: N4_9  and  C4_11 
REMARK    2  A    between atoms: C4_11  and  C5_13 
REMARK    3  A    between atoms: C5_13  and  N5_14 
REMARK    4  A    between atoms: C6_15  and  O2_16 
REMARK    5  A    between atoms: C9_20  and  O3_21 
ROOT
HETATM    1  N1  UNL     1      14.503  15.421  15.095  1.00  0.00    -0.364 N 
ATOM      2  H1  UNL     1      14.170  14.458  15.146  1.00  0.00     0.162 HD
HETATM    3  C3  UNL     1      14.877  16.002  16.170  1.00  0.00     0.203 C 
HETATM    4  N2  UNL     1      15.351  17.333  16.179  1.00  0.00    -0.062 NA
HETATM    5  N3  UNL     1      14.819  15.294  17.392  1.00  0.00    -0.271 N 
ATOM      6  H3  UNL     1      15.409  14.480  17.564  1.00  0.00     0.189 HD
HETATM    7  N4  UNL     1      13.997  15.715  18.270  1.00  0.00    -0.266 N 
ATOM      8  H4  UNL     1      13.414  16.531  18.082  1.00  0.00     0.190 HD
HETATM    9  C4  UNL     1      13.904  15.039  19.503  1.00  0.00     0.254 C 
HETATM   10  O1  UNL     1      14.252  13.847  19.583  1.00  0.00    -0.270 OA
ENDROOT
BRANCH   9  11
HETATM   11  C5  UNL     1      13.397  15.743  20.692  1.00  0.00     0.237 C 
BRANCH  11  12
HETATM   12  N5  UNL     1      14.491  16.107  21.558  1.00  0.00    -0.300 N 
HETATM   13  C6  UNL     1      15.685  16.605  21.193  1.00  0.00     0.144 A 
HETATM   14  C7  UNL     1      16.390  16.791  22.363  1.00  0.00     0.060 A 
HETATM   15  C8  UNL     1      15.626  16.408  23.443  1.00  0.00     0.060 A 
HETATM   16  C9  UNL     1      14.430  15.979  22.906  1.00  0.00     0.144 A 
BRANCH  13  17
HETATM   17  O2  UNL     1      16.116  16.875  19.883  1.00  0.00    -0.346 OA
ATOM     18  H2  UNL     1      15.798  17.566  19.313  1.00  0.00     0.219 HD
ENDBRANCH  13  17
BRANCH  16  19
HETATM   19  O3  UNL     1      13.352  15.499  23.639  1.00  0.00    -0.346 OA
ATOM     20  H3  UNL     1      13.355  14.743  24.214  1.00  0.00     0.219 HD
ENDBRANCH  16  19
ENDBRANCH  11  12
ENDBRANCH   9  11
BRANCH   1  21
HETATM   21  C2  UNL     1      14.535  16.078  13.816  1.00  0.00     0.118 C 
HETATM   22  C1  UNL     1      15.917  15.928  13.242  1.00  0.00     0.026 C 
ENDBRANCH   1  21
TORSDOF 5
ENDMDL
MODEL 5
REMARK VINA RESULT: -6.236470038      2.866      4.437
REMARK  5 active torsions:
REMARK  status: ('A' for Active; 'I' for Inactive)
REMARK    1  A    between atoms: C2_2  and  N1_3 
REMARK       I    between atoms: C3_5  and  N3_7 
REMARK       I    between atoms: N4_9  and  C4_11 
REMARK    2  A    between atoms: C4_11  and  C5_13 
REMARK    3  A    between atoms: C5_13  and  N5_14 
REMARK    4  A    between atoms: C6_15  and  O2_16 
REMARK    5  A    between atoms: C9_20  and  O3_21 
ROOT
HETATM    1  N1  UNL     1      16.216  17.980  13.632  1.00  0.00    -0.364 N 
ATOM      2  H1  UNL     1      16.118  18.871  14.120  1.00  0.00     0.162 HD
HETATM    3  C3  UNL     1      15.316  17.087  13.791  1.00  0.00     0.203 C 
HETATM    4  N2  UNL     1      15.383  15.831  13.149  1.00  0.00    -0.062 NA
HETATM    5  N3  UNL     1      14.216  17.361  14.635  1.00  0.00    -0.271 N 
ATOM      6  H3  UNL     1      13.533  18.082  14.401  1.00  0.00     0.189 HD
HETATM    7  N4  UNL     1      14.112  16.668  15.699  1.00  0.00    -0.266 N 
ATOM      8  H4  UNL     1      14.803  15.950  15.918  1.00  0.00     0.190 HD
HETATM    9  C4  UNL     1      13.030  16.907  16.571  1.00  0.00     0.254 C 
HETATM   10  O1  UNL     1      12.460  18.014  16.560  1.00  0.00    -0.270 OA
ENDROOT
BRANCH   9  11
HETATM   11  C5  UNL     1      12.578  15.850  17.490  1.00  0.00     0.237 C 
BRANCH  11  12
HETATM   12  N5  UNL     1      13.413  15.825  18.666  1.00  0.00    -0.300 N 
HETATM   13  C6  UNL     1      14.594  15.200  18.810  1.00  0.00     0.144 A 
HETATM   14  C7  UNL     1      15.005  15.462  20.100  1.00  0.00     0.060 A 
HETATM   15  C8  UNL     1      14.075  16.249  20.743  1.00  0.00     0.060 A 
HETATM   16  C9  UNL     1      13.078  16.463  19.813  1.00  0.00     0.144 A 
BRANCH  13  17
HETATM   17  O2  UNL     1      15.264  14.436  17.838  1.00  0.00    -0.346 OA
ATOM     18  H2  UNL     1      15.478  14.708  16.953  1.00  0.00     0.219 HD
ENDBRANCH  13  17
BRANCH  16  19
HETATM   19  O3  UNL     1      11.928  17.212  20.034  1.00  0.00    -0.346 OA
ATOM     20  H3  UNL     1      11.071  16.874  20.261  1.00  0.00     0.219 HD
ENDBRANCH  16  19
ENDBRANCH  11  12
ENDBRANCH   9  11
BRANCH   1  21
HETATM   21  C2  UNL     1      17.363  17.774  12.790  1.00  0.00     0.118 C 
HETATM   22  C1  UNL     1      18.541  18.471  13.414  1.00  0.00     0.026 C 
ENDBRANCH   1  21
TORSDOF 5
ENDMDL
