MODEL 1
REMARK VINA RESULT: -7.681730692      0.000      0.000
REMARK  6 active torsions:
REMARK  status: ('A' for Active; 'I' for Inactive)
REMARK    1  A    between atoms: C2_2  and  C3_3 
REMARK    2  A    between atoms: C3_3  and  C4_4 
REMARK    3  A    between atoms: C6_6  and  O1_7 
REMARK    4  A    between atoms: C7_9  and  O2_10 
REMARK    5  A    between atoms: C8_12  and  O3_13 
REMARK    6  A    between atoms: C12_19  and  O5_20 
ROOT
HETATM    1  C4  UNL     1      14.949  15.592  22.121  1.00  0.00     0.090 C 
HETATM    2  C5  UNL     1      14.926  15.004  20.812  1.00  0.00    -0.140 C 
HETATM    3  C6  UNL     1      14.573  14.664  19.487  1.00  0.00     0.216 C 
HETATM    4  C7  UNL     1      13.192  15.303  19.137  1.00  0.00     0.191 C 
HETATM    5  C8  UNL     1      12.945  16.612  19.787  1.00  0.00     0.189 C 
HETATM    6  C9  UNL     1      12.860  16.761  21.235  1.00  0.00     0.041 A 
HETATM    7  C10 UNL     1      13.651  16.379  22.320  1.00  0.00    -0.007 A 
HETATM    8  C11 UNL     1      13.100  16.791  23.475  1.00  0.00     0.154 A 
HETATM    9  O4  UNL     1      11.994  17.415  23.134  1.00  0.00    -0.299 OA
HETATM   10  C12 UNL     1      11.792  17.436  21.865  1.00  0.00     0.192 A 
ENDROOT
BRANCH   1  11
HETATM   11  C3  UNL     1      16.150  16.488  22.414  1.00  0.00     0.021 C 
BRANCH  11  12
HETATM   12  C2  UNL     1      16.715  17.143  21.196  1.00  0.00    -0.003 C 
HETATM   13  C1  UNL     1      18.178  17.478  21.519  1.00  0.00     0.005 C 
ENDBRANCH  11  12
ENDBRANCH   1  11
BRANCH   3  14
HETATM   14  O1  UNL     1      14.376  13.277  19.250  1.00  0.00    -0.382 OA
ATOM     15  H1  UNL     1      15.152  12.799  18.981  1.00  0.00     0.211 HD
ENDBRANCH   3  14
BRANCH   4  16
HETATM   16  O2  UNL     1      13.075  15.469  17.776  1.00  0.00    -0.389 OA
ATOM     17  H2  UNL     1      12.213  15.196  17.485  1.00  0.00     0.210 HD
ENDBRANCH   4  16
BRANCH   5  18
HETATM   18  O3  UNL     1      11.740  17.064  19.205  1.00  0.00    -0.388 OA
ATOM     19  H3  UNL     1      11.945  17.941  18.900  1.00  0.00     0.210 HD
ENDBRANCH   5  18
BRANCH  10  20
HETATM   20  O5  UNL     1      10.727  18.011  21.183  1.00  0.00    -0.340 OA
ATOM     21  H5  UNL     1       9.815  17.815  21.361  1.00  0.00     0.220 HD
ENDBRANCH  10  20
TORSDOF 6
ENDMDL
MODEL 2
REMARK VINA RESULT: -7.182687048      2.274      4.129
REMARK  6 active torsions:
REMARK  status: ('A' for Active; 'I' for Inactive)
REMARK    1  A    between atoms: C2_2  and  C3_3 
REMARK    2  A    between atoms: C3_3  and  C4_4 
REMARK    3  A    between atoms: C6_6  and  O1_7 
REMARK    4  A    between atoms: C7_9  and  O2_10 
REMARK    5  A    between atoms: C8_12  and  O3_13 
REMARK    6  A    between atoms: C12_19  and  O5_20 
ROOT
HETATM    1  C4  UNL     1      14.232  16.498  19.686  1.00  0.00     0.090 C 
HETATM    2  C5  UNL     1      15.560  16.529  20.230  1.00  0.00    -0.140 C 
HETATM    3  C6  UNL     1      16.658  16.577  21.118  1.00  0.00     0.216 C 
HETATM    4  C7  UNL     1      16.143  16.851  22.566  1.00  0.00     0.191 C 
HETATM    5  C8  UNL     1      14.818  16.257  22.864  1.00  0.00     0.189 C 
HETATM    6  C9  UNL     1      13.607  16.653  22.156  1.00  0.00     0.041 A 
HETATM    7  C10 UNL     1      13.239  16.785  20.816  1.00  0.00    -0.007 A 
HETATM    8  C11 UNL     1      11.960  17.185  20.714  1.00  0.00     0.154 A 
HETATM    9  O4  UNL     1      11.529  17.304  21.950  1.00  0.00    -0.299 OA
HETATM   10  C12 UNL     1      12.421  17.015  22.830  1.00  0.00     0.192 A 
ENDROOT
BRANCH   1  11
HETATM   11  C3  UNL     1      13.848  15.203  18.973  1.00  0.00     0.021 C 
BRANCH  11  12
HETATM   12  C2  UNL     1      13.034  15.423  17.739  1.00  0.00    -0.003 C 
HETATM   13  C1  UNL     1      13.544  16.724  17.105  1.00  0.00     0.005 C 
ENDBRANCH  11  12
ENDBRANCH   1  11
BRANCH   3  14
HETATM   14  O1  UNL     1      17.582  17.631  20.880  1.00  0.00    -0.382 OA
ATOM     15  H1  UNL     1      17.456  18.102  20.065  1.00  0.00     0.211 HD
ENDBRANCH   3  14
BRANCH   4  16
HETATM   16  O2  UNL     1      17.046  16.377  23.490  1.00  0.00    -0.389 OA
ATOM     17  H2  UNL     1      17.473  17.101  23.934  1.00  0.00     0.210 HD
ENDBRANCH   4  16
BRANCH   5  18
HETATM   18  O3  UNL     1      14.641  16.485  24.246  1.00  0.00    -0.388 OA
ATOM     19  H3  UNL     1      14.544  17.428  24.315  1.00  0.00     0.210 HD
ENDBRANCH   5  18
BRANCH  10  20
HETATM   20  O5  UNL     1      12.289  17.038  24.212  1.00  0.00    -0.340 OA
ATOM     21  H5  UNL     1      13.023  17.062  24.816  1.00  0.00     0.220 HD
ENDBRANCH  10  20
TORSDOF 6
ENDMDL
MODEL 3
REMARK VINA RESULT: -6.949182985      1.780      2.378
REMARK  6 active torsions:
REMARK  status: ('A' for Active; 'I' for Inactive)
REMARK    1  A    between atoms: C2_2  and  C3_3 
REMARK    2  A    between atoms: C3_3  and  C4_4 
REMARK    3  A    between atoms: C6_6  and  O1_7 
REMARK    4  A    between atoms: C7_9  and  O2_10 
REMARK    5  A    between atoms: C8_12  and  O3_13 
REMARK    6  A    between atoms: C12_19  and  O5_20 
ROOT
HETATM    1  C4  UNL     1      15.706  15.882  19.439  1.00  0.00     0.090 C 
HETATM    2  C5  UNL     1      14.816  15.778  18.318  1.00  0.00    -0.140 C 
HETATM    3  C6  UNL     1      13.669  15.804  17.494  1.00  0.00     0.216 C 
HETATM    4  C7  UNL     1      12.407  16.084  18.369  1.00  0.00     0.191 C 
HETATM    5  C8  UNL     1      12.657  16.971  19.530  1.00  0.00     0.189 C 
HETATM    6  C9  UNL     1      13.560  16.604  20.614  1.00  0.00     0.041 A 
HETATM    7  C10 UNL     1      14.873  16.139  20.697  1.00  0.00    -0.007 A 
HETATM    8  C11 UNL     1      15.234  15.966  21.980  1.00  0.00     0.154 A 
HETATM    9  O4  UNL     1      14.182  16.310  22.690  1.00  0.00    -0.299 OA
HETATM   10  C12 UNL     1      13.184  16.687  21.973  1.00  0.00     0.192 A 
ENDROOT
BRANCH   1  11
HETATM   11  C3  UNL     1      16.796  16.944  19.311  1.00  0.00     0.021 C 
BRANCH  11  12
HETATM   12  C2  UNL     1      17.173  17.243  17.896  1.00  0.00    -0.003 C 
HETATM   13  C1  UNL     1      18.656  17.638  17.914  1.00  0.00     0.005 C 
ENDBRANCH  11  12
ENDBRANCH   1  11
BRANCH   3  14
HETATM   14  O1  UNL     1      13.365  14.579  16.840  1.00  0.00    -0.382 OA
ATOM     15  H1  UNL     1      13.262  14.639  15.898  1.00  0.00     0.211 HD
ENDBRANCH   3  14
BRANCH   4  16
HETATM   16  O2  UNL     1      11.411  16.645  17.604  1.00  0.00    -0.389 OA
ATOM     17  H2  UNL     1      11.762  17.353  17.076  1.00  0.00     0.210 HD
ENDBRANCH   4  16
BRANCH   5  18
HETATM   18  O3  UNL     1      11.370  17.212  20.062  1.00  0.00    -0.388 OA
ATOM     19  H3  UNL     1      11.207  16.462  20.623  1.00  0.00     0.210 HD
ENDBRANCH   5  18
BRANCH  10  20
HETATM   20  O5  UNL     1      11.936  17.112  22.409  1.00  0.00    -0.340 OA
ATOM     21  H5  UNL     1      11.490  17.881  22.075  1.00  0.00     0.220 HD
ENDBRANCH  10  20
TORSDOF 6
ENDMDL
MODEL 4
REMARK VINA RESULT: -6.926465216      2.980      5.305
REMARK  6 active torsions:
REMARK  status: ('A' for Active; 'I' for Inactive)
REMARK    1  A    between atoms: C2_2  and  C3_3 
REMARK    2  A    between atoms: C3_3  and  C4_4 
REMARK    3  A    between atoms: C6_6  and  O1_7 
REMARK    4  A    between atoms: C7_9  and  O2_10 
REMARK    5  A    between atoms: C8_12  and  O3_13 
REMARK    6  A    between atoms: C12_19  and  O5_20 
ROOT
HETATM    1  C4  UNL     1      13.907  15.992  19.617  1.00  0.00     0.090 C 
HETATM    2  C5  UNL     1      13.859  15.795  21.038  1.00  0.00    -0.140 C 
HETATM    3  C6  UNL     1      14.189  15.761  22.411  1.00  0.00     0.216 C 
HETATM    4  C7  UNL     1      15.692  16.141  22.594  1.00  0.00     0.191 C 
HETATM    5  C8  UNL     1      16.193  17.131  21.610  1.00  0.00     0.189 C 
HETATM    6  C9  UNL     1      16.242  16.855  20.180  1.00  0.00     0.041 A 
HETATM    7  C10 UNL     1      15.336  16.379  19.230  1.00  0.00    -0.007 A 
HETATM    8  C11 UNL     1      15.910  16.324  18.015  1.00  0.00     0.154 A 
HETATM    9  O4  UNL     1      17.142  16.750  18.189  1.00  0.00    -0.299 OA
HETATM   10  C12 UNL     1      17.403  17.072  19.406  1.00  0.00     0.192 A 
ENDROOT
BRANCH   1  11
HETATM   11  C3  UNL     1      12.922  17.021  19.066  1.00  0.00     0.021 C 
BRANCH  11  12
HETATM   12  C2  UNL     1      12.256  16.588  17.800  1.00  0.00    -0.003 C 
HETATM   13  C1  UNL     1      12.683  17.589  16.718  1.00  0.00     0.005 C 
ENDBRANCH  11  12
ENDBRANCH   1  11
BRANCH   3  14
HETATM   14  O1  UNL     1      14.084  14.484  23.027  1.00  0.00    -0.382 OA
ATOM     15  H1  UNL     1      14.617  13.802  22.636  1.00  0.00     0.211 HD
ENDBRANCH   3  14
BRANCH   4  16
HETATM   16  O2  UNL     1      15.907  16.643  23.857  1.00  0.00    -0.389 OA
ATOM     17  H2  UNL     1      16.483  16.067  24.346  1.00  0.00     0.210 HD
ENDBRANCH   4  16
BRANCH   5  18
HETATM   18  O3  UNL     1      17.494  17.440  22.065  1.00  0.00    -0.388 OA
ATOM     19  H3  UNL     1      17.866  16.596  22.295  1.00  0.00     0.210 HD
ENDBRANCH   5  18
BRANCH  10  20
HETATM   20  O5  UNL     1      18.599  17.554  19.920  1.00  0.00    -0.340 OA
ATOM     21  H5  UNL     1      19.055  18.315  19.579  1.00  0.00     0.220 HD
ENDBRANCH  10  20
TORSDOF 6
ENDMDL
MODEL 5
REMARK VINA RESULT: -6.898321268      1.825      4.381
REMARK  6 active torsions:
REMARK  status: ('A' for Active; 'I' for Inactive)
REMARK    1  A    between atoms: C2_2  and  C3_3 
REMARK    2  A    between atoms: C3_3  and  C4_4 
REMARK    3  A    between atoms: C6_6  and  O1_7 
REMARK    4  A    between atoms: C7_9  and  O2_10 
REMARK    5  A    between atoms: C8_12  and  O3_13 
REMARK    6  A    between atoms: C12_19  and  O5_20 
ROOT
HETATM    1  C4  UNL     1      13.423  15.977  19.307  1.00  0.00     0.090 C 
HETATM    2  C5  UNL     1      12.741  16.927  20.139  1.00  0.00    -0.140 C 
HETATM    3  C6  UNL     1      12.190  17.601  21.251  1.00  0.00     0.216 C 
HETATM    4  C7  UNL     1      12.333  16.709  22.524  1.00  0.00     0.191 C 
HETATM    5  C8  UNL     1      13.554  15.868  22.543  1.00  0.00     0.189 C 
HETATM    6  C9  UNL     1      13.801  14.826  21.553  1.00  0.00     0.041 A 
HETATM    7  C10 UNL     1      13.783  14.758  20.159  1.00  0.00    -0.007 A 
HETATM    8  C11 UNL     1      14.107  13.521  19.742  1.00  0.00     0.154 A 
HETATM    9  O4  UNL     1      14.322  12.826  20.838  1.00  0.00    -0.299 OA
HETATM   10  C12 UNL     1      14.165  13.511  21.915  1.00  0.00     0.192 A 
ENDROOT
BRANCH   1  11
HETATM   11  C3  UNL     1      14.670  16.504  18.601  1.00  0.00     0.021 C 
BRANCH  11  12
HETATM   12  C2  UNL     1      15.827  16.726  19.522  1.00  0.00    -0.003 C 
HETATM   13  C1  UNL     1      17.054  16.965  18.631  1.00  0.00     0.005 C 
ENDBRANCH  11  12
ENDBRANCH   1  11
BRANCH   3  14
HETATM   14  O1  UNL     1      10.794  17.858  21.172  1.00  0.00    -0.382 OA
ATOM     15  H1  UNL     1      10.245  17.087  21.098  1.00  0.00     0.211 HD
ENDBRANCH   3  14
BRANCH   4  16
HETATM   16  O2  UNL     1      12.331  17.490  23.656  1.00  0.00    -0.389 OA
ATOM     17  H2  UNL     1      12.816  17.062  24.352  1.00  0.00     0.210 HD
ENDBRANCH   4  16
BRANCH   5  18
HETATM   18  O3  UNL     1      13.555  15.291  23.832  1.00  0.00    -0.388 OA
ATOM     19  H3  UNL     1      12.879  15.767  24.300  1.00  0.00     0.210 HD
ENDBRANCH   5  18
BRANCH  10  20
HETATM   20  O5  UNL     1      14.316  13.079  23.226  1.00  0.00    -0.340 OA
ATOM     21  H5  UNL     1      14.617  13.633  23.936  1.00  0.00     0.220 HD
ENDBRANCH  10  20
TORSDOF 6
ENDMDL
