MODEL 1
REMARK VINA RESULT: -7.187852657      0.000      0.000
REMARK  12 active torsions:
REMARK  status: ('A' for Active; 'I' for Inactive)
REMARK    1  A    between atoms: N1_1  and  C1_4 
REMARK    2  A    between atoms: C2_7  and  C3_8 
REMARK    3  A    between atoms: C4_11  and  N4_12 
REMARK    4  A    between atoms: N4_12  and  C5_14 
REMARK    5  A    between atoms: C8_22  and  C9_23 
REMARK    6  A    between atoms: C9_23  and  C10_24 
REMARK    7  A    between atoms: C10_24  and  C11_25 
REMARK    8  A    between atoms: C11_25  and  C12_26 
REMARK    9  A    between atoms: C12_26  and  C13_27 
REMARK   10  A    between atoms: C13_27  and  N7_28 
REMARK   11  A    between atoms: C20_37  and  C21_38 
REMARK   12  A    between atoms: C21_38  and  O3_39 
ROOT
HETATM    1  N4  UNL     1     -10.596  50.332  19.059  1.00  0.00    -0.322 N 
ATOM      2  H4  UNL     1     -11.286  51.020  19.361  1.00  0.00     0.169 HD
ENDROOT
BRANCH   1   3
HETATM    3  C4  UNL     1      -9.818  49.530  19.994  1.00  0.00     0.151 A 
HETATM    4  N3  UNL     1     -10.105  49.197  21.210  1.00  0.00    -0.333 N 
HETATM    5  C3  UNL     1      -9.285  48.455  21.940  1.00  0.00     0.095 A 
ATOM      6  H3  UNL     1     -10.984  49.513  21.618  1.00  0.00     0.168 HD
HETATM    7  C20 UNL     1      -8.137  48.067  21.345  1.00  0.00     0.040 A 
HETATM    8  S1  UNL     1      -8.305  48.795  19.764  1.00  0.00    -0.054 SA
BRANCH   5   9
HETATM    9  C2  UNL     1      -9.704  48.127  23.320  1.00  0.00     0.153 A 
HETATM   10  N2  UNL     1      -9.588  48.978  24.311  1.00  0.00    -0.174 N 
HETATM   11  C1  UNL     1      -9.983  48.672  25.597  1.00  0.00     0.681 A 
ATOM     12  H2  UNL     1      -9.192  49.899  24.125  1.00  0.00     0.186 HD
HETATM   13  N9  UNL     1     -10.496  47.468  25.812  1.00  0.00    -0.141 N 
HETATM   14  C22 UNL     1     -10.636  46.559  24.832  1.00  0.00     0.340 A 
ATOM     15  H9  UNL     1     -10.794  47.223  26.757  1.00  0.00     0.189 HD
HETATM   16  N8  UNL     1     -10.233  46.920  23.609  1.00  0.00    -0.292 N 
HETATM   17  O4  UNL     1     -11.126  45.415  25.051  1.00  0.00    -0.246 OA
ATOM     18  H8  UNL     1     -10.332  46.244  22.851  1.00  0.00     0.172 HD
BRANCH  11  19
HETATM   19  N1  UNL     1      -9.864  49.504  26.547  1.00  0.00    -0.234 N 
ATOM     20  H12 UNL     1     -10.525  50.275  26.649  1.00  0.00     0.174 HD
ATOM     21  H11 UNL     1      -9.113  49.433  27.233  1.00  0.00     0.174 HD
ENDBRANCH  11  19
ENDBRANCH   5   9
BRANCH   7  22
HETATM   22  C21 UNL     1      -6.961  47.258  21.778  1.00  0.00     0.213 C 
BRANCH  22  23
HETATM   23  O3  UNL     1      -7.460  46.025  22.314  1.00  0.00    -0.396 OA
ATOM     24  H3  UNL     1      -7.337  46.053  23.256  1.00  0.00     0.209 HD
ENDBRANCH  22  23
ENDBRANCH   7  22
ENDBRANCH   1   3
BRANCH   1  25
HETATM   25  C5  UNL     1     -10.339  50.099  17.816  1.00  0.00     0.122 A 
HETATM   26  N5  UNL     1     -10.907  49.120  17.088  1.00  0.00    -0.338 N 
HETATM   27  C6  UNL     1     -10.581  48.937  15.782  1.00  0.00     0.184 A 
ATOM     28  H5  UNL     1     -11.594  48.505  17.524  1.00  0.00     0.168 HD
HETATM   29  N6  UNL     1      -9.690  49.704  15.143  1.00  0.00    -0.332 N 
HETATM   30  C7  UNL     1      -9.093  50.697  15.825  1.00  0.00     0.162 A 
ATOM     31  H6  UNL     1      -9.469  49.539  14.161  1.00  0.00     0.168 HD
HETATM   32  O1  UNL     1      -8.200  51.585  15.469  1.00  0.00    -0.297 OA
HETATM   33  C19 UNL     1      -9.419  50.898  17.172  1.00  0.00     0.062 A 
HETATM   34  C8  UNL     1      -7.894  52.376  16.471  1.00  0.00     0.056 A 
HETATM   35  C18 UNL     1      -8.645  51.969  17.559  1.00  0.00     0.052 A 
BRANCH  34  36
HETATM   36  C9  UNL     1      -6.933  53.514  16.506  1.00  0.00     0.065 C 
BRANCH  36  37
HETATM   37  C10 UNL     1      -6.179  53.514  17.812  1.00  0.00     0.007 C 
BRANCH  37  38
HETATM   38  C11 UNL     1      -4.706  53.313  17.659  1.00  0.00     0.005 C 
BRANCH  38  39
HETATM   39  C12 UNL     1      -4.313  51.909  17.249  1.00  0.00     0.044 C 
BRANCH  39  40
HETATM   40  C13 UNL     1      -4.919  50.983  18.264  1.00  0.00     0.058 C 
BRANCH  40  41
HETATM   41  N7  UNL     1      -5.286  49.700  17.808  1.00  0.00    -0.389 N 
HETATM   42  C14 UNL     1      -5.405  49.525  16.390  1.00  0.00     0.148 C 
HETATM   43  C15 UNL     1      -6.511  48.475  16.199  1.00  0.00     0.187 C 
HETATM   44  O2  UNL     1      -6.330  47.422  17.073  1.00  0.00    -0.388 OA
HETATM   45  C16 UNL     1      -5.066  47.349  17.624  1.00  0.00     0.187 C 
HETATM   46  C17 UNL     1      -4.748  48.574  18.493  1.00  0.00     0.148 C 
ENDBRANCH  40  41
ENDBRANCH  39  40
ENDBRANCH  38  39
ENDBRANCH  37  38
ENDBRANCH  36  37
ENDBRANCH  34  36
ENDBRANCH   1  25
TORSDOF 12
ENDMDL
MODEL 2
REMARK VINA RESULT: -7.105922090      2.726      4.501
REMARK  12 active torsions:
REMARK  status: ('A' for Active; 'I' for Inactive)
REMARK    1  A    between atoms: N1_1  and  C1_4 
REMARK    2  A    between atoms: C2_7  and  C3_8 
REMARK    3  A    between atoms: C4_11  and  N4_12 
REMARK    4  A    between atoms: N4_12  and  C5_14 
REMARK    5  A    between atoms: C8_22  and  C9_23 
REMARK    6  A    between atoms: C9_23  and  C10_24 
REMARK    7  A    between atoms: C10_24  and  C11_25 
REMARK    8  A    between atoms: C11_25  and  C12_26 
REMARK    9  A    between atoms: C12_26  and  C13_27 
REMARK   10  A    between atoms: C13_27  and  N7_28 
REMARK   11  A    between atoms: C20_37  and  C21_38 
REMARK   12  A    between atoms: C21_38  and  O3_39 
ROOT
HETATM    1  N4  UNL     1     -11.622  50.240  20.452  1.00  0.00    -0.322 N 
ATOM      2  H4  UNL     1     -12.269  50.525  21.187  1.00  0.00     0.169 HD
ENDROOT
BRANCH   1   3
HETATM    3  C4  UNL     1     -10.428  49.449  20.714  1.00  0.00     0.151 A 
HETATM    4  N3  UNL     1      -9.365  49.318  19.988  1.00  0.00    -0.333 N 
HETATM    5  C3  UNL     1      -8.352  48.554  20.368  1.00  0.00     0.095 A 
ATOM      6  H3  UNL     1      -9.306  49.816  19.101  1.00  0.00     0.168 HD
HETATM    7  C20 UNL     1      -8.490  47.920  21.553  1.00  0.00     0.040 A 
HETATM    8  S1  UNL     1     -10.075  48.465  22.052  1.00  0.00    -0.054 SA
BRANCH   5   9
HETATM    9  C2  UNL     1      -7.182  48.471  19.467  1.00  0.00     0.153 A 
HETATM   10  N2  UNL     1      -6.447  49.515  19.170  1.00  0.00    -0.174 N 
HETATM   11  C1  UNL     1      -5.355  49.435  18.333  1.00  0.00     0.681 A 
ATOM     12  H2  UNL     1      -6.693  50.419  19.572  1.00  0.00     0.186 HD
HETATM   13  N9  UNL     1      -5.056  48.247  17.824  1.00  0.00    -0.141 N 
HETATM   14  C22 UNL     1      -5.776  47.145  18.096  1.00  0.00     0.340 A 
ATOM     15  H9  UNL     1      -4.250  48.167  17.203  1.00  0.00     0.189 HD
HETATM   16  N8  UNL     1      -6.823  47.293  18.915  1.00  0.00    -0.292 N 
HETATM   17  O4  UNL     1      -5.481  46.020  17.604  1.00  0.00    -0.246 OA
ATOM     18  H8  UNL     1      -7.382  46.468  19.134  1.00  0.00     0.172 HD
BRANCH  11  19
HETATM   19  N1  UNL     1      -4.652  50.454  18.053  1.00  0.00    -0.234 N 
ATOM     20  H12 UNL     1      -4.725  51.304  18.611  1.00  0.00     0.174 HD
ATOM     21  H11 UNL     1      -4.000  50.457  17.270  1.00  0.00     0.174 HD
ENDBRANCH  11  19
ENDBRANCH   5   9
BRANCH   7  22
HETATM   22  C21 UNL     1      -7.634  46.987  22.340  1.00  0.00     0.213 C 
BRANCH  22  23
HETATM   23  O3  UNL     1      -7.363  45.848  21.513  1.00  0.00    -0.396 OA
ATOM     24  H3  UNL     1      -6.562  46.026  21.034  1.00  0.00     0.209 HD
ENDBRANCH  22  23
ENDBRANCH   7  22
ENDBRANCH   1   3
BRANCH   1  25
HETATM   25  C5  UNL     1     -11.794  50.550  19.211  1.00  0.00     0.122 A 
HETATM   26  N5  UNL     1     -12.437  49.783  18.312  1.00  0.00    -0.338 N 
HETATM   27  C6  UNL     1     -12.574  50.179  17.021  1.00  0.00     0.184 A 
ATOM     28  H5  UNL     1     -12.830  48.888  18.606  1.00  0.00     0.168 HD
HETATM   29  N6  UNL     1     -12.087  51.338  16.563  1.00  0.00    -0.332 N 
HETATM   30  C7  UNL     1     -11.434  52.142  17.419  1.00  0.00     0.162 A 
ATOM     31  H6  UNL     1     -12.209  51.605  15.585  1.00  0.00     0.168 HD
HETATM   32  O1  UNL     1     -10.862  53.308  17.257  1.00  0.00    -0.297 OA
HETATM   33  C19 UNL     1     -11.286  51.747  18.755  1.00  0.00     0.062 A 
HETATM   34  C8  UNL     1     -10.336  53.737  18.380  1.00  0.00     0.056 A 
HETATM   35  C18 UNL     1     -10.585  52.776  19.344  1.00  0.00     0.052 A 
BRANCH  34  36
HETATM   36  C9  UNL     1      -9.597  55.003  18.645  1.00  0.00     0.065 C 
BRANCH  36  37
HETATM   37  C10 UNL     1      -8.119  54.726  18.762  1.00  0.00     0.007 C 
BRANCH  37  38
HETATM   38  C11 UNL     1      -7.473  54.340  17.471  1.00  0.00     0.005 C 
BRANCH  38  39
HETATM   39  C12 UNL     1      -7.090  52.877  17.383  1.00  0.00     0.044 C 
BRANCH  39  40
HETATM   40  C13 UNL     1      -7.546  52.398  16.034  1.00  0.00     0.058 C 
BRANCH  40  41
HETATM   41  N7  UNL     1      -7.579  51.002  15.839  1.00  0.00    -0.389 N 
HETATM   42  C14 UNL     1      -8.860  50.414  15.573  1.00  0.00     0.148 C 
HETATM   43  C15 UNL     1      -8.799  49.008  16.191  1.00  0.00     0.187 C 
HETATM   44  O2  UNL     1      -7.608  48.391  15.866  1.00  0.00    -0.388 OA
HETATM   45  C16 UNL     1      -6.937  48.969  14.807  1.00  0.00     0.187 C 
HETATM   46  C17 UNL     1      -6.504  50.408  15.119  1.00  0.00     0.148 C 
ENDBRANCH  40  41
ENDBRANCH  39  40
ENDBRANCH  38  39
ENDBRANCH  37  38
ENDBRANCH  36  37
ENDBRANCH  34  36
ENDBRANCH   1  25
TORSDOF 12
ENDMDL
MODEL 3
REMARK VINA RESULT: -7.011217416      3.023      8.416
REMARK  12 active torsions:
REMARK  status: ('A' for Active; 'I' for Inactive)
REMARK    1  A    between atoms: N1_1  and  C1_4 
REMARK    2  A    between atoms: C2_7  and  C3_8 
REMARK    3  A    between atoms: C4_11  and  N4_12 
REMARK    4  A    between atoms: N4_12  and  C5_14 
REMARK    5  A    between atoms: C8_22  and  C9_23 
REMARK    6  A    between atoms: C9_23  and  C10_24 
REMARK    7  A    between atoms: C10_24  and  C11_25 
REMARK    8  A    between atoms: C11_25  and  C12_26 
REMARK    9  A    between atoms: C12_26  and  C13_27 
REMARK   10  A    between atoms: C13_27  and  N7_28 
REMARK   11  A    between atoms: C20_37  and  C21_38 
REMARK   12  A    between atoms: C21_38  and  O3_39 
ROOT
HETATM    1  N4  UNL     1      -7.443  48.412  17.350  1.00  0.00    -0.322 N 
ATOM      2  H4  UNL     1      -8.183  48.164  16.693  1.00  0.00     0.169 HD
ENDROOT
BRANCH   1   3
HETATM    3  C4  UNL     1      -6.595  49.584  17.178  1.00  0.00     0.151 A 
HETATM    4  N3  UNL     1      -6.684  50.527  16.297  1.00  0.00    -0.333 N 
HETATM    5  C3  UNL     1      -5.827  51.537  16.270  1.00  0.00     0.095 A 
ATOM      6  H3  UNL     1      -7.432  50.493  15.606  1.00  0.00     0.168 HD
HETATM    7  C20 UNL     1      -4.859  51.528  17.211  1.00  0.00     0.040 A 
HETATM    8  S1  UNL     1      -5.240  50.060  18.083  1.00  0.00    -0.054 SA
BRANCH   5   9
HETATM    9  C2  UNL     1      -6.014  52.566  15.224  1.00  0.00     0.153 A 
HETATM   10  N2  UNL     1      -5.096  52.831  14.326  1.00  0.00    -0.174 N 
HETATM   11  C1  UNL     1      -5.274  53.788  13.350  1.00  0.00     0.681 A 
ATOM     12  H2  UNL     1      -4.219  52.311  14.352  1.00  0.00     0.186 HD
HETATM   13  N9  UNL     1      -6.424  54.449  13.338  1.00  0.00    -0.141 N 
HETATM   14  C22 UNL     1      -7.397  54.216  14.235  1.00  0.00     0.340 A 
ATOM     15  H9  UNL     1      -6.574  55.161  12.622  1.00  0.00     0.189 HD
HETATM   16  N8  UNL     1      -7.160  53.276  15.156  1.00  0.00    -0.292 N 
HETATM   17  O4  UNL     1      -8.487  54.853  14.213  1.00  0.00    -0.246 OA
ATOM     18  H8  UNL     1      -7.887  53.084  15.846  1.00  0.00     0.172 HD
BRANCH  11  19
HETATM   19  N1  UNL     1      -4.377  54.035  12.487  1.00  0.00    -0.234 N 
ATOM     20  H12 UNL     1      -3.833  53.280  12.071  1.00  0.00     0.174 HD
ATOM     21  H11 UNL     1      -4.171  54.987  12.184  1.00  0.00     0.174 HD
ENDBRANCH  11  19
ENDBRANCH   5   9
BRANCH   7  22
HETATM   22  C21 UNL     1      -3.717  52.429  17.539  1.00  0.00     0.213 C 
BRANCH  22  23
HETATM   23  O3  UNL     1      -4.264  53.707  17.890  1.00  0.00    -0.396 OA
ATOM     24  H3  UNL     1      -3.733  54.061  18.594  1.00  0.00     0.209 HD
ENDBRANCH  22  23
ENDBRANCH   7  22
ENDBRANCH   1   3
BRANCH   1  25
HETATM   25  C5  UNL     1      -7.180  47.715  18.403  1.00  0.00     0.122 A 
HETATM   26  N5  UNL     1      -6.194  46.802  18.490  1.00  0.00    -0.338 N 
HETATM   27  C6  UNL     1      -5.982  46.104  19.635  1.00  0.00     0.184 A 
ATOM     28  H5  UNL     1      -5.597  46.631  17.680  1.00  0.00     0.168 HD
HETATM   29  N6  UNL     1      -6.724  46.274  20.735  1.00  0.00    -0.332 N 
HETATM   30  C7  UNL     1      -7.722  47.174  20.702  1.00  0.00     0.162 A 
ATOM     31  H6  UNL     1      -6.536  45.733  21.580  1.00  0.00     0.168 HD
HETATM   32  O1  UNL     1      -8.593  47.543  21.607  1.00  0.00    -0.297 OA
HETATM   33  C19 UNL     1      -7.953  47.901  19.528  1.00  0.00     0.062 A 
HETATM   34  C8  UNL     1      -9.400  48.466  21.138  1.00  0.00     0.056 A 
HETATM   35  C18 UNL     1      -9.022  48.714  19.830  1.00  0.00     0.052 A 
BRANCH  34  36
HETATM   36  C9  UNL     1     -10.527  49.161  21.821  1.00  0.00     0.065 C 
BRANCH  36  37
HETATM   37  C10 UNL     1     -11.114  50.212  20.913  1.00  0.00     0.007 C 
BRANCH  37  38
HETATM   38  C11 UNL     1     -12.503  49.907  20.455  1.00  0.00     0.005 C 
BRANCH  38  39
HETATM   39  C12 UNL     1     -12.776  50.282  19.013  1.00  0.00     0.044 C 
BRANCH  39  40
HETATM   40  C13 UNL     1     -11.591  51.080  18.550  1.00  0.00     0.058 C 
BRANCH  40  41
HETATM   41  N7  UNL     1     -10.983  50.667  17.347  1.00  0.00    -0.389 N 
HETATM   42  C14 UNL     1     -11.710  49.730  16.540  1.00  0.00     0.148 C 
HETATM   43  C15 UNL     1     -10.641  48.871  15.847  1.00  0.00     0.187 C 
HETATM   44  O2  UNL     1      -9.633  49.670  15.345  1.00  0.00    -0.388 OA
HETATM   45  C16 UNL     1      -9.967  51.005  15.234  1.00  0.00     0.187 C 
HETATM   46  C17 UNL     1     -10.258  51.639  16.601  1.00  0.00     0.148 C 
ENDBRANCH  40  41
ENDBRANCH  39  40
ENDBRANCH  38  39
ENDBRANCH  37  38
ENDBRANCH  36  37
ENDBRANCH  34  36
ENDBRANCH   1  25
TORSDOF 12
ENDMDL
MODEL 4
REMARK VINA RESULT: -6.910436541      2.274      4.716
REMARK  12 active torsions:
REMARK  status: ('A' for Active; 'I' for Inactive)
REMARK    1  A    between atoms: N1_1  and  C1_4 
REMARK    2  A    between atoms: C2_7  and  C3_8 
REMARK    3  A    between atoms: C4_11  and  N4_12 
REMARK    4  A    between atoms: N4_12  and  C5_14 
REMARK    5  A    between atoms: C8_22  and  C9_23 
REMARK    6  A    between atoms: C9_23  and  C10_24 
REMARK    7  A    between atoms: C10_24  and  C11_25 
REMARK    8  A    between atoms: C11_25  and  C12_26 
REMARK    9  A    between atoms: C12_26  and  C13_27 
REMARK   10  A    between atoms: C13_27  and  N7_28 
REMARK   11  A    between atoms: C20_37  and  C21_38 
REMARK   12  A    between atoms: C21_38  and  O3_39 
ROOT
HETATM    1  N4  UNL     1      -5.635  49.628  16.926  1.00  0.00    -0.322 N 
ATOM      2  H4  UNL     1      -5.579  49.255  15.978  1.00  0.00     0.169 HD
ENDROOT
BRANCH   1   3
HETATM    3  C4  UNL     1      -6.157  48.859  18.047  1.00  0.00     0.151 A 
HETATM    4  N3  UNL     1      -7.152  49.135  18.827  1.00  0.00    -0.333 N 
HETATM    5  C3  UNL     1      -7.508  48.326  19.814  1.00  0.00     0.095 A 
ATOM      6  H3  UNL     1      -7.676  49.997  18.678  1.00  0.00     0.168 HD
HETATM    7  C20 UNL     1      -6.777  47.201  19.961  1.00  0.00     0.040 A 
HETATM    8  S1  UNL     1      -5.615  47.373  18.664  1.00  0.00    -0.054 SA
BRANCH   5   9
HETATM    9  C2  UNL     1      -8.660  48.731  20.648  1.00  0.00     0.153 A 
HETATM   10  N2  UNL     1      -9.809  49.097  20.133  1.00  0.00    -0.174 N 
HETATM   11  C1  UNL     1     -10.883  49.470  20.913  1.00  0.00     0.681 A 
ATOM     12  H2  UNL     1      -9.911  49.105  19.118  1.00  0.00     0.186 HD
HETATM   13  N9  UNL     1     -10.723  49.449  22.229  1.00  0.00    -0.141 N 
HETATM   14  C22 UNL     1      -9.567  49.084  22.809  1.00  0.00     0.340 A 
ATOM     15  H9  UNL     1     -11.507  49.722  22.824  1.00  0.00     0.189 HD
HETATM   16  N8  UNL     1      -8.565  48.734  21.995  1.00  0.00    -0.292 N 
HETATM   17  O4  UNL     1      -9.428  49.068  24.064  1.00  0.00    -0.246 OA
ATOM     18  H8  UNL     1      -7.679  48.452  22.415  1.00  0.00     0.172 HD
BRANCH  11  19
HETATM   19  N1  UNL     1     -11.989  49.822  20.400  1.00  0.00    -0.234 N 
ATOM     20  H12 UNL     1     -12.864  49.402  20.714  1.00  0.00     0.174 HD
ATOM     21  H11 UNL     1     -12.040  50.528  19.666  1.00  0.00     0.174 HD
ENDBRANCH  11  19
ENDBRANCH   5   9
BRANCH   7  22
HETATM   22  C21 UNL     1      -6.816  46.050  20.908  1.00  0.00     0.213 C 
BRANCH  22  23
HETATM   23  O3  UNL     1      -6.548  46.562  22.220  1.00  0.00    -0.396 OA
ATOM     24  H3  UNL     1      -5.605  46.574  22.334  1.00  0.00     0.209 HD
ENDBRANCH  22  23
ENDBRANCH   7  22
ENDBRANCH   1   3
BRANCH   1  25
HETATM   25  C5  UNL     1      -5.248  50.820  17.231  1.00  0.00     0.122 A 
HETATM   26  N5  UNL     1      -4.761  51.183  18.433  1.00  0.00    -0.338 N 
HETATM   27  C6  UNL     1      -4.377  52.462  18.678  1.00  0.00     0.184 A 
ATOM     28  H5  UNL     1      -4.681  50.485  19.172  1.00  0.00     0.168 HD
HETATM   29  N6  UNL     1      -4.453  53.430  17.758  1.00  0.00    -0.332 N 
HETATM   30  C7  UNL     1      -4.932  53.122  16.541  1.00  0.00     0.162 A 
ATOM     31  H6  UNL     1      -4.155  54.382  17.976  1.00  0.00     0.168 HD
HETATM   32  O1  UNL     1      -5.120  53.847  15.467  1.00  0.00    -0.297 OA
HETATM   33  C19 UNL     1      -5.333  51.807  16.273  1.00  0.00     0.062 A 
HETATM   34  C8  UNL     1      -5.617  53.127  14.489  1.00  0.00     0.056 A 
HETATM   35  C18 UNL     1      -5.763  51.835  14.965  1.00  0.00     0.052 A 
BRANCH  34  36
HETATM   36  C9  UNL     1      -5.980  53.546  13.107  1.00  0.00     0.065 C 
BRANCH  36  37
HETATM   37  C10 UNL     1      -7.478  53.540  12.941  1.00  0.00     0.007 C 
BRANCH  37  38
HETATM   38  C11 UNL     1      -7.976  52.503  11.986  1.00  0.00     0.005 C 
BRANCH  38  39
HETATM   39  C12 UNL     1      -8.436  51.221  12.649  1.00  0.00     0.044 C 
BRANCH  39  40
HETATM   40  C13 UNL     1      -9.582  51.595  13.546  1.00  0.00     0.058 C 
BRANCH  40  41
HETATM   41  N7  UNL     1      -9.521  51.128  14.875  1.00  0.00    -0.389 N 
HETATM   42  C14 UNL     1      -8.843  49.883  15.095  1.00  0.00     0.148 C 
HETATM   43  C15 UNL     1      -9.567  49.229  16.283  1.00  0.00     0.187 C 
HETATM   44  O2  UNL     1      -9.781  50.154  17.285  1.00  0.00    -0.388 OA
HETATM   45  C16 UNL     1      -9.010  51.294  17.182  1.00  0.00     0.187 C 
HETATM   46  C17 UNL     1      -9.327  52.089  15.907  1.00  0.00     0.148 C 
ENDBRANCH  40  41
ENDBRANCH  39  40
ENDBRANCH  38  39
ENDBRANCH  37  38
ENDBRANCH  36  37
ENDBRANCH  34  36
ENDBRANCH   1  25
TORSDOF 12
ENDMDL
MODEL 5
REMARK VINA RESULT: -6.904024778      2.764      5.419
REMARK  12 active torsions:
REMARK  status: ('A' for Active; 'I' for Inactive)
REMARK    1  A    between atoms: N1_1  and  C1_4 
REMARK    2  A    between atoms: C2_7  and  C3_8 
REMARK    3  A    between atoms: C4_11  and  N4_12 
REMARK    4  A    between atoms: N4_12  and  C5_14 
REMARK    5  A    between atoms: C8_22  and  C9_23 
REMARK    6  A    between atoms: C9_23  and  C10_24 
REMARK    7  A    between atoms: C10_24  and  C11_25 
REMARK    8  A    between atoms: C11_25  and  C12_26 
REMARK    9  A    between atoms: C12_26  and  C13_27 
REMARK   10  A    between atoms: C13_27  and  N7_28 
REMARK   11  A    between atoms: C20_37  and  C21_38 
REMARK   12  A    between atoms: C21_38  and  O3_39 
ROOT
HETATM    1  N4  UNL     1     -11.615  50.034  20.302  1.00  0.00    -0.322 N 
ATOM      2  H4  UNL     1     -12.236  49.828  19.519  1.00  0.00     0.169 HD
ENDROOT
BRANCH   1   3
HETATM    3  C4  UNL     1     -10.426  49.246  20.596  1.00  0.00     0.151 A 
HETATM    4  N3  UNL     1      -9.350  49.106  19.892  1.00  0.00    -0.333 N 
HETATM    5  C3  UNL     1      -8.345  48.346  20.299  1.00  0.00     0.095 A 
ATOM      6  H3  UNL     1      -9.274  49.594  19.000  1.00  0.00     0.168 HD
HETATM    7  C20 UNL     1      -8.505  47.726  21.488  1.00  0.00     0.040 A 
HETATM    8  S1  UNL     1     -10.099  48.277  21.952  1.00  0.00    -0.054 SA
BRANCH   5   9
HETATM    9  C2  UNL     1      -7.159  48.252  19.421  1.00  0.00     0.153 A 
HETATM   10  N2  UNL     1      -6.760  47.119  18.896  1.00  0.00    -0.174 N 
HETATM   11  C1  UNL     1      -5.655  47.034  18.075  1.00  0.00     0.681 A 
ATOM     12  H2  UNL     1      -7.286  46.270  19.102  1.00  0.00     0.186 HD
HETATM   13  N9  UNL     1      -4.989  48.153  17.822  1.00  0.00    -0.141 N 
HETATM   14  C22 UNL     1      -5.355  49.340  18.335  1.00  0.00     0.340 A 
ATOM     15  H9  UNL     1      -4.170  48.111  17.216  1.00  0.00     0.189 HD
HETATM   16  N8  UNL     1      -6.436  49.352  19.124  1.00  0.00    -0.292 N 
HETATM   17  O4  UNL     1      -4.712  50.399  18.087  1.00  0.00    -0.246 OA
ATOM     18  H8  UNL     1      -6.730  50.244  19.523  1.00  0.00     0.172 HD
BRANCH  11  19
HETATM   19  N1  UNL     1      -5.280  45.931  17.573  1.00  0.00    -0.234 N 
ATOM     20  H12 UNL     1      -4.313  45.795  17.280  1.00  0.00     0.174 HD
ATOM     21  H11 UNL     1      -5.925  45.151  17.447  1.00  0.00     0.174 HD
ENDBRANCH  11  19
ENDBRANCH   5   9
BRANCH   7  22
HETATM   22  C21 UNL     1      -7.664  46.802  22.302  1.00  0.00     0.213 C 
BRANCH  22  23
HETATM   23  O3  UNL     1      -8.417  46.451  23.471  1.00  0.00    -0.396 OA
ATOM     24  H3  UNL     1      -9.270  46.151  23.181  1.00  0.00     0.209 HD
ENDBRANCH  22  23
ENDBRANCH   7  22
ENDBRANCH   1   3
BRANCH   1  25
HETATM   25  C5  UNL     1     -11.818  51.015  21.116  1.00  0.00     0.122 A 
HETATM   26  N5  UNL     1     -12.458  50.911  22.295  1.00  0.00    -0.338 N 
HETATM   27  C6  UNL     1     -12.635  51.993  23.096  1.00  0.00     0.184 A 
ATOM     28  H5  UNL     1     -12.816  50.003  22.593  1.00  0.00     0.168 HD
HETATM   29  N6  UNL     1     -12.194  53.214  22.772  1.00  0.00    -0.332 N 
HETATM   30  C7  UNL     1     -11.548  53.373  21.604  1.00  0.00     0.162 A 
ATOM     31  H6  UNL     1     -12.344  54.006  23.398  1.00  0.00     0.168 HD
HETATM   32  O1  UNL     1     -11.018  54.427  21.036  1.00  0.00    -0.297 OA
HETATM   33  C19 UNL     1     -11.358  52.266  20.768  1.00  0.00     0.062 A 
HETATM   34  C8  UNL     1     -10.482  54.122  19.878  1.00  0.00     0.056 A 
HETATM   35  C18 UNL     1     -10.679  52.767  19.680  1.00  0.00     0.052 A 
BRANCH  34  36
HETATM   36  C9  UNL     1      -9.780  55.008  18.909  1.00  0.00     0.065 C 
BRANCH  36  37
HETATM   37  C10 UNL     1      -8.312  54.667  18.864  1.00  0.00     0.007 C 
BRANCH  37  38
HETATM   38  C11 UNL     1      -7.833  54.234  17.516  1.00  0.00     0.005 C 
BRANCH  38  39
HETATM   39  C12 UNL     1      -7.322  52.808  17.470  1.00  0.00     0.044 C 
BRANCH  39  40
HETATM   40  C13 UNL     1      -7.512  52.335  16.057  1.00  0.00     0.058 C 
BRANCH  40  41
HETATM   41  N7  UNL     1      -7.540  50.939  15.858  1.00  0.00    -0.389 N 
HETATM   42  C14 UNL     1      -8.819  50.346  15.595  1.00  0.00     0.148 C 
HETATM   43  C15 UNL     1      -8.751  48.939  16.209  1.00  0.00     0.187 C 
HETATM   44  O2  UNL     1      -7.559  48.327  15.879  1.00  0.00    -0.388 OA
HETATM   45  C16 UNL     1      -6.893  48.911  14.819  1.00  0.00     0.187 C 
HETATM   46  C17 UNL     1      -6.464  50.350  15.134  1.00  0.00     0.148 C 
ENDBRANCH  40  41
ENDBRANCH  39  40
ENDBRANCH  38  39
ENDBRANCH  37  38
ENDBRANCH  36  37
ENDBRANCH  34  36
ENDBRANCH   1  25
TORSDOF 12
ENDMDL
