MODEL 1
REMARK VINA RESULT: -6.204819097      0.000      0.000
REMARK  14 active torsions:
REMARK  status: ('A' for Active; 'I' for Inactive)
REMARK    1  A    between atoms: O1_2  and  C2_3 
REMARK    2  A    between atoms: C2_3  and  C3_5 
REMARK    3  A    between atoms: C3_5  and  N1_6 
REMARK    4  A    between atoms: N1_6  and  C4_8 
REMARK    5  A    between atoms: C4_8  and  C5_9 
REMARK    6  A    between atoms: C6_10  and  C7_11 
REMARK    7  A    between atoms: C7_11  and  N2_12 
REMARK       I    between atoms: N2_12  and  C8_14 
REMARK    8  A    between atoms: C8_14  and  C9_16 
REMARK    9  A    between atoms: C10_17  and  C11_18 
REMARK   10  A    between atoms: C11_18  and  O4_19 
REMARK   11  A    between atoms: O4_19  and  C12_20 
REMARK   12  A    between atoms: C15_23  and  O5_24 
REMARK   13  A    between atoms: C19_32  and  O6_33 
REMARK   14  A    between atoms: N4_39  and  N5_41 
ROOT
HETATM    1  C9  UNL     1      -7.756  46.911  22.117  1.00  0.00     0.072 C 
HETATM    2  C10 UNL     1      -7.784  46.473  20.881  1.00  0.00     0.005 C 
ENDROOT
BRANCH   2   3
HETATM    3  C11 UNL     1      -6.562  46.667  20.014  1.00  0.00     0.196 C 
BRANCH   3   4
HETATM    4  O4  UNL     1      -6.975  47.147  18.802  1.00  0.00    -0.376 OA
BRANCH   4   5
HETATM    5  C12 UNL     1      -7.110  48.505  18.671  1.00  0.00     0.177 C 
HETATM    6  C13 UNL     1      -8.431  48.925  18.142  1.00  0.00     0.027 A 
HETATM    7  C14 UNL     1      -8.482  48.948  16.762  1.00  0.00     0.047 A 
HETATM    8  C19 UNL     1      -9.548  49.260  18.890  1.00  0.00     0.104 A 
HETATM    9  C15 UNL     1      -9.636  49.299  16.138  1.00  0.00     0.102 A 
HETATM   10  S2  UNL     1      -6.842  48.505  16.139  1.00  0.00    -0.114 SA
HETATM   11  C16 UNL     1     -10.756  49.635  16.896  1.00  0.00     0.070 A 
HETATM   12  S1  UNL     1     -12.365  50.131  16.550  1.00  0.00    -0.080 SA
HETATM   13  C18 UNL     1     -10.756  49.629  18.264  1.00  0.00     0.086 A 
HETATM   14  C17 UNL     1     -12.922  50.296  18.154  1.00  0.00     0.139 A 
HETATM   15  N3  UNL     1     -11.862  49.967  18.860  1.00  0.00    -0.356 N 
ATOM     16  H3  UNL     1     -11.907  49.976  19.880  1.00  0.00     0.166 HD
HETATM   17  C20 UNL     1      -6.033  48.992  17.741  1.00  0.00     0.036 C 
HETATM   18  C21 UNL     1      -4.801  48.138  17.825  1.00  0.00     0.030 C 
HETATM   19  C22 UNL     1      -5.757  50.449  17.791  1.00  0.00     0.030 C 
BRANCH   9  20
HETATM   20  O5  UNL     1      -9.729  49.334  14.784  1.00  0.00    -0.358 OA
ATOM     21  H5  UNL     1      -9.128  49.848  14.257  1.00  0.00     0.217 HD
ENDBRANCH   9  20
BRANCH   8  22
HETATM   22  O6  UNL     1      -9.518  49.245  20.296  1.00  0.00    -0.358 OA
ATOM     23  H6  UNL     1      -8.798  49.633  20.779  1.00  0.00     0.217 HD
ENDBRANCH   8  22
ENDBRANCH   4   5
ENDBRANCH   3   4
ENDBRANCH   2   3
BRANCH   1  24
HETATM   24  C8  UNL     1      -8.900  46.746  22.982  1.00  0.00     0.241 C 
HETATM   25  N2  UNL     1      -8.826  46.994  24.361  1.00  0.00    -0.354 N 
ATOM     26  H2  UNL     1      -7.944  47.298  24.774  1.00  0.00     0.163 HD
HETATM   27  O3  UNL     1      -9.974  46.371  22.452  1.00  0.00    -0.269 OA
BRANCH  25  28
HETATM   28  C7  UNL     1      -9.981  46.823  25.194  1.00  0.00     0.150 C 
BRANCH  28  29
HETATM   29  C6  UNL     1     -10.693  48.141  25.299  1.00  0.00    -0.004 C 
HETATM   30  C5  UNL     1      -9.995  49.239  25.267  1.00  0.00     0.047 C 
BRANCH  30  31
HETATM   31  C4  UNL     1     -10.565  50.547  25.359  1.00  0.00     0.115 C 
HETATM   32  N4  UNL     1     -10.114  51.522  25.964  1.00  0.00    -0.292 N 
ATOM     33  H4  UNL     1     -10.726  52.332  25.862  1.00  0.00     0.188 HD
BRANCH  31  34
HETATM   34  N1  UNL     1     -11.820  50.740  24.653  1.00  0.00    -0.366 N 
ATOM     35  H1  UNL     1     -12.654  50.228  24.941  1.00  0.00     0.161 HD
BRANCH  34  36
HETATM   36  C3  UNL     1     -11.880  51.660  23.542  1.00  0.00     0.232 C 
BRANCH  36  37
HETATM   37  C2  UNL     1     -11.662  50.988  22.240  1.00  0.00     0.276 C 
HETATM   38  O2  UNL     1     -11.799  49.740  22.146  1.00  0.00    -0.263 OA
BRANCH  37  39
HETATM   39  O1  UNL     1     -11.309  51.688  21.109  1.00  0.00    -0.325 OA
HETATM   40  C1  UNL     1     -11.707  53.026  20.868  1.00  0.00     0.213 C 
ENDBRANCH  37  39
ENDBRANCH  36  37
ENDBRANCH  34  36
ENDBRANCH  31  34
BRANCH  32  41
HETATM   41  N5  UNL     1      -9.033  51.820  26.729  1.00  0.00    -0.344 N 
ATOM     42  H52 UNL     1      -9.341  52.143  27.647  1.00  0.00     0.176 HD
ATOM     43  H51 UNL     1      -8.018  51.810  26.638  1.00  0.00     0.176 HD
ENDBRANCH  32  41
ENDBRANCH  30  31
ENDBRANCH  28  29
ENDBRANCH  25  28
ENDBRANCH   1  24
TORSDOF 14
ENDMDL
MODEL 2
REMARK VINA RESULT: -6.148998404      4.535      9.151
REMARK  14 active torsions:
REMARK  status: ('A' for Active; 'I' for Inactive)
REMARK    1  A    between atoms: O1_2  and  C2_3 
REMARK    2  A    between atoms: C2_3  and  C3_5 
REMARK    3  A    between atoms: C3_5  and  N1_6 
REMARK    4  A    between atoms: N1_6  and  C4_8 
REMARK    5  A    between atoms: C4_8  and  C5_9 
REMARK    6  A    between atoms: C6_10  and  C7_11 
REMARK    7  A    between atoms: C7_11  and  N2_12 
REMARK       I    between atoms: N2_12  and  C8_14 
REMARK    8  A    between atoms: C8_14  and  C9_16 
REMARK    9  A    between atoms: C10_17  and  C11_18 
REMARK   10  A    between atoms: C11_18  and  O4_19 
REMARK   11  A    between atoms: O4_19  and  C12_20 
REMARK   12  A    between atoms: C15_23  and  O5_24 
REMARK   13  A    between atoms: C19_32  and  O6_33 
REMARK   14  A    between atoms: N4_39  and  N5_41 
ROOT
HETATM    1  C9  UNL     1      -8.100  46.746  22.617  1.00  0.00     0.072 C 
HETATM    2  C10 UNL     1      -9.355  46.810  22.239  1.00  0.00     0.005 C 
ENDROOT
BRANCH   2   3
HETATM    3  C11 UNL     1     -10.434  46.767  23.295  1.00  0.00     0.196 C 
BRANCH   3   4
HETATM    4  O4  UNL     1     -10.630  48.041  23.752  1.00  0.00    -0.376 OA
BRANCH   4   5
HETATM    5  C12 UNL     1     -10.529  48.252  25.102  1.00  0.00     0.177 C 
HETATM    6  C13 UNL     1     -11.067  47.140  25.923  1.00  0.00     0.027 A 
HETATM    7  C14 UNL     1     -12.421  47.251  26.169  1.00  0.00     0.047 A 
HETATM    8  C19 UNL     1     -10.353  46.059  26.414  1.00  0.00     0.104 A 
HETATM    9  C15 UNL     1     -13.053  46.293  26.895  1.00  0.00     0.102 A 
HETATM   10  S2  UNL     1     -12.996  48.796  25.422  1.00  0.00    -0.114 SA
HETATM   11  C16 UNL     1     -12.330  45.209  27.386  1.00  0.00     0.070 A 
HETATM   12  S1  UNL     1     -12.695  43.816  28.324  1.00  0.00    -0.080 SA
HETATM   13  C18 UNL     1     -10.987  45.053  27.171  1.00  0.00     0.086 A 
HETATM   14  C17 UNL     1     -11.131  43.137  28.379  1.00  0.00     0.139 A 
HETATM   15  N3  UNL     1     -10.421  44.001  27.685  1.00  0.00    -0.356 N 
ATOM     16  H3  UNL     1      -9.422  43.845  27.549  1.00  0.00     0.166 HD
HETATM   17  C20 UNL     1     -11.279  49.513  25.434  1.00  0.00     0.036 C 
HETATM   18  C21 UNL     1     -11.261  50.485  24.291  1.00  0.00     0.030 C 
HETATM   19  C22 UNL     1     -10.954  50.123  26.746  1.00  0.00     0.030 C 
BRANCH   9  20
HETATM   20  O5  UNL     1     -14.384  46.364  27.159  1.00  0.00    -0.358 OA
ATOM     21  H5  UNL     1     -14.736  46.121  28.008  1.00  0.00     0.217 HD
ENDBRANCH   9  20
BRANCH   8  22
HETATM   22  O6  UNL     1      -8.973  45.925  26.177  1.00  0.00    -0.358 OA
ATOM     23  H6  UNL     1      -8.521  46.489  25.561  1.00  0.00     0.217 HD
ENDBRANCH   8  22
ENDBRANCH   4   5
ENDBRANCH   3   4
ENDBRANCH   2   3
BRANCH   1  24
HETATM   24  C8  UNL     1      -7.035  46.785  21.643  1.00  0.00     0.241 C 
HETATM   25  N2  UNL     1      -7.211  46.306  20.336  1.00  0.00    -0.354 N 
ATOM     26  H2  UNL     1      -8.111  45.916  20.056  1.00  0.00     0.163 HD
HETATM   27  O3  UNL     1      -5.937  47.268  22.010  1.00  0.00    -0.269 OA
BRANCH  25  28
HETATM   28  C7  UNL     1      -6.134  46.359  19.390  1.00  0.00     0.150 C 
BRANCH  28  29
HETATM   29  C6  UNL     1      -6.185  47.683  18.683  1.00  0.00    -0.004 C 
HETATM   30  C5  UNL     1      -5.265  47.967  17.809  1.00  0.00     0.047 C 
BRANCH  30  31
HETATM   31  C4  UNL     1      -5.213  49.194  17.077  1.00  0.00     0.115 C 
HETATM   32  N4  UNL     1      -5.545  49.385  15.905  1.00  0.00    -0.292 N 
ATOM     33  H4  UNL     1      -5.404  50.359  15.638  1.00  0.00     0.188 HD
BRANCH  31  34
HETATM   34  N1  UNL     1      -4.710  50.344  17.808  1.00  0.00    -0.366 N 
ATOM     35  H1  UNL     1      -3.799  50.303  18.265  1.00  0.00     0.161 HD
BRANCH  34  36
HETATM   36  C3  UNL     1      -5.508  51.546  17.885  1.00  0.00     0.232 C 
BRANCH  36  37
HETATM   37  C2  UNL     1      -4.954  52.644  17.058  1.00  0.00     0.276 C 
HETATM   38  O2  UNL     1      -4.826  53.796  17.547  1.00  0.00    -0.263 OA
BRANCH  37  39
HETATM   39  O1  UNL     1      -4.567  52.448  15.752  1.00  0.00    -0.325 OA
HETATM   40  C1  UNL     1      -5.375  52.797  14.643  1.00  0.00     0.213 C 
ENDBRANCH  37  39
ENDBRANCH  36  37
ENDBRANCH  34  36
ENDBRANCH  31  34
BRANCH  32  41
HETATM   41  N5  UNL     1      -6.045  48.662  14.871  1.00  0.00    -0.344 N 
ATOM     42  H52 UNL     1      -5.752  47.689  14.959  1.00  0.00     0.176 HD
ATOM     43  H51 UNL     1      -6.622  48.823  14.045  1.00  0.00     0.176 HD
ENDBRANCH  32  41
ENDBRANCH  30  31
ENDBRANCH  28  29
ENDBRANCH  25  28
ENDBRANCH   1  24
TORSDOF 14
ENDMDL
MODEL 3
REMARK VINA RESULT: -6.034065279      4.214      8.966
REMARK  14 active torsions:
REMARK  status: ('A' for Active; 'I' for Inactive)
REMARK    1  A    between atoms: O1_2  and  C2_3 
REMARK    2  A    between atoms: C2_3  and  C3_5 
REMARK    3  A    between atoms: C3_5  and  N1_6 
REMARK    4  A    between atoms: N1_6  and  C4_8 
REMARK    5  A    between atoms: C4_8  and  C5_9 
REMARK    6  A    between atoms: C6_10  and  C7_11 
REMARK    7  A    between atoms: C7_11  and  N2_12 
REMARK       I    between atoms: N2_12  and  C8_14 
REMARK    8  A    between atoms: C8_14  and  C9_16 
REMARK    9  A    between atoms: C10_17  and  C11_18 
REMARK   10  A    between atoms: C11_18  and  O4_19 
REMARK   11  A    between atoms: O4_19  and  C12_20 
REMARK   12  A    between atoms: C15_23  and  O5_24 
REMARK   13  A    between atoms: C19_32  and  O6_33 
REMARK   14  A    between atoms: N4_39  and  N5_41 
ROOT
HETATM    1  C9  UNL     1      -8.458  46.563  21.393  1.00  0.00     0.072 C 
HETATM    2  C10 UNL     1      -8.790  47.045  22.567  1.00  0.00     0.005 C 
ENDROOT
BRANCH   2   3
HETATM    3  C11 UNL     1     -10.188  46.801  23.083  1.00  0.00     0.196 C 
BRANCH   3   4
HETATM    4  O4  UNL     1     -10.683  47.990  23.543  1.00  0.00    -0.376 OA
BRANCH   4   5
HETATM    5  C12 UNL     1     -10.543  48.259  24.880  1.00  0.00     0.177 C 
HETATM    6  C13 UNL     1     -11.064  47.188  25.763  1.00  0.00     0.027 A 
HETATM    7  C14 UNL     1     -12.410  47.320  26.042  1.00  0.00     0.047 A 
HETATM    8  C19 UNL     1     -10.343  46.124  26.281  1.00  0.00     0.104 A 
HETATM    9  C15 UNL     1     -13.027  46.400  26.827  1.00  0.00     0.102 A 
HETATM   10  S2  UNL     1     -12.996  48.835  25.244  1.00  0.00    -0.114 SA
HETATM   11  C16 UNL     1     -12.297  45.332  27.345  1.00  0.00     0.070 A 
HETATM   12  S1  UNL     1     -12.644  43.985  28.353  1.00  0.00    -0.080 SA
HETATM   13  C18 UNL     1     -10.962  45.157  27.099  1.00  0.00     0.086 A 
HETATM   14  C17 UNL     1     -11.083  43.298  28.394  1.00  0.00     0.139 A 
HETATM   15  N3  UNL     1     -10.388  44.125  27.643  1.00  0.00    -0.356 N 
ATOM     16  H3  UNL     1      -9.394  43.956  27.486  1.00  0.00     0.166 HD
HETATM   17  C20 UNL     1     -11.276  49.538  25.177  1.00  0.00     0.036 C 
HETATM   18  C21 UNL     1     -11.284  50.460  23.991  1.00  0.00     0.030 C 
HETATM   19  C22 UNL     1     -10.909  50.203  26.451  1.00  0.00     0.030 C 
BRANCH   9  20
HETATM   20  O5  UNL     1     -14.350  46.492  27.125  1.00  0.00    -0.358 OA
ATOM     21  H5  UNL     1     -14.987  45.899  26.744  1.00  0.00     0.217 HD
ENDBRANCH   9  20
BRANCH   8  22
HETATM   22  O6  UNL     1      -8.971  45.970  26.011  1.00  0.00    -0.358 OA
ATOM     23  H6  UNL     1      -8.493  45.205  26.306  1.00  0.00     0.217 HD
ENDBRANCH   8  22
ENDBRANCH   4   5
ENDBRANCH   3   4
ENDBRANCH   2   3
BRANCH   1  24
HETATM   24  C8  UNL     1      -7.132  46.771  20.861  1.00  0.00     0.241 C 
HETATM   25  N2  UNL     1      -6.842  46.575  19.502  1.00  0.00    -0.354 N 
ATOM     26  H2  UNL     1      -7.581  46.277  18.865  1.00  0.00     0.163 HD
HETATM   27  O3  UNL     1      -6.240  47.138  21.664  1.00  0.00    -0.269 OA
BRANCH  25  28
HETATM   28  C7  UNL     1      -5.515  46.792  19.003  1.00  0.00     0.150 C 
BRANCH  28  29
HETATM   29  C6  UNL     1      -5.609  47.549  17.709  1.00  0.00    -0.004 C 
HETATM   30  C5  UNL     1      -5.418  48.835  17.717  1.00  0.00     0.047 C 
BRANCH  30  31
HETATM   31  C4  UNL     1      -5.483  49.656  16.548  1.00  0.00     0.115 C 
HETATM   32  N4  UNL     1      -5.063  50.808  16.414  1.00  0.00    -0.292 N 
ATOM     33  H4  UNL     1      -5.242  51.156  15.472  1.00  0.00     0.188 HD
BRANCH  31  34
HETATM   34  N1  UNL     1      -6.121  49.055  15.389  1.00  0.00    -0.366 N 
ATOM     35  H1  UNL     1      -5.828  48.134  15.063  1.00  0.00     0.161 HD
BRANCH  34  36
HETATM   36  C3  UNL     1      -7.172  49.768  14.702  1.00  0.00     0.232 C 
BRANCH  36  37
HETATM   37  C2  UNL     1      -8.522  49.340  15.136  1.00  0.00     0.276 C 
HETATM   38  O2  UNL     1      -9.544  49.846  14.604  1.00  0.00    -0.263 OA
BRANCH  37  39
HETATM   39  O1  UNL     1      -8.705  48.392  16.117  1.00  0.00    -0.325 OA
HETATM   40  C1  UNL     1      -9.261  48.686  17.386  1.00  0.00     0.213 C 
ENDBRANCH  37  39
ENDBRANCH  36  37
ENDBRANCH  34  36
ENDBRANCH  31  34
BRANCH  32  41
HETATM   41  N5  UNL     1      -4.429  51.742  17.167  1.00  0.00    -0.344 N 
ATOM     42  H52 UNL     1      -3.459  51.828  16.862  1.00  0.00     0.176 HD
ATOM     43  H51 UNL     1      -4.653  52.369  17.940  1.00  0.00     0.176 HD
ENDBRANCH  32  41
ENDBRANCH  30  31
ENDBRANCH  28  29
ENDBRANCH  25  28
ENDBRANCH   1  24
TORSDOF 14
ENDMDL
MODEL 4
REMARK VINA RESULT: -6.025794206      2.622      5.801
REMARK  14 active torsions:
REMARK  status: ('A' for Active; 'I' for Inactive)
REMARK    1  A    between atoms: O1_2  and  C2_3 
REMARK    2  A    between atoms: C2_3  and  C3_5 
REMARK    3  A    between atoms: C3_5  and  N1_6 
REMARK    4  A    between atoms: N1_6  and  C4_8 
REMARK    5  A    between atoms: C4_8  and  C5_9 
REMARK    6  A    between atoms: C6_10  and  C7_11 
REMARK    7  A    between atoms: C7_11  and  N2_12 
REMARK       I    between atoms: N2_12  and  C8_14 
REMARK    8  A    between atoms: C8_14  and  C9_16 
REMARK    9  A    between atoms: C10_17  and  C11_18 
REMARK   10  A    between atoms: C11_18  and  O4_19 
REMARK   11  A    between atoms: O4_19  and  C12_20 
REMARK   12  A    between atoms: C15_23  and  O5_24 
REMARK   13  A    between atoms: C19_32  and  O6_33 
REMARK   14  A    between atoms: N4_39  and  N5_41 
ROOT
HETATM    1  C9  UNL     1     -11.471  50.265  17.784  1.00  0.00     0.072 C 
HETATM    2  C10 UNL     1     -11.754  49.286  16.958  1.00  0.00     0.005 C 
ENDROOT
BRANCH   2   3
HETATM    3  C11 UNL     1     -11.439  49.460  15.491  1.00  0.00     0.196 C 
BRANCH   3   4
HETATM    4  O4  UNL     1     -10.741  50.626  15.344  1.00  0.00    -0.376 OA
BRANCH   4   5
HETATM    5  C12 UNL     1      -9.562  50.576  14.646  1.00  0.00     0.177 C 
HETATM    6  C13 UNL     1      -8.356  50.667  15.504  1.00  0.00     0.027 A 
HETATM    7  C14 UNL     1      -7.965  51.967  15.756  1.00  0.00     0.047 A 
HETATM    8  C19 UNL     1      -7.650  49.605  16.047  1.00  0.00     0.104 A 
HETATM    9  C15 UNL     1      -6.882  52.203  16.542  1.00  0.00     0.102 A 
HETATM   10  S2  UNL     1      -9.081  53.067  14.851  1.00  0.00    -0.114 SA
HETATM   11  C16 UNL     1      -6.177  51.132  17.085  1.00  0.00     0.070 A 
HETATM   12  S1  UNL     1      -4.794  50.960  18.091  1.00  0.00    -0.080 SA
HETATM   13  C18 UNL     1      -6.523  49.826  16.865  1.00  0.00     0.086 A 
HETATM   14  C17 UNL     1      -4.750  49.256  18.162  1.00  0.00     0.139 A 
HETATM   15  N3  UNL     1      -5.783  48.913  17.422  1.00  0.00    -0.356 N 
ATOM     16  H3  UNL     1      -6.005  47.927  17.285  1.00  0.00     0.166 HD
HETATM   17  C20 UNL     1      -9.553  51.715  13.665  1.00  0.00     0.036 C 
HETATM   18  C21 UNL     1     -10.940  52.068  13.212  1.00  0.00     0.030 C 
HETATM   19  C22 UNL     1      -8.572  51.596  12.558  1.00  0.00     0.030 C 
BRANCH   9  20
HETATM   20  O5  UNL     1      -6.464  53.466  16.815  1.00  0.00    -0.358 OA
ATOM     21  H5  UNL     1      -5.551  53.660  16.995  1.00  0.00     0.217 HD
ENDBRANCH   9  20
BRANCH   8  22
HETATM   22  O6  UNL     1      -8.029  48.273  15.803  1.00  0.00    -0.358 OA
ATOM     23  H6  UNL     1      -8.874  47.941  16.083  1.00  0.00     0.217 HD
ENDBRANCH   8  22
ENDBRANCH   4   5
ENDBRANCH   3   4
ENDBRANCH   2   3
BRANCH   1  24
HETATM   24  C8  UNL     1     -11.753  50.144  19.195  1.00  0.00     0.241 C 
HETATM   25  N2  UNL     1     -10.748  50.274  20.164  1.00  0.00    -0.354 N 
ATOM     26  H2  UNL     1      -9.787  50.458  19.875  1.00  0.00     0.163 HD
HETATM   27  O3  UNL     1     -12.942  49.916  19.526  1.00  0.00    -0.269 OA
BRANCH  25  28
HETATM   28  C7  UNL     1     -11.061  50.150  21.558  1.00  0.00     0.150 C 
BRANCH  28  29
HETATM   29  C6  UNL     1     -10.600  48.802  22.033  1.00  0.00    -0.004 C 
HETATM   30  C5  UNL     1      -9.385  48.673  22.480  1.00  0.00     0.047 C 
BRANCH  30  31
HETATM   31  C4  UNL     1      -8.839  47.441  22.956  1.00  0.00     0.115 C 
HETATM   32  N4  UNL     1      -8.988  46.932  24.070  1.00  0.00    -0.292 N 
ATOM     33  H4  UNL     1      -8.485  46.048  24.140  1.00  0.00     0.188 HD
BRANCH  31  34
HETATM   34  N1  UNL     1      -8.013  46.709  22.011  1.00  0.00    -0.366 N 
ATOM     35  H1  UNL     1      -7.057  46.454  22.255  1.00  0.00     0.161 HD
BRANCH  34  36
HETATM   36  C3  UNL     1      -8.555  46.346  20.722  1.00  0.00     0.232 C 
BRANCH  36  37
HETATM   37  C2  UNL     1      -7.965  47.138  19.618  1.00  0.00     0.276 C 
HETATM   38  O2  UNL     1      -8.421  48.281  19.351  1.00  0.00    -0.263 OA
BRANCH  37  39
HETATM   39  O1  UNL     1      -6.920  46.665  18.859  1.00  0.00    -0.325 OA
HETATM   40  C1  UNL     1      -5.905  45.821  19.377  1.00  0.00     0.213 C 
ENDBRANCH  37  39
ENDBRANCH  36  37
ENDBRANCH  34  36
ENDBRANCH  31  34
BRANCH  32  41
HETATM   41  N5  UNL     1      -9.633  47.220  25.229  1.00  0.00    -0.344 N 
ATOM     42  H52 UNL     1     -10.220  46.430  25.499  1.00  0.00     0.176 HD
ATOM     43  H51 UNL     1      -9.691  47.994  25.890  1.00  0.00     0.176 HD
ENDBRANCH  32  41
ENDBRANCH  30  31
ENDBRANCH  28  29
ENDBRANCH  25  28
ENDBRANCH   1  24
TORSDOF 14
ENDMDL
MODEL 5
REMARK VINA RESULT: -6.011392009      4.319      8.602
REMARK  14 active torsions:
REMARK  status: ('A' for Active; 'I' for Inactive)
REMARK    1  A    between atoms: O1_2  and  C2_3 
REMARK    2  A    between atoms: C2_3  and  C3_5 
REMARK    3  A    between atoms: C3_5  and  N1_6 
REMARK    4  A    between atoms: N1_6  and  C4_8 
REMARK    5  A    between atoms: C4_8  and  C5_9 
REMARK    6  A    between atoms: C6_10  and  C7_11 
REMARK    7  A    between atoms: C7_11  and  N2_12 
REMARK       I    between atoms: N2_12  and  C8_14 
REMARK    8  A    between atoms: C8_14  and  C9_16 
REMARK    9  A    between atoms: C10_17  and  C11_18 
REMARK   10  A    between atoms: C11_18  and  O4_19 
REMARK   11  A    between atoms: O4_19  and  C12_20 
REMARK   12  A    between atoms: C15_23  and  O5_24 
REMARK   13  A    between atoms: C19_32  and  O6_33 
REMARK   14  A    between atoms: N4_39  and  N5_41 
ROOT
HETATM    1  C9  UNL     1      -8.282  47.855  22.090  1.00  0.00     0.072 C 
HETATM    2  C10 UNL     1      -9.349  48.220  21.421  1.00  0.00     0.005 C 
ENDROOT
BRANCH   2   3
HETATM    3  C11 UNL     1     -10.520  48.797  22.181  1.00  0.00     0.196 C 
BRANCH   3   4
HETATM    4  O4  UNL     1     -10.424  48.386  23.482  1.00  0.00    -0.376 OA
BRANCH   4   5
HETATM    5  C12 UNL     1     -11.316  48.911  24.380  1.00  0.00     0.177 C 
HETATM    6  C13 UNL     1     -10.838  50.150  25.042  1.00  0.00     0.027 A 
HETATM    7  C14 UNL     1     -10.086  49.906  26.174  1.00  0.00     0.047 A 
HETATM    8  C19 UNL     1     -11.066  51.449  24.618  1.00  0.00     0.104 A 
HETATM    9  C15 UNL     1      -9.569  50.948  26.874  1.00  0.00     0.102 A 
HETATM   10  S2  UNL     1     -10.045  48.116  26.438  1.00  0.00    -0.114 SA
HETATM   11  C16 UNL     1      -9.801  52.253  26.444  1.00  0.00     0.070 A 
HETATM   12  S1  UNL     1      -9.369  53.821  26.998  1.00  0.00    -0.080 SA
HETATM   13  C18 UNL     1     -10.540  52.547  25.330  1.00  0.00     0.086 A 
HETATM   14  C17 UNL     1     -10.149  54.735  25.787  1.00  0.00     0.139 A 
HETATM   15  N3  UNL     1     -10.692  53.804  25.032  1.00  0.00    -0.356 N 
ATOM     16  H3  UNL     1     -11.235  54.068  24.210  1.00  0.00     0.166 HD
HETATM   17  C20 UNL     1     -11.588  47.869  25.430  1.00  0.00     0.036 C 
HETATM   18  C21 UNL     1     -11.467  46.479  24.876  1.00  0.00     0.030 C 
HETATM   19  C22 UNL     1     -12.810  48.086  26.243  1.00  0.00     0.030 C 
BRANCH   9  20
HETATM   20  O5  UNL     1      -8.824  50.753  27.993  1.00  0.00    -0.358 OA
ATOM     21  H5  UNL     1      -7.964  50.349  27.953  1.00  0.00     0.217 HD
ENDBRANCH   9  20
BRANCH   8  22
HETATM   22  O6  UNL     1     -11.829  51.721  23.469  1.00  0.00    -0.358 OA
ATOM     23  H6  UNL     1     -11.471  51.599  22.598  1.00  0.00     0.217 HD
ENDBRANCH   8  22
ENDBRANCH   4   5
ENDBRANCH   3   4
ENDBRANCH   2   3
BRANCH   1  24
HETATM   24  C8  UNL     1      -7.138  47.300  21.406  1.00  0.00     0.241 C 
HETATM   25  N2  UNL     1      -7.224  46.824  20.089  1.00  0.00    -0.354 N 
ATOM     26  H2  UNL     1      -8.114  46.866  19.592  1.00  0.00     0.163 HD
HETATM   27  O3  UNL     1      -6.054  47.258  22.037  1.00  0.00    -0.269 OA
BRANCH  25  28
HETATM   28  C7  UNL     1      -6.070  46.278  19.436  1.00  0.00     0.150 C 
BRANCH  28  29
HETATM   29  C6  UNL     1      -5.378  47.382  18.689  1.00  0.00    -0.004 C 
HETATM   30  C5  UNL     1      -6.060  48.089  17.836  1.00  0.00     0.047 C 
BRANCH  30  31
HETATM   31  C4  UNL     1      -5.507  49.162  17.069  1.00  0.00     0.115 C 
HETATM   32  N4  UNL     1      -5.578  49.329  15.849  1.00  0.00    -0.292 N 
ATOM     33  H4  UNL     1      -5.093  50.181  15.567  1.00  0.00     0.188 HD
BRANCH  31  34
HETATM   34  N1  UNL     1      -4.779  50.167  17.824  1.00  0.00    -0.366 N 
ATOM     35  H1  UNL     1      -3.856  49.955  18.203  1.00  0.00     0.161 HD
BRANCH  34  36
HETATM   36  C3  UNL     1      -5.369  51.469  18.034  1.00  0.00     0.232 C 
BRANCH  36  37
HETATM   37  C2  UNL     1      -4.756  52.511  17.177  1.00  0.00     0.276 C 
HETATM   38  O2  UNL     1      -4.462  53.633  17.665  1.00  0.00    -0.263 OA
BRANCH  37  39
HETATM   39  O1  UNL     1      -4.491  52.295  15.844  1.00  0.00    -0.325 OA
HETATM   40  C1  UNL     1      -5.306  52.797  14.800  1.00  0.00     0.213 C 
ENDBRANCH  37  39
ENDBRANCH  36  37
ENDBRANCH  34  36
ENDBRANCH  31  34
BRANCH  32  41
HETATM   41  N5  UNL     1      -6.120  48.698  14.777  1.00  0.00    -0.344 N 
ATOM     42  H52 UNL     1      -5.491  47.961  14.459  1.00  0.00     0.176 HD
ATOM     43  H51 UNL     1      -6.969  48.757  14.214  1.00  0.00     0.176 HD
ENDBRANCH  32  41
ENDBRANCH  30  31
ENDBRANCH  28  29
ENDBRANCH  25  28
ENDBRANCH   1  24
TORSDOF 14
ENDMDL
