MODEL 1
REMARK VINA RESULT: -7.136841917      0.000      0.000
REMARK  13 active torsions:
REMARK  status: ('A' for Active; 'I' for Inactive)
REMARK    1  A    between atoms: C4_6  and  C5_7 
REMARK    2  A    between atoms: C5_7  and  N2_8 
REMARK    3  A    between atoms: N2_8  and  C6_11 
REMARK    4  A    between atoms: C6_11  and  C7_12 
REMARK    5  A    between atoms: C7_12  and  C8_13 
REMARK    6  A    between atoms: C8_13  and  N3_14 
REMARK    7  A    between atoms: N3_14  and  C9_16 
REMARK    8  A    between atoms: C10_19  and  C11_20 
REMARK    9  A    between atoms: C13_22  and  O1_23 
REMARK   10  A    between atoms: C15_25  and  C16_26 
REMARK   11  A    between atoms: C18_30  and  C19_31 
REMARK   12  A    between atoms: C19_31  and  O3_33 
REMARK   13  A    between atoms: C23_41  and  N7_42 
ROOT
HETATM    1  C9  UNL     1      -8.061  48.950  16.111  1.00  0.00     0.146 A 
HETATM    2  N4  UNL     1      -8.643  48.839  17.336  1.00  0.00    -0.337 N 
ATOM      3  H4  UNL     1      -9.616  49.124  17.452  1.00  0.00     0.167 HD
HETATM    4  C10 UNL     1      -7.976  48.367  18.383  1.00  0.00     0.073 A 
HETATM    5  C21 UNL     1      -6.669  47.984  18.227  1.00  0.00     0.035 A 
HETATM    6  C22 UNL     1      -5.847  47.451  19.317  1.00  0.00     0.070 C 
HETATM    7  N6  UNL     1      -6.067  48.091  16.995  1.00  0.00    -0.342 N 
ATOM      8  H6  UNL     1      -5.094  47.805  16.883  1.00  0.00     0.167 HD
HETATM    9  C23 UNL     1      -6.740  48.565  15.942  1.00  0.00     0.144 A 
ENDROOT
BRANCH   1  10
HETATM   10  N3  UNL     1      -8.676  49.399  15.084  1.00  0.00    -0.373 N 
ATOM     11  H3  UNL     1      -8.319  49.159  14.159  1.00  0.00     0.161 HD
BRANCH  10  12
HETATM   12  C8  UNL     1      -9.842  50.223  15.174  1.00  0.00     0.123 C 
BRANCH  12  13
HETATM   13  C7  UNL     1      -9.733  51.317  14.092  1.00  0.00     0.047 C 
BRANCH  13  14
HETATM   14  C6  UNL     1      -8.500  51.056  13.275  1.00  0.00     0.234 C 
BRANCH  14  15
HETATM   15  N2  UNL     1      -7.699  52.237  13.179  1.00  0.00    -0.070 N 
ATOM     16  H22 UNL     1      -7.889  52.743  12.313  1.00  0.00     0.277 HD
ATOM     17  H21 UNL     1      -6.718  52.006  13.019  1.00  0.00     0.277 HD
BRANCH  15  18
HETATM   18  C5  UNL     1      -7.855  53.102  14.339  1.00  0.00     0.291 C 
BRANCH  18  19
HETATM   19  C4  UNL     1      -6.933  52.598  15.393  1.00  0.00     0.066 A 
HETATM   20  C3  UNL     1      -5.533  52.284  15.134  1.00  0.00     0.118 A 
HETATM   21  N1  UNL     1      -4.735  51.842  16.066  1.00  0.00    -0.350 N 
HETATM   22  C2  UNL     1      -5.201  51.643  17.388  1.00  0.00     0.110 A 
ATOM     23  H1  UNL     1      -3.762  51.636  15.839  1.00  0.00     0.166 HD
HETATM   24  C1  UNL     1      -4.366  51.197  18.289  1.00  0.00     0.065 C 
HETATM   25  N9  UNL     1      -6.561  51.946  17.644  1.00  0.00    -0.286 N 
HETATM   26  N8  UNL     1      -7.358  52.415  16.606  1.00  0.00    -0.300 N 
ATOM     27  H9  UNL     1      -6.950  51.823  18.579  1.00  0.00     0.188 HD
ATOM     28  H8  UNL     1      -8.335  52.626  16.810  1.00  0.00     0.186 HD
ENDBRANCH  18  19
ENDBRANCH  15  18
ENDBRANCH  14  15
ENDBRANCH  13  14
ENDBRANCH  12  13
ENDBRANCH  10  12
ENDBRANCH   1  10
BRANCH   9  29
HETATM   29  N7  UNL     1      -6.192  48.677  14.760  1.00  0.00    -0.382 N 
ATOM     30  H72 UNL     1      -6.738  48.901  13.928  1.00  0.00     0.157 HD
ATOM     31  H71 UNL     1      -5.186  48.537  14.665  1.00  0.00     0.157 HD
ENDBRANCH   9  29
BRANCH   4  32
HETATM   32  C11 UNL     1      -8.647  48.265  19.681  1.00  0.00     0.037 A 
HETATM   33  C12 UNL     1      -9.499  49.187  20.253  1.00  0.00     0.059 A 
HETATM   34  C13 UNL     1     -10.009  48.904  21.451  1.00  0.00     0.091 A 
HETATM   35  C15 UNL     1      -9.644  47.708  22.030  1.00  0.00     0.090 A 
HETATM   36  S1  UNL     1      -8.602  47.036  20.865  1.00  0.00    -0.081 SA
BRANCH  34  37
HETATM   37  O1  UNL     1     -10.900  49.743  22.177  1.00  0.00    -0.354 OA
HETATM   38  C14 UNL     1     -12.052  50.205  21.530  1.00  0.00     0.210 C 
ENDBRANCH  34  37
BRANCH  35  39
HETATM   39  C16 UNL     1     -10.039  47.142  23.317  1.00  0.00     0.168 A 
HETATM   40  N5  UNL     1      -9.467  47.371  24.496  1.00  0.00    -0.343 N 
HETATM   41  C17 UNL     1     -10.116  46.666  25.447  1.00  0.00     0.134 A 
ATOM     42  H5  UNL     1      -8.666  47.982  24.655  1.00  0.00     0.167 HD
HETATM   43  C18 UNL     1     -11.120  45.992  24.777  1.00  0.00     0.168 A 
HETATM   44  O4  UNL     1     -11.027  46.311  23.516  1.00  0.00    -0.285 OA
BRANCH  43  45
HETATM   45  C19 UNL     1     -12.101  45.094  25.351  1.00  0.00     0.318 C 
HETATM   46  O2  UNL     1     -13.253  45.529  25.600  1.00  0.00    -0.257 OA
BRANCH  45  47
HETATM   47  O3  UNL     1     -11.848  43.774  25.648  1.00  0.00    -0.321 OA
HETATM   48  C20 UNL     1     -11.500  43.308  26.945  1.00  0.00     0.213 C 
ENDBRANCH  45  47
ENDBRANCH  43  45
ENDBRANCH  35  39
ENDBRANCH   4  32
TORSDOF 13
ENDMDL
MODEL 2
REMARK VINA RESULT: -7.123158349      0.664      1.207
REMARK  13 active torsions:
REMARK  status: ('A' for Active; 'I' for Inactive)
REMARK    1  A    between atoms: C4_6  and  C5_7 
REMARK    2  A    between atoms: C5_7  and  N2_8 
REMARK    3  A    between atoms: N2_8  and  C6_11 
REMARK    4  A    between atoms: C6_11  and  C7_12 
REMARK    5  A    between atoms: C7_12  and  C8_13 
REMARK    6  A    between atoms: C8_13  and  N3_14 
REMARK    7  A    between atoms: N3_14  and  C9_16 
REMARK    8  A    between atoms: C10_19  and  C11_20 
REMARK    9  A    between atoms: C13_22  and  O1_23 
REMARK   10  A    between atoms: C15_25  and  C16_26 
REMARK   11  A    between atoms: C18_30  and  C19_31 
REMARK   12  A    between atoms: C19_31  and  O3_33 
REMARK   13  A    between atoms: C23_41  and  N7_42 
ROOT
HETATM    1  C9  UNL     1      -8.083  48.931  16.156  1.00  0.00     0.146 A 
HETATM    2  N4  UNL     1      -8.654  48.812  17.384  1.00  0.00    -0.337 N 
ATOM      3  H4  UNL     1      -9.624  49.102  17.512  1.00  0.00     0.167 HD
HETATM    4  C10 UNL     1      -7.980  48.327  18.422  1.00  0.00     0.073 A 
HETATM    5  C21 UNL     1      -6.678  47.937  18.250  1.00  0.00     0.035 A 
HETATM    6  C22 UNL     1      -5.849  47.390  19.328  1.00  0.00     0.070 C 
HETATM    7  N6  UNL     1      -6.086  48.052  17.014  1.00  0.00    -0.342 N 
ATOM      8  H6  UNL     1      -5.116  47.760  16.890  1.00  0.00     0.167 HD
HETATM    9  C23 UNL     1      -6.766  48.539  15.971  1.00  0.00     0.144 A 
ENDROOT
BRANCH   1  10
HETATM   10  N3  UNL     1      -8.705  49.392  15.138  1.00  0.00    -0.373 N 
ATOM     11  H3  UNL     1      -8.159  49.710  14.337  1.00  0.00     0.161 HD
BRANCH  10  12
HETATM   12  C8  UNL     1     -10.131  49.483  15.073  1.00  0.00     0.123 C 
BRANCH  12  13
HETATM   13  C7  UNL     1     -10.506  50.977  15.002  1.00  0.00     0.047 C 
BRANCH  13  14
HETATM   14  C6  UNL     1      -9.674  51.627  13.934  1.00  0.00     0.234 C 
BRANCH  14  15
HETATM   15  N2  UNL     1      -9.049  52.813  14.433  1.00  0.00    -0.070 N 
ATOM     16  H22 UNL     1      -9.141  52.881  15.447  1.00  0.00     0.277 HD
ATOM     17  H21 UNL     1      -9.574  53.646  14.167  1.00  0.00     0.277 HD
BRANCH  15  18
HETATM   18  C5  UNL     1      -7.657  52.913  14.021  1.00  0.00     0.291 C 
BRANCH  18  19
HETATM   19  C4  UNL     1      -6.823  52.468  15.170  1.00  0.00     0.066 A 
HETATM   20  C3  UNL     1      -7.325  52.414  16.538  1.00  0.00     0.118 A 
HETATM   21  N1  UNL     1      -6.584  52.023  17.536  1.00  0.00    -0.350 N 
HETATM   22  C2  UNL     1      -5.239  51.629  17.334  1.00  0.00     0.110 A 
ATOM     23  H1  UNL     1      -6.978  52.001  18.477  1.00  0.00     0.166 HD
HETATM   24  C1  UNL     1      -4.534  51.246  18.365  1.00  0.00     0.065 C 
HETATM   25  N9  UNL     1      -4.747  51.680  16.007  1.00  0.00    -0.286 N 
HETATM   26  N8  UNL     1      -5.589  52.106  14.986  1.00  0.00    -0.300 N 
ATOM     27  H9  UNL     1      -3.785  51.407  15.802  1.00  0.00     0.188 HD
ATOM     28  H8  UNL     1      -5.215  52.137  14.037  1.00  0.00     0.186 HD
ENDBRANCH  18  19
ENDBRANCH  15  18
ENDBRANCH  14  15
ENDBRANCH  13  14
ENDBRANCH  12  13
ENDBRANCH  10  12
ENDBRANCH   1  10
BRANCH   9  29
HETATM   29  N7  UNL     1      -6.227  48.658  14.785  1.00  0.00    -0.382 N 
ATOM     30  H72 UNL     1      -6.003  49.567  14.381  1.00  0.00     0.157 HD
ATOM     31  H71 UNL     1      -6.025  47.817  14.246  1.00  0.00     0.157 HD
ENDBRANCH   9  29
BRANCH   4  32
HETATM   32  C11 UNL     1      -8.641  48.218  19.725  1.00  0.00     0.037 A 
HETATM   33  C12 UNL     1      -9.497  49.131  20.303  1.00  0.00     0.059 A 
HETATM   34  C13 UNL     1      -9.995  48.842  21.506  1.00  0.00     0.091 A 
HETATM   35  C15 UNL     1      -9.613  47.650  22.081  1.00  0.00     0.090 A 
HETATM   36  S1  UNL     1      -8.574  46.989  20.907  1.00  0.00    -0.081 SA
BRANCH  34  37
HETATM   37  O1  UNL     1     -10.889  49.672  22.238  1.00  0.00    -0.354 OA
HETATM   38  C14 UNL     1     -12.043  50.135  21.597  1.00  0.00     0.210 C 
ENDBRANCH  34  37
BRANCH  35  39
HETATM   39  C16 UNL     1      -9.993  47.080  23.371  1.00  0.00     0.168 A 
HETATM   40  N5  UNL     1      -9.369  47.257  24.533  1.00  0.00    -0.343 N 
HETATM   41  C17 UNL     1     -10.021  46.567  25.493  1.00  0.00     0.134 A 
ATOM     42  H5  UNL     1      -8.533  47.823  24.675  1.00  0.00     0.167 HD
HETATM   43  C18 UNL     1     -11.080  45.957  24.847  1.00  0.00     0.168 A 
HETATM   44  O4  UNL     1     -11.015  46.296  23.589  1.00  0.00    -0.285 OA
BRANCH  43  45
HETATM   45  C19 UNL     1     -12.086  45.099  25.440  1.00  0.00     0.318 C 
HETATM   46  O2  UNL     1     -11.821  43.885  25.620  1.00  0.00    -0.257 OA
BRANCH  45  47
HETATM   47  O3  UNL     1     -13.333  45.537  25.824  1.00  0.00    -0.321 OA
HETATM   48  C20 UNL     1     -13.600  46.172  27.066  1.00  0.00     0.213 C 
ENDBRANCH  45  47
ENDBRANCH  43  45
ENDBRANCH  35  39
ENDBRANCH   4  32
TORSDOF 13
ENDMDL
MODEL 3
REMARK VINA RESULT: -7.010395765      1.812      2.080
REMARK  13 active torsions:
REMARK  status: ('A' for Active; 'I' for Inactive)
REMARK    1  A    between atoms: C4_6  and  C5_7 
REMARK    2  A    between atoms: C5_7  and  N2_8 
REMARK    3  A    between atoms: N2_8  and  C6_11 
REMARK    4  A    between atoms: C6_11  and  C7_12 
REMARK    5  A    between atoms: C7_12  and  C8_13 
REMARK    6  A    between atoms: C8_13  and  N3_14 
REMARK    7  A    between atoms: N3_14  and  C9_16 
REMARK    8  A    between atoms: C10_19  and  C11_20 
REMARK    9  A    between atoms: C13_22  and  O1_23 
REMARK   10  A    between atoms: C15_25  and  C16_26 
REMARK   11  A    between atoms: C18_30  and  C19_31 
REMARK   12  A    between atoms: C19_31  and  O3_33 
REMARK   13  A    between atoms: C23_41  and  N7_42 
ROOT
HETATM    1  C9  UNL     1      -8.237  48.566  17.349  1.00  0.00     0.146 A 
HETATM    2  N4  UNL     1      -8.706  48.458  18.621  1.00  0.00    -0.337 N 
ATOM      3  H4  UNL     1      -9.646  48.794  18.835  1.00  0.00     0.167 HD
HETATM    4  C10 UNL     1      -7.971  47.926  19.591  1.00  0.00     0.073 A 
HETATM    5  C21 UNL     1      -6.709  47.475  19.303  1.00  0.00     0.035 A 
HETATM    6  C22 UNL     1      -5.819  46.872  20.300  1.00  0.00     0.070 C 
HETATM    7  N6  UNL     1      -6.221  47.577  18.022  1.00  0.00    -0.342 N 
ATOM      8  H6  UNL     1      -5.281  47.240  17.812  1.00  0.00     0.167 HD
HETATM    9  C23 UNL     1      -6.962  48.112  17.047  1.00  0.00     0.144 A 
ENDROOT
BRANCH   1  10
HETATM   10  N3  UNL     1      -8.920  49.072  16.394  1.00  0.00    -0.373 N 
ATOM     11  H3  UNL     1      -8.442  49.305  15.523  1.00  0.00     0.161 HD
BRANCH  10  12
HETATM   12  C8  UNL     1     -10.325  49.325  16.490  1.00  0.00     0.123 C 
BRANCH  12  13
HETATM   13  C7  UNL     1     -10.539  50.848  16.382  1.00  0.00     0.047 C 
BRANCH  13  14
HETATM   14  C6  UNL     1     -10.660  51.412  17.769  1.00  0.00     0.234 C 
BRANCH  14  15
HETATM   15  N2  UNL     1      -9.468  52.111  18.136  1.00  0.00    -0.070 N 
ATOM     16  H22 UNL     1      -8.826  51.504  18.646  1.00  0.00     0.277 HD
ATOM     17  H21 UNL     1      -9.654  52.799  18.867  1.00  0.00     0.277 HD
BRANCH  15  18
HETATM   18  C5  UNL     1      -8.816  52.723  16.989  1.00  0.00     0.291 C 
BRANCH  18  19
HETATM   19  C4  UNL     1      -7.355  52.750  17.272  1.00  0.00     0.066 A 
HETATM   20  C3  UNL     1      -6.606  53.987  17.452  1.00  0.00     0.118 A 
HETATM   21  N1  UNL     1      -5.327  53.997  17.698  1.00  0.00    -0.350 N 
HETATM   22  C2  UNL     1      -4.597  52.788  17.802  1.00  0.00     0.110 A 
ATOM     23  H1  UNL     1      -4.844  54.888  17.818  1.00  0.00     0.166 HD
HETATM   24  C1  UNL     1      -3.315  52.846  18.049  1.00  0.00     0.065 C 
HETATM   25  N9  UNL     1      -5.320  51.582  17.628  1.00  0.00    -0.286 N 
HETATM   26  N8  UNL     1      -6.684  51.641  17.368  1.00  0.00    -0.300 N 
ATOM     27  H9  UNL     1      -4.846  50.682  17.693  1.00  0.00     0.188 HD
ATOM     28  H8  UNL     1      -7.187  50.763  17.244  1.00  0.00     0.186 HD
ENDBRANCH  18  19
ENDBRANCH  15  18
ENDBRANCH  14  15
ENDBRANCH  13  14
ENDBRANCH  12  13
ENDBRANCH  10  12
ENDBRANCH   1  10
BRANCH   9  29
HETATM   29  N7  UNL     1      -6.523  48.222  15.820  1.00  0.00    -0.382 N 
ATOM     30  H72 UNL     1      -6.629  49.081  15.280  1.00  0.00     0.157 HD
ATOM     31  H71 UNL     1      -6.058  47.424  15.387  1.00  0.00     0.157 HD
ENDBRANCH   9  29
BRANCH   4  32
HETATM   32  C11 UNL     1      -8.521  47.831  20.945  1.00  0.00     0.037 A 
HETATM   33  C12 UNL     1      -8.616  48.842  21.878  1.00  0.00     0.059 A 
HETATM   34  C13 UNL     1      -9.152  48.548  23.063  1.00  0.00     0.091 A 
HETATM   35  C15 UNL     1      -9.571  47.251  23.266  1.00  0.00     0.090 A 
HETATM   36  S1  UNL     1      -9.193  46.504  21.783  1.00  0.00    -0.081 SA
BRANCH  34  37
HETATM   37  O1  UNL     1      -9.323  49.470  24.132  1.00  0.00    -0.354 OA
HETATM   38  C14 UNL     1     -10.492  50.239  24.166  1.00  0.00     0.210 C 
ENDBRANCH  34  37
BRANCH  35  39
HETATM   39  C16 UNL     1     -10.185  46.649  24.446  1.00  0.00     0.168 A 
HETATM   40  N5  UNL     1      -9.978  46.994  25.713  1.00  0.00    -0.343 N 
HETATM   41  C17 UNL     1     -10.726  46.205  26.514  1.00  0.00     0.134 A 
ATOM     42  H5  UNL     1      -9.355  47.737  26.029  1.00  0.00     0.167 HD
HETATM   43  C18 UNL     1     -11.401  45.355  25.658  1.00  0.00     0.168 A 
HETATM   44  O4  UNL     1     -11.042  45.663  24.442  1.00  0.00    -0.285 OA
BRANCH  43  45
HETATM   45  C19 UNL     1     -12.337  44.312  26.024  1.00  0.00     0.318 C 
HETATM   46  O2  UNL     1     -12.899  44.364  27.146  1.00  0.00    -0.257 OA
BRANCH  45  47
HETATM   47  O3  UNL     1     -12.655  43.250  25.208  1.00  0.00    -0.321 OA
HETATM   48  C20 UNL     1     -12.605  41.892  25.623  1.00  0.00     0.213 C 
ENDBRANCH  45  47
ENDBRANCH  43  45
ENDBRANCH  35  39
ENDBRANCH   4  32
TORSDOF 13
ENDMDL
MODEL 4
REMARK VINA RESULT: -6.809334709      2.024      3.347
REMARK  13 active torsions:
REMARK  status: ('A' for Active; 'I' for Inactive)
REMARK    1  A    between atoms: C4_6  and  C5_7 
REMARK    2  A    between atoms: C5_7  and  N2_8 
REMARK    3  A    between atoms: N2_8  and  C6_11 
REMARK    4  A    between atoms: C6_11  and  C7_12 
REMARK    5  A    between atoms: C7_12  and  C8_13 
REMARK    6  A    between atoms: C8_13  and  N3_14 
REMARK    7  A    between atoms: N3_14  and  C9_16 
REMARK    8  A    between atoms: C10_19  and  C11_20 
REMARK    9  A    between atoms: C13_22  and  O1_23 
REMARK   10  A    between atoms: C15_25  and  C16_26 
REMARK   11  A    between atoms: C18_30  and  C19_31 
REMARK   12  A    between atoms: C19_31  and  O3_33 
REMARK   13  A    between atoms: C23_41  and  N7_42 
ROOT
HETATM    1  C9  UNL     1      -5.854  49.132  18.476  1.00  0.00     0.146 A 
HETATM    2  N4  UNL     1      -6.940  49.403  19.249  1.00  0.00    -0.337 N 
ATOM      3  H4  UNL     1      -7.214  50.375  19.398  1.00  0.00     0.167 HD
HETATM    4  C10 UNL     1      -7.652  48.434  19.814  1.00  0.00     0.073 A 
HETATM    5  C21 UNL     1      -7.283  47.130  19.614  1.00  0.00     0.035 A 
HETATM    6  C22 UNL     1      -8.000  45.989  20.192  1.00  0.00     0.070 C 
HETATM    7  N6  UNL     1      -6.187  46.840  18.836  1.00  0.00    -0.342 N 
ATOM      8  H6  UNL     1      -5.916  45.867  18.690  1.00  0.00     0.167 HD
HETATM    9  C23 UNL     1      -5.472  47.815  18.268  1.00  0.00     0.144 A 
ENDROOT
BRANCH   1  10
HETATM   10  N3  UNL     1      -5.149  50.041  17.918  1.00  0.00    -0.373 N 
ATOM     11  H3  UNL     1      -4.642  49.809  17.064  1.00  0.00     0.161 HD
BRANCH  10  12
HETATM   12  C8  UNL     1      -5.038  51.369  18.438  1.00  0.00     0.123 C 
BRANCH  12  13
HETATM   13  C7  UNL     1      -3.995  52.124  17.591  1.00  0.00     0.047 C 
BRANCH  13  14
HETATM   14  C6  UNL     1      -4.722  52.964  16.580  1.00  0.00     0.234 C 
BRANCH  14  15
HETATM   15  N2  UNL     1      -4.780  52.298  15.316  1.00  0.00    -0.070 N 
ATOM     16  H22 UNL     1      -4.568  51.304  15.412  1.00  0.00     0.277 HD
ATOM     17  H21 UNL     1      -4.000  52.571  14.718  1.00  0.00     0.277 HD
BRANCH  15  18
HETATM   18  C5  UNL     1      -6.055  52.502  14.646  1.00  0.00     0.291 C 
BRANCH  18  19
HETATM   19  C4  UNL     1      -7.006  51.494  15.187  1.00  0.00     0.066 A 
HETATM   20  C3  UNL     1      -6.959  50.085  14.817  1.00  0.00     0.118 A 
HETATM   21  N1  UNL     1      -7.799  49.211  15.297  1.00  0.00    -0.350 N 
HETATM   22  C2  UNL     1      -8.808  49.598  16.211  1.00  0.00     0.110 A 
ATOM     23  H1  UNL     1      -7.728  48.234  15.009  1.00  0.00     0.166 HD
HETATM   24  C1  UNL     1      -9.628  48.687  16.665  1.00  0.00     0.065 C 
HETATM   25  N9  UNL     1      -8.857  50.966  16.575  1.00  0.00    -0.286 N 
HETATM   26  N8  UNL     1      -7.932  51.847  16.027  1.00  0.00    -0.300 N 
ATOM     27  H9  UNL     1      -9.563  51.301  17.231  1.00  0.00     0.188 HD
ATOM     28  H8  UNL     1      -7.985  52.829  16.299  1.00  0.00     0.186 HD
ENDBRANCH  18  19
ENDBRANCH  15  18
ENDBRANCH  14  15
ENDBRANCH  13  14
ENDBRANCH  12  13
ENDBRANCH  10  12
ENDBRANCH   1  10
BRANCH   9  29
HETATM   29  N7  UNL     1      -4.426  47.567  17.523  1.00  0.00    -0.382 N 
ATOM     30  H72 UNL     1      -4.506  47.355  16.528  1.00  0.00     0.157 HD
ATOM     31  H71 UNL     1      -3.499  47.585  17.948  1.00  0.00     0.157 HD
ENDBRANCH   9  29
BRANCH   4  32
HETATM   32  C11 UNL     1      -8.814  48.778  20.636  1.00  0.00     0.037 A 
HETATM   33  C12 UNL     1      -9.985  49.373  20.216  1.00  0.00     0.059 A 
HETATM   34  C13 UNL     1     -10.929  49.604  21.129  1.00  0.00     0.091 A 
HETATM   35  C15 UNL     1     -10.661  49.230  22.428  1.00  0.00     0.090 A 
HETATM   36  S1  UNL     1      -9.096  48.571  22.307  1.00  0.00    -0.081 SA
BRANCH  34  37
HETATM   37  O1  UNL     1     -12.189  50.207  20.864  1.00  0.00    -0.354 OA
HETATM   38  C14 UNL     1     -12.620  50.291  19.535  1.00  0.00     0.210 C 
ENDBRANCH  34  37
BRANCH  35  39
HETATM   39  C16 UNL     1     -11.493  49.359  23.621  1.00  0.00     0.168 A 
HETATM   40  N5  UNL     1     -12.111  50.458  24.044  1.00  0.00    -0.343 N 
HETATM   41  C17 UNL     1     -12.781  50.177  25.182  1.00  0.00     0.134 A 
ATOM     42  H5  UNL     1     -12.082  51.367  23.583  1.00  0.00     0.167 HD
HETATM   43  C18 UNL     1     -12.534  48.839  25.428  1.00  0.00     0.168 A 
HETATM   44  O4  UNL     1     -11.764  48.404  24.470  1.00  0.00    -0.285 OA
BRANCH  43  45
HETATM   45  C19 UNL     1     -13.031  48.050  26.538  1.00  0.00     0.318 C 
HETATM   46  O2  UNL     1     -12.908  48.497  27.705  1.00  0.00    -0.257 OA
BRANCH  45  47
HETATM   47  O3  UNL     1     -13.637  46.824  26.392  1.00  0.00    -0.321 OA
HETATM   48  C20 UNL     1     -12.926  45.596  26.305  1.00  0.00     0.213 C 
ENDBRANCH  45  47
ENDBRANCH  43  45
ENDBRANCH  35  39
ENDBRANCH   4  32
TORSDOF 13
ENDMDL
MODEL 5
REMARK VINA RESULT: -6.653764842      4.075      8.888
REMARK  13 active torsions:
REMARK  status: ('A' for Active; 'I' for Inactive)
REMARK    1  A    between atoms: C4_6  and  C5_7 
REMARK    2  A    between atoms: C5_7  and  N2_8 
REMARK    3  A    between atoms: N2_8  and  C6_11 
REMARK    4  A    between atoms: C6_11  and  C7_12 
REMARK    5  A    between atoms: C7_12  and  C8_13 
REMARK    6  A    between atoms: C8_13  and  N3_14 
REMARK    7  A    between atoms: N3_14  and  C9_16 
REMARK    8  A    between atoms: C10_19  and  C11_20 
REMARK    9  A    between atoms: C13_22  and  O1_23 
REMARK   10  A    between atoms: C15_25  and  C16_26 
REMARK   11  A    between atoms: C18_30  and  C19_31 
REMARK   12  A    between atoms: C19_31  and  O3_33 
REMARK   13  A    between atoms: C23_41  and  N7_42 
ROOT
HETATM    1  C9  UNL     1      -8.944  48.402  21.778  1.00  0.00     0.146 A 
HETATM    2  N4  UNL     1      -8.879  48.706  20.454  1.00  0.00    -0.337 N 
ATOM      3  H4  UNL     1      -8.073  48.396  19.911  1.00  0.00     0.167 HD
HETATM    4  C10 UNL     1      -9.841  49.396  19.850  1.00  0.00     0.073 A 
HETATM    5  C21 UNL     1     -10.925  49.812  20.579  1.00  0.00     0.035 A 
HETATM    6  C22 UNL     1     -12.037  50.577  20.009  1.00  0.00     0.070 C 
HETATM    7  N6  UNL     1     -11.004  49.512  21.919  1.00  0.00    -0.342 N 
ATOM      8  H6  UNL     1     -11.812  49.824  22.458  1.00  0.00     0.167 HD
HETATM    9  C23 UNL     1     -10.036  48.818  22.525  1.00  0.00     0.144 A 
ENDROOT
BRANCH   1  10
HETATM   10  N3  UNL     1      -8.036  47.739  22.388  1.00  0.00    -0.373 N 
ATOM     11  H3  UNL     1      -7.699  48.088  23.285  1.00  0.00     0.161 HD
BRANCH  10  12
HETATM   12  C8  UNL     1      -7.473  46.532  21.868  1.00  0.00     0.123 C 
BRANCH  12  13
HETATM   13  C7  UNL     1      -6.295  46.915  20.950  1.00  0.00     0.047 C 
BRANCH  13  14
HETATM   14  C6  UNL     1      -6.467  46.209  19.636  1.00  0.00     0.234 C 
BRANCH  14  15
HETATM   15  N2  UNL     1      -6.447  47.144  18.553  1.00  0.00    -0.070 N 
ATOM     16  H22 UNL     1      -6.947  48.000  18.795  1.00  0.00     0.277 HD
ATOM     17  H21 UNL     1      -7.035  46.827  17.781  1.00  0.00     0.277 HD
BRANCH  15  18
HETATM   18  C5  UNL     1      -5.094  47.432  18.102  1.00  0.00     0.291 C 
BRANCH  18  19
HETATM   19  C4  UNL     1      -5.137  48.729  17.375  1.00  0.00     0.066 A 
HETATM   20  C3  UNL     1      -4.834  50.005  18.012  1.00  0.00     0.118 A 
HETATM   21  N1  UNL     1      -4.877  51.134  17.364  1.00  0.00    -0.350 N 
HETATM   22  C2  UNL     1      -5.227  51.173  15.992  1.00  0.00     0.110 A 
ATOM     23  H1  UNL     1      -4.656  52.003  17.851  1.00  0.00     0.166 HD
HETATM   24  C1  UNL     1      -5.258  52.329  15.383  1.00  0.00     0.065 C 
HETATM   25  N9  UNL     1      -5.523  49.936  15.368  1.00  0.00    -0.286 N 
HETATM   26  N8  UNL     1      -5.458  48.766  16.116  1.00  0.00    -0.300 N 
ATOM     27  H9  UNL     1      -5.779  49.904  14.381  1.00  0.00     0.188 HD
ATOM     28  H8  UNL     1      -5.676  47.886  15.649  1.00  0.00     0.186 HD
ENDBRANCH  18  19
ENDBRANCH  15  18
ENDBRANCH  14  15
ENDBRANCH  13  14
ENDBRANCH  12  13
ENDBRANCH  10  12
ENDBRANCH   1  10
BRANCH   9  29
HETATM   29  N7  UNL     1     -10.087  48.519  23.797  1.00  0.00    -0.382 N 
ATOM     30  H72 UNL     1      -9.645  49.102  24.509  1.00  0.00     0.157 HD
ATOM     31  H71 UNL     1     -10.583  47.678  24.090  1.00  0.00     0.157 HD
ENDBRANCH   9  29
BRANCH   4  32
HETATM   32  C11 UNL     1      -9.726  49.698  18.422  1.00  0.00     0.037 A 
HETATM   33  C12 UNL     1     -10.349  49.044  17.379  1.00  0.00     0.059 A 
HETATM   34  C13 UNL     1     -10.110  49.476  16.141  1.00  0.00     0.091 A 
HETATM   35  C15 UNL     1      -9.254  50.546  15.997  1.00  0.00     0.090 A 
HETATM   36  S1  UNL     1      -8.825  50.896  17.606  1.00  0.00    -0.081 SA
BRANCH  34  37
HETATM   37  O1  UNL     1     -10.670  48.916  14.960  1.00  0.00    -0.354 OA
HETATM   38  C14 UNL     1     -12.046  49.057  14.746  1.00  0.00     0.210 C 
ENDBRANCH  34  37
BRANCH  35  39
HETATM   39  C16 UNL     1      -8.812  51.222  14.780  1.00  0.00     0.168 A 
HETATM   40  N5  UNL     1      -8.536  50.654  13.610  1.00  0.00    -0.343 N 
HETATM   41  C17 UNL     1      -8.160  51.609  12.733  1.00  0.00     0.134 A 
ATOM     42  H5  UNL     1      -8.598  49.656  13.408  1.00  0.00     0.167 HD
HETATM   43  C18 UNL     1      -8.223  52.795  13.439  1.00  0.00     0.168 A 
HETATM   44  O4  UNL     1      -8.615  52.507  14.649  1.00  0.00    -0.285 OA
BRANCH  43  45
HETATM   45  C19 UNL     1      -7.914  54.122  12.944  1.00  0.00     0.318 C 
HETATM   46  O2  UNL     1      -8.824  54.795  12.398  1.00  0.00    -0.257 OA
BRANCH  45  47
HETATM   47  O3  UNL     1      -6.669  54.701  13.035  1.00  0.00    -0.321 OA
HETATM   48  C20 UNL     1      -5.557  54.314  12.239  1.00  0.00     0.213 C 
ENDBRANCH  45  47
ENDBRANCH  43  45
ENDBRANCH  35  39
ENDBRANCH   4  32
TORSDOF 13
ENDMDL
