MODEL 1
REMARK VINA RESULT: -6.768033415      0.000      0.000
REMARK  13 active torsions:
REMARK  status: ('A' for Active; 'I' for Inactive)
REMARK    1  A    between atoms: C2_2  and  N1_3 
REMARK    2  A    between atoms: C2_2  and  C16_36 
REMARK       I    between atoms: N1_3  and  C3_5 
REMARK    3  A    between atoms: C3_5  and  C4_7 
REMARK    4  A    between atoms: C8_15  and  S2_16 
REMARK    5  A    between atoms: S2_16  and  C9_17 
REMARK    6  A    between atoms: C9_17  and  C10_18 
REMARK       I    between atoms: C10_18  and  N3_20 
REMARK    7  A    between atoms: N3_20  and  C11_22 
REMARK    8  A    between atoms: C11_22  and  C12_23 
REMARK    9  A    between atoms: C12_23  and  C13_24 
REMARK   10  A    between atoms: C13_24  and  O4_25 
REMARK   11  A    between atoms: N4_27  and  O5_29 
REMARK   12  A    between atoms: C16_36  and  O8_38 
REMARK   13  A    between atoms: O8_38  and  C17_39 
ROOT
HETATM    1  C4  UNL     1      -7.092  47.789  19.652  1.00  0.00     0.055 A 
HETATM    2  C5  UNL     1      -6.549  46.755  20.391  1.00  0.00     0.068 A 
HETATM    3  S1  UNL     1      -7.670  46.546  21.650  1.00  0.00    -0.094 SA
HETATM    4  C6  UNL     1      -8.793  47.756  21.223  1.00  0.00     0.089 A 
HETATM    5  C7  UNL     1      -9.957  48.061  21.940  1.00  0.00     0.265 C 
HETATM    6  O2  UNL     1     -10.117  47.362  22.960  1.00  0.00    -0.267 OA
HETATM    7  N2  UNL     1     -10.910  48.995  21.679  1.00  0.00    -0.303 N 
ATOM      8  H2  UNL     1     -11.556  49.229  22.434  1.00  0.00     0.171 HD
HETATM    9  C8  UNL     1     -11.069  49.632  20.508  1.00  0.00     0.150 C 
HETATM   10  N5  UNL     1     -10.082  49.950  19.643  1.00  0.00    -0.303 N 
ATOM     11  H5  UNL     1     -10.226  50.815  19.122  1.00  0.00     0.171 HD
HETATM   12  C14 UNL     1      -8.941  49.302  19.364  1.00  0.00     0.260 C 
HETATM   13  O6  UNL     1      -8.460  49.691  18.271  1.00  0.00    -0.267 OA
HETATM   14  C15 UNL     1      -8.250  48.302  20.081  1.00  0.00     0.071 A 
ENDROOT
BRANCH   9  15
HETATM   15  S2  UNL     1     -12.717  50.063  20.073  1.00  0.00    -0.084 SA
BRANCH  15  16
HETATM   16  C9  UNL     1     -12.697  51.427  18.880  1.00  0.00     0.185 C 
BRANCH  16  17
HETATM   17  C10 UNL     1     -12.499  50.814  17.549  1.00  0.00     0.227 C 
HETATM   18  O3  UNL     1     -12.525  49.544  17.523  1.00  0.00    -0.273 OA
HETATM   19  N3  UNL     1     -12.297  51.597  16.387  1.00  0.00    -0.360 N 
ATOM     20  H3  UNL     1     -12.293  52.614  16.467  1.00  0.00     0.162 HD
BRANCH  19  21
HETATM   21  C11 UNL     1     -12.095  50.996  15.093  1.00  0.00     0.130 C 
BRANCH  21  22
HETATM   22  C12 UNL     1     -10.669  50.916  14.656  1.00  0.00     0.105 C 
BRANCH  22  23
HETATM   23  C13 UNL     1      -9.999  49.650  15.059  1.00  0.00     0.136 C 
HETATM   24  N4  UNL     1      -8.780  49.540  15.387  1.00  0.00    -0.251 N 
ATOM     25  H4  UNL     1      -8.168  50.356  15.390  1.00  0.00     0.196 HD
BRANCH  23  26
HETATM   26  O4  UNL     1     -10.822  48.510  15.063  1.00  0.00    -0.348 OA
ATOM     27  H4  UNL     1     -11.098  48.205  14.206  1.00  0.00     0.219 HD
ENDBRANCH  23  26
BRANCH  24  28
HETATM   28  O5  UNL     1      -8.292  48.288  15.745  1.00  0.00    -0.288 OA
ATOM     29  H5  UNL     1      -8.399  47.565  15.138  1.00  0.00     0.244 HD
ENDBRANCH  24  28
ENDBRANCH  22  23
ENDBRANCH  21  22
ENDBRANCH  19  21
ENDBRANCH  16  17
ENDBRANCH  15  16
ENDBRANCH   9  15
BRANCH   1  30
HETATM   30  C3  UNL     1      -6.255  48.290  18.504  1.00  0.00     0.253 C 
HETATM   31  N1  UNL     1      -5.683  49.563  18.502  1.00  0.00    -0.343 N 
ATOM     32  H1  UNL     1      -5.890  50.125  19.327  1.00  0.00     0.163 HD
HETATM   33  O1  UNL     1      -6.084  47.506  17.546  1.00  0.00    -0.268 OA
BRANCH  31  34
HETATM   34  C2  UNL     1      -4.863  50.202  17.537  1.00  0.00     0.180 C 
HETATM   35  C1  UNL     1      -4.282  51.496  18.021  1.00  0.00     0.043 C 
BRANCH  34  36
HETATM   36  C16 UNL     1      -5.599  50.492  16.281  1.00  0.00     0.282 C 
HETATM   37  O7  UNL     1      -5.467  49.855  15.229  1.00  0.00    -0.263 OA
BRANCH  36  38
HETATM   38  O8  UNL     1      -6.505  51.561  16.296  1.00  0.00    -0.310 OA
BRANCH  38  39
HETATM   39  C17 UNL     1      -6.419  52.686  15.460  1.00  0.00     0.060 C 
HETATM   40  C18 UNL     1      -6.896  53.883  16.284  1.00  0.00     0.045 C 
HETATM   41  C19 UNL     1      -5.046  52.888  14.902  1.00  0.00     0.045 C 
HETATM   42  C20 UNL     1      -7.421  52.587  14.308  1.00  0.00     0.045 C 
ENDBRANCH  38  39
ENDBRANCH  36  38
ENDBRANCH  34  36
ENDBRANCH  31  34
ENDBRANCH   1  30
TORSDOF 13
ENDMDL
MODEL 2
REMARK VINA RESULT: -6.546418484      1.621      2.040
REMARK  13 active torsions:
REMARK  status: ('A' for Active; 'I' for Inactive)
REMARK    1  A    between atoms: C2_2  and  N1_3 
REMARK    2  A    between atoms: C2_2  and  C16_36 
REMARK       I    between atoms: N1_3  and  C3_5 
REMARK    3  A    between atoms: C3_5  and  C4_7 
REMARK    4  A    between atoms: C8_15  and  S2_16 
REMARK    5  A    between atoms: S2_16  and  C9_17 
REMARK    6  A    between atoms: C9_17  and  C10_18 
REMARK       I    between atoms: C10_18  and  N3_20 
REMARK    7  A    between atoms: N3_20  and  C11_22 
REMARK    8  A    between atoms: C11_22  and  C12_23 
REMARK    9  A    between atoms: C12_23  and  C13_24 
REMARK   10  A    between atoms: C13_24  and  O4_25 
REMARK   11  A    between atoms: N4_27  and  O5_29 
REMARK   12  A    between atoms: C16_36  and  O8_38 
REMARK   13  A    between atoms: O8_38  and  C17_39 
ROOT
HETATM    1  C4  UNL     1      -8.243  48.018  20.333  1.00  0.00     0.055 A 
HETATM    2  C5  UNL     1      -7.948  47.816  21.667  1.00  0.00     0.068 A 
HETATM    3  S1  UNL     1      -9.238  48.578  22.470  1.00  0.00    -0.094 SA
HETATM    4  C6  UNL     1     -10.116  49.130  21.117  1.00  0.00     0.089 A 
HETATM    5  C7  UNL     1     -11.308  49.864  21.179  1.00  0.00     0.265 C 
HETATM    6  O2  UNL     1     -11.692  50.102  22.341  1.00  0.00    -0.267 OA
HETATM    7  N2  UNL     1     -12.080  50.340  20.166  1.00  0.00    -0.303 N 
ATOM      8  H2  UNL     1     -12.777  51.048  20.400  1.00  0.00     0.171 HD
HETATM    9  C8  UNL     1     -11.998  49.953  18.883  1.00  0.00     0.150 C 
HETATM   10  N5  UNL     1     -10.876  49.550  18.250  1.00  0.00    -0.303 N 
ATOM     11  H5  UNL     1     -10.830  49.786  17.259  1.00  0.00     0.171 HD
HETATM   12  C14 UNL     1      -9.810  48.888  18.726  1.00  0.00     0.260 C 
HETATM   13  O6  UNL     1      -9.145  48.377  17.791  1.00  0.00    -0.267 OA
HETATM   14  C15 UNL     1      -9.363  48.693  20.051  1.00  0.00     0.071 A 
ENDROOT
BRANCH   9  15
HETATM   15  S2  UNL     1     -13.502  49.957  17.970  1.00  0.00    -0.084 SA
BRANCH  15  16
HETATM   16  C9  UNL     1     -13.526  51.373  16.840  1.00  0.00     0.185 C 
BRANCH  16  17
HETATM   17  C10 UNL     1     -12.678  51.001  15.687  1.00  0.00     0.227 C 
HETATM   18  O3  UNL     1     -12.952  49.885  15.146  1.00  0.00    -0.273 OA
HETATM   19  N3  UNL     1     -11.634  51.839  15.225  1.00  0.00    -0.360 N 
ATOM     20  H3  UNL     1     -11.465  52.728  15.697  1.00  0.00     0.162 HD
BRANCH  19  21
HETATM   21  C11 UNL     1     -10.804  51.469  14.108  1.00  0.00     0.130 C 
BRANCH  21  22
HETATM   22  C12 UNL     1      -9.360  51.270  14.439  1.00  0.00     0.105 C 
BRANCH  22  23
HETATM   23  C13 UNL     1      -9.042  49.884  14.876  1.00  0.00     0.136 C 
HETATM   24  N4  UNL     1      -7.877  49.435  15.090  1.00  0.00    -0.251 N 
ATOM     25  H4  UNL     1      -7.059  50.032  14.965  1.00  0.00     0.196 HD
BRANCH  23  26
HETATM   26  O4  UNL     1     -10.152  49.040  15.055  1.00  0.00    -0.348 OA
ATOM     27  H4  UNL     1     -10.251  48.678  15.929  1.00  0.00     0.219 HD
ENDBRANCH  23  26
BRANCH  24  28
HETATM   28  O5  UNL     1      -7.732  48.113  15.498  1.00  0.00    -0.288 OA
ATOM     29  H5  UNL     1      -6.993  47.612  15.174  1.00  0.00     0.244 HD
ENDBRANCH  24  28
ENDBRANCH  22  23
ENDBRANCH  21  22
ENDBRANCH  19  21
ENDBRANCH  16  17
ENDBRANCH  15  16
ENDBRANCH   9  15
BRANCH   1  30
HETATM   30  C3  UNL     1      -7.205  47.544  19.348  1.00  0.00     0.253 C 
HETATM   31  N1  UNL     1      -6.440  48.431  18.591  1.00  0.00    -0.343 N 
ATOM     32  H1  UNL     1      -6.649  49.417  18.747  1.00  0.00     0.163 HD
HETATM   33  O1  UNL     1      -7.050  46.308  19.244  1.00  0.00    -0.268 OA
BRANCH  31  34
HETATM   34  C2  UNL     1      -5.418  48.184  17.638  1.00  0.00     0.180 C 
HETATM   35  C1  UNL     1      -4.156  47.657  18.251  1.00  0.00     0.043 C 
BRANCH  34  36
HETATM   36  C16 UNL     1      -5.059  49.406  16.873  1.00  0.00     0.282 C 
HETATM   37  O7  UNL     1      -5.066  49.485  15.639  1.00  0.00    -0.263 OA
BRANCH  36  38
HETATM   38  O8  UNL     1      -4.690  50.541  17.607  1.00  0.00    -0.310 OA
BRANCH  38  39
HETATM   39  C17 UNL     1      -5.146  51.841  17.339  1.00  0.00     0.060 C 
HETATM   40  C18 UNL     1      -4.672  52.720  18.497  1.00  0.00     0.045 C 
HETATM   41  C19 UNL     1      -4.688  52.352  16.010  1.00  0.00     0.045 C 
HETATM   42  C20 UNL     1      -6.673  51.909  17.405  1.00  0.00     0.045 C 
ENDBRANCH  38  39
ENDBRANCH  36  38
ENDBRANCH  34  36
ENDBRANCH  31  34
ENDBRANCH   1  30
TORSDOF 13
ENDMDL
MODEL 3
REMARK VINA RESULT: -6.472905676      2.015      5.593
REMARK  13 active torsions:
REMARK  status: ('A' for Active; 'I' for Inactive)
REMARK    1  A    between atoms: C2_2  and  N1_3 
REMARK    2  A    between atoms: C2_2  and  C16_36 
REMARK       I    between atoms: N1_3  and  C3_5 
REMARK    3  A    between atoms: C3_5  and  C4_7 
REMARK    4  A    between atoms: C8_15  and  S2_16 
REMARK    5  A    between atoms: S2_16  and  C9_17 
REMARK    6  A    between atoms: C9_17  and  C10_18 
REMARK       I    between atoms: C10_18  and  N3_20 
REMARK    7  A    between atoms: N3_20  and  C11_22 
REMARK    8  A    between atoms: C11_22  and  C12_23 
REMARK    9  A    between atoms: C12_23  and  C13_24 
REMARK   10  A    between atoms: C13_24  and  O4_25 
REMARK   11  A    between atoms: N4_27  and  O5_29 
REMARK   12  A    between atoms: C16_36  and  O8_38 
REMARK   13  A    between atoms: O8_38  and  C17_39 
ROOT
HETATM    1  C4  UNL     1     -10.349  49.415  20.965  1.00  0.00     0.055 A 
HETATM    2  C5  UNL     1     -10.703  49.277  22.294  1.00  0.00     0.068 A 
HETATM    3  S1  UNL     1      -9.687  48.029  22.839  1.00  0.00    -0.094 SA
HETATM    4  C6  UNL     1      -8.843  47.709  21.393  1.00  0.00     0.089 A 
HETATM    5  C7  UNL     1      -7.855  46.729  21.239  1.00  0.00     0.265 C 
HETATM    6  O2  UNL     1      -7.632  46.073  22.276  1.00  0.00    -0.267 OA
HETATM    7  N2  UNL     1      -7.125  46.405  20.139  1.00  0.00    -0.303 N 
ATOM      8  H2  UNL     1      -6.626  45.515  20.152  1.00  0.00     0.171 HD
HETATM    9  C8  UNL     1      -7.010  47.162  19.036  1.00  0.00     0.150 C 
HETATM   10  N5  UNL     1      -7.958  47.989  18.544  1.00  0.00    -0.303 N 
ATOM     11  H5  UNL     1      -7.972  48.074  17.528  1.00  0.00     0.171 HD
HETATM   12  C14 UNL     1      -8.886  48.714  19.188  1.00  0.00     0.260 C 
HETATM   13  O6  UNL     1      -9.339  49.621  18.448  1.00  0.00    -0.267 OA
HETATM   14  C15 UNL     1      -9.388  48.608  20.503  1.00  0.00     0.071 A 
ENDROOT
BRANCH   9  15
HETATM   15  S2  UNL     1      -5.474  47.071  18.185  1.00  0.00    -0.084 SA
BRANCH  15  16
HETATM   16  C9  UNL     1      -4.552  48.613  18.425  1.00  0.00     0.185 C 
BRANCH  16  17
HETATM   17  C10 UNL     1      -5.293  49.661  17.692  1.00  0.00     0.227 C 
HETATM   18  O3  UNL     1      -5.917  50.497  18.417  1.00  0.00    -0.273 OA
HETATM   19  N3  UNL     1      -5.302  49.721  16.277  1.00  0.00    -0.360 N 
ATOM     20  H3  UNL     1      -4.777  49.025  15.747  1.00  0.00     0.162 HD
BRANCH  19  21
HETATM   21  C11 UNL     1      -6.034  50.738  15.566  1.00  0.00     0.130 C 
BRANCH  21  22
HETATM   22  C12 UNL     1      -7.036  50.219  14.587  1.00  0.00     0.105 C 
BRANCH  22  23
HETATM   23  C13 UNL     1      -8.031  49.296  15.196  1.00  0.00     0.136 C 
HETATM   24  N4  UNL     1      -9.253  49.565  15.392  1.00  0.00    -0.251 N 
ATOM     25  H4  UNL     1      -9.633  50.475  15.129  1.00  0.00     0.196 HD
BRANCH  23  26
HETATM   26  O4  UNL     1      -7.532  48.035  15.567  1.00  0.00    -0.348 OA
ATOM     27  H4  UNL     1      -7.083  48.007  16.405  1.00  0.00     0.219 HD
ENDBRANCH  23  26
BRANCH  24  28
HETATM   28  O5  UNL     1     -10.068  48.598  15.972  1.00  0.00    -0.288 OA
ATOM     29  H5  UNL     1     -10.366  48.726  16.864  1.00  0.00     0.244 HD
ENDBRANCH  24  28
ENDBRANCH  22  23
ENDBRANCH  21  22
ENDBRANCH  19  21
ENDBRANCH  16  17
ENDBRANCH  15  16
ENDBRANCH   9  15
BRANCH   1  30
HETATM   30  C3  UNL     1     -11.169  50.392  20.162  1.00  0.00     0.253 C 
HETATM   31  N1  UNL     1     -12.034  49.978  19.147  1.00  0.00    -0.343 N 
ATOM     32  H1  UNL     1     -12.053  48.971  18.987  1.00  0.00     0.163 HD
HETATM   33  O1  UNL     1     -11.048  51.602  20.451  1.00  0.00    -0.268 OA
BRANCH  31  34
HETATM   34  C2  UNL     1     -12.889  50.732  18.303  1.00  0.00     0.180 C 
HETATM   35  C1  UNL     1     -14.019  49.925  17.738  1.00  0.00     0.043 C 
BRANCH  34  36
HETATM   36  C16 UNL     1     -12.158  51.330  17.157  1.00  0.00     0.282 C 
HETATM   37  O7  UNL     1     -11.533  52.395  17.205  1.00  0.00    -0.263 OA
BRANCH  36  38
HETATM   38  O8  UNL     1     -12.182  50.632  15.942  1.00  0.00    -0.310 OA
BRANCH  38  39
HETATM   39  C17 UNL     1     -12.730  51.133  14.751  1.00  0.00     0.060 C 
HETATM   40  C18 UNL     1     -13.315  49.937  14.000  1.00  0.00     0.045 C 
HETATM   41  C19 UNL     1     -13.741  52.209  14.987  1.00  0.00     0.045 C 
HETATM   42  C20 UNL     1     -11.633  51.668  13.828  1.00  0.00     0.045 C 
ENDBRANCH  38  39
ENDBRANCH  36  38
ENDBRANCH  34  36
ENDBRANCH  31  34
ENDBRANCH   1  30
TORSDOF 13
ENDMDL
MODEL 4
REMARK VINA RESULT: -6.466230272      2.115      5.268
REMARK  13 active torsions:
REMARK  status: ('A' for Active; 'I' for Inactive)
REMARK    1  A    between atoms: C2_2  and  N1_3 
REMARK    2  A    between atoms: C2_2  and  C16_36 
REMARK       I    between atoms: N1_3  and  C3_5 
REMARK    3  A    between atoms: C3_5  and  C4_7 
REMARK    4  A    between atoms: C8_15  and  S2_16 
REMARK    5  A    between atoms: S2_16  and  C9_17 
REMARK    6  A    between atoms: C9_17  and  C10_18 
REMARK       I    between atoms: C10_18  and  N3_20 
REMARK    7  A    between atoms: N3_20  and  C11_22 
REMARK    8  A    between atoms: C11_22  and  C12_23 
REMARK    9  A    between atoms: C12_23  and  C13_24 
REMARK   10  A    between atoms: C13_24  and  O4_25 
REMARK   11  A    between atoms: N4_27  and  O5_29 
REMARK   12  A    between atoms: C16_36  and  O8_38 
REMARK   13  A    between atoms: O8_38  and  C17_39 
ROOT
HETATM    1  C4  UNL     1     -10.330  49.464  20.824  1.00  0.00     0.055 A 
HETATM    2  C5  UNL     1     -10.710  49.378  22.150  1.00  0.00     0.068 A 
HETATM    3  S1  UNL     1      -9.737  48.122  22.752  1.00  0.00    -0.094 SA
HETATM    4  C6  UNL     1      -8.878  47.734  21.332  1.00  0.00     0.089 A 
HETATM    5  C7  UNL     1      -7.913  46.723  21.228  1.00  0.00     0.265 C 
HETATM    6  O2  UNL     1      -7.726  46.096  22.289  1.00  0.00    -0.267 OA
HETATM    7  N2  UNL     1      -7.174  46.345  20.151  1.00  0.00    -0.303 N 
ATOM      8  H2  UNL     1      -6.699  45.444  20.202  1.00  0.00     0.171 HD
HETATM    9  C8  UNL     1      -7.020  47.064  19.027  1.00  0.00     0.150 C 
HETATM   10  N5  UNL     1      -7.937  47.898  18.492  1.00  0.00    -0.303 N 
ATOM     11  H5  UNL     1      -7.931  47.952  17.474  1.00  0.00     0.171 HD
HETATM   12  C14 UNL     1      -8.856  48.668  19.097  1.00  0.00     0.260 C 
HETATM   13  O6  UNL     1      -9.272  49.563  18.320  1.00  0.00    -0.267 OA
HETATM   14  C15 UNL     1      -9.383  48.618  20.405  1.00  0.00     0.071 A 
ENDROOT
BRANCH   9  15
HETATM   15  S2  UNL     1      -5.473  46.905  18.207  1.00  0.00    -0.084 SA
BRANCH  15  16
HETATM   16  C9  UNL     1      -4.481  48.397  18.481  1.00  0.00     0.185 C 
BRANCH  16  17
HETATM   17  C10 UNL     1      -5.190  49.500  17.797  1.00  0.00     0.227 C 
HETATM   18  O3  UNL     1      -5.834  50.289  18.557  1.00  0.00    -0.273 OA
HETATM   19  N3  UNL     1      -5.148  49.659  16.391  1.00  0.00    -0.360 N 
ATOM     20  H3  UNL     1      -4.608  48.997  15.832  1.00  0.00     0.162 HD
BRANCH  19  21
HETATM   21  C11 UNL     1      -5.847  50.729  15.727  1.00  0.00     0.130 C 
BRANCH  21  22
HETATM   22  C12 UNL     1      -6.816  50.288  14.678  1.00  0.00     0.105 C 
BRANCH  22  23
HETATM   23  C13 UNL     1      -7.834  49.328  15.183  1.00  0.00     0.136 C 
HETATM   24  N4  UNL     1      -9.070  49.574  15.313  1.00  0.00    -0.251 N 
ATOM     25  H4  UNL     1      -9.445  50.490  15.066  1.00  0.00     0.196 HD
BRANCH  23  26
HETATM   26  O4  UNL     1      -7.341  48.058  15.531  1.00  0.00    -0.348 OA
ATOM     27  H4  UNL     1      -7.874  47.571  16.150  1.00  0.00     0.219 HD
ENDBRANCH  23  26
BRANCH  24  28
HETATM   28  O5  UNL     1      -9.906  48.574  15.798  1.00  0.00    -0.288 OA
ATOM     29  H5  UNL     1      -9.666  47.666  15.653  1.00  0.00     0.244 HD
ENDBRANCH  24  28
ENDBRANCH  22  23
ENDBRANCH  21  22
ENDBRANCH  19  21
ENDBRANCH  16  17
ENDBRANCH  15  16
ENDBRANCH   9  15
BRANCH   1  30
HETATM   30  C3  UNL     1     -11.109  50.436  19.976  1.00  0.00     0.253 C 
HETATM   31  N1  UNL     1     -11.972  50.013  18.964  1.00  0.00    -0.343 N 
ATOM     32  H1  UNL     1     -12.019  49.002  18.838  1.00  0.00     0.163 HD
HETATM   33  O1  UNL     1     -10.957  51.651  20.226  1.00  0.00    -0.268 OA
BRANCH  31  34
HETATM   34  C2  UNL     1     -12.793  50.761  18.082  1.00  0.00     0.180 C 
HETATM   35  C1  UNL     1     -14.110  50.103  17.801  1.00  0.00     0.043 C 
BRANCH  34  36
HETATM   36  C16 UNL     1     -12.133  51.002  16.773  1.00  0.00     0.282 C 
HETATM   37  O7  UNL     1     -12.683  50.855  15.675  1.00  0.00    -0.263 OA
BRANCH  36  38
HETATM   38  O8  UNL     1     -10.798  51.425  16.793  1.00  0.00    -0.310 OA
BRANCH  38  39
HETATM   39  C17 UNL     1     -10.383  52.752  16.605  1.00  0.00     0.060 C 
HETATM   40  C18 UNL     1      -9.122  52.942  17.449  1.00  0.00     0.045 C 
HETATM   41  C19 UNL     1     -10.161  53.090  15.165  1.00  0.00     0.045 C 
HETATM   42  C20 UNL     1     -11.397  53.731  17.200  1.00  0.00     0.045 C 
ENDBRANCH  38  39
ENDBRANCH  36  38
ENDBRANCH  34  36
ENDBRANCH  31  34
ENDBRANCH   1  30
TORSDOF 13
ENDMDL
MODEL 5
REMARK VINA RESULT: -6.463035689      2.219      6.106
REMARK  13 active torsions:
REMARK  status: ('A' for Active; 'I' for Inactive)
REMARK    1  A    between atoms: C2_2  and  N1_3 
REMARK    2  A    between atoms: C2_2  and  C16_36 
REMARK       I    between atoms: N1_3  and  C3_5 
REMARK    3  A    between atoms: C3_5  and  C4_7 
REMARK    4  A    between atoms: C8_15  and  S2_16 
REMARK    5  A    between atoms: S2_16  and  C9_17 
REMARK    6  A    between atoms: C9_17  and  C10_18 
REMARK       I    between atoms: C10_18  and  N3_20 
REMARK    7  A    between atoms: N3_20  and  C11_22 
REMARK    8  A    between atoms: C11_22  and  C12_23 
REMARK    9  A    between atoms: C12_23  and  C13_24 
REMARK   10  A    between atoms: C13_24  and  O4_25 
REMARK   11  A    between atoms: N4_27  and  O5_29 
REMARK   12  A    between atoms: C16_36  and  O8_38 
REMARK   13  A    between atoms: O8_38  and  C17_39 
ROOT
HETATM    1  C4  UNL     1     -10.417  49.717  20.620  1.00  0.00     0.055 A 
HETATM    2  C5  UNL     1     -10.903  49.520  21.899  1.00  0.00     0.068 A 
HETATM    3  S1  UNL     1     -10.052  48.149  22.431  1.00  0.00    -0.094 SA
HETATM    4  C6  UNL     1      -9.108  47.855  21.042  1.00  0.00     0.089 A 
HETATM    5  C7  UNL     1      -8.196  46.801  20.899  1.00  0.00     0.265 C 
HETATM    6  O2  UNL     1      -8.127  46.057  21.897  1.00  0.00    -0.267 OA
HETATM    7  N2  UNL     1      -7.398  46.489  19.844  1.00  0.00    -0.303 N 
ATOM      8  H2  UNL     1      -6.979  45.558  19.831  1.00  0.00     0.171 HD
HETATM    9  C8  UNL     1      -7.118  47.307  18.817  1.00  0.00     0.150 C 
HETATM   10  N5  UNL     1      -7.942  48.249  18.310  1.00  0.00    -0.303 N 
ATOM     11  H5  UNL     1      -7.854  48.406  17.307  1.00  0.00     0.171 HD
HETATM   12  C14 UNL     1      -8.861  49.010  18.926  1.00  0.00     0.260 C 
HETATM   13  O6  UNL     1      -9.165  50.004  18.222  1.00  0.00    -0.267 OA
HETATM   14  C15 UNL     1      -9.490  48.859  20.181  1.00  0.00     0.071 A 
ENDROOT
BRANCH   9  15
HETATM   15  S2  UNL     1      -5.523  47.135  18.096  1.00  0.00    -0.084 SA
BRANCH  15  16
HETATM   16  C9  UNL     1      -4.551  48.635  18.401  1.00  0.00     0.185 C 
BRANCH  16  17
HETATM   17  C10 UNL     1      -5.226  49.725  17.664  1.00  0.00     0.227 C 
HETATM   18  O3  UNL     1      -5.772  50.616  18.387  1.00  0.00    -0.273 OA
HETATM   19  N3  UNL     1      -5.256  49.766  16.249  1.00  0.00    -0.360 N 
ATOM     20  H3  UNL     1      -4.793  49.025  15.721  1.00  0.00     0.162 HD
BRANCH  19  21
HETATM   21  C11 UNL     1      -5.922  50.825  15.535  1.00  0.00     0.130 C 
BRANCH  21  22
HETATM   22  C12 UNL     1      -6.912  50.365  14.515  1.00  0.00     0.105 C 
BRANCH  22  23
HETATM   23  C13 UNL     1      -7.904  49.395  15.052  1.00  0.00     0.136 C 
HETATM   24  N4  UNL     1      -9.139  49.626  15.212  1.00  0.00    -0.251 N 
ATOM     25  H4  UNL     1      -9.533  50.535  14.969  1.00  0.00     0.196 HD
BRANCH  23  26
HETATM   26  O4  UNL     1      -7.385  48.134  15.395  1.00  0.00    -0.348 OA
ATOM     27  H4  UNL     1      -7.834  47.690  16.106  1.00  0.00     0.219 HD
ENDBRANCH  23  26
BRANCH  24  28
HETATM   28  O5  UNL     1      -9.949  48.617  15.725  1.00  0.00    -0.288 OA
ATOM     29  H5  UNL     1     -10.007  47.794  15.255  1.00  0.00     0.244 HD
ENDBRANCH  24  28
ENDBRANCH  22  23
ENDBRANCH  21  22
ENDBRANCH  19  21
ENDBRANCH  16  17
ENDBRANCH  15  16
ENDBRANCH   9  15
BRANCH   1  30
HETATM   30  C3  UNL     1     -11.073  50.818  19.827  1.00  0.00     0.253 C 
HETATM   31  N1  UNL     1     -11.925  50.555  18.753  1.00  0.00    -0.343 N 
ATOM     32  H1  UNL     1     -12.053  49.565  18.543  1.00  0.00     0.163 HD
HETATM   33  O1  UNL     1     -10.828  51.991  20.181  1.00  0.00    -0.268 OA
BRANCH  31  34
HETATM   34  C2  UNL     1     -12.640  51.440  17.907  1.00  0.00     0.180 C 
HETATM   35  C1  UNL     1     -13.937  51.903  18.498  1.00  0.00     0.043 C 
BRANCH  34  36
HETATM   36  C16 UNL     1     -12.949  50.827  16.590  1.00  0.00     0.282 C 
HETATM   37  O7  UNL     1     -12.100  50.389  15.805  1.00  0.00    -0.263 OA
BRANCH  36  38
HETATM   38  O8  UNL     1     -14.298  50.741  16.220  1.00  0.00    -0.310 OA
BRANCH  38  39
HETATM   39  C17 UNL     1     -14.999  49.537  16.052  1.00  0.00     0.060 C 
HETATM   40  C18 UNL     1     -16.421  49.782  16.560  1.00  0.00     0.045 C 
HETATM   41  C19 UNL     1     -14.976  49.046  14.640  1.00  0.00     0.045 C 
HETATM   42  C20 UNL     1     -14.444  48.448  16.973  1.00  0.00     0.045 C 
ENDBRANCH  38  39
ENDBRANCH  36  38
ENDBRANCH  34  36
ENDBRANCH  31  34
ENDBRANCH   1  30
TORSDOF 13
ENDMDL
