MODEL 1
REMARK VINA RESULT: -7.457360748      0.000      0.000
REMARK  12 active torsions:
REMARK  status: ('A' for Active; 'I' for Inactive)
REMARK    1  A    between atoms: C4_4  and  S1_5 
REMARK    2  A    between atoms: S1_5  and  C5_6 
REMARK    3  A    between atoms: C5_6  and  C6_7 
REMARK    4  A    between atoms: N2_11  and  C8_13 
REMARK    5  A    between atoms: C13_23  and  S2_24 
REMARK    6  A    between atoms: C15_30  and  N7_31 
REMARK    7  A    between atoms: N9_37  and  C17_38 
REMARK    8  A    between atoms: C17_38  and  C18_39 
REMARK    9  A    between atoms: C18_39  and  C19_40 
REMARK   10  A    between atoms: C19_40  and  C20_41 
REMARK   11  A    between atoms: C20_41  and  C21_42 
REMARK   12  A    between atoms: C21_42  and  O3_43 
ROOT
HETATM    1  C8  UNL     1     -10.494  49.899  16.712  1.00  0.00     0.129 C 
HETATM    2  C9  UNL     1     -10.817  51.251  16.181  1.00  0.00     0.055 C 
HETATM    3  C10 UNL     1     -11.662  48.984  16.161  1.00  0.00     0.055 C 
HETATM    4  C11 UNL     1      -9.292  49.345  15.980  1.00  0.00     0.090 C 
HETATM    5  N3  UNL     1      -8.380  48.952  15.414  1.00  0.00    -0.195 NA
ENDROOT
BRANCH   1   6
HETATM    6  N2  UNL     1     -10.346  49.714  18.058  1.00  0.00    -0.205 N 
HETATM    7  C7  UNL     1      -9.591  49.297  18.966  1.00  0.00     0.681 A 
HETATM    8  N1  UNL     1      -8.355  48.788  18.813  1.00  0.00    -0.194 N 
HETATM    9  N4  UNL     1     -10.172  49.039  20.192  1.00  0.00    -0.176 N 
HETATM   10  C6  UNL     1      -7.648  48.074  19.655  1.00  0.00     0.054 A 
ATOM     11  H1  UNL     1      -7.907  48.984  17.918  1.00  0.00     0.184 HD
HETATM   12  C16 UNL     1      -8.224  47.780  20.899  1.00  0.00     0.076 A 
HETATM   13  C12 UNL     1      -9.540  48.327  21.101  1.00  0.00     0.139 A 
HETATM   14  C15 UNL     1      -7.650  47.030  21.852  1.00  0.00     0.117 A 
HETATM   15  N5  UNL     1     -10.073  48.005  22.283  1.00  0.00    -0.318 N 
HETATM   16  C13 UNL     1      -9.508  47.252  23.226  1.00  0.00     0.205 A 
ATOM     17  H5  UNL     1     -11.003  48.370  22.482  1.00  0.00     0.169 HD
HETATM   18  N6  UNL     1      -8.231  46.709  23.071  1.00  0.00    -0.319 N 
ATOM     19  H6  UNL     1      -7.773  46.136  23.779  1.00  0.00     0.169 HD
ATOM     20  H4  UNL     1     -11.102  49.405  20.396  1.00  0.00     0.186 HD
ATOM     21  H2  UNL     1     -11.197  50.055  18.506  1.00  0.00     0.179 HD
BRANCH  10  22
HETATM   22  C5  UNL     1      -6.245  47.555  19.427  1.00  0.00     0.139 C 
BRANCH  22  23
HETATM   23  S1  UNL     1      -5.694  47.893  17.760  1.00  0.00    -0.105 SA
BRANCH  23  24
HETATM   24  C4  UNL     1      -5.272  49.454  17.233  1.00  0.00     0.086 A 
HETATM   25  C3  UNL     1      -4.648  50.391  18.092  1.00  0.00     0.064 A 
HETATM   26  C2  UNL     1      -4.525  51.556  17.430  1.00  0.00     0.027 A 
HETATM   27  C1  UNL     1      -3.935  52.819  17.984  1.00  0.00     0.070 C 
HETATM   28  N9  UNL     1      -5.060  51.354  16.179  1.00  0.00    -0.296 N 
HETATM   29  N8  UNL     1      -5.468  50.145  16.117  1.00  0.00    -0.292 N 
ATOM     30  H8  UNL     1      -5.906  49.747  15.286  1.00  0.00     0.188 HD
BRANCH  28  31
HETATM   31  C17 UNL     1      -5.066  52.462  15.292  1.00  0.00     0.148 C 
BRANCH  31  32
HETATM   32  C18 UNL     1      -6.341  52.500  14.433  1.00  0.00     0.022 C 
BRANCH  32  33
HETATM   33  C19 UNL     1      -7.471  52.668  15.397  1.00  0.00     0.004 C 
BRANCH  33  34
HETATM   34  C20 UNL     1      -7.388  53.821  16.344  1.00  0.00     0.026 C 
BRANCH  34  35
HETATM   35  C21 UNL     1      -7.966  53.272  17.671  1.00  0.00     0.164 C 
BRANCH  35  36
HETATM   36  O3  UNL     1      -7.869  51.899  17.728  1.00  0.00    -0.401 OA
ATOM     37  H3  UNL     1      -8.728  51.493  17.730  1.00  0.00     0.209 HD
ENDBRANCH  35  36
ENDBRANCH  34  35
ENDBRANCH  33  34
ENDBRANCH  32  33
ENDBRANCH  31  32
ENDBRANCH  28  31
ENDBRANCH  23  24
ENDBRANCH  22  23
ENDBRANCH  10  22
BRANCH  16  38
HETATM   38  S2  UNL     1     -10.386  46.806  24.640  1.00  0.00     0.203 S 
HETATM   39  C14 UNL     1     -11.443  48.057  25.283  1.00  0.00     0.170 C 
HETATM   40  O1  UNL     1      -9.432  46.363  25.697  1.00  0.00    -0.220 OA
HETATM   41  O2  UNL     1     -11.278  45.608  24.288  1.00  0.00    -0.220 OA
ENDBRANCH  16  38
BRANCH  14  42
HETATM   42  N7  UNL     1      -6.443  46.526  21.606  1.00  0.00    -0.385 N 
ATOM     43  H72 UNL     1      -6.377  45.731  20.972  1.00  0.00     0.157 HD
ATOM     44  H71 UNL     1      -5.654  46.958  22.088  1.00  0.00     0.157 HD
ENDBRANCH  14  42
ENDBRANCH   1   6
TORSDOF 12
ENDMDL
MODEL 2
REMARK VINA RESULT: -7.298482121      1.041      1.320
REMARK  12 active torsions:
REMARK  status: ('A' for Active; 'I' for Inactive)
REMARK    1  A    between atoms: C4_4  and  S1_5 
REMARK    2  A    between atoms: S1_5  and  C5_6 
REMARK    3  A    between atoms: C5_6  and  C6_7 
REMARK    4  A    between atoms: N2_11  and  C8_13 
REMARK    5  A    between atoms: C13_23  and  S2_24 
REMARK    6  A    between atoms: C15_30  and  N7_31 
REMARK    7  A    between atoms: N9_37  and  C17_38 
REMARK    8  A    between atoms: C17_38  and  C18_39 
REMARK    9  A    between atoms: C18_39  and  C19_40 
REMARK   10  A    between atoms: C19_40  and  C20_41 
REMARK   11  A    between atoms: C20_41  and  C21_42 
REMARK   12  A    between atoms: C21_42  and  O3_43 
ROOT
HETATM    1  C8  UNL     1     -10.825  50.216  17.221  1.00  0.00     0.129 C 
HETATM    2  C9  UNL     1     -10.739  51.615  16.719  1.00  0.00     0.055 C 
HETATM    3  C10 UNL     1     -12.266  49.738  16.775  1.00  0.00     0.055 C 
HETATM    4  C11 UNL     1      -9.929  49.328  16.387  1.00  0.00     0.090 C 
HETATM    5  N3  UNL     1      -9.242  48.680  15.744  1.00  0.00    -0.195 NA
ENDROOT
BRANCH   1   6
HETATM    6  N2  UNL     1     -10.633  49.958  18.549  1.00  0.00    -0.205 N 
HETATM    7  C7  UNL     1      -9.842  49.503  19.408  1.00  0.00     0.681 A 
HETATM    8  N1  UNL     1      -8.603  49.028  19.189  1.00  0.00    -0.194 N 
HETATM    9  N4  UNL     1     -10.381  49.164  20.634  1.00  0.00    -0.176 N 
HETATM   10  C6  UNL     1      -7.858  48.281  19.967  1.00  0.00     0.054 A 
ATOM     11  H1  UNL     1      -8.186  49.285  18.294  1.00  0.00     0.184 HD
HETATM   12  C16 UNL     1      -8.390  47.904  21.208  1.00  0.00     0.076 A 
HETATM   13  C12 UNL     1      -9.709  48.413  21.481  1.00  0.00     0.139 A 
HETATM   14  C15 UNL     1      -7.774  47.112  22.099  1.00  0.00     0.117 A 
HETATM   15  N5  UNL     1     -10.199  48.013  22.657  1.00  0.00    -0.318 N 
HETATM   16  C13 UNL     1      -9.593  47.218  23.537  1.00  0.00     0.205 A 
ATOM     17  H5  UNL     1     -11.130  48.348  22.904  1.00  0.00     0.169 HD
HETATM   18  N6  UNL     1      -8.311  46.710  23.313  1.00  0.00    -0.319 N 
ATOM     19  H6  UNL     1      -7.822  46.106  23.973  1.00  0.00     0.169 HD
ATOM     20  H4  UNL     1     -11.311  49.499  20.886  1.00  0.00     0.186 HD
ATOM     21  H2  UNL     1     -11.476  50.256  19.040  1.00  0.00     0.179 HD
BRANCH  10  22
HETATM   22  C5  UNL     1      -6.453  47.804  19.668  1.00  0.00     0.139 C 
BRANCH  22  23
HETATM   23  S1  UNL     1      -6.034  48.065  17.950  1.00  0.00    -0.105 SA
BRANCH  23  24
HETATM   24  C4  UNL     1      -5.464  49.556  17.363  1.00  0.00     0.086 A 
HETATM   25  C3  UNL     1      -4.735  50.454  18.179  1.00  0.00     0.064 A 
HETATM   26  C2  UNL     1      -4.505  51.577  17.475  1.00  0.00     0.027 A 
HETATM   27  C1  UNL     1      -3.781  52.791  17.976  1.00  0.00     0.070 C 
HETATM   28  N9  UNL     1      -5.079  51.388  16.239  1.00  0.00    -0.296 N 
HETATM   29  N8  UNL     1      -5.609  50.226  16.225  1.00  0.00    -0.292 N 
ATOM     30  H8  UNL     1      -6.098  49.847  15.414  1.00  0.00     0.188 HD
BRANCH  28  31
HETATM   31  C17 UNL     1      -4.987  52.460  15.313  1.00  0.00     0.148 C 
BRANCH  31  32
HETATM   32  C18 UNL     1      -6.279  53.294  15.274  1.00  0.00     0.022 C 
BRANCH  32  33
HETATM   33  C19 UNL     1      -6.905  53.004  13.948  1.00  0.00     0.004 C 
BRANCH  33  34
HETATM   34  C20 UNL     1      -8.279  52.417  13.962  1.00  0.00     0.026 C 
BRANCH  34  35
HETATM   35  C21 UNL     1      -8.125  51.062  13.227  1.00  0.00     0.164 C 
BRANCH  35  36
HETATM   36  O3  UNL     1      -7.444  50.149  14.001  1.00  0.00    -0.401 OA
ATOM     37  H3  UNL     1      -7.791  50.120  14.885  1.00  0.00     0.209 HD
ENDBRANCH  35  36
ENDBRANCH  34  35
ENDBRANCH  33  34
ENDBRANCH  32  33
ENDBRANCH  31  32
ENDBRANCH  28  31
ENDBRANCH  23  24
ENDBRANCH  22  23
ENDBRANCH  10  22
BRANCH  16  38
HETATM   38  S2  UNL     1     -10.419  46.674  24.948  1.00  0.00     0.203 S 
HETATM   39  C14 UNL     1     -11.419  47.887  25.737  1.00  0.00     0.170 C 
HETATM   40  O1  UNL     1      -9.431  46.128  25.922  1.00  0.00    -0.220 OA
HETATM   41  O2  UNL     1     -11.352  45.526  24.540  1.00  0.00    -0.220 OA
ENDBRANCH  16  38
BRANCH  14  42
HETATM   42  N7  UNL     1      -6.566  46.647  21.788  1.00  0.00    -0.385 N 
ATOM     43  H72 UNL     1      -5.801  46.836  22.436  1.00  0.00     0.157 HD
ATOM     44  H71 UNL     1      -6.475  46.146  20.905  1.00  0.00     0.157 HD
ENDBRANCH  14  42
ENDBRANCH   1   6
TORSDOF 12
ENDMDL
MODEL 3
REMARK VINA RESULT: -7.259253613      1.623      1.975
REMARK  12 active torsions:
REMARK  status: ('A' for Active; 'I' for Inactive)
REMARK    1  A    between atoms: C4_4  and  S1_5 
REMARK    2  A    between atoms: S1_5  and  C5_6 
REMARK    3  A    between atoms: C5_6  and  C6_7 
REMARK    4  A    between atoms: N2_11  and  C8_13 
REMARK    5  A    between atoms: C13_23  and  S2_24 
REMARK    6  A    between atoms: C15_30  and  N7_31 
REMARK    7  A    between atoms: N9_37  and  C17_38 
REMARK    8  A    between atoms: C17_38  and  C18_39 
REMARK    9  A    between atoms: C18_39  and  C19_40 
REMARK   10  A    between atoms: C19_40  and  C20_41 
REMARK   11  A    between atoms: C20_41  and  C21_42 
REMARK   12  A    between atoms: C21_42  and  O3_43 
ROOT
HETATM    1  C8  UNL     1     -10.353  49.935  16.849  1.00  0.00     0.129 C 
HETATM    2  C9  UNL     1     -10.389  51.313  16.287  1.00  0.00     0.055 C 
HETATM    3  C10 UNL     1     -11.670  49.260  16.289  1.00  0.00     0.055 C 
HETATM    4  C11 UNL     1      -9.273  49.137  16.154  1.00  0.00     0.090 C 
HETATM    5  N3  UNL     1      -8.448  48.558  15.616  1.00  0.00    -0.195 NA
ENDROOT
BRANCH   1   6
HETATM    6  N2  UNL     1     -10.270  49.755  18.202  1.00  0.00    -0.205 N 
HETATM    7  C7  UNL     1      -9.565  49.327  19.145  1.00  0.00     0.681 A 
HETATM    8  N1  UNL     1      -8.334  48.792  19.049  1.00  0.00    -0.194 N 
HETATM    9  N4  UNL     1     -10.206  49.088  20.344  1.00  0.00    -0.176 N 
HETATM   10  C6  UNL     1      -7.681  48.069  19.925  1.00  0.00     0.054 A 
ATOM     11  H1  UNL     1      -7.842  48.975  18.174  1.00  0.00     0.184 HD
HETATM   12  C16 UNL     1      -8.317  47.793  21.143  1.00  0.00     0.076 A 
HETATM   13  C12 UNL     1      -9.630  48.368  21.284  1.00  0.00     0.139 A 
HETATM   14  C15 UNL     1      -7.803  47.037  22.125  1.00  0.00     0.117 A 
HETATM   15  N5  UNL     1     -10.222  48.063  22.441  1.00  0.00    -0.318 N 
HETATM   16  C13 UNL     1      -9.716  47.304  23.412  1.00  0.00     0.205 A 
ATOM     17  H5  UNL     1     -11.153  48.448  22.597  1.00  0.00     0.169 HD
HETATM   18  N6  UNL     1      -8.444  46.734  23.317  1.00  0.00    -0.319 N 
ATOM     19  H6  UNL     1      -8.031  46.156  24.048  1.00  0.00     0.169 HD
ATOM     20  H4  UNL     1     -11.137  49.473  20.504  1.00  0.00     0.186 HD
ATOM     21  H2  UNL     1     -11.133  50.116  18.609  1.00  0.00     0.179 HD
BRANCH  10  22
HETATM   22  C5  UNL     1      -6.280  47.521  19.763  1.00  0.00     0.139 C 
BRANCH  22  23
HETATM   23  S1  UNL     1      -5.693  47.731  18.088  1.00  0.00    -0.105 SA
BRANCH  23  24
HETATM   24  C4  UNL     1      -5.329  49.256  17.430  1.00  0.00     0.086 A 
HETATM   25  C3  UNL     1      -4.707  50.273  18.194  1.00  0.00     0.064 A 
HETATM   26  C2  UNL     1      -4.635  51.386  17.441  1.00  0.00     0.027 A 
HETATM   27  C1  UNL     1      -4.064  52.703  17.877  1.00  0.00     0.070 C 
HETATM   28  N9  UNL     1      -5.200  51.074  16.226  1.00  0.00    -0.296 N 
HETATM   29  N8  UNL     1      -5.576  49.854  16.270  1.00  0.00    -0.292 N 
ATOM     30  H8  UNL     1      -6.026  49.381  15.485  1.00  0.00     0.188 HD
BRANCH  28  31
HETATM   31  C17 UNL     1      -5.262  52.109  15.257  1.00  0.00     0.148 C 
BRANCH  31  32
HETATM   32  C18 UNL     1      -6.607  52.116  14.513  1.00  0.00     0.022 C 
BRANCH  32  33
HETATM   33  C19 UNL     1      -6.549  53.287  13.586  1.00  0.00     0.004 C 
BRANCH  33  34
HETATM   34  C20 UNL     1      -5.268  54.055  13.545  1.00  0.00     0.026 C 
BRANCH  34  35
HETATM   35  C21 UNL     1      -4.921  54.144  12.038  1.00  0.00     0.164 C 
BRANCH  35  36
HETATM   36  O3  UNL     1      -3.557  54.165  11.841  1.00  0.00    -0.401 OA
ATOM     37  H3  UNL     1      -3.308  54.849  11.230  1.00  0.00     0.209 HD
ENDBRANCH  35  36
ENDBRANCH  34  35
ENDBRANCH  33  34
ENDBRANCH  32  33
ENDBRANCH  31  32
ENDBRANCH  28  31
ENDBRANCH  23  24
ENDBRANCH  22  23
ENDBRANCH  10  22
BRANCH  16  38
HETATM   38  S2  UNL     1     -10.666  46.883  24.787  1.00  0.00     0.203 S 
HETATM   39  C14 UNL     1      -9.789  46.840  26.311  1.00  0.00     0.170 C 
HETATM   40  O1  UNL     1     -11.327  45.568  24.550  1.00  0.00    -0.220 OA
HETATM   41  O2  UNL     1     -11.771  47.936  24.941  1.00  0.00    -0.220 OA
ENDBRANCH  16  38
BRANCH  14  42
HETATM   42  N7  UNL     1      -6.596  46.508  21.936  1.00  0.00    -0.385 N 
ATOM     43  H72 UNL     1      -5.903  47.066  21.437  1.00  0.00     0.157 HD
ATOM     44  H71 UNL     1      -6.445  45.562  22.285  1.00  0.00     0.157 HD
ENDBRANCH  14  42
ENDBRANCH   1   6
TORSDOF 12
ENDMDL
MODEL 4
REMARK VINA RESULT: -6.947194769      0.966      1.381
REMARK  12 active torsions:
REMARK  status: ('A' for Active; 'I' for Inactive)
REMARK    1  A    between atoms: C4_4  and  S1_5 
REMARK    2  A    between atoms: S1_5  and  C5_6 
REMARK    3  A    between atoms: C5_6  and  C6_7 
REMARK    4  A    between atoms: N2_11  and  C8_13 
REMARK    5  A    between atoms: C13_23  and  S2_24 
REMARK    6  A    between atoms: C15_30  and  N7_31 
REMARK    7  A    between atoms: N9_37  and  C17_38 
REMARK    8  A    between atoms: C17_38  and  C18_39 
REMARK    9  A    between atoms: C18_39  and  C19_40 
REMARK   10  A    between atoms: C19_40  and  C20_41 
REMARK   11  A    between atoms: C20_41  and  C21_42 
REMARK   12  A    between atoms: C21_42  and  O3_43 
ROOT
HETATM    1  C8  UNL     1     -10.501  49.964  16.766  1.00  0.00     0.129 C 
HETATM    2  C9  UNL     1     -11.001  48.854  15.910  1.00  0.00     0.055 C 
HETATM    3  C10 UNL     1      -9.119  50.361  16.108  1.00  0.00     0.055 C 
HETATM    4  C11 UNL     1     -11.332  51.204  16.518  1.00  0.00     0.090 C 
HETATM    5  N3  UNL     1     -11.978  52.124  16.315  1.00  0.00    -0.195 NA
ENDROOT
BRANCH   1   6
HETATM    6  N2  UNL     1     -10.345  49.769  18.110  1.00  0.00    -0.205 N 
HETATM    7  C7  UNL     1      -9.586  49.338  19.010  1.00  0.00     0.681 A 
HETATM    8  N1  UNL     1      -8.356  48.821  18.843  1.00  0.00    -0.194 N 
HETATM    9  N4  UNL     1     -10.161  49.076  20.238  1.00  0.00    -0.176 N 
HETATM   10  C6  UNL     1      -7.648  48.096  19.675  1.00  0.00     0.054 A 
ATOM     11  H1  UNL     1      -7.912  49.021  17.946  1.00  0.00     0.184 HD
HETATM   12  C16 UNL     1      -8.217  47.797  20.921  1.00  0.00     0.076 A 
HETATM   13  C12 UNL     1      -9.527  48.352  21.137  1.00  0.00     0.139 A 
HETATM   14  C15 UNL     1      -7.642  47.035  21.864  1.00  0.00     0.117 A 
HETATM   15  N5  UNL     1     -10.054  48.025  22.319  1.00  0.00    -0.318 N 
HETATM   16  C13 UNL     1      -9.488  47.261  23.253  1.00  0.00     0.205 A 
ATOM     17  H5  UNL     1     -10.980  48.397  22.528  1.00  0.00     0.169 HD
HETATM   18  N6  UNL     1      -8.216  46.710  23.084  1.00  0.00    -0.319 N 
ATOM     19  H6  UNL     1      -7.758  46.128  23.785  1.00  0.00     0.169 HD
ATOM     20  H4  UNL     1     -11.086  49.447  20.451  1.00  0.00     0.186 HD
ATOM     21  H2  UNL     1     -11.190  50.113  18.566  1.00  0.00     0.179 HD
BRANCH  10  22
HETATM   22  C5  UNL     1      -6.250  47.568  19.433  1.00  0.00     0.139 C 
BRANCH  22  23
HETATM   23  S1  UNL     1      -5.711  47.909  17.763  1.00  0.00    -0.105 SA
BRANCH  23  24
HETATM   24  C4  UNL     1      -5.284  49.469  17.238  1.00  0.00     0.086 A 
HETATM   25  C3  UNL     1      -4.681  50.412  18.106  1.00  0.00     0.064 A 
HETATM   26  C2  UNL     1      -4.550  51.575  17.442  1.00  0.00     0.027 A 
HETATM   27  C1  UNL     1      -3.976  52.843  18.002  1.00  0.00     0.070 C 
HETATM   28  N9  UNL     1      -5.059  51.366  16.181  1.00  0.00    -0.296 N 
HETATM   29  N8  UNL     1      -5.461  50.155  16.116  1.00  0.00    -0.292 N 
ATOM     30  H8  UNL     1      -5.880  49.752  15.277  1.00  0.00     0.188 HD
BRANCH  28  31
HETATM   31  C17 UNL     1      -5.051  52.471  15.289  1.00  0.00     0.148 C 
BRANCH  31  32
HETATM   32  C18 UNL     1      -6.472  52.863  14.854  1.00  0.00     0.022 C 
BRANCH  32  33
HETATM   33  C19 UNL     1      -6.873  53.987  15.754  1.00  0.00     0.004 C 
BRANCH  33  34
HETATM   34  C20 UNL     1      -7.742  53.643  16.919  1.00  0.00     0.026 C 
BRANCH  34  35
HETATM   35  C21 UNL     1      -7.234  54.557  18.062  1.00  0.00     0.164 C 
BRANCH  35  36
HETATM   36  O3  UNL     1      -6.367  55.517  17.585  1.00  0.00    -0.401 OA
ATOM     37  H3  UNL     1      -5.466  55.219  17.631  1.00  0.00     0.209 HD
ENDBRANCH  35  36
ENDBRANCH  34  35
ENDBRANCH  33  34
ENDBRANCH  32  33
ENDBRANCH  31  32
ENDBRANCH  28  31
ENDBRANCH  23  24
ENDBRANCH  22  23
ENDBRANCH  10  22
BRANCH  16  38
HETATM   38  S2  UNL     1     -10.360  46.811  24.670  1.00  0.00     0.203 S 
HETATM   39  C14 UNL     1     -11.409  48.062  25.324  1.00  0.00     0.170 C 
HETATM   40  O1  UNL     1      -9.402  46.360  25.719  1.00  0.00    -0.220 OA
HETATM   41  O2  UNL     1     -11.257  45.618  24.317  1.00  0.00    -0.220 OA
ENDBRANCH  16  38
BRANCH  14  42
HETATM   42  N7  UNL     1      -6.441  46.524  21.606  1.00  0.00    -0.385 N 
ATOM     43  H72 UNL     1      -5.795  46.404  22.386  1.00  0.00     0.157 HD
ATOM     44  H71 UNL     1      -6.230  46.304  20.633  1.00  0.00     0.157 HD
ENDBRANCH  14  42
ENDBRANCH   1   6
TORSDOF 12
ENDMDL
MODEL 5
REMARK VINA RESULT: -6.855175887      1.581      2.002
REMARK  12 active torsions:
REMARK  status: ('A' for Active; 'I' for Inactive)
REMARK    1  A    between atoms: C4_4  and  S1_5 
REMARK    2  A    between atoms: S1_5  and  C5_6 
REMARK    3  A    between atoms: C5_6  and  C6_7 
REMARK    4  A    between atoms: N2_11  and  C8_13 
REMARK    5  A    between atoms: C13_23  and  S2_24 
REMARK    6  A    between atoms: C15_30  and  N7_31 
REMARK    7  A    between atoms: N9_37  and  C17_38 
REMARK    8  A    between atoms: C17_38  and  C18_39 
REMARK    9  A    between atoms: C18_39  and  C19_40 
REMARK   10  A    between atoms: C19_40  and  C20_41 
REMARK   11  A    between atoms: C20_41  and  C21_42 
REMARK   12  A    between atoms: C21_42  and  O3_43 
ROOT
HETATM    1  C8  UNL     1     -11.488  50.251  17.785  1.00  0.00     0.129 C 
HETATM    2  C9  UNL     1     -11.478  51.628  17.220  1.00  0.00     0.055 C 
HETATM    3  C10 UNL     1     -12.987  49.776  17.608  1.00  0.00     0.055 C 
HETATM    4  C11 UNL     1     -10.753  49.318  16.848  1.00  0.00     0.090 C 
HETATM    5  N3  UNL     1     -10.190  48.637  16.124  1.00  0.00    -0.195 NA
ENDROOT
BRANCH   1   6
HETATM    6  N2  UNL     1     -11.075  50.040  19.071  1.00  0.00    -0.205 N 
HETATM    7  C7  UNL     1     -10.240  49.464  19.806  1.00  0.00     0.681 A 
HETATM    8  N1  UNL     1      -9.217  48.688  19.404  1.00  0.00    -0.194 N 
HETATM    9  N4  UNL     1     -10.562  49.347  21.143  1.00  0.00    -0.176 N 
HETATM   10  C6  UNL     1      -8.509  47.834  20.102  1.00  0.00     0.054 A 
ATOM     11  H1  UNL     1      -8.957  48.776  18.422  1.00  0.00     0.184 HD
HETATM   12  C16 UNL     1      -8.829  47.680  21.458  1.00  0.00     0.076 A 
HETATM   13  C12 UNL     1      -9.908  48.511  21.923  1.00  0.00     0.139 A 
HETATM   14  C15 UNL     1      -8.228  46.821  22.296  1.00  0.00     0.117 A 
HETATM   15  N5  UNL     1     -10.209  48.320  23.210  1.00  0.00    -0.318 N 
HETATM   16  C13 UNL     1      -9.620  47.461  24.041  1.00  0.00     0.205 A 
ATOM     17  H5  UNL     1     -10.964  48.887  23.595  1.00  0.00     0.169 HD
HETATM   18  N6  UNL     1      -8.566  46.642  23.630  1.00  0.00    -0.319 N 
ATOM     19  H6  UNL     1      -8.093  45.982  24.247  1.00  0.00     0.169 HD
ATOM     20  H4  UNL     1     -11.316  49.913  21.532  1.00  0.00     0.186 HD
ATOM     21  H2  UNL     1     -11.703  50.566  19.680  1.00  0.00     0.179 HD
BRANCH  10  22
HETATM   22  C5  UNL     1      -7.346  47.011  19.591  1.00  0.00     0.139 C 
BRANCH  22  23
HETATM   23  S1  UNL     1      -5.902  48.029  19.323  1.00  0.00    -0.105 SA
BRANCH  23  24
HETATM   24  C4  UNL     1      -5.957  49.483  18.442  1.00  0.00     0.086 A 
HETATM   25  C3  UNL     1      -4.792  50.243  18.175  1.00  0.00     0.064 A 
HETATM   26  C2  UNL     1      -5.159  51.376  17.550  1.00  0.00     0.027 A 
HETATM   27  C1  UNL     1      -4.233  52.470  17.107  1.00  0.00     0.070 C 
HETATM   28  N9  UNL     1      -6.528  51.329  17.425  1.00  0.00    -0.296 N 
HETATM   29  N8  UNL     1      -6.933  50.234  17.945  1.00  0.00    -0.292 N 
ATOM     30  H8  UNL     1      -7.915  49.963  17.976  1.00  0.00     0.188 HD
BRANCH  28  31
HETATM   31  C17 UNL     1      -7.160  52.441  16.808  1.00  0.00     0.148 C 
BRANCH  31  32
HETATM   32  C18 UNL     1      -8.097  52.006  15.670  1.00  0.00     0.022 C 
BRANCH  32  33
HETATM   33  C19 UNL     1      -7.222  51.335  14.662  1.00  0.00     0.004 C 
BRANCH  33  34
HETATM   34  C20 UNL     1      -7.636  49.973  14.206  1.00  0.00     0.026 C 
BRANCH  34  35
HETATM   35  C21 UNL     1      -6.530  49.033  14.747  1.00  0.00     0.164 C 
BRANCH  35  36
HETATM   36  O3  UNL     1      -7.063  48.039  15.537  1.00  0.00    -0.401 OA
ATOM     37  H3  UNL     1      -6.396  47.635  16.079  1.00  0.00     0.209 HD
ENDBRANCH  35  36
ENDBRANCH  34  35
ENDBRANCH  33  34
ENDBRANCH  32  33
ENDBRANCH  31  32
ENDBRANCH  28  31
ENDBRANCH  23  24
ENDBRANCH  22  23
ENDBRANCH  10  22
BRANCH  16  38
HETATM   38  S2  UNL     1     -10.221  47.228  25.639  1.00  0.00     0.203 S 
HETATM   39  C14 UNL     1     -11.951  46.932  25.745  1.00  0.00     0.170 C 
HETATM   40  O1  UNL     1      -9.860  48.404  26.481  1.00  0.00    -0.220 OA
HETATM   41  O2  UNL     1      -9.523  45.999  26.235  1.00  0.00    -0.220 OA
ENDBRANCH  16  38
BRANCH  14  42
HETATM   42  N7  UNL     1      -7.252  46.057  21.812  1.00  0.00    -0.385 N 
ATOM     43  H72 UNL     1      -6.550  45.709  22.464  1.00  0.00     0.157 HD
ATOM     44  H71 UNL     1      -7.256  45.884  20.807  1.00  0.00     0.157 HD
ENDBRANCH  14  42
ENDBRANCH   1   6
TORSDOF 12
ENDMDL
