MODEL 1
REMARK VINA RESULT: -6.089526102      0.000      0.000
REMARK  2 active torsions:
REMARK  status: ('A' for Active; 'I' for Inactive)
REMARK    1  A    between atoms: C2_2  and  C5_5 
REMARK    2  A    between atoms: N2_8  and  C6_9 
ROOT
HETATM    1  C5  UNL     1      72.959  49.288  10.046  1.00  0.00     0.106 A 
HETATM    2  N1  UNL     1      71.717  49.756  10.156  1.00  0.00    -0.283 N 
ATOM      3  H1  UNL     1      71.068  49.918   9.386  1.00  0.00     0.188 HD
HETATM    4  N2  UNL     1      71.467  49.978  11.460  1.00  0.00    -0.261 N 
HETATM    5  C11 UNL     1      72.558  49.641  12.126  1.00  0.00     0.194 A 
HETATM    6  S1  UNL     1      72.721  49.769  13.750  1.00  0.00    -0.039 SA
HETATM    7  N3  UNL     1      73.490  49.210  11.263  1.00  0.00    -0.320 N 
ATOM      8  H3  UNL     1      74.428  48.885  11.497  1.00  0.00     0.169 HD
ENDROOT
BRANCH   4   9
HETATM    9  C6  UNL     1      70.204  50.495  11.877  1.00  0.00     0.111 C 
HETATM   10  C7  UNL     1      70.230  52.009  11.844  1.00  0.00     0.027 C 
HETATM   11  C8  UNL     1      68.755  52.372  11.872  1.00  0.00     0.002 C 
HETATM   12  C9  UNL     1      67.985  51.072  11.704  1.00  0.00     0.002 C 
HETATM   13  C10 UNL     1      69.046  50.213  10.978  1.00  0.00     0.027 C 
ENDBRANCH   4   9
BRANCH   1  14
HETATM   14  C2  UNL     1      73.572  48.965   8.716  1.00  0.00     0.009 C 
HETATM   15  C1  UNL     1      74.752  48.038   8.893  1.00  0.00     0.023 C 
HETATM   16  C3  UNL     1      72.449  48.204   7.979  1.00  0.00     0.023 C 
HETATM   17  C4  UNL     1      73.904  50.176   7.906  1.00  0.00     0.023 C 
ENDBRANCH   1  14
TORSDOF 2
ENDMDL
MODEL 2
REMARK VINA RESULT: -6.017385661      2.190      3.430
REMARK  2 active torsions:
REMARK  status: ('A' for Active; 'I' for Inactive)
REMARK    1  A    between atoms: C2_2  and  C5_5 
REMARK    2  A    between atoms: N2_8  and  C6_9 
ROOT
HETATM    1  C5  UNL     1      70.965  49.907   8.747  1.00  0.00     0.106 A 
HETATM    2  N1  UNL     1      71.536  49.995   9.947  1.00  0.00    -0.283 N 
ATOM      3  H1  UNL     1      72.531  49.888  10.145  1.00  0.00     0.188 HD
HETATM    4  N2  UNL     1      70.573  50.249  10.852  1.00  0.00    -0.261 N 
HETATM    5  C11 UNL     1      69.430  50.314  10.192  1.00  0.00     0.194 A 
HETATM    6  S1  UNL     1      67.975  50.581  10.894  1.00  0.00    -0.039 SA
HETATM    7  N3  UNL     1      69.657  50.106   8.887  1.00  0.00    -0.320 N 
ATOM      8  H3  UNL     1      68.959  50.100   8.143  1.00  0.00     0.169 HD
ENDROOT
BRANCH   4   9
HETATM    9  C6  UNL     1      70.897  50.386  12.235  1.00  0.00     0.111 C 
HETATM   10  C7  UNL     1      72.317  49.921  12.479  1.00  0.00     0.027 C 
HETATM   11  C8  UNL     1      72.641  50.526  13.835  1.00  0.00     0.002 C 
HETATM   12  C9  UNL     1      71.491  51.459  14.179  1.00  0.00     0.002 C 
HETATM   13  C10 UNL     1      70.962  51.781  12.762  1.00  0.00     0.027 C 
ENDBRANCH   4   9
BRANCH   1  14
HETATM   14  C2  UNL     1      71.756  49.597   7.511  1.00  0.00     0.009 C 
HETATM   15  C1  UNL     1      70.942  49.905   6.275  1.00  0.00     0.023 C 
HETATM   16  C3  UNL     1      72.940  50.585   7.585  1.00  0.00     0.023 C 
HETATM   17  C4  UNL     1      72.322  48.214   7.500  1.00  0.00     0.023 C 
ENDBRANCH   1  14
TORSDOF 2
ENDMDL
MODEL 3
REMARK VINA RESULT: -6.010149439      2.204      3.305
REMARK  2 active torsions:
REMARK  status: ('A' for Active; 'I' for Inactive)
REMARK    1  A    between atoms: C2_2  and  C5_5 
REMARK    2  A    between atoms: N2_8  and  C6_9 
ROOT
HETATM    1  C5  UNL     1      70.953  50.065   8.795  1.00  0.00     0.106 A 
HETATM    2  N1  UNL     1      71.525  50.106   9.997  1.00  0.00    -0.283 N 
ATOM      3  H1  UNL     1      72.519  49.979  10.192  1.00  0.00     0.188 HD
HETATM    4  N2  UNL     1      70.566  50.345  10.911  1.00  0.00    -0.261 N 
HETATM    5  C11 UNL     1      69.424  50.447  10.253  1.00  0.00     0.194 A 
HETATM    6  S1  UNL     1      67.973  50.713  10.965  1.00  0.00    -0.039 SA
HETATM    7  N3  UNL     1      69.648  50.278   8.942  1.00  0.00    -0.320 N 
ATOM      8  H3  UNL     1      68.950  50.306   8.199  1.00  0.00     0.169 HD
ENDROOT
BRANCH   4   9
HETATM    9  C6  UNL     1      70.892  50.433  12.297  1.00  0.00     0.111 C 
HETATM   10  C7  UNL     1      72.306  49.942  12.525  1.00  0.00     0.027 C 
HETATM   11  C8  UNL     1      72.638  50.499  13.900  1.00  0.00     0.002 C 
HETATM   12  C9  UNL     1      71.500  51.435  14.275  1.00  0.00     0.002 C 
HETATM   13  C10 UNL     1      70.974  51.809  12.869  1.00  0.00     0.027 C 
ENDBRANCH   4   9
BRANCH   1  14
HETATM   14  C2  UNL     1      71.739  49.783   7.549  1.00  0.00     0.009 C 
HETATM   15  C1  UNL     1      73.017  50.588   7.541  1.00  0.00     0.023 C 
HETATM   16  C3  UNL     1      72.094  48.287   7.680  1.00  0.00     0.023 C 
HETATM   17  C4  UNL     1      70.942  49.950   6.296  1.00  0.00     0.023 C 
ENDBRANCH   1  14
TORSDOF 2
ENDMDL
MODEL 4
REMARK VINA RESULT: -5.987098873      2.205      3.189
REMARK  2 active torsions:
REMARK  status: ('A' for Active; 'I' for Inactive)
REMARK    1  A    between atoms: C2_2  and  C5_5 
REMARK    2  A    between atoms: N2_8  and  C6_9 
ROOT
HETATM    1  C5  UNL     1      70.996  49.910   8.787  1.00  0.00     0.106 A 
HETATM    2  N1  UNL     1      71.510  50.069  10.005  1.00  0.00    -0.283 N 
ATOM      3  H1  UNL     1      72.499  50.023  10.248  1.00  0.00     0.188 HD
HETATM    4  N2  UNL     1      70.496  50.301  10.860  1.00  0.00    -0.261 N 
HETATM    5  C11 UNL     1      69.381  50.282  10.152  1.00  0.00     0.194 A 
HETATM    6  S1  UNL     1      67.885  50.495  10.784  1.00  0.00    -0.039 SA
HETATM    7  N3  UNL     1      69.674  50.042   8.866  1.00  0.00    -0.320 N 
ATOM      8  H3  UNL     1      69.010  49.974   8.094  1.00  0.00     0.169 HD
ENDROOT
BRANCH   4   9
HETATM    9  C6  UNL     1      70.753  50.502  12.250  1.00  0.00     0.111 C 
HETATM   10  C7  UNL     1      72.159  50.049  12.584  1.00  0.00     0.027 C 
HETATM   11  C8  UNL     1      72.418  50.717  13.925  1.00  0.00     0.002 C 
HETATM   12  C9  UNL     1      71.254  51.665  14.169  1.00  0.00     0.002 C 
HETATM   13  C10 UNL     1      70.795  51.920  12.714  1.00  0.00     0.027 C 
ENDBRANCH   4   9
BRANCH   1  14
HETATM   14  C2  UNL     1      71.854  49.601   7.596  1.00  0.00     0.009 C 
HETATM   15  C1  UNL     1      72.154  48.122   7.534  1.00  0.00     0.023 C 
HETATM   16  C3  UNL     1      70.954  49.976   6.399  1.00  0.00     0.023 C 
HETATM   17  C4  UNL     1      73.084  50.445   7.517  1.00  0.00     0.023 C 
ENDBRANCH   1  14
TORSDOF 2
ENDMDL
MODEL 5
REMARK VINA RESULT: -5.983747159      3.625      4.690
REMARK  2 active torsions:
REMARK  status: ('A' for Active; 'I' for Inactive)
REMARK    1  A    between atoms: C2_2  and  C5_5 
REMARK    2  A    between atoms: N2_8  and  C6_9 
ROOT
HETATM    1  C5  UNL     1      68.513  50.485   8.709  1.00  0.00     0.106 A 
HETATM    2  N1  UNL     1      69.278  50.380   9.794  1.00  0.00    -0.283 N 
ATOM      3  H1  UNL     1      69.657  49.514  10.178  1.00  0.00     0.188 HD
HETATM    4  N2  UNL     1      69.463  51.615  10.297  1.00  0.00    -0.261 N 
HETATM    5  C11 UNL     1      68.812  52.454   9.511  1.00  0.00     0.194 A 
HETATM    6  S1  UNL     1      68.737  54.072   9.754  1.00  0.00    -0.039 SA
HETATM    7  N3  UNL     1      68.220  51.769   8.522  1.00  0.00    -0.320 N 
ATOM      8  H3  UNL     1      67.652  52.160   7.770  1.00  0.00     0.169 HD
ENDROOT
BRANCH   4   9
HETATM    9  C6  UNL     1      70.243  51.806  11.477  1.00  0.00     0.111 C 
HETATM   10  C7  UNL     1      69.332  52.052  12.662  1.00  0.00     0.027 C 
HETATM   11  C8  UNL     1      70.246  51.794  13.849  1.00  0.00     0.002 C 
HETATM   12  C9  UNL     1      71.535  51.218  13.286  1.00  0.00     0.002 C 
HETATM   13  C10 UNL     1      71.016  50.622  11.956  1.00  0.00     0.027 C 
ENDBRANCH   4   9
BRANCH   1  14
HETATM   14  C2  UNL     1      68.084  49.285   7.919  1.00  0.00     0.009 C 
HETATM   15  C1  UNL     1      69.010  49.070   6.745  1.00  0.00     0.023 C 
HETATM   16  C3  UNL     1      68.263  48.118   8.914  1.00  0.00     0.023 C 
HETATM   17  C4  UNL     1      66.644  49.321   7.520  1.00  0.00     0.023 C 
ENDBRANCH   1  14
TORSDOF 2
ENDMDL
