MODEL 1
REMARK VINA RESULT: -5.350082990      0.000      0.000
REMARK  3 active torsions:
REMARK  status: ('A' for Active; 'I' for Inactive)
REMARK    1  A    between atoms: C2_2  and  S1_4 
REMARK    2  A    between atoms: S1_4  and  C4_5 
REMARK    3  A    between atoms: N2_15  and  O1_16 
ROOT
HETATM    1  C4  UNL     1      69.174  52.116  12.370  1.00  0.00     0.164 C 
HETATM    2  N1  UNL     1      69.327  53.115  11.514  1.00  0.00    -0.361 N 
ATOM      3  H1  UNL     1      70.187  53.663  11.525  1.00  0.00     0.162 HD
HETATM    4  C5  UNL     1      68.303  53.428  10.582  1.00  0.00     0.027 C 
HETATM    5  C6  UNL     1      68.963  54.159   9.409  1.00  0.00     0.038 C 
HETATM    6  C7  UNL     1      67.283  54.427  11.149  1.00  0.00     0.038 C 
HETATM    7  C8  UNL     1      67.542  52.257  10.053  1.00  0.00     0.063 C 
HETATM    8  C9  UNL     1      67.356  51.142  11.011  1.00  0.00     0.057 C 
HETATM    9  C10 UNL     1      65.889  50.839  11.270  1.00  0.00     0.041 C 
HETATM   10  C11 UNL     1      67.943  49.878  10.399  1.00  0.00     0.041 C 
HETATM   11  N2  UNL     1      67.961  51.388  12.318  1.00  0.00    -0.229 N 
ENDROOT
BRANCH   1  12
HETATM   12  S1  UNL     1      70.445  51.739  13.519  1.00  0.00    -0.088 SA
BRANCH  12  13
HETATM   13  C2  UNL     1      71.886  50.910  12.920  1.00  0.00     0.047 C 
HETATM   14  C1  UNL     1      71.497  49.780  12.001  1.00  0.00     0.021 C 
HETATM   15  C3  UNL     1      72.617  50.326  14.143  1.00  0.00     0.021 C 
ENDBRANCH  12  13
ENDBRANCH   1  12
BRANCH  11  16
HETATM   16  O1  UNL     1      67.394  50.935  13.449  1.00  0.00    -0.285 OA
ATOM     17  H1  UNL     1      66.507  51.190  13.675  1.00  0.00     0.245 HD
ENDBRANCH  11  16
TORSDOF 3
ENDMDL
MODEL 2
REMARK VINA RESULT: -5.288902490      4.089      5.922
REMARK  3 active torsions:
REMARK  status: ('A' for Active; 'I' for Inactive)
REMARK    1  A    between atoms: C2_2  and  S1_4 
REMARK    2  A    between atoms: S1_4  and  C4_5 
REMARK    3  A    between atoms: N2_15  and  O1_16 
ROOT
HETATM    1  C4  UNL     1      72.018  49.092  10.772  1.00  0.00     0.164 C 
HETATM    2  N1  UNL     1      70.914  48.458  10.407  1.00  0.00    -0.361 N 
ATOM      3  H1  UNL     1      70.096  48.475  11.015  1.00  0.00     0.162 HD
HETATM    4  C5  UNL     1      70.862  47.755   9.174  1.00  0.00     0.027 C 
HETATM    5  C6  UNL     1      69.389  47.660   8.766  1.00  0.00     0.038 C 
HETATM    6  C7  UNL     1      71.330  46.299   9.312  1.00  0.00     0.038 C 
HETATM    7  C8  UNL     1      71.634  48.373   8.055  1.00  0.00     0.063 C 
HETATM    8  C9  UNL     1      72.877  49.073   8.456  1.00  0.00     0.057 C 
HETATM    9  C10 UNL     1      74.111  48.486   7.792  1.00  0.00     0.041 C 
HETATM   10  C11 UNL     1      72.791  50.516   7.982  1.00  0.00     0.041 C 
HETATM   11  N2  UNL     1      73.127  49.036   9.895  1.00  0.00    -0.229 N 
ENDROOT
BRANCH   1  12
HETATM   12  S1  UNL     1      72.072  49.956  12.298  1.00  0.00    -0.088 SA
BRANCH  12  13
HETATM   13  C2  UNL     1      70.681  50.954  12.737  1.00  0.00     0.047 C 
HETATM   14  C1  UNL     1      70.287  51.839  11.583  1.00  0.00     0.021 C 
HETATM   15  C3  UNL     1      71.113  51.841  13.919  1.00  0.00     0.021 C 
ENDBRANCH  12  13
ENDBRANCH   1  12
BRANCH  11  16
HETATM   16  O1  UNL     1      74.376  48.957  10.386  1.00  0.00    -0.285 OA
ATOM     17  H1  UNL     1      74.929  48.215  10.172  1.00  0.00     0.245 HD
ENDBRANCH  11  16
TORSDOF 3
ENDMDL
MODEL 3
REMARK VINA RESULT: -5.268374343      4.026      5.450
REMARK  3 active torsions:
REMARK  status: ('A' for Active; 'I' for Inactive)
REMARK    1  A    between atoms: C2_2  and  S1_4 
REMARK    2  A    between atoms: S1_4  and  C4_5 
REMARK    3  A    between atoms: N2_15  and  O1_16 
ROOT
HETATM    1  C4  UNL     1      71.518  49.708   9.791  1.00  0.00     0.164 C 
HETATM    2  N1  UNL     1      72.794  49.437   9.566  1.00  0.00    -0.361 N 
ATOM      3  H1  UNL     1      73.425  49.281  10.352  1.00  0.00     0.162 HD
HETATM    4  C5  UNL     1      73.292  49.361   8.238  1.00  0.00     0.027 C 
HETATM    5  C6  UNL     1      74.549  48.489   8.272  1.00  0.00     0.038 C 
HETATM    6  C7  UNL     1      73.768  50.724   7.714  1.00  0.00     0.038 C 
HETATM    7  C8  UNL     1      72.341  48.798   7.232  1.00  0.00     0.063 C 
HETATM    8  C9  UNL     1      70.913  49.108   7.471  1.00  0.00     0.057 C 
HETATM    9  C10 UNL     1      70.283  49.866   6.315  1.00  0.00     0.041 C 
HETATM   10  C11 UNL     1      70.146  47.798   7.581  1.00  0.00     0.041 C 
HETATM   11  N2  UNL     1      70.684  49.918   8.666  1.00  0.00    -0.229 N 
ENDROOT
BRANCH   1  12
HETATM   12  S1  UNL     1      70.914  49.801  11.436  1.00  0.00    -0.088 SA
BRANCH  12  13
HETATM   13  C2  UNL     1      70.536  51.398  12.091  1.00  0.00     0.047 C 
HETATM   14  C1  UNL     1      71.210  51.589  13.426  1.00  0.00     0.021 C 
HETATM   15  C3  UNL     1      69.010  51.456  12.293  1.00  0.00     0.021 C 
ENDBRANCH  12  13
ENDBRANCH   1  12
BRANCH  11  16
HETATM   16  O1  UNL     1      69.706  50.840   8.711  1.00  0.00    -0.285 OA
ATOM     17  H1  UNL     1      69.065  50.824   9.412  1.00  0.00     0.245 HD
ENDBRANCH  11  16
TORSDOF 3
ENDMDL
MODEL 4
REMARK VINA RESULT: -5.243874829      3.814      4.824
REMARK  3 active torsions:
REMARK  status: ('A' for Active; 'I' for Inactive)
REMARK    1  A    between atoms: C2_2  and  S1_4 
REMARK    2  A    between atoms: S1_4  and  C4_5 
REMARK    3  A    between atoms: N2_15  and  O1_16 
ROOT
HETATM    1  C4  UNL     1      69.740  50.726   8.623  1.00  0.00     0.164 C 
HETATM    2  N1  UNL     1      70.858  50.355   8.018  1.00  0.00    -0.361 N 
ATOM      3  H1  UNL     1      71.748  50.760   8.308  1.00  0.00     0.162 HD
HETATM    4  C5  UNL     1      70.827  49.398   6.969  1.00  0.00     0.027 C 
HETATM    5  C6  UNL     1      72.216  48.758   6.896  1.00  0.00     0.038 C 
HETATM    6  C7  UNL     1      70.617  50.047   5.593  1.00  0.00     0.038 C 
HETATM    7  C8  UNL     1      69.806  48.319   7.121  1.00  0.00     0.063 C 
HETATM    8  C9  UNL     1      68.547  48.730   7.785  1.00  0.00     0.057 C 
HETATM    9  C10 UNL     1      67.330  48.522   6.900  1.00  0.00     0.041 C 
HETATM   10  C11 UNL     1      68.335  47.846   9.005  1.00  0.00     0.041 C 
HETATM   11  N2  UNL     1      68.530  50.137   8.182  1.00  0.00    -0.229 N 
ENDROOT
BRANCH   1  12
HETATM   12  S1  UNL     1      69.789  51.910   9.916  1.00  0.00    -0.088 SA
BRANCH  12  13
HETATM   13  C2  UNL     1      69.984  51.323  11.572  1.00  0.00     0.047 C 
HETATM   14  C1  UNL     1      70.702  49.999  11.577  1.00  0.00     0.021 C 
HETATM   15  C3  UNL     1      68.571  51.125  12.152  1.00  0.00     0.021 C 
ENDBRANCH  12  13
ENDBRANCH   1  12
BRANCH  11  16
HETATM   16  O1  UNL     1      67.399  50.863   8.140  1.00  0.00    -0.285 OA
ATOM     17  H1  UNL     1      66.566  50.463   8.359  1.00  0.00     0.245 HD
ENDBRANCH  11  16
TORSDOF 3
ENDMDL
MODEL 5
REMARK VINA RESULT: -5.242419532      4.975      6.955
REMARK  3 active torsions:
REMARK  status: ('A' for Active; 'I' for Inactive)
REMARK    1  A    between atoms: C2_2  and  S1_4 
REMARK    2  A    between atoms: S1_4  and  C4_5 
REMARK    3  A    between atoms: N2_15  and  O1_16 
ROOT
HETATM    1  C4  UNL     1      72.855  47.925  10.390  1.00  0.00     0.164 C 
HETATM    2  N1  UNL     1      71.906  47.248   9.763  1.00  0.00    -0.361 N 
ATOM      3  H1  UNL     1      71.080  46.941  10.276  1.00  0.00     0.162 HD
HETATM    4  C5  UNL     1      72.030  46.946   8.381  1.00  0.00     0.027 C 
HETATM    5  C6  UNL     1      70.617  46.724   7.835  1.00  0.00     0.038 C 
HETATM    6  C7  UNL     1      72.763  45.618   8.137  1.00  0.00     0.038 C 
HETATM    7  C8  UNL     1      72.705  47.993   7.558  1.00  0.00     0.063 C 
HETATM    8  C9  UNL     1      73.778  48.745   8.250  1.00  0.00     0.057 C 
HETATM    9  C10 UNL     1      75.123  48.606   7.557  1.00  0.00     0.041 C 
HETATM   10  C11 UNL     1      73.434  50.227   8.205  1.00  0.00     0.041 C 
HETATM   11  N2  UNL     1      73.983  48.326   9.635  1.00  0.00    -0.229 N 
ENDROOT
BRANCH   1  12
HETATM   12  S1  UNL     1      72.693  48.291  12.099  1.00  0.00    -0.088 SA
BRANCH  12  13
HETATM   13  C2  UNL     1      72.569  49.988  12.575  1.00  0.00     0.047 C 
HETATM   14  C1  UNL     1      72.774  50.131  14.062  1.00  0.00     0.021 C 
HETATM   15  C3  UNL     1      71.144  50.455  12.224  1.00  0.00     0.021 C 
ENDBRANCH  12  13
ENDBRANCH   1  12
BRANCH  11  16
HETATM   16  O1  UNL     1      75.208  48.321  10.190  1.00  0.00    -0.285 OA
ATOM     17  H1  UNL     1      75.863  47.698   9.899  1.00  0.00     0.245 HD
ENDBRANCH  11  16
TORSDOF 3
ENDMDL
