MODEL 1
REMARK VINA RESULT: -7.426713541      0.000      0.000
REMARK  2 active torsions:
REMARK  status: ('A' for Active; 'I' for Inactive)
REMARK    1  A    between atoms: C5_5  and  C6_6 
REMARK    2  A    between atoms: N1_7  and  O1_9 
ROOT
HETATM    1  C1  UNL     1      70.269  51.753  13.672  1.00  0.00     0.043 C 
HETATM    2  C2  UNL     1      69.529  51.516  12.402  1.00  0.00    -0.083 C 
HETATM    3  C3  UNL     1      68.260  51.136  12.393  1.00  0.00    -0.023 C 
HETATM    4  C4  UNL     1      67.462  50.884  11.181  1.00  0.00     0.043 C 
HETATM    5  C5  UNL     1      68.267  50.894   9.917  1.00  0.00     0.005 C 
HETATM    6  C7  UNL     1      68.061  52.271   9.269  1.00  0.00     0.035 C 
HETATM    7  C8  UNL     1      68.535  53.324  10.215  1.00  0.00     0.094 C 
HETATM    8  C9  UNL     1      68.479  54.615   9.495  1.00  0.00     0.064 C 
HETATM    9  N2  UNL     1      68.456  55.626   8.930  1.00  0.00    -0.197 NA
HETATM   10  C10 UNL     1      69.964  53.108  10.643  1.00  0.00     0.029 C 
HETATM   11  C11 UNL     1      70.224  51.709  11.117  1.00  0.00     0.024 C 
HETATM   12  C12 UNL     1      69.742  50.682  10.149  1.00  0.00    -0.028 C 
HETATM   13  C13 UNL     1      70.472  50.861   8.843  1.00  0.00     0.016 C 
HETATM   14  C14 UNL     1      69.972  49.297  10.640  1.00  0.00     0.016 C 
ENDROOT
BRANCH   5  15
HETATM   15  C6  UNL     1      67.695  49.899   8.997  1.00  0.00     0.097 C 
HETATM   16  N1  UNL     1      67.191  50.287   7.892  1.00  0.00    -0.283 N 
ATOM     17  H1  UNL     1      67.207  51.287   7.692  1.00  0.00     0.192 HD
BRANCH  16  18
HETATM   18  O1  UNL     1      66.633  49.467   6.957  1.00  0.00    -0.291 OA
ATOM     19  H1  UNL     1      66.300  49.750   6.114  1.00  0.00     0.244 HD
ENDBRANCH  16  18
ENDBRANCH   5  15
TORSDOF 2
ENDMDL
MODEL 2
REMARK VINA RESULT: -7.063288035      1.980      4.171
REMARK  2 active torsions:
REMARK  status: ('A' for Active; 'I' for Inactive)
REMARK    1  A    between atoms: C5_5  and  C6_6 
REMARK    2  A    between atoms: N1_7  and  O1_9 
ROOT
HETATM    1  C1  UNL     1      71.768  47.944  10.539  1.00  0.00     0.043 C 
HETATM    2  C2  UNL     1      71.000  49.177  10.210  1.00  0.00    -0.083 C 
HETATM    3  C3  UNL     1      71.509  50.136   9.451  1.00  0.00    -0.023 C 
HETATM    4  C4  UNL     1      70.813  51.380   9.082  1.00  0.00     0.043 C 
HETATM    5  C5  UNL     1      69.519  51.586   9.810  1.00  0.00     0.005 C 
HETATM    6  C7  UNL     1      68.397  51.157   8.854  1.00  0.00     0.035 C 
HETATM    7  C8  UNL     1      68.589  49.721   8.498  1.00  0.00     0.094 C 
HETATM    8  C9  UNL     1      67.403  49.301   7.719  1.00  0.00     0.064 C 
HETATM    9  N2  UNL     1      66.469  48.962   7.124  1.00  0.00    -0.197 NA
HETATM   10  C10 UNL     1      68.664  48.834   9.715  1.00  0.00     0.029 C 
HETATM   11  C11 UNL     1      69.635  49.338  10.742  1.00  0.00     0.024 C 
HETATM   12  C12 UNL     1      69.414  50.774  11.078  1.00  0.00    -0.028 C 
HETATM   13  C13 UNL     1      68.028  50.935  11.646  1.00  0.00     0.016 C 
HETATM   14  C14 UNL     1      70.401  51.276  12.070  1.00  0.00     0.016 C 
ENDROOT
BRANCH   5  15
HETATM   15  C6  UNL     1      69.348  53.026  10.051  1.00  0.00     0.097 C 
HETATM   16  N1  UNL     1      68.587  53.703   9.285  1.00  0.00    -0.283 N 
ATOM     17  H1  UNL     1      68.123  53.206   8.524  1.00  0.00     0.192 HD
BRANCH  16  18
HETATM   18  O1  UNL     1      68.346  55.038   9.403  1.00  0.00    -0.291 OA
ATOM     19  H1  UNL     1      68.778  55.717   8.897  1.00  0.00     0.244 HD
ENDBRANCH  16  18
ENDBRANCH   5  15
TORSDOF 2
ENDMDL
MODEL 3
REMARK VINA RESULT: -6.844294545      1.845      2.970
REMARK  2 active torsions:
REMARK  status: ('A' for Active; 'I' for Inactive)
REMARK    1  A    between atoms: C5_5  and  C6_6 
REMARK    2  A    between atoms: N1_7  and  O1_9 
ROOT
HETATM    1  C1  UNL     1      72.582  49.495  11.934  1.00  0.00     0.043 C 
HETATM    2  C2  UNL     1      71.322  49.660  11.158  1.00  0.00    -0.083 C 
HETATM    3  C3  UNL     1      70.674  48.622  10.649  1.00  0.00    -0.023 C 
HETATM    4  C4  UNL     1      69.426  48.705   9.873  1.00  0.00     0.043 C 
HETATM    5  C5  UNL     1      69.028  50.105   9.517  1.00  0.00     0.005 C 
HETATM    6  C7  UNL     1      67.950  50.532  10.523  1.00  0.00     0.035 C 
HETATM    7  C8  UNL     1      68.524  50.471  11.899  1.00  0.00     0.094 C 
HETATM    8  C9  UNL     1      67.517  51.047  12.819  1.00  0.00     0.064 C 
HETATM    9  N2  UNL     1      66.741  51.515  13.540  1.00  0.00    -0.197 NA
HETATM   10  C10 UNL     1      69.778  51.294  12.034  1.00  0.00     0.029 C 
HETATM   11  C11 UNL     1      70.777  51.013  10.950  1.00  0.00     0.024 C 
HETATM   12  C12 UNL     1      70.173  51.085   9.588  1.00  0.00    -0.028 C 
HETATM   13  C13 UNL     1      69.640  52.476   9.364  1.00  0.00     0.016 C 
HETATM   14  C14 UNL     1      71.159  50.771   8.520  1.00  0.00     0.016 C 
ENDROOT
BRANCH   5  15
HETATM   15  C6  UNL     1      68.391  50.083   8.192  1.00  0.00     0.097 C 
HETATM   16  N1  UNL     1      67.124  49.971   8.109  1.00  0.00    -0.283 N 
ATOM     17  H1  UNL     1      66.599  49.900   8.981  1.00  0.00     0.192 HD
BRANCH  16  18
HETATM   18  O1  UNL     1      66.416  49.938   6.945  1.00  0.00    -0.291 OA
ATOM     19  H1  UNL     1      65.802  49.257   6.700  1.00  0.00     0.244 HD
ENDBRANCH  16  18
ENDBRANCH   5  15
TORSDOF 2
ENDMDL
MODEL 4
REMARK VINA RESULT: -6.742409750      2.301      3.530
REMARK  2 active torsions:
REMARK  status: ('A' for Active; 'I' for Inactive)
REMARK    1  A    between atoms: C5_5  and  C6_6 
REMARK    2  A    between atoms: N1_7  and  O1_9 
ROOT
HETATM    1  C1  UNL     1      70.546  51.681  12.389  1.00  0.00     0.043 C 
HETATM    2  C2  UNL     1      70.146  51.204  11.036  1.00  0.00    -0.083 C 
HETATM    3  C3  UNL     1      69.533  51.997  10.169  1.00  0.00    -0.023 C 
HETATM    4  C4  UNL     1      69.107  51.600   8.817  1.00  0.00     0.043 C 
HETATM    5  C5  UNL     1      69.242  50.132   8.549  1.00  0.00     0.005 C 
HETATM    6  C7  UNL     1      70.541  49.942   7.752  1.00  0.00     0.035 C 
HETATM    7  C8  UNL     1      71.684  50.445   8.567  1.00  0.00     0.094 C 
HETATM    8  C9  UNL     1      72.926  50.092   7.844  1.00  0.00     0.064 C 
HETATM    9  N2  UNL     1      73.902  49.802   7.291  1.00  0.00    -0.197 NA
HETATM   10  C10 UNL     1      71.753  49.791   9.923  1.00  0.00     0.029 C 
HETATM   11  C11 UNL     1      70.438  49.814  10.646  1.00  0.00     0.024 C 
HETATM   12  C12 UNL     1      69.318  49.302   9.806  1.00  0.00    -0.028 C 
HETATM   13  C13 UNL     1      69.604  47.872   9.430  1.00  0.00     0.016 C 
HETATM   14  C14 UNL     1      68.013  49.359  10.516  1.00  0.00     0.016 C 
ENDROOT
BRANCH   5  15
HETATM   15  C6  UNL     1      68.137  49.719   7.670  1.00  0.00     0.097 C 
HETATM   16  N1  UNL     1      68.394  49.057   6.612  1.00  0.00    -0.283 N 
ATOM     17  H1  UNL     1      69.372  48.840   6.418  1.00  0.00     0.192 HD
BRANCH  16  18
HETATM   18  O1  UNL     1      67.463  48.617   5.719  1.00  0.00    -0.291 OA
ATOM     19  H1  UNL     1      66.604  48.281   5.948  1.00  0.00     0.244 HD
ENDBRANCH  16  18
ENDBRANCH   5  15
TORSDOF 2
ENDMDL
MODEL 5
REMARK VINA RESULT: -6.736531180      2.225      3.746
REMARK  2 active torsions:
REMARK  status: ('A' for Active; 'I' for Inactive)
REMARK    1  A    between atoms: C5_5  and  C6_6 
REMARK    2  A    between atoms: N1_7  and  O1_9 
ROOT
HETATM    1  C1  UNL     1      71.543  49.918  12.567  1.00  0.00     0.043 C 
HETATM    2  C2  UNL     1      70.533  50.679  11.779  1.00  0.00    -0.083 C 
HETATM    3  C3  UNL     1      70.661  51.977  11.547  1.00  0.00    -0.023 C 
HETATM    4  C4  UNL     1      69.708  52.795  10.779  1.00  0.00     0.043 C 
HETATM    5  C5  UNL     1      68.438  52.077  10.433  1.00  0.00     0.005 C 
HETATM    6  C7  UNL     1      68.576  51.606   8.978  1.00  0.00     0.035 C 
HETATM    7  C8  UNL     1      69.752  50.694   8.876  1.00  0.00     0.094 C 
HETATM    8  C9  UNL     1      69.751  50.131   7.507  1.00  0.00     0.064 C 
HETATM    9  N2  UNL     1      69.744  49.672   6.444  1.00  0.00    -0.197 NA
HETATM   10  C10 UNL     1      69.666  49.538   9.838  1.00  0.00     0.029 C 
HETATM   11  C11 UNL     1      69.358  49.971  11.241  1.00  0.00     0.024 C 
HETATM   12  C12 UNL     1      68.176  50.878  11.310  1.00  0.00    -0.028 C 
HETATM   13  C13 UNL     1      66.968  50.146  10.785  1.00  0.00     0.016 C 
HETATM   14  C14 UNL     1      67.896  51.331  12.697  1.00  0.00     0.016 C 
ENDROOT
BRANCH   5  15
HETATM   15  C6  UNL     1      67.334  53.048  10.465  1.00  0.00     0.097 C 
HETATM   16  N1  UNL     1      67.597  54.293  10.524  1.00  0.00    -0.283 N 
ATOM     17  H1  UNL     1      68.580  54.567  10.548  1.00  0.00     0.192 HD
BRANCH  16  18
HETATM   18  O1  UNL     1      66.668  55.289  10.559  1.00  0.00    -0.291 OA
ATOM     19  H1  UNL     1      66.676  56.022  11.163  1.00  0.00     0.244 HD
ENDBRANCH  16  18
ENDBRANCH   5  15
TORSDOF 2
ENDMDL
