MODEL 1
REMARK VINA RESULT: -6.741867600      0.000      0.000
REMARK  5 active torsions:
REMARK  status: ('A' for Active; 'I' for Inactive)
REMARK    1  A    between atoms: N2_3  and  O1_4 
REMARK    2  A    between atoms: C2_6  and  C3_7 
REMARK    3  A    between atoms: C3_7  and  O2_8 
REMARK    4  A    between atoms: C5_13  and  C6_14 
REMARK    5  A    between atoms: C6_14  and  N3_15 
ROOT
HETATM    1  N1  UNL     1     -23.797  -0.957 -19.594  1.00  0.00    -0.170 NA
HETATM    2  C1  UNL     1     -24.005   0.166 -19.779  1.00  0.00     0.210 C 
HETATM    3  N2  UNL     1     -24.255   1.543 -19.994  1.00  0.00    -0.165 N 
HETATM    4  C2  UNL     1     -23.539   2.409 -19.402  1.00  0.00     0.209 C 
ENDROOT
BRANCH   3   5
HETATM    5  O1  UNL     1     -25.268   1.950 -20.840  1.00  0.00    -0.274 OA
ATOM      6  H1  UNL     1     -25.942   2.546 -20.535  1.00  0.00     0.246 HD
ENDBRANCH   3   5
BRANCH   4   7
HETATM    7  C3  UNL     1     -22.452   1.990 -18.494  1.00  0.00     0.322 A 
HETATM    8  O3  UNL     1     -21.859   3.073 -17.889  1.00  0.00    -0.305 OA
HETATM    9  C4  UNL     1     -20.570   3.189 -18.324  1.00  0.00     0.254 A 
HETATM   10 CL1  UNL     1     -19.489   3.377 -16.960  1.00  0.00    -0.092 Cl
HETATM   11  C5  UNL     1     -20.317   1.993 -19.165  1.00  0.00     0.191 A 
HETATM   12  O4  UNL     1     -21.513   1.312 -19.227  1.00  0.00    -0.317 OA
BRANCH   7  13
HETATM   13  O2  UNL     1     -22.931   1.098 -17.513  1.00  0.00    -0.339 OA
ATOM     14  H2  UNL     1     -23.842   1.277 -17.308  1.00  0.00     0.216 HD
ENDBRANCH   7  13
BRANCH  11  15
HETATM   15  C6  UNL     1     -19.267   1.066 -18.642  1.00  0.00     0.174 C 
BRANCH  15  16
HETATM   16  N3  UNL     1     -18.356   0.626 -19.647  1.00  0.00    -0.340 N 
HETATM   17  N4  UNL     1     -18.449  -0.451 -20.261  1.00  0.00    -0.349 N 
ATOM     18  H42 UNL     1     -19.238  -1.049 -20.016  1.00  0.00     0.176 HD
ATOM     19  H41 UNL     1     -17.797  -0.766 -20.979  1.00  0.00     0.176 HD
ATOM     20  H3  UNL     1     -17.572   1.238 -19.878  1.00  0.00     0.179 HD
ENDBRANCH  15  16
ENDBRANCH  11  15
ENDBRANCH   4   7
TORSDOF 5
ENDMDL
MODEL 2
REMARK VINA RESULT: -6.729189304      3.813      5.539
REMARK  5 active torsions:
REMARK  status: ('A' for Active; 'I' for Inactive)
REMARK    1  A    between atoms: N2_3  and  O1_4 
REMARK    2  A    between atoms: C2_6  and  C3_7 
REMARK    3  A    between atoms: C3_7  and  O2_8 
REMARK    4  A    between atoms: C5_13  and  C6_14 
REMARK    5  A    between atoms: C6_14  and  N3_15 
ROOT
HETATM    1  N1  UNL     1     -20.905  -4.685 -21.457  1.00  0.00    -0.170 NA
HETATM    2  C1  UNL     1     -20.060  -4.462 -20.698  1.00  0.00     0.210 C 
HETATM    3  N2  UNL     1     -19.027  -4.179 -19.773  1.00  0.00    -0.165 N 
HETATM    4  C2  UNL     1     -18.827  -2.980 -19.405  1.00  0.00     0.209 C 
ENDROOT
BRANCH   3   5
HETATM    5  O1  UNL     1     -18.237  -5.194 -19.269  1.00  0.00    -0.274 OA
ATOM      6  H1  UNL     1     -17.388  -5.002 -18.888  1.00  0.00     0.246 HD
ENDBRANCH   3   5
BRANCH   4   7
HETATM    7  C3  UNL     1     -19.663  -1.884 -19.935  1.00  0.00     0.322 A 
HETATM    8  O3  UNL     1     -19.042  -0.665 -19.792  1.00  0.00    -0.305 OA
HETATM    9  C4  UNL     1     -19.743   0.102 -18.906  1.00  0.00     0.254 A 
HETATM   10 CL1  UNL     1     -20.020   1.695 -19.578  1.00  0.00    -0.092 Cl
HETATM   11  C5  UNL     1     -20.969  -0.667 -18.585  1.00  0.00     0.191 A 
HETATM   12  O4  UNL     1     -20.848  -1.870 -19.245  1.00  0.00    -0.317 OA
BRANCH   7  13
HETATM   13  O2  UNL     1     -19.979  -2.102 -21.291  1.00  0.00    -0.339 OA
ATOM     14  H2  UNL     1     -19.223  -1.947 -21.845  1.00  0.00     0.216 HD
ENDBRANCH   7  13
BRANCH  11  15
HETATM   15  C6  UNL     1     -22.248  -0.018 -19.007  1.00  0.00     0.174 C 
BRANCH  15  16
HETATM   16  N3  UNL     1     -23.203  -0.942 -19.523  1.00  0.00    -0.340 N 
HETATM   17  N4  UNL     1     -23.201  -1.384 -20.685  1.00  0.00    -0.349 N 
ATOM     18  H42 UNL     1     -22.457  -1.052 -21.299  1.00  0.00     0.176 HD
ATOM     19  H41 UNL     1     -23.884  -2.045 -21.055  1.00  0.00     0.176 HD
ATOM     20  H3  UNL     1     -23.940  -1.264 -18.895  1.00  0.00     0.179 HD
ENDBRANCH  15  16
ENDBRANCH  11  15
ENDBRANCH   4   7
TORSDOF 5
ENDMDL
MODEL 3
REMARK VINA RESULT: -6.458422543      3.869      5.529
REMARK  5 active torsions:
REMARK  status: ('A' for Active; 'I' for Inactive)
REMARK    1  A    between atoms: N2_3  and  O1_4 
REMARK    2  A    between atoms: C2_6  and  C3_7 
REMARK    3  A    between atoms: C3_7  and  O2_8 
REMARK    4  A    between atoms: C5_13  and  C6_14 
REMARK    5  A    between atoms: C6_14  and  N3_15 
ROOT
HETATM    1  N1  UNL     1     -21.009  -4.601 -21.447  1.00  0.00    -0.170 NA
HETATM    2  C1  UNL     1     -20.133  -4.391 -20.720  1.00  0.00     0.210 C 
HETATM    3  N2  UNL     1     -19.061  -4.123 -19.835  1.00  0.00    -0.165 N 
HETATM    4  C2  UNL     1     -18.853  -2.932 -19.447  1.00  0.00     0.209 C 
ENDROOT
BRANCH   3   5
HETATM    5  O1  UNL     1     -18.243  -5.144 -19.393  1.00  0.00    -0.274 OA
ATOM      6  H1  UNL     1     -17.904  -5.142 -18.505  1.00  0.00     0.246 HD
ENDBRANCH   3   5
BRANCH   4   7
HETATM    7  C3  UNL     1     -19.720  -1.829 -19.912  1.00  0.00     0.322 A 
HETATM    8  O3  UNL     1     -19.088  -0.613 -19.796  1.00  0.00    -0.305 OA
HETATM    9  C4  UNL     1     -19.731   0.146 -18.859  1.00  0.00     0.254 A 
HETATM   10 CL1  UNL     1     -20.048   1.746 -19.497  1.00  0.00    -0.092 Cl
HETATM   11  C5  UNL     1     -20.936  -0.625 -18.470  1.00  0.00     0.191 A 
HETATM   12  O4  UNL     1     -20.858  -1.822 -19.148  1.00  0.00    -0.317 OA
BRANCH   7  13
HETATM   13  O2  UNL     1     -20.121  -2.033 -21.248  1.00  0.00    -0.339 OA
ATOM     14  H2  UNL     1     -21.013  -1.737 -21.383  1.00  0.00     0.216 HD
ENDBRANCH   7  13
BRANCH  11  15
HETATM   15  C6  UNL     1     -22.238   0.029 -18.804  1.00  0.00     0.174 C 
BRANCH  15  16
HETATM   16  N3  UNL     1     -22.836   0.692 -17.692  1.00  0.00    -0.340 N 
HETATM   17  N4  UNL     1     -23.091   1.908 -17.650  1.00  0.00    -0.349 N 
ATOM     18  H42 UNL     1     -22.850   2.455 -18.477  1.00  0.00     0.176 HD
ATOM     19  H41 UNL     1     -23.519   2.382 -16.854  1.00  0.00     0.176 HD
ATOM     20  H3  UNL     1     -23.070   0.129 -16.874  1.00  0.00     0.179 HD
ENDBRANCH  15  16
ENDBRANCH  11  15
ENDBRANCH   4   7
TORSDOF 5
ENDMDL
MODEL 4
REMARK VINA RESULT: -6.332291381      0.870      1.131
REMARK  5 active torsions:
REMARK  status: ('A' for Active; 'I' for Inactive)
REMARK    1  A    between atoms: N2_3  and  O1_4 
REMARK    2  A    between atoms: C2_6  and  C3_7 
REMARK    3  A    between atoms: C3_7  and  O2_8 
REMARK    4  A    between atoms: C5_13  and  C6_14 
REMARK    5  A    between atoms: C6_14  and  N3_15 
ROOT
HETATM    1  N1  UNL     1     -23.380  -1.210 -19.749  1.00  0.00    -0.170 NA
HETATM    2  C1  UNL     1     -23.743  -0.116 -19.847  1.00  0.00     0.210 C 
HETATM    3  N2  UNL     1     -24.182   1.226 -19.955  1.00  0.00    -0.165 N 
HETATM    4  C2  UNL     1     -23.583   2.136 -19.303  1.00  0.00     0.209 C 
ENDROOT
BRANCH   3   5
HETATM    5  O1  UNL     1     -25.253   1.551 -20.764  1.00  0.00    -0.274 OA
ATOM      6  H1  UNL     1     -25.425   2.455 -21.000  1.00  0.00     0.246 HD
ENDBRANCH   3   5
BRANCH   4   7
HETATM    7  C3  UNL     1     -22.436   1.804 -18.433  1.00  0.00     0.322 A 
HETATM    8  O3  UNL     1     -22.052   2.885 -17.675  1.00  0.00    -0.305 OA
HETATM    9  C4  UNL     1     -20.807   3.292 -18.061  1.00  0.00     0.254 A 
HETATM   10 CL1  UNL     1     -19.777   3.489 -16.658  1.00  0.00    -0.092 Cl
HETATM   11  C5  UNL     1     -20.339   2.289 -19.047  1.00  0.00     0.191 A 
HETATM   12  O4  UNL     1     -21.389   1.415 -19.228  1.00  0.00    -0.317 OA
BRANCH   7  13
HETATM   13  O2  UNL     1     -22.741   0.714 -17.592  1.00  0.00    -0.339 OA
ATOM     14  H2  UNL     1     -23.024  -0.037 -18.099  1.00  0.00     0.216 HD
ENDBRANCH   7  13
BRANCH  11  15
HETATM   15  C6  UNL     1     -19.135   1.508 -18.629  1.00  0.00     0.174 C 
BRANCH  15  16
HETATM   16  N3  UNL     1     -17.925   1.983 -19.216  1.00  0.00    -0.340 N 
HETATM   17  N4  UNL     1     -17.308   2.994 -18.840  1.00  0.00    -0.349 N 
ATOM     18  H42 UNL     1     -17.709   3.508 -18.055  1.00  0.00     0.176 HD
ATOM     19  H41 UNL     1     -16.443   3.334 -19.259  1.00  0.00     0.176 HD
ATOM     20  H3  UNL     1     -17.539   1.456 -19.999  1.00  0.00     0.179 HD
ENDBRANCH  15  16
ENDBRANCH  11  15
ENDBRANCH   4   7
TORSDOF 5
ENDMDL
MODEL 5
REMARK VINA RESULT: -6.184258959      2.355      4.633
REMARK  5 active torsions:
REMARK  status: ('A' for Active; 'I' for Inactive)
REMARK    1  A    between atoms: N2_3  and  O1_4 
REMARK    2  A    between atoms: C2_6  and  C3_7 
REMARK    3  A    between atoms: C3_7  and  O2_8 
REMARK    4  A    between atoms: C5_13  and  C6_14 
REMARK    5  A    between atoms: C6_14  and  N3_15 
ROOT
HETATM    1  N1  UNL     1     -18.660   2.521 -19.898  1.00  0.00    -0.170 NA
HETATM    2  C1  UNL     1     -19.194   2.585 -18.873  1.00  0.00     0.210 C 
HETATM    3  N2  UNL     1     -19.859   2.663 -17.625  1.00  0.00    -0.165 N 
HETATM    4  C2  UNL     1     -21.020   2.163 -17.502  1.00  0.00     0.209 C 
ENDROOT
BRANCH   3   5
HETATM    5  O1  UNL     1     -19.256   3.276 -16.545  1.00  0.00    -0.274 OA
ATOM      6  H1  UNL     1     -19.098   2.794 -15.741  1.00  0.00     0.246 HD
ENDBRANCH   3   5
BRANCH   4   7
HETATM    7  C3  UNL     1     -21.678   1.504 -18.649  1.00  0.00     0.322 A 
HETATM    8  O3  UNL     1     -22.263   2.425 -19.487  1.00  0.00    -0.305 OA
HETATM    9  C4  UNL     1     -23.620   2.271 -19.456  1.00  0.00     0.254 A 
HETATM   10 CL1  UNL     1     -24.254   2.200 -21.087  1.00  0.00    -0.092 Cl
HETATM   11  C5  UNL     1     -23.873   1.066 -18.630  1.00  0.00     0.191 A 
HETATM   12  O4  UNL     1     -22.641   0.656 -18.167  1.00  0.00    -0.317 OA
BRANCH   7  13
HETATM   13  O2  UNL     1     -20.759   0.716 -19.372  1.00  0.00    -0.339 OA
ATOM     14  H2  UNL     1     -21.130   0.439 -20.202  1.00  0.00     0.216 HD
ENDBRANCH   7  13
BRANCH  11  15
HETATM   15  C6  UNL     1     -24.513  -0.073 -19.357  1.00  0.00     0.174 C 
BRANCH  15  16
HETATM   16  N3  UNL     1     -23.648  -0.689 -20.309  1.00  0.00    -0.340 N 
HETATM   17  N4  UNL     1     -22.782  -1.537 -20.030  1.00  0.00    -0.349 N 
ATOM     18  H42 UNL     1     -22.699  -1.799 -19.047  1.00  0.00     0.176 HD
ATOM     19  H41 UNL     1     -22.163  -1.978 -20.710  1.00  0.00     0.176 HD
ATOM     20  H3  UNL     1     -23.745  -0.414 -21.286  1.00  0.00     0.179 HD
ENDBRANCH  15  16
ENDBRANCH  11  15
ENDBRANCH   4   7
TORSDOF 5
ENDMDL
