MODEL 1
REMARK VINA RESULT: -6.256923892      0.000      0.000
REMARK  4 active torsions:
REMARK  status: ('A' for Active; 'I' for Inactive)
REMARK    1  A    between atoms: N3_4  and  C2_6 
REMARK    2  A    between atoms: C4_8  and  N4_9 
REMARK    3  A    between atoms: C7_13  and  C8_14 
REMARK    4  A    between atoms: C8_14  and  O1_15 
ROOT
HETATM    1  N4  UNL     1      17.451 -20.885 -27.048  1.00  0.00    -0.264 N 
HETATM    2  C5  UNL     1      16.911 -21.061 -28.331  1.00  0.00     0.128 C 
HETATM    3  C6  UNL     1      15.718 -21.936 -28.459  1.00  0.00     0.218 C 
HETATM    4  F1  UNL     1      14.753 -21.258 -29.214  1.00  0.00    -0.243 F 
HETATM    5  C7  UNL     1      15.081 -22.367 -27.195  1.00  0.00     0.074 C 
HETATM    6  C9  UNL     1      15.478 -21.453 -26.078  1.00  0.00     0.211 C 
HETATM    7  O2  UNL     1      16.872 -21.474 -26.021  1.00  0.00    -0.278 OA
ENDROOT
BRANCH   1   8
HETATM    8  C4  UNL     1      18.887 -21.029 -26.935  1.00  0.00     0.138 A 
HETATM    9  C2  UNL     1      19.637 -19.993 -26.177  1.00  0.00     0.111 A 
HETATM   10  C3  UNL     1      19.443 -21.361 -25.523  1.00  0.00     0.057 A 
BRANCH   9  11
HETATM   11  N3  UNL     1      20.901 -19.532 -26.538  1.00  0.00    -0.360 N 
HETATM   12  C1  UNL     1      22.048 -19.499 -26.092  1.00  0.00     0.197 C 
HETATM   13  N1  UNL     1      23.098 -18.880 -26.868  1.00  0.00    -0.067 NA
HETATM   14  N2  UNL     1      22.431 -20.033 -24.850  1.00  0.00    -0.067 NA
ATOM     15  H3  UNL     1      20.866 -19.085 -27.454  1.00  0.00     0.162 HD
ENDBRANCH   9  11
ENDBRANCH   1   8
BRANCH   5  16
HETATM   16  C8  UNL     1      13.556 -22.377 -27.266  1.00  0.00     0.174 C 
BRANCH  16  17
HETATM   17  O1  UNL     1      13.130 -23.506 -27.961  1.00  0.00    -0.400 OA
ATOM     18  H1  UNL     1      12.210 -23.660 -27.782  1.00  0.00     0.209 HD
ENDBRANCH  16  17
ENDBRANCH   5  16
TORSDOF 4
ENDMDL
MODEL 2
REMARK VINA RESULT: -6.118633370      1.358      1.705
REMARK  4 active torsions:
REMARK  status: ('A' for Active; 'I' for Inactive)
REMARK    1  A    between atoms: N3_4  and  C2_6 
REMARK    2  A    between atoms: C4_8  and  N4_9 
REMARK    3  A    between atoms: C7_13  and  C8_14 
REMARK    4  A    between atoms: C8_14  and  O1_15 
ROOT
HETATM    1  N4  UNL     1      17.780 -21.794 -26.968  1.00  0.00    -0.264 N 
HETATM    2  C5  UNL     1      16.780 -21.682 -25.990  1.00  0.00     0.128 C 
HETATM    3  C6  UNL     1      15.540 -20.953 -26.358  1.00  0.00     0.218 C 
HETATM    4  F1  UNL     1      14.441 -21.738 -25.990  1.00  0.00    -0.243 F 
HETATM    5  C7  UNL     1      15.384 -20.600 -27.787  1.00  0.00     0.074 C 
HETATM    6  C9  UNL     1      16.269 -21.462 -28.631  1.00  0.00     0.211 C 
HETATM    7  O2  UNL     1      17.571 -21.278 -28.163  1.00  0.00    -0.278 OA
ENDROOT
BRANCH   1   8
HETATM    8  C4  UNL     1      19.128 -21.484 -26.542  1.00  0.00     0.138 A 
HETATM    9  C2  UNL     1      19.489 -20.055 -26.347  1.00  0.00     0.111 A 
HETATM   10  C3  UNL     1      19.289 -20.921 -25.103  1.00  0.00     0.057 A 
BRANCH   9  11
HETATM   11  N3  UNL     1      20.734 -19.519 -26.668  1.00  0.00    -0.360 N 
HETATM   12  C1  UNL     1      21.881 -19.483 -26.222  1.00  0.00     0.197 C 
HETATM   13  N1  UNL     1      22.904 -18.762 -26.943  1.00  0.00    -0.067 NA
HETATM   14  N2  UNL     1      22.288 -20.108 -25.031  1.00  0.00    -0.067 NA
ATOM     15  H3  UNL     1      20.679 -18.996 -27.542  1.00  0.00     0.162 HD
ENDBRANCH   9  11
ENDBRANCH   1   8
BRANCH   5  16
HETATM   16  C8  UNL     1      13.954 -20.769 -28.293  1.00  0.00     0.174 C 
BRANCH  16  17
HETATM   17  O1  UNL     1      13.745 -22.094 -28.662  1.00  0.00    -0.400 OA
ATOM     18  H1  UNL     1      14.149 -22.257 -29.506  1.00  0.00     0.209 HD
ENDBRANCH  16  17
ENDBRANCH   5  16
TORSDOF 4
ENDMDL
MODEL 3
REMARK VINA RESULT: -5.844813321      1.103      1.124
REMARK  4 active torsions:
REMARK  status: ('A' for Active; 'I' for Inactive)
REMARK    1  A    between atoms: N3_4  and  C2_6 
REMARK    2  A    between atoms: C4_8  and  N4_9 
REMARK    3  A    between atoms: C7_13  and  C8_14 
REMARK    4  A    between atoms: C8_14  and  O1_15 
ROOT
HETATM    1  N4  UNL     1      17.257 -20.933 -26.890  1.00  0.00    -0.264 N 
HETATM    2  C5  UNL     1      16.418 -21.335 -27.940  1.00  0.00     0.128 C 
HETATM    3  C6  UNL     1      15.336 -22.301 -27.621  1.00  0.00     0.218 C 
HETATM    4  F1  UNL     1      14.138 -21.813 -28.156  1.00  0.00    -0.243 F 
HETATM    5  C7  UNL     1      15.109 -22.584 -26.187  1.00  0.00     0.074 C 
HETATM    6  C9  UNL     1      15.686 -21.488 -25.346  1.00  0.00     0.211 C 
HETATM    7  O2  UNL     1      17.039 -21.402 -25.677  1.00  0.00    -0.278 OA
ENDROOT
BRANCH   1   8
HETATM    8  C4  UNL     1      18.678 -20.956 -27.163  1.00  0.00     0.138 A 
HETATM    9  C2  UNL     1      19.593 -20.336 -26.169  1.00  0.00     0.111 A 
HETATM   10  C3  UNL     1      19.548 -21.862 -26.248  1.00  0.00     0.057 A 
BRANCH   9  11
HETATM   11  N3  UNL     1      20.741 -19.625 -26.511  1.00  0.00    -0.360 N 
HETATM   12  C1  UNL     1      21.891 -19.451 -26.105  1.00  0.00     0.197 C 
HETATM   13  N1  UNL     1      22.777 -18.570 -26.830  1.00  0.00    -0.067 NA
HETATM   14  N2  UNL     1      22.427 -20.061 -24.959  1.00  0.00    -0.067 NA
ATOM     15  H3  UNL     1      20.580 -19.080 -27.358  1.00  0.00     0.162 HD
ENDBRANCH   9  11
ENDBRANCH   1   8
BRANCH   5  16
HETATM   16  C8  UNL     1      13.630 -22.712 -25.829  1.00  0.00     0.174 C 
BRANCH  16  17
HETATM   17  O1  UNL     1      13.504 -23.307 -24.577  1.00  0.00    -0.400 OA
ATOM     18  H1  UNL     1      14.145 -22.935 -23.983  1.00  0.00     0.209 HD
ENDBRANCH  16  17
ENDBRANCH   5  16
TORSDOF 4
ENDMDL
MODEL 4
REMARK VINA RESULT: -5.658686130      3.372      6.653
REMARK  4 active torsions:
REMARK  status: ('A' for Active; 'I' for Inactive)
REMARK    1  A    between atoms: N3_4  and  C2_6 
REMARK    2  A    between atoms: C4_8  and  N4_9 
REMARK    3  A    between atoms: C7_13  and  C8_14 
REMARK    4  A    between atoms: C8_14  and  O1_15 
ROOT
HETATM    1  N4  UNL     1      17.980 -20.619 -27.398  1.00  0.00    -0.264 N 
HETATM    2  C5  UNL     1      18.109 -20.998 -26.053  1.00  0.00     0.128 C 
HETATM    3  C6  UNL     1      19.483 -21.136 -25.509  1.00  0.00     0.218 C 
HETATM    4  F1  UNL     1      19.549 -20.436 -24.298  1.00  0.00    -0.243 F 
HETATM    5  C7  UNL     1      20.583 -20.652 -26.371  1.00  0.00     0.074 C 
HETATM    6  C9  UNL     1      20.055 -19.697 -27.395  1.00  0.00     0.211 C 
HETATM    7  O2  UNL     1      19.066 -20.379 -28.105  1.00  0.00    -0.278 OA
ENDROOT
BRANCH   1   8
HETATM    8  C4  UNL     1      17.052 -21.394 -28.195  1.00  0.00     0.138 A 
HETATM    9  C2  UNL     1      15.646 -20.922 -28.290  1.00  0.00     0.111 A 
HETATM   10  C3  UNL     1      16.549 -20.739 -29.510  1.00  0.00     0.057 A 
BRANCH   9  11
HETATM   11  N3  UNL     1      14.543 -21.773 -28.322  1.00  0.00    -0.360 N 
HETATM   12  C1  UNL     1      13.956 -22.573 -27.593  1.00  0.00     0.197 C 
HETATM   13  N1  UNL     1      12.787 -23.262 -28.087  1.00  0.00    -0.067 NA
HETATM   14  N2  UNL     1      14.343 -22.879 -26.278  1.00  0.00    -0.067 NA
ATOM     15  H3  UNL     1      14.080 -21.716 -29.229  1.00  0.00     0.162 HD
ENDBRANCH   9  11
ENDBRANCH   1   8
BRANCH   5  16
HETATM   16  C8  UNL     1      21.683 -19.934 -25.592  1.00  0.00     0.174 C 
BRANCH  16  17
HETATM   17  O1  UNL     1      22.145 -18.849 -26.332  1.00  0.00    -0.400 OA
ATOM     18  H1  UNL     1      22.732 -19.156 -27.013  1.00  0.00     0.209 HD
ENDBRANCH  16  17
ENDBRANCH   5  16
TORSDOF 4
ENDMDL
MODEL 5
REMARK VINA RESULT: -5.255009680      1.401      1.993
REMARK  4 active torsions:
REMARK  status: ('A' for Active; 'I' for Inactive)
REMARK    1  A    between atoms: N3_4  and  C2_6 
REMARK    2  A    between atoms: C4_8  and  N4_9 
REMARK    3  A    between atoms: C7_13  and  C8_14 
REMARK    4  A    between atoms: C8_14  and  O1_15 
ROOT
HETATM    1  N4  UNL     1      17.399 -21.347 -26.711  1.00  0.00    -0.264 N 
HETATM    2  C5  UNL     1      16.510 -21.526 -25.640  1.00  0.00     0.128 C 
HETATM    3  C6  UNL     1      15.057 -21.482 -25.941  1.00  0.00     0.218 C 
HETATM    4  F1  UNL     1      14.450 -22.597 -25.350  1.00  0.00    -0.243 F 
HETATM    5  C7  UNL     1      14.682 -21.469 -27.372  1.00  0.00     0.074 C 
HETATM    6  C9  UNL     1      15.813 -21.983 -28.207  1.00  0.00     0.211 C 
HETATM    7  O2  UNL     1      16.915 -21.176 -27.926  1.00  0.00    -0.278 OA
ENDROOT
BRANCH   1   8
HETATM    8  C4  UNL     1      18.484 -20.415 -26.492  1.00  0.00     0.138 A 
HETATM    9  C2  UNL     1      19.876 -20.931 -26.563  1.00  0.00     0.111 A 
HETATM   10  C3  UNL     1      19.369 -20.075 -27.723  1.00  0.00     0.057 A 
BRANCH   9  11
HETATM   11  N3  UNL     1      20.908 -20.494 -25.734  1.00  0.00    -0.360 N 
HETATM   12  C1  UNL     1      21.815 -19.662 -25.728  1.00  0.00     0.197 C 
HETATM   13  N1  UNL     1      22.688 -19.567 -24.582  1.00  0.00    -0.067 NA
HETATM   14  N2  UNL     1      22.077 -18.767 -26.780  1.00  0.00    -0.067 NA
ATOM     15  H3  UNL     1      20.913 -21.028 -24.866  1.00  0.00     0.162 HD
ENDBRANCH   9  11
ENDBRANCH   1   8
BRANCH   5  16
HETATM   16  C8  UNL     1      13.455 -22.325 -27.677  1.00  0.00     0.174 C 
BRANCH  16  17
HETATM   17  O1  UNL     1      13.833 -23.661 -27.778  1.00  0.00    -0.400 OA
ATOM     18  H1  UNL     1      13.061 -24.213 -27.750  1.00  0.00     0.209 HD
ENDBRANCH  16  17
ENDBRANCH   5  16
TORSDOF 4
ENDMDL
