MODEL 1
REMARK VINA RESULT: -4.574947939      0.000      0.000
REMARK  3 active torsions:
REMARK  status: ('A' for Active; 'I' for Inactive)
REMARK    1  A    between atoms: N1_2  and  C3_5 
REMARK    2  A    between atoms: C5_8  and  N2_9 
REMARK    3  A    between atoms: C5_8  and  C7_16 
REMARK       I    between atoms: N2_9  and  C6_11 
ROOT
HETATM    1  C3  UNL     1      18.394 -21.329 -26.215  1.00  0.00     0.256 C 
HETATM    2  C4  UNL     1      17.330 -20.916 -25.269  1.00  0.00     0.208 C 
HETATM    3  O1  UNL     1      16.174 -20.660 -25.978  1.00  0.00    -0.349 OA
HETATM    4  C5  UNL     1      16.316 -21.224 -27.238  1.00  0.00     0.229 C 
HETATM    5  C8  UNL     1      17.781 -21.005 -27.565  1.00  0.00     0.112 C 
ENDROOT
BRANCH   4   6
HETATM    6  N2  UNL     1      15.976 -22.623 -27.261  1.00  0.00    -0.324 N 
HETATM    7  C6  UNL     1      14.699 -23.040 -26.847  1.00  0.00     0.184 C 
HETATM    8  N3  UNL     1      13.904 -23.697 -27.637  1.00  0.00    -0.374 N 
HETATM    9  N4  UNL     1      14.241 -22.754 -25.544  1.00  0.00    -0.064 NA
ATOM     10  H32 UNL     1      14.236 -23.904 -28.579  1.00  0.00     0.158 HD
ATOM     11  H31 UNL     1      12.977 -23.999 -27.336  1.00  0.00     0.158 HD
ATOM     12  H2  UNL     1      16.661 -23.310 -27.576  1.00  0.00     0.165 HD
ENDBRANCH   4   6
BRANCH   4  13
HETATM   13  C7  UNL     1      15.512 -20.473 -28.230  1.00  0.00     0.231 C 
HETATM   14  O2  UNL     1      14.349 -20.068 -28.019  1.00  0.00    -0.644 OA
HETATM   15  O3  UNL     1      16.062 -20.191 -29.478  1.00  0.00    -0.644 OA
ENDBRANCH   4  13
BRANCH   1  16
HETATM   16  N1  UNL     1      19.669 -20.713 -26.025  1.00  0.00     0.082 N 
HETATM   17  C1  UNL     1      20.079 -19.853 -27.104  1.00  0.00     0.317 C 
HETATM   18  C2  UNL     1      20.738 -21.673 -25.803  1.00  0.00     0.317 C 
HETATM   19  F1  UNL     1      19.590 -19.959 -24.897  1.00  0.00    -0.018 F 
ENDBRANCH   1  16
TORSDOF 3
ENDMDL
MODEL 2
REMARK VINA RESULT: -4.493853812      2.695      5.172
REMARK  3 active torsions:
REMARK  status: ('A' for Active; 'I' for Inactive)
REMARK    1  A    between atoms: N1_2  and  C3_5 
REMARK    2  A    between atoms: C5_8  and  N2_9 
REMARK    3  A    between atoms: C5_8  and  C7_16 
REMARK       I    between atoms: N2_9  and  C6_11 
ROOT
HETATM    1  C3  UNL     1      17.004 -20.756 -27.593  1.00  0.00     0.256 C 
HETATM    2  C4  UNL     1      16.178 -20.651 -26.368  1.00  0.00     0.208 C 
HETATM    3  O1  UNL     1      16.918 -21.090 -25.288  1.00  0.00    -0.349 OA
HETATM    4  C5  UNL     1      18.251 -21.118 -25.672  1.00  0.00     0.229 C 
HETATM    5  C8  UNL     1      18.198 -21.566 -27.121  1.00  0.00     0.112 C 
ENDROOT
BRANCH   4   6
HETATM    6  N2  UNL     1      18.892 -19.835 -25.544  1.00  0.00    -0.324 N 
HETATM    7  C6  UNL     1      20.181 -19.640 -26.072  1.00  0.00     0.184 C 
HETATM    8  N3  UNL     1      20.423 -18.732 -26.968  1.00  0.00    -0.374 N 
HETATM    9  N4  UNL     1      21.260 -20.436 -25.636  1.00  0.00    -0.064 NA
ATOM     10  H32 UNL     1      19.642 -18.155 -27.283  1.00  0.00     0.158 HD
ATOM     11  H31 UNL     1      21.358 -18.591 -27.351  1.00  0.00     0.158 HD
ATOM     12  H2  UNL     1      18.412 -19.069 -25.071  1.00  0.00     0.165 HD
ENDBRANCH   4   6
BRANCH   4  13
HETATM   13  C7  UNL     1      18.986 -22.150 -24.904  1.00  0.00     0.231 C 
HETATM   14  O2  UNL     1      19.925 -22.827 -25.372  1.00  0.00    -0.644 OA
HETATM   15  O3  UNL     1      18.625 -22.399 -23.582  1.00  0.00    -0.644 OA
ENDBRANCH   4  13
BRANCH   1  16
HETATM   16  N1  UNL     1      16.361 -21.332 -28.731  1.00  0.00     0.082 N 
HETATM   17  C1  UNL     1      16.667 -20.682 -29.979  1.00  0.00     0.317 C 
HETATM   18  C2  UNL     1      14.913 -21.375 -28.606  1.00  0.00     0.317 C 
HETATM   19  F1  UNL     1      16.777 -22.623 -28.820  1.00  0.00    -0.018 F 
ENDBRANCH   1  16
TORSDOF 3
ENDMDL
MODEL 3
REMARK VINA RESULT: -4.241574379      0.844      1.315
REMARK  3 active torsions:
REMARK  status: ('A' for Active; 'I' for Inactive)
REMARK    1  A    between atoms: N1_2  and  C3_5 
REMARK    2  A    between atoms: C5_8  and  N2_9 
REMARK    3  A    between atoms: C5_8  and  C7_16 
REMARK       I    between atoms: N2_9  and  C6_11 
ROOT
HETATM    1  C3  UNL     1      18.343 -21.449 -26.388  1.00  0.00     0.256 C 
HETATM    2  C4  UNL     1      17.357 -21.063 -25.351  1.00  0.00     0.208 C 
HETATM    3  O1  UNL     1      16.172 -20.714 -25.968  1.00  0.00    -0.349 OA
HETATM    4  C5  UNL     1      16.214 -21.194 -27.269  1.00  0.00     0.229 C 
HETATM    5  C8  UNL     1      17.665 -21.009 -27.672  1.00  0.00     0.112 C 
ENDROOT
BRANCH   4   6
HETATM    6  N2  UNL     1      15.815 -22.574 -27.365  1.00  0.00    -0.324 N 
HETATM    7  C6  UNL     1      14.562 -22.976 -26.871  1.00  0.00     0.184 C 
HETATM    8  N3  UNL     1      13.675 -23.541 -27.633  1.00  0.00    -0.374 N 
HETATM    9  N4  UNL     1      14.230 -22.776 -25.515  1.00  0.00    -0.064 NA
ATOM     10  H32 UNL     1      13.915 -23.687 -28.614  1.00  0.00     0.158 HD
ATOM     11  H31 UNL     1      12.765 -23.833 -27.275  1.00  0.00     0.158 HD
ATOM     12  H2  UNL     1      16.441 -23.259 -27.790  1.00  0.00     0.165 HD
ENDBRANCH   4   6
BRANCH   4  13
HETATM   13  C7  UNL     1      15.384 -20.346 -28.156  1.00  0.00     0.231 C 
HETATM   14  O2  UNL     1      15.846 -19.659 -29.092  1.00  0.00    -0.644 OA
HETATM   15  O3  UNL     1      14.006 -20.294 -27.954  1.00  0.00    -0.644 OA
ENDBRANCH   4  13
BRANCH   1  16
HETATM   16  N1  UNL     1      19.652 -20.897 -26.237  1.00  0.00     0.082 N 
HETATM   17  C1  UNL     1      19.874 -20.229 -24.981  1.00  0.00     0.317 C 
HETATM   18  C2  UNL     1      20.002 -19.962 -27.295  1.00  0.00     0.317 C 
HETATM   19  F1  UNL     1      20.537 -21.924 -26.325  1.00  0.00    -0.018 F 
ENDBRANCH   1  16
TORSDOF 3
ENDMDL
MODEL 4
REMARK VINA RESULT: -3.917698364      1.911      2.577
REMARK  3 active torsions:
REMARK  status: ('A' for Active; 'I' for Inactive)
REMARK    1  A    between atoms: N1_2  and  C3_5 
REMARK    2  A    between atoms: C5_8  and  N2_9 
REMARK    3  A    between atoms: C5_8  and  C7_16 
REMARK       I    between atoms: N2_9  and  C6_11 
ROOT
HETATM    1  C3  UNL     1      18.417 -20.637 -26.560  1.00  0.00     0.256 C 
HETATM    2  C4  UNL     1      18.247 -21.710 -27.567  1.00  0.00     0.208 C 
HETATM    3  O1  UNL     1      17.007 -22.293 -27.397  1.00  0.00    -0.349 OA
HETATM    4  C5  UNL     1      16.243 -21.442 -26.611  1.00  0.00     0.229 C 
HETATM    5  C8  UNL     1      17.244 -20.871 -25.625  1.00  0.00     0.112 C 
ENDROOT
BRANCH   4   6
HETATM    6  N2  UNL     1      15.608 -20.401 -27.377  1.00  0.00    -0.324 N 
HETATM    7  C6  UNL     1      14.713 -20.737 -28.407  1.00  0.00     0.184 C 
HETATM    8  N3  UNL     1      13.480 -20.327 -28.403  1.00  0.00    -0.374 N 
HETATM    9  N4  UNL     1      15.135 -21.537 -29.489  1.00  0.00    -0.064 NA
ATOM     10  H32 UNL     1      13.175 -19.747 -27.621  1.00  0.00     0.158 HD
ATOM     11  H31 UNL     1      12.830 -20.571 -29.151  1.00  0.00     0.158 HD
ATOM     12  H2  UNL     1      15.808 -19.421 -27.172  1.00  0.00     0.165 HD
ENDBRANCH   4   6
BRANCH   4  13
HETATM   13  C7  UNL     1      15.239 -22.215 -25.843  1.00  0.00     0.231 C 
HETATM   14  O2  UNL     1      14.957 -21.992 -24.647  1.00  0.00    -0.644 OA
HETATM   15  O3  UNL     1      14.557 -23.256 -26.470  1.00  0.00    -0.644 OA
ENDBRANCH   4  13
BRANCH   1  16
HETATM   16  N1  UNL     1      19.672 -20.617 -25.877  1.00  0.00     0.082 N 
HETATM   17  C1  UNL     1      20.630 -19.692 -26.424  1.00  0.00     0.317 C 
HETATM   18  C2  UNL     1      20.310 -21.922 -25.820  1.00  0.00     0.317 C 
HETATM   19  F1  UNL     1      19.427 -20.252 -24.591  1.00  0.00    -0.018 F 
ENDBRANCH   1  16
TORSDOF 3
ENDMDL
MODEL 5
REMARK VINA RESULT: -3.801462368      1.211      1.433
REMARK  3 active torsions:
REMARK  status: ('A' for Active; 'I' for Inactive)
REMARK    1  A    between atoms: N1_2  and  C3_5 
REMARK    2  A    between atoms: C5_8  and  N2_9 
REMARK    3  A    between atoms: C5_8  and  C7_16 
REMARK       I    between atoms: N2_9  and  C6_11 
ROOT
HETATM    1  C3  UNL     1      18.076 -21.576 -26.410  1.00  0.00     0.256 C 
HETATM    2  C4  UNL     1      16.910 -20.732 -26.058  1.00  0.00     0.208 C 
HETATM    3  O1  UNL     1      16.100 -20.600 -27.168  1.00  0.00    -0.349 OA
HETATM    4  C5  UNL     1      16.466 -21.582 -28.079  1.00  0.00     0.229 C 
HETATM    5  C8  UNL     1      17.973 -21.672 -27.921  1.00  0.00     0.112 C 
ENDROOT
BRANCH   4   6
HETATM    6  N2  UNL     1      15.835 -22.848 -27.813  1.00  0.00    -0.324 N 
HETATM    7  C6  UNL     1      14.603 -22.887 -27.138  1.00  0.00     0.184 C 
HETATM    8  N3  UNL     1      13.547 -23.425 -27.670  1.00  0.00    -0.374 N 
HETATM    9  N4  UNL     1      14.478 -22.338 -25.845  1.00  0.00    -0.064 NA
ATOM     10  H32 UNL     1      13.637 -23.823 -28.605  1.00  0.00     0.158 HD
ATOM     11  H31 UNL     1      12.652 -23.453 -27.180  1.00  0.00     0.158 HD
ATOM     12  H2  UNL     1      16.280 -23.715 -28.115  1.00  0.00     0.165 HD
ENDBRANCH   4   6
BRANCH   4  13
HETATM   13  C7  UNL     1      16.180 -21.132 -29.461  1.00  0.00     0.231 C 
HETATM   14  O2  UNL     1      15.128 -21.406 -30.077  1.00  0.00    -0.644 OA
HETATM   15  O3  UNL     1      17.124 -20.360 -30.134  1.00  0.00    -0.644 OA
ENDBRANCH   4  13
BRANCH   1  16
HETATM   16  N1  UNL     1      19.348 -21.094 -25.973  1.00  0.00     0.082 N 
HETATM   17  C1  UNL     1      19.326 -20.444 -24.688  1.00  0.00     0.317 C 
HETATM   18  C2  UNL     1      19.963 -20.174 -26.916  1.00  0.00     0.317 C 
HETATM   19  F1  UNL     1      20.179 -22.165 -25.884  1.00  0.00    -0.018 F 
ENDBRANCH   1  16
TORSDOF 3
ENDMDL
