MODEL 1
REMARK VINA RESULT: -6.311181675      0.000      0.000
REMARK  3 active torsions:
REMARK  status: ('A' for Active; 'I' for Inactive)
REMARK    1  A    between atoms: O1_2  and  C2_3 
REMARK    2  A    between atoms: C3_5  and  C4_6 
REMARK    3  A    between atoms: C4_6  and  N1_7 
ROOT
HETATM    1  C2  UNL     1      15.769 -21.780 -25.619  1.00  0.00     0.296 C 
HETATM    2  O2  UNL     1      16.817 -20.865 -25.607  1.00  0.00    -0.334 OA
HETATM    3  C3  UNL     1      17.742 -21.237 -26.558  1.00  0.00     0.255 C 
HETATM    4  N4  UNL     1      17.643 -20.400 -27.731  1.00  0.00    -0.110 NA
HETATM    5  N5  UNL     1      16.519 -20.610 -28.480  1.00  0.00    -0.330 N 
HETATM    6  C6  UNL     1      16.646 -21.515 -29.565  1.00  0.00     0.166 C 
HETATM    7  C7  UNL     1      15.286 -20.612 -27.788  1.00  0.00     0.180 C 
HETATM    8  C8  UNL     1      15.031 -21.806 -26.923  1.00  0.00     0.244 C 
HETATM    9  F1  UNL     1      15.314 -22.940 -27.669  1.00  0.00    -0.242 F 
ENDROOT
BRANCH   3  10
HETATM   10  C4  UNL     1      19.176 -21.100 -26.040  1.00  0.00     0.173 C 
BRANCH  10  11
HETATM   11  N1  UNL     1      19.829 -19.974 -26.673  1.00  0.00    -0.363 N 
HETATM   12  C5  UNL     1      21.024 -19.591 -26.344  1.00  0.00     0.197 C 
HETATM   13  N2  UNL     1      21.680 -20.324 -25.324  1.00  0.00    -0.067 NA
HETATM   14  N3  UNL     1      21.632 -18.476 -26.995  1.00  0.00    -0.067 NA
ATOM     15  H1  UNL     1      19.333 -19.463 -27.404  1.00  0.00     0.161 HD
ENDBRANCH  10  11
ENDBRANCH   3  10
BRANCH   1  16
HETATM   16  O1  UNL     1      14.869 -21.599 -24.599  1.00  0.00    -0.363 OA
HETATM   17  C1  UNL     1      14.221 -22.751 -24.193  1.00  0.00     0.204 C 
ENDBRANCH   1  16
TORSDOF 3
ENDMDL
MODEL 2
REMARK VINA RESULT: -6.103257128      1.924      3.197
REMARK  3 active torsions:
REMARK  status: ('A' for Active; 'I' for Inactive)
REMARK    1  A    between atoms: O1_2  and  C2_3 
REMARK    2  A    between atoms: C3_5  and  C4_6 
REMARK    3  A    between atoms: C4_6  and  N1_7 
ROOT
HETATM    1  C2  UNL     1      17.091 -20.676 -28.320  1.00  0.00     0.296 C 
HETATM    2  O2  UNL     1      18.027 -21.274 -27.483  1.00  0.00    -0.334 OA
HETATM    3  C3  UNL     1      17.780 -20.878 -26.187  1.00  0.00     0.255 C 
HETATM    4  N4  UNL     1      17.133 -21.930 -25.439  1.00  0.00    -0.110 NA
HETATM    5  N5  UNL     1      15.837 -22.167 -25.805  1.00  0.00    -0.330 N 
HETATM    6  C6  UNL     1      14.838 -21.495 -25.054  1.00  0.00     0.166 C 
HETATM    7  C7  UNL     1      15.589 -22.338 -27.187  1.00  0.00     0.180 C 
HETATM    8  C8  UNL     1      15.685 -21.099 -28.021  1.00  0.00     0.244 C 
HETATM    9  F1  UNL     1      14.955 -20.105 -27.389  1.00  0.00    -0.242 F 
ENDROOT
BRANCH   3  10
HETATM   10  C4  UNL     1      19.073 -20.541 -25.440  1.00  0.00     0.173 C 
BRANCH  10  11
HETATM   11  N1  UNL     1      19.866 -19.607 -26.211  1.00  0.00    -0.363 N 
HETATM   12  C5  UNL     1      21.161 -19.570 -26.138  1.00  0.00     0.197 C 
HETATM   13  N2  UNL     1      21.785 -20.491 -25.260  1.00  0.00    -0.067 NA
HETATM   14  N3  UNL     1      21.903 -18.633 -26.917  1.00  0.00    -0.067 NA
ATOM     15  H1  UNL     1      19.390 -18.954 -26.834  1.00  0.00     0.161 HD
ENDBRANCH  10  11
ENDBRANCH   3  10
BRANCH   1  16
HETATM   16  O1  UNL     1      17.342 -20.871 -29.655  1.00  0.00    -0.363 OA
HETATM   17  C1  UNL     1      17.703 -19.729 -30.345  1.00  0.00     0.204 C 
ENDBRANCH   1  16
TORSDOF 3
ENDMDL
MODEL 3
REMARK VINA RESULT: -5.092137853      3.038      5.647
REMARK  3 active torsions:
REMARK  status: ('A' for Active; 'I' for Inactive)
REMARK    1  A    between atoms: O1_2  and  C2_3 
REMARK    2  A    between atoms: C3_5  and  C4_6 
REMARK    3  A    between atoms: C4_6  and  N1_7 
ROOT
HETATM    1  C2  UNL     1      19.932 -20.326 -27.049  1.00  0.00     0.296 C 
HETATM    2  O2  UNL     1      18.622 -20.006 -27.393  1.00  0.00    -0.334 OA
HETATM    3  C3  UNL     1      17.846 -21.139 -27.281  1.00  0.00     0.255 C 
HETATM    4  N4  UNL     1      17.043 -21.099 -26.082  1.00  0.00    -0.110 NA
HETATM    5  N5  UNL     1      17.753 -21.252 -24.924  1.00  0.00    -0.330 N 
HETATM    6  C6  UNL     1      17.837 -22.571 -24.406  1.00  0.00     0.166 C 
HETATM    7  C7  UNL     1      18.894 -20.432 -24.765  1.00  0.00     0.180 C 
HETATM    8  C8  UNL     1      20.067 -20.780 -25.627  1.00  0.00     0.244 C 
HETATM    9  F1  UNL     1      20.279 -22.146 -25.524  1.00  0.00    -0.242 F 
ENDROOT
BRANCH   3  10
HETATM   10  C4  UNL     1      16.873 -21.278 -28.455  1.00  0.00     0.173 C 
BRANCH  10  11
HETATM   11  N1  UNL     1      15.865 -22.273 -28.153  1.00  0.00    -0.363 N 
HETATM   12  C5  UNL     1      14.622 -21.961 -27.950  1.00  0.00     0.197 C 
HETATM   13  N2  UNL     1      14.278 -20.589 -28.035  1.00  0.00    -0.067 NA
HETATM   14  N3  UNL     1      13.661 -22.974 -27.656  1.00  0.00    -0.067 NA
ATOM     15  H1  UNL     1      16.142 -23.253 -28.097  1.00  0.00     0.161 HD
ENDBRANCH  10  11
ENDBRANCH   3  10
BRANCH   1  16
HETATM   16  O1  UNL     1      20.825 -19.311 -27.281  1.00  0.00    -0.363 OA
HETATM   17  C1  UNL     1      21.874 -19.250 -26.381  1.00  0.00     0.204 C 
ENDBRANCH   1  16
TORSDOF 3
ENDMDL
MODEL 4
REMARK VINA RESULT: -4.732790767      2.037      4.684
REMARK  3 active torsions:
REMARK  status: ('A' for Active; 'I' for Inactive)
REMARK    1  A    between atoms: O1_2  and  C2_3 
REMARK    2  A    between atoms: C3_5  and  C4_6 
REMARK    3  A    between atoms: C4_6  and  N1_7 
ROOT
HETATM    1  C2  UNL     1      16.827 -21.431 -25.433  1.00  0.00     0.296 C 
HETATM    2  O2  UNL     1      16.922 -21.914 -26.735  1.00  0.00    -0.334 OA
HETATM    3  C3  UNL     1      17.460 -20.930 -27.535  1.00  0.00     0.255 C 
HETATM    4  N4  UNL     1      18.846 -21.206 -27.831  1.00  0.00    -0.110 NA
HETATM    5  N5  UNL     1      19.691 -21.056 -26.767  1.00  0.00    -0.330 N 
HETATM    6  C6  UNL     1      20.330 -19.795 -26.644  1.00  0.00     0.166 C 
HETATM    7  C7  UNL     1      19.320 -21.702 -25.565  1.00  0.00     0.180 C 
HETATM    8  C8  UNL     1      18.161 -21.099 -24.836  1.00  0.00     0.244 C 
HETATM    9  F1  UNL     1      18.378 -19.732 -24.751  1.00  0.00    -0.242 F 
ENDROOT
BRANCH   3  10
HETATM   10  C4  UNL     1      16.735 -20.832 -28.879  1.00  0.00     0.173 C 
BRANCH  10  11
HETATM   11  N1  UNL     1      15.599 -21.729 -28.901  1.00  0.00    -0.363 N 
HETATM   12  C5  UNL     1      14.435 -21.386 -28.443  1.00  0.00     0.197 C 
HETATM   13  N2  UNL     1      14.311 -20.078 -27.910  1.00  0.00    -0.067 NA
HETATM   14  N3  UNL     1      13.342 -22.302 -28.484  1.00  0.00    -0.067 NA
ATOM     15  H1  UNL     1      15.718 -22.666 -29.289  1.00  0.00     0.161 HD
ENDBRANCH  10  11
ENDBRANCH   3  10
BRANCH   1  16
HETATM   16  O1  UNL     1      16.153 -22.270 -24.583  1.00  0.00    -0.363 OA
HETATM   17  C1  UNL     1      14.798 -22.377 -24.834  1.00  0.00     0.204 C 
ENDBRANCH   1  16
TORSDOF 3
ENDMDL
MODEL 5
REMARK VINA RESULT: -4.645468502      1.000      1.387
REMARK  3 active torsions:
REMARK  status: ('A' for Active; 'I' for Inactive)
REMARK    1  A    between atoms: O1_2  and  C2_3 
REMARK    2  A    between atoms: C3_5  and  C4_6 
REMARK    3  A    between atoms: C4_6  and  N1_7 
ROOT
HETATM    1  C2  UNL     1      16.237 -21.989 -25.880  1.00  0.00     0.296 C 
HETATM    2  O2  UNL     1      16.876 -20.830 -26.312  1.00  0.00    -0.334 OA
HETATM    3  C3  UNL     1      17.277 -21.007 -27.619  1.00  0.00     0.255 C 
HETATM    4  N4  UNL     1      16.403 -20.303 -28.527  1.00  0.00    -0.110 NA
HETATM    5  N5  UNL     1      15.156 -20.849 -28.646  1.00  0.00    -0.330 N 
HETATM    6  C6  UNL     1      14.966 -21.757 -29.720  1.00  0.00     0.166 C 
HETATM    7  C7  UNL     1      14.469 -21.132 -27.443  1.00  0.00     0.180 C 
HETATM    8  C8  UNL     1      14.992 -22.292 -26.656  1.00  0.00     0.244 C 
HETATM    9  F1  UNL     1      15.157 -23.357 -27.529  1.00  0.00    -0.242 F 
ENDROOT
BRANCH   3  10
HETATM   10  C4  UNL     1      18.688 -20.463 -27.857  1.00  0.00     0.173 C 
BRANCH  10  11
HETATM   11  N1  UNL     1      19.557 -20.830 -26.759  1.00  0.00    -0.363 N 
HETATM   12  C5  UNL     1      20.524 -20.066 -26.354  1.00  0.00     0.197 C 
HETATM   13  N2  UNL     1      20.706 -18.838 -27.038  1.00  0.00    -0.067 NA
HETATM   14  N3  UNL     1      21.356 -20.467 -25.266  1.00  0.00    -0.067 NA
ATOM     15  H1  UNL     1      19.403 -21.721 -26.286  1.00  0.00     0.161 HD
ENDBRANCH  10  11
ENDBRANCH   3  10
BRANCH   1  16
HETATM   16  O1  UNL     1      15.940 -21.986 -24.541  1.00  0.00    -0.363 OA
HETATM   17  C1  UNL     1      14.697 -22.503 -24.226  1.00  0.00     0.204 C 
ENDBRANCH   1  16
TORSDOF 3
ENDMDL
