MODEL 1
REMARK VINA RESULT: -6.431656280      0.000      0.000
REMARK  4 active torsions:
REMARK  status: ('A' for Active; 'I' for Inactive)
REMARK    1  A    between atoms: C3_3  and  C4_4 
REMARK    2  A    between atoms: N1_5  and  N2_7 
REMARK    3  A    between atoms: C6_13  and  C7_14 
REMARK    4  A    between atoms: C7_14  and  O2_15 
ROOT
HETATM    1  C1  UNL     1      17.191 -21.196 -28.206  1.00  0.00     0.022 C 
HETATM    2  C2  UNL     1      16.898 -21.204 -26.919  1.00  0.00    -0.001 C 
HETATM    3  C3  UNL     1      17.825 -20.709 -25.900  1.00  0.00     0.197 C 
HETATM    4  O1  UNL     1      17.998 -21.552 -24.819  1.00  0.00    -0.348 OA
HETATM    5  C6  UNL     1      17.036 -22.515 -24.675  1.00  0.00     0.266 C 
HETATM    6  N5  UNL     1      15.737 -22.137 -25.105  1.00  0.00    -0.266 N 
HETATM    7  N6  UNL     1      14.750 -22.131 -24.382  1.00  0.00    -0.342 N 
ATOM      8  H61 UNL     1      13.817 -21.860 -24.691  1.00  0.00     0.176 HD
ATOM      9  H62 UNL     1      14.863 -22.415 -23.409  1.00  0.00     0.176 HD
HETATM   10  C8  UNL     1      15.577 -21.736 -26.480  1.00  0.00     0.320 C 
HETATM   11  F1  UNL     1      15.254 -22.810 -27.286  1.00  0.00    -0.220 F 
ENDROOT
BRANCH   3  12
HETATM   12  C4  UNL     1      19.118 -20.403 -26.551  1.00  0.00     0.116 C 
HETATM   13  N1  UNL     1      19.752 -19.329 -26.285  1.00  0.00    -0.311 N 
ATOM     14  H1  UNL     1      19.373 -18.660 -25.613  1.00  0.00     0.185 HD
BRANCH  13  15
HETATM   15  N2  UNL     1      20.964 -19.077 -26.918  1.00  0.00    -0.277 N 
HETATM   16  C5  UNL     1      22.085 -19.310 -26.331  1.00  0.00     0.215 C 
HETATM   17  N3  UNL     1      22.064 -19.831 -25.024  1.00  0.00    -0.065 NA
HETATM   18  N4  UNL     1      23.276 -19.023 -27.053  1.00  0.00    -0.065 NA
ATOM     19  H2  UNL     1      20.965 -18.699 -27.865  1.00  0.00     0.189 HD
ENDBRANCH  13  15
ENDBRANCH   3  12
BRANCH   5  20
HETATM   20  C7  UNL     1      16.947 -22.928 -23.208  1.00  0.00     0.219 C 
BRANCH  20  21
HETATM   21  O2  UNL     1      18.236 -23.307 -22.802  1.00  0.00    -0.397 OA
ATOM     22  H2  UNL     1      18.188 -24.212 -22.516  1.00  0.00     0.209 HD
ENDBRANCH  20  21
ENDBRANCH   5  20
TORSDOF 4
ENDMDL
MODEL 2
REMARK VINA RESULT: -5.995029471      2.163      2.589
REMARK  4 active torsions:
REMARK  status: ('A' for Active; 'I' for Inactive)
REMARK    1  A    between atoms: C3_3  and  C4_4 
REMARK    2  A    between atoms: N1_5  and  N2_7 
REMARK    3  A    between atoms: C6_13  and  C7_14 
REMARK    4  A    between atoms: C7_14  and  O2_15 
ROOT
HETATM    1  C1  UNL     1      18.094 -20.754 -28.434  1.00  0.00     0.022 C 
HETATM    2  C2  UNL     1      16.922 -20.849 -27.833  1.00  0.00    -0.001 C 
HETATM    3  C3  UNL     1      16.791 -20.909 -26.377  1.00  0.00     0.197 C 
HETATM    4  O1  UNL     1      15.960 -21.910 -25.913  1.00  0.00    -0.348 OA
HETATM    5  C6  UNL     1      15.118 -22.446 -26.849  1.00  0.00     0.266 C 
HETATM    6  N5  UNL     1      14.680 -21.540 -27.852  1.00  0.00    -0.266 N 
HETATM    7  N6  UNL     1      13.506 -21.273 -28.068  1.00  0.00    -0.342 N 
ATOM      8  H61 UNL     1      13.191 -20.623 -28.787  1.00  0.00     0.176 HD
ATOM      9  H62 UNL     1      12.795 -21.725 -27.494  1.00  0.00     0.176 HD
HETATM   10  C8  UNL     1      15.685 -20.901 -28.662  1.00  0.00     0.320 C 
HETATM   11  F1  UNL     1      15.958 -21.633 -29.801  1.00  0.00    -0.220 F 
ENDROOT
BRANCH   3  12
HETATM   12  C4  UNL     1      18.143 -21.019 -25.787  1.00  0.00     0.116 C 
HETATM   13  N1  UNL     1      18.978 -20.058 -25.866  1.00  0.00    -0.311 N 
ATOM     14  H1  UNL     1      18.723 -19.192 -26.341  1.00  0.00     0.185 HD
BRANCH  13  15
HETATM   15  N2  UNL     1      20.240 -20.201 -25.299  1.00  0.00    -0.277 N 
HETATM   16  C5  UNL     1      21.264 -19.600 -25.791  1.00  0.00     0.215 C 
HETATM   17  N3  UNL     1      21.087 -18.785 -26.924  1.00  0.00    -0.065 NA
HETATM   18  N4  UNL     1      22.516 -19.804 -25.146  1.00  0.00    -0.065 NA
ATOM     19  H2  UNL     1      20.354 -20.795 -24.477  1.00  0.00     0.189 HD
ENDBRANCH  13  15
ENDBRANCH   3  12
BRANCH   5  20
HETATM   20  C7  UNL     1      13.885 -23.016 -26.155  1.00  0.00     0.219 C 
BRANCH  20  21
HETATM   21  O2  UNL     1      14.129 -22.981 -24.773  1.00  0.00    -0.397 OA
ATOM     22  H2  UNL     1      13.288 -22.898 -24.339  1.00  0.00     0.209 HD
ENDBRANCH  20  21
ENDBRANCH   5  20
TORSDOF 4
ENDMDL
MODEL 3
REMARK VINA RESULT: -5.942371213      2.210      3.186
REMARK  4 active torsions:
REMARK  status: ('A' for Active; 'I' for Inactive)
REMARK    1  A    between atoms: C3_3  and  C4_4 
REMARK    2  A    between atoms: N1_5  and  N2_7 
REMARK    3  A    between atoms: C6_13  and  C7_14 
REMARK    4  A    between atoms: C7_14  and  O2_15 
ROOT
HETATM    1  C1  UNL     1      17.814 -21.190 -24.620  1.00  0.00     0.022 C 
HETATM    2  C2  UNL     1      17.214 -21.617 -25.715  1.00  0.00    -0.001 C 
HETATM    3  C3  UNL     1      17.865 -21.595 -27.026  1.00  0.00     0.197 C 
HETATM    4  O1  UNL     1      17.096 -21.063 -28.043  1.00  0.00    -0.348 OA
HETATM    5  C6  UNL     1      15.757 -20.980 -27.775  1.00  0.00     0.266 C 
HETATM    6  N5  UNL     1      15.247 -22.005 -26.935  1.00  0.00    -0.266 N 
HETATM    7  N6  UNL     1      14.353 -22.774 -27.258  1.00  0.00    -0.342 N 
ATOM      8  H61 UNL     1      13.986 -23.510 -26.655  1.00  0.00     0.176 HD
ATOM      9  H62 UNL     1      13.945 -22.677 -28.188  1.00  0.00     0.176 HD
HETATM   10  C8  UNL     1      15.822 -22.142 -25.621  1.00  0.00     0.320 C 
HETATM   11  F1  UNL     1      15.139 -21.387 -24.688  1.00  0.00    -0.220 F 
ENDROOT
BRANCH   3  12
HETATM   12  C4  UNL     1      19.153 -20.879 -26.898  1.00  0.00     0.116 C 
HETATM   13  N1  UNL     1      19.318 -19.721 -27.408  1.00  0.00    -0.311 N 
ATOM     14  H1  UNL     1      18.556 -19.269 -27.915  1.00  0.00     0.185 HD
BRANCH  13  15
HETATM   15  N2  UNL     1      20.544 -19.081 -27.267  1.00  0.00    -0.277 N 
HETATM   16  C5  UNL     1      21.380 -19.434 -26.355  1.00  0.00     0.215 C 
HETATM   17  N3  UNL     1      21.031 -20.491 -25.494  1.00  0.00    -0.065 NA
HETATM   18  N4  UNL     1      22.610 -18.724 -26.284  1.00  0.00    -0.065 NA
ATOM     19  H2  UNL     1      20.785 -18.317 -27.898  1.00  0.00     0.189 HD
ENDBRANCH  13  15
ENDBRANCH   3  12
BRANCH   5  20
HETATM   20  C7  UNL     1      14.975 -21.009 -29.085  1.00  0.00     0.219 C 
BRANCH  20  21
HETATM   21  O2  UNL     1      15.725 -21.760 -30.003  1.00  0.00    -0.397 OA
ATOM     22  H2  UNL     1      15.315 -21.659 -30.854  1.00  0.00     0.209 HD
ENDBRANCH  20  21
ENDBRANCH   5  20
TORSDOF 4
ENDMDL
MODEL 4
REMARK VINA RESULT: -5.319838274      2.177      3.303
REMARK  4 active torsions:
REMARK  status: ('A' for Active; 'I' for Inactive)
REMARK    1  A    between atoms: C3_3  and  C4_4 
REMARK    2  A    between atoms: N1_5  and  N2_7 
REMARK    3  A    between atoms: C6_13  and  C7_14 
REMARK    4  A    between atoms: C7_14  and  O2_15 
ROOT
HETATM    1  C1  UNL     1      17.002 -22.124 -23.985  1.00  0.00     0.022 C 
HETATM    2  C2  UNL     1      16.551 -22.186 -25.225  1.00  0.00    -0.001 C 
HETATM    3  C3  UNL     1      17.335 -21.715 -26.368  1.00  0.00     0.197 C 
HETATM    4  O1  UNL     1      16.644 -20.901 -27.245  1.00  0.00    -0.348 OA
HETATM    5  C6  UNL     1      15.282 -20.949 -27.131  1.00  0.00     0.266 C 
HETATM    6  N5  UNL     1      14.756 -22.208 -26.736  1.00  0.00    -0.266 N 
HETATM    7  N6  UNL     1      13.955 -22.854 -27.397  1.00  0.00    -0.342 N 
ATOM      8  H61 UNL     1      13.577 -23.758 -27.114  1.00  0.00     0.176 HD
ATOM      9  H62 UNL     1      13.643 -22.469 -28.288  1.00  0.00     0.176 HD
HETATM   10  C8  UNL     1      15.196 -22.752 -25.476  1.00  0.00     0.320 C 
HETATM   11  F1  UNL     1      14.368 -22.367 -24.441  1.00  0.00    -0.220 F 
ENDROOT
BRANCH   3  12
HETATM   12  C4  UNL     1      18.551 -21.043 -25.859  1.00  0.00     0.116 C 
HETATM   13  N1  UNL     1      19.700 -21.299 -26.350  1.00  0.00    -0.311 N 
ATOM     14  H1  UNL     1      19.798 -21.977 -27.107  1.00  0.00     0.185 HD
BRANCH  13  15
HETATM   15  N2  UNL     1      20.819 -20.647 -25.844  1.00  0.00    -0.277 N 
HETATM   16  C5  UNL     1      21.186 -19.501 -26.300  1.00  0.00     0.215 C 
HETATM   17  N3  UNL     1      20.429 -18.912 -27.328  1.00  0.00    -0.065 NA
HETATM   18  N4  UNL     1      22.343 -18.907 -25.723  1.00  0.00    -0.065 NA
ATOM     19  H2  UNL     1      21.359 -21.085 -25.098  1.00  0.00     0.189 HD
ENDBRANCH  13  15
ENDBRANCH   3  12
BRANCH   5  20
HETATM   20  C7  UNL     1      14.647 -20.570 -28.466  1.00  0.00     0.219 C 
BRANCH  20  21
HETATM   21  O2  UNL     1      15.242 -21.369 -29.454  1.00  0.00    -0.397 OA
ATOM     22  H2  UNL     1      14.682 -22.125 -29.582  1.00  0.00     0.209 HD
ENDBRANCH  20  21
ENDBRANCH   5  20
TORSDOF 4
ENDMDL
MODEL 5
REMARK VINA RESULT: -4.559965864      2.620      3.892
REMARK  4 active torsions:
REMARK  status: ('A' for Active; 'I' for Inactive)
REMARK    1  A    between atoms: C3_3  and  C4_4 
REMARK    2  A    between atoms: N1_5  and  N2_7 
REMARK    3  A    between atoms: C6_13  and  C7_14 
REMARK    4  A    between atoms: C7_14  and  O2_15 
ROOT
HETATM    1  C1  UNL     1      16.255 -21.290 -25.405  1.00  0.00     0.022 C 
HETATM    2  C2  UNL     1      16.420 -21.496 -26.698  1.00  0.00    -0.001 C 
HETATM    3  C3  UNL     1      17.744 -21.592 -27.313  1.00  0.00     0.197 C 
HETATM    4  O1  UNL     1      17.907 -20.833 -28.456  1.00  0.00    -0.348 OA
HETATM    5  C6  UNL     1      16.745 -20.407 -29.040  1.00  0.00     0.266 C 
HETATM    6  N5  UNL     1      15.644 -21.293 -28.904  1.00  0.00    -0.266 N 
HETATM    7  N6  UNL     1      15.037 -21.782 -29.846  1.00  0.00    -0.342 N 
ATOM      8  H61 UNL     1      14.246 -22.418 -29.749  1.00  0.00     0.176 HD
ATOM      9  H62 UNL     1      15.337 -21.541 -30.790  1.00  0.00     0.176 HD
HETATM   10  C8  UNL     1      15.219 -21.634 -27.569  1.00  0.00     0.320 C 
HETATM   11  F1  UNL     1      14.250 -20.764 -27.109  1.00  0.00    -0.220 F 
ENDROOT
BRANCH   3  12
HETATM   12  C4  UNL     1      18.762 -21.252 -26.296  1.00  0.00     0.116 C 
HETATM   13  N1  UNL     1      19.909 -20.807 -26.632  1.00  0.00    -0.311 N 
ATOM     14  H1  UNL     1      20.143 -20.680 -27.617  1.00  0.00     0.185 HD
BRANCH  13  15
HETATM   15  N2  UNL     1      20.839 -20.499 -25.645  1.00  0.00    -0.277 N 
HETATM   16  C5  UNL     1      21.633 -19.494 -25.767  1.00  0.00     0.215 C 
HETATM   17  N3  UNL     1      21.544 -18.703 -26.927  1.00  0.00    -0.065 NA
HETATM   18  N4  UNL     1      22.551 -19.253 -24.708  1.00  0.00    -0.065 NA
ATOM     19  H2  UNL     1      20.892 -21.080 -24.809  1.00  0.00     0.189 HD
ENDBRANCH  13  15
ENDBRANCH   3  12
BRANCH   5  20
HETATM   20  C7  UNL     1      16.981 -20.172 -30.529  1.00  0.00     0.219 C 
BRANCH  20  21
HETATM   21  O2  UNL     1      18.169 -19.434 -30.652  1.00  0.00    -0.397 OA
ATOM     22  H2  UNL     1      18.018 -18.585 -30.254  1.00  0.00     0.209 HD
ENDBRANCH  20  21
ENDBRANCH   5  20
TORSDOF 4
ENDMDL
