MODEL 1
REMARK VINA RESULT: -6.886177462      0.000      0.000
REMARK  7 active torsions:
REMARK  status: ('A' for Active; 'I' for Inactive)
REMARK    1  A    between atoms: N1_2  and  C3_4 
REMARK    2  A    between atoms: C3_4  and  C4_5 
REMARK    3  A    between atoms: C4_5  and  C5_6 
REMARK    4  A    between atoms: C5_6  and  C6_7 
REMARK    5  A    between atoms: C6_7  and  O1_9 
REMARK    6  A    between atoms: C6_7  and  C8_11 
REMARK    7  A    between atoms: C19_22  and  O2_23 
ROOT
HETATM    1  C8  UNL     1      68.151  49.869  10.692  1.00  0.00     0.049 C 
HETATM    2  C9  UNL     1      69.235  48.900  11.104  1.00  0.00     0.010 C 
HETATM    3  C10 UNL     1      70.573  49.538  10.807  1.00  0.00     0.005 C 
HETATM    4  C11 UNL     1      70.658  49.497   9.287  1.00  0.00    -0.007 C 
HETATM    5  C12 UNL     1      72.022  49.878   8.797  1.00  0.00     0.014 C 
HETATM    6  C13 UNL     1      71.971  49.962   7.284  1.00  0.00    -0.047 C 
HETATM    7  C14 UNL     1      73.103  49.119   6.681  1.00  0.00     0.015 C 
HETATM    8  C15 UNL     1      72.121  51.380   6.795  1.00  0.00     0.015 C 
HETATM    9  C16 UNL     1      70.686  49.403   6.713  1.00  0.00     0.009 C 
HETATM   10  C17 UNL     1      69.457  50.064   7.275  1.00  0.00     0.008 C 
HETATM   11  C18 UNL     1      69.661  50.467   8.721  1.00  0.00     0.019 C 
HETATM   12  C19 UNL     1      68.366  50.580   9.418  1.00  0.00     0.129 C 
ENDROOT
BRANCH   1  13
HETATM   13  C6  UNL     1      66.806  49.118  10.633  1.00  0.00     0.060 C 
HETATM   14  C7  UNL     1      66.020  49.405   9.399  1.00  0.00     0.046 C 
BRANCH  13  15
HETATM   15  C5  UNL     1      66.024  49.306  11.876  1.00  0.00     0.039 C 
BRANCH  15  16
HETATM   16  C4  UNL     1      66.195  50.542  12.671  1.00  0.00     0.033 C 
BRANCH  16  17
HETATM   17  C3  UNL     1      65.065  51.475  12.847  1.00  0.00     0.271 C 
BRANCH  17  18
HETATM   18  N1  UNL     1      64.894  52.304  11.622  1.00  0.00     0.080 N 
HETATM   19  C1  UNL     1      65.760  53.463  11.732  1.00  0.00     0.309 C 
HETATM   20  C2  UNL     1      63.518  52.826  11.664  1.00  0.00     0.309 C 
ENDBRANCH  17  18
ENDBRANCH  16  17
ENDBRANCH  15  16
ENDBRANCH  13  15
BRANCH  13  21
HETATM   21  O1  UNL     1      67.091  47.719  10.571  1.00  0.00    -0.390 OA
ATOM     22  H1  UNL     1      67.871  47.595  11.099  1.00  0.00     0.210 HD
ENDBRANCH  13  21
ENDBRANCH   1  13
BRANCH  12  23
HETATM   23  O2  UNL     1      68.193  51.973   9.669  1.00  0.00    -0.395 OA
ATOM     24  H2  UNL     1      68.937  52.266  10.182  1.00  0.00     0.210 HD
ENDBRANCH  12  23
TORSDOF 7
ENDMDL
MODEL 2
REMARK VINA RESULT: -6.870884983      3.386      7.417
REMARK  7 active torsions:
REMARK  status: ('A' for Active; 'I' for Inactive)
REMARK    1  A    between atoms: N1_2  and  C3_4 
REMARK    2  A    between atoms: C3_4  and  C4_5 
REMARK    3  A    between atoms: C4_5  and  C5_6 
REMARK    4  A    between atoms: C5_6  and  C6_7 
REMARK    5  A    between atoms: C6_7  and  O1_9 
REMARK    6  A    between atoms: C6_7  and  C8_11 
REMARK    7  A    between atoms: C19_22  and  O2_23 
ROOT
HETATM    1  C8  UNL     1      71.342  49.140   8.582  1.00  0.00     0.049 C 
HETATM    2  C9  UNL     1      71.611  48.915  10.053  1.00  0.00     0.010 C 
HETATM    3  C10 UNL     1      70.349  48.375  10.684  1.00  0.00     0.005 C 
HETATM    4  C11 UNL     1      69.416  49.577  10.702  1.00  0.00    -0.007 C 
HETATM    5  C12 UNL     1      68.179  49.308  11.505  1.00  0.00     0.014 C 
HETATM    6  C13 UNL     1      67.245  50.492  11.339  1.00  0.00    -0.047 C 
HETATM    7  C14 UNL     1      66.803  50.998  12.720  1.00  0.00     0.015 C 
HETATM    8  C15 UNL     1      66.014  50.129  10.548  1.00  0.00     0.015 C 
HETATM    9  C16 UNL     1      67.910  51.667  10.658  1.00  0.00     0.009 C 
HETATM   10  C17 UNL     1      68.489  51.318   9.314  1.00  0.00     0.008 C 
HETATM   11  C18 UNL     1      69.008  49.894   9.291  1.00  0.00     0.019 C 
HETATM   12  C19 UNL     1      70.034  49.731   8.245  1.00  0.00     0.129 C 
ENDROOT
BRANCH   1  13
HETATM   13  C6  UNL     1      72.463  50.023   7.998  1.00  0.00     0.060 C 
HETATM   14  C7  UNL     1      72.060  51.446   7.813  1.00  0.00     0.046 C 
BRANCH  13  15
HETATM   15  C5  UNL     1      73.048  49.423   6.779  1.00  0.00     0.039 C 
BRANCH  15  16
HETATM   16  C4  UNL     1      72.912  47.969   6.538  1.00  0.00     0.033 C 
BRANCH  16  17
HETATM   17  C3  UNL     1      72.120  47.476   5.395  1.00  0.00     0.271 C 
BRANCH  17  18
HETATM   18  N1  UNL     1      73.021  47.144   4.257  1.00  0.00     0.080 N 
HETATM   19  C1  UNL     1      72.293  46.298   3.331  1.00  0.00     0.309 C 
HETATM   20  C2  UNL     1      74.094  46.302   4.811  1.00  0.00     0.309 C 
ENDBRANCH  17  18
ENDBRANCH  16  17
ENDBRANCH  15  16
ENDBRANCH  13  15
BRANCH  13  21
HETATM   21  O1  UNL     1      73.527  50.062   8.952  1.00  0.00    -0.390 OA
ATOM     22  H1  UNL     1      73.113  50.255   9.785  1.00  0.00     0.210 HD
ENDBRANCH  13  21
ENDBRANCH   1  13
BRANCH  12  23
HETATM   23  O2  UNL     1      69.430  48.902   7.252  1.00  0.00    -0.395 OA
ATOM     24  H2  UNL     1      68.710  48.440   7.665  1.00  0.00     0.210 HD
ENDBRANCH  12  23
TORSDOF 7
ENDMDL
MODEL 3
REMARK VINA RESULT: -6.849965061      3.817      7.880
REMARK  7 active torsions:
REMARK  status: ('A' for Active; 'I' for Inactive)
REMARK    1  A    between atoms: N1_2  and  C3_4 
REMARK    2  A    between atoms: C3_4  and  C4_5 
REMARK    3  A    between atoms: C4_5  and  C5_6 
REMARK    4  A    between atoms: C5_6  and  C6_7 
REMARK    5  A    between atoms: C6_7  and  O1_9 
REMARK    6  A    between atoms: C6_7  and  C8_11 
REMARK    7  A    between atoms: C19_22  and  O2_23 
ROOT
HETATM    1  C8  UNL     1      72.130  49.364   6.899  1.00  0.00     0.049 C 
HETATM    2  C9  UNL     1      70.755  48.896   6.479  1.00  0.00     0.010 C 
HETATM    3  C10 UNL     1      69.747  49.921   6.948  1.00  0.00     0.005 C 
HETATM    4  C11 UNL     1      69.714  49.724   8.456  1.00  0.00    -0.007 C 
HETATM    5  C12 UNL     1      68.596  50.495   9.092  1.00  0.00     0.014 C 
HETATM    6  C13 UNL     1      68.734  50.367  10.597  1.00  0.00    -0.047 C 
HETATM    7  C14 UNL     1      67.400  49.907  11.201  1.00  0.00     0.015 C 
HETATM    8  C15 UNL     1      69.121  51.675  11.239  1.00  0.00     0.015 C 
HETATM    9  C16 UNL     1      69.755  49.327  11.001  1.00  0.00     0.009 C 
HETATM   10  C17 UNL     1      71.117  49.578  10.412  1.00  0.00     0.008 C 
HETATM   11  C18 UNL     1      71.014  50.204   9.036  1.00  0.00     0.019 C 
HETATM   12  C19 UNL     1      72.234  49.941   8.252  1.00  0.00     0.129 C 
ENDROOT
BRANCH   1  13
HETATM   13  C6  UNL     1      73.118  48.187   6.771  1.00  0.00     0.060 C 
HETATM   14  C7  UNL     1      74.301  48.307   7.671  1.00  0.00     0.046 C 
BRANCH  13  15
HETATM   15  C5  UNL     1      73.486  47.937   5.360  1.00  0.00     0.039 C 
BRANCH  15  16
HETATM   16  C4  UNL     1      74.091  46.641   4.978  1.00  0.00     0.033 C 
BRANCH  16  17
HETATM   17  C3  UNL     1      73.531  45.861   3.858  1.00  0.00     0.271 C 
BRANCH  17  18
HETATM   18  N1  UNL     1      72.045  45.845   3.942  1.00  0.00     0.080 N 
HETATM   19  C1  UNL     1      71.640  44.640   4.641  1.00  0.00     0.309 C 
HETATM   20  C2  UNL     1      71.553  45.692   2.562  1.00  0.00     0.309 C 
ENDBRANCH  17  18
ENDBRANCH  16  17
ENDBRANCH  15  16
ENDBRANCH  13  15
BRANCH  13  21
HETATM   21  O1  UNL     1      72.444  47.004   7.205  1.00  0.00    -0.390 OA
ATOM     22  H1  UNL     1      72.307  46.488   6.419  1.00  0.00     0.210 HD
ENDBRANCH  13  21
ENDBRANCH   1  13
BRANCH  12  23
HETATM   23  O2  UNL     1      72.885  51.205   8.131  1.00  0.00    -0.395 OA
ATOM     24  H2  UNL     1      72.273  51.870   8.424  1.00  0.00     0.210 HD
ENDBRANCH  12  23
TORSDOF 7
ENDMDL
MODEL 4
REMARK VINA RESULT: -6.752015332      3.358      6.772
REMARK  7 active torsions:
REMARK  status: ('A' for Active; 'I' for Inactive)
REMARK    1  A    between atoms: N1_2  and  C3_4 
REMARK    2  A    between atoms: C3_4  and  C4_5 
REMARK    3  A    between atoms: C4_5  and  C5_6 
REMARK    4  A    between atoms: C5_6  and  C6_7 
REMARK    5  A    between atoms: C6_7  and  O1_9 
REMARK    6  A    between atoms: C6_7  and  C8_11 
REMARK    7  A    between atoms: C19_22  and  O2_23 
ROOT
HETATM    1  C8  UNL     1      72.132  49.347   6.932  1.00  0.00     0.049 C 
HETATM    2  C9  UNL     1      70.759  48.873   6.511  1.00  0.00     0.010 C 
HETATM    3  C10 UNL     1      69.749  49.904   6.961  1.00  0.00     0.005 C 
HETATM    4  C11 UNL     1      69.708  49.728   8.472  1.00  0.00    -0.007 C 
HETATM    5  C12 UNL     1      68.587  50.507   9.092  1.00  0.00     0.014 C 
HETATM    6  C13 UNL     1      68.717  50.399  10.599  1.00  0.00    -0.047 C 
HETATM    7  C14 UNL     1      67.379  49.947  11.202  1.00  0.00     0.015 C 
HETATM    8  C15 UNL     1      69.101  51.715  11.225  1.00  0.00     0.015 C 
HETATM    9  C16 UNL     1      69.736  49.364  11.022  1.00  0.00     0.009 C 
HETATM   10  C17 UNL     1      71.100  49.608  10.437  1.00  0.00     0.008 C 
HETATM   11  C18 UNL     1      71.004  50.216   9.052  1.00  0.00     0.019 C 
HETATM   12  C19 UNL     1      72.229  49.942   8.277  1.00  0.00     0.129 C 
ENDROOT
BRANCH   1  13
HETATM   13  C6  UNL     1      73.121  48.169   6.825  1.00  0.00     0.060 C 
HETATM   14  C7  UNL     1      73.821  48.100   5.511  1.00  0.00     0.046 C 
BRANCH  13  15
HETATM   15  C5  UNL     1      72.485  46.889   7.212  1.00  0.00     0.039 C 
BRANCH  15  16
HETATM   16  C4  UNL     1      72.647  46.377   8.591  1.00  0.00     0.033 C 
BRANCH  16  17
HETATM   17  C3  UNL     1      71.461  46.102   9.425  1.00  0.00     0.271 C 
BRANCH  17  18
HETATM   18  N1  UNL     1      71.844  46.084  10.864  1.00  0.00     0.080 N 
HETATM   19  C1  UNL     1      73.205  46.573  10.979  1.00  0.00     0.309 C 
HETATM   20  C2  UNL     1      71.892  44.667  11.261  1.00  0.00     0.309 C 
ENDBRANCH  17  18
ENDBRANCH  16  17
ENDBRANCH  15  16
ENDBRANCH  13  15
BRANCH  13  21
HETATM   21  O1  UNL     1      74.159  48.384   7.784  1.00  0.00    -0.390 OA
ATOM     22  H1  UNL     1      74.793  48.942   7.350  1.00  0.00     0.210 HD
ENDBRANCH  13  21
ENDBRANCH   1  13
BRANCH  12  23
HETATM   23  O2  UNL     1      72.880  51.204   8.144  1.00  0.00    -0.395 OA
ATOM     24  H2  UNL     1      72.758  51.676   8.959  1.00  0.00     0.210 HD
ENDBRANCH  12  23
TORSDOF 7
ENDMDL
MODEL 5
REMARK VINA RESULT: -6.737482025      2.532      3.684
REMARK  7 active torsions:
REMARK  status: ('A' for Active; 'I' for Inactive)
REMARK    1  A    between atoms: N1_2  and  C3_4 
REMARK    2  A    between atoms: C3_4  and  C4_5 
REMARK    3  A    between atoms: C4_5  and  C5_6 
REMARK    4  A    between atoms: C5_6  and  C6_7 
REMARK    5  A    between atoms: C6_7  and  O1_9 
REMARK    6  A    between atoms: C6_7  and  C8_11 
REMARK    7  A    between atoms: C19_22  and  O2_23 
ROOT
HETATM    1  C8  UNL     1      67.568  49.786  10.346  1.00  0.00     0.049 C 
HETATM    2  C9  UNL     1      68.636  49.003  11.077  1.00  0.00     0.010 C 
HETATM    3  C10 UNL     1      69.946  49.743  10.925  1.00  0.00     0.005 C 
HETATM    4  C11 UNL     1      70.315  49.518   9.466  1.00  0.00    -0.007 C 
HETATM    5  C12 UNL     1      71.709  49.983   9.168  1.00  0.00     0.014 C 
HETATM    6  C13 UNL     1      71.933  49.867   7.673  1.00  0.00    -0.047 C 
HETATM    7  C14 UNL     1      73.227  49.084   7.404  1.00  0.00     0.015 C 
HETATM    8  C15 UNL     1      72.049  51.218   7.015  1.00  0.00     0.015 C 
HETATM    9  C16 UNL     1      70.831  49.100   6.977  1.00  0.00     0.009 C 
HETATM   10  C17 UNL     1      69.466  49.686   7.215  1.00  0.00     0.008 C 
HETATM   11  C18 UNL     1      69.361  50.291   8.601  1.00  0.00     0.019 C 
HETATM   12  C19 UNL     1      67.954  50.347   9.039  1.00  0.00     0.129 C 
ENDROOT
BRANCH   1  13
HETATM   13  C6  UNL     1      66.327  48.888  10.166  1.00  0.00     0.060 C 
HETATM   14  C7  UNL     1      65.574  48.658  11.432  1.00  0.00     0.046 C 
BRANCH  13  15
HETATM   15  C5  UNL     1      66.662  47.635   9.454  1.00  0.00     0.039 C 
BRANCH  15  16
HETATM   16  C4  UNL     1      65.829  46.429   9.661  1.00  0.00     0.033 C 
BRANCH  16  17
HETATM   17  C3  UNL     1      65.133  45.802   8.520  1.00  0.00     0.271 C 
BRANCH  17  18
HETATM   18  N1  UNL     1      63.675  45.702   8.806  1.00  0.00     0.080 N 
HETATM   19  C1  UNL     1      63.094  44.746   7.883  1.00  0.00     0.309 C 
HETATM   20  C2  UNL     1      63.093  47.007   8.452  1.00  0.00     0.309 C 
ENDBRANCH  17  18
ENDBRANCH  16  17
ENDBRANCH  15  16
ENDBRANCH  13  15
BRANCH  13  21
HETATM   21  O1  UNL     1      65.411  49.578   9.313  1.00  0.00    -0.390 OA
ATOM     22  H1  UNL     1      65.850  50.385   9.069  1.00  0.00     0.210 HD
ENDBRANCH  13  21
ENDBRANCH   1  13
BRANCH  12  23
HETATM   23  O2  UNL     1      67.618  51.734   9.050  1.00  0.00    -0.395 OA
ATOM     24  H2  UNL     1      67.907  52.105   8.225  1.00  0.00     0.210 HD
ENDBRANCH  12  23
TORSDOF 7
ENDMDL
