MODEL 1
REMARK VINA RESULT: -6.146909414      0.000      0.000
REMARK  8 active torsions:
REMARK  status: ('A' for Active; 'I' for Inactive)
REMARK    1  A    between atoms: C4_6  and  N2_7 
REMARK    2  A    between atoms: N2_7  and  C5_9 
REMARK    3  A    between atoms: C5_9  and  C8_12 
REMARK    4  A    between atoms: C8_12  and  C9_13 
REMARK    5  A    between atoms: C9_13  and  C10_14 
REMARK    6  A    between atoms: C10_14  and  C11_15 
REMARK    7  A    between atoms: C11_15  and  N3_16 
REMARK       I    between atoms: N3_16  and  C12_17 
REMARK    8  A    between atoms: C12_17  and  C13_19 
ROOT
HETATM    1  C5  UNL     1      68.122  51.276  10.486  1.00  0.00     0.025 C 
HETATM    2  C6  UNL     1      67.215  52.105  11.322  1.00  0.00     0.038 C 
HETATM    3  C7  UNL     1      69.392  52.154  10.287  1.00  0.00     0.038 C 
ENDROOT
BRANCH   1   4
HETATM    4  N2  UNL     1      67.696  50.961   9.167  1.00  0.00    -0.362 N 
ATOM      5  H2  UNL     1      68.034  51.546   8.403  1.00  0.00     0.162 HD
BRANCH   4   6
HETATM    6  C4  UNL     1      66.899  49.968   8.870  1.00  0.00     0.145 A 
HETATM    7  N1  UNL     1      67.044  49.221   7.781  1.00  0.00    -0.346 N 
HETATM    8  C3  UNL     1      66.183  48.251   7.574  1.00  0.00     0.104 A 
ATOM      9  H1  UNL     1      67.804  49.397   7.123  1.00  0.00     0.167 HD
HETATM   10  C2  UNL     1      65.190  48.072   8.498  1.00  0.00    -0.003 A 
HETATM   11  C1  UNL     1      64.081  47.051   8.514  1.00  0.00     0.058 C 
HETATM   12  S1  UNL     1      65.530  49.302   9.626  1.00  0.00    -0.058 SA
ENDBRANCH   4   6
ENDBRANCH   1   4
BRANCH   1  13
HETATM   13  C8  UNL     1      68.547  50.051  11.265  1.00  0.00     0.030 C 
BRANCH  13  14
HETATM   14  C9  UNL     1      69.910  49.537  10.914  1.00  0.00     0.009 C 
BRANCH  14  15
HETATM   15  C10 UNL     1      69.909  48.034  10.736  1.00  0.00     0.060 C 
BRANCH  15  16
HETATM   16  C11 UNL     1      69.871  47.685   9.247  1.00  0.00     0.159 C 
BRANCH  16  17
HETATM   17  N3  UNL     1      70.246  48.713   8.410  1.00  0.00    -0.387 NA
HETATM   18  C12 UNL     1      70.615  49.729   7.583  1.00  0.00     0.298 C 
HETATM   19  O1  UNL     1      69.888  50.437   6.867  1.00  0.00    -0.256 OA
BRANCH  18  20
HETATM   20  C13 UNL     1      72.094  50.086   7.478  1.00  0.00     0.044 C 
HETATM   21  C14 UNL     1      72.784  49.992   8.804  1.00  0.00     0.026 C 
HETATM   22  C15 UNL     1      72.705  49.101   6.521  1.00  0.00     0.026 C 
HETATM   23  C16 UNL     1      72.131  51.516   6.950  1.00  0.00     0.026 C 
ENDBRANCH  18  20
ENDBRANCH  16  17
ENDBRANCH  15  16
ENDBRANCH  14  15
ENDBRANCH  13  14
ENDBRANCH   1  13
TORSDOF 8
ENDMDL
MODEL 2
REMARK VINA RESULT: -5.783864404      1.574      2.208
REMARK  8 active torsions:
REMARK  status: ('A' for Active; 'I' for Inactive)
REMARK    1  A    between atoms: C4_6  and  N2_7 
REMARK    2  A    between atoms: N2_7  and  C5_9 
REMARK    3  A    between atoms: C5_9  and  C8_12 
REMARK    4  A    between atoms: C8_12  and  C9_13 
REMARK    5  A    between atoms: C9_13  and  C10_14 
REMARK    6  A    between atoms: C10_14  and  C11_15 
REMARK    7  A    between atoms: C11_15  and  N3_16 
REMARK       I    between atoms: N3_16  and  C12_17 
REMARK    8  A    between atoms: C12_17  and  C13_19 
ROOT
HETATM    1  C5  UNL     1      65.982  51.433  11.567  1.00  0.00     0.025 C 
HETATM    2  C6  UNL     1      66.180  50.807  12.900  1.00  0.00     0.038 C 
HETATM    3  C7  UNL     1      65.075  52.669  11.838  1.00  0.00     0.038 C 
ENDROOT
BRANCH   1   4
HETATM    4  N2  UNL     1      65.279  50.684  10.585  1.00  0.00    -0.362 N 
ATOM      5  H2  UNL     1      64.283  50.866  10.468  1.00  0.00     0.162 HD
BRANCH   4   6
HETATM    6  C4  UNL     1      65.828  49.775   9.822  1.00  0.00     0.145 A 
HETATM    7  N1  UNL     1      65.865  49.866   8.497  1.00  0.00    -0.346 N 
HETATM    8  C3  UNL     1      66.437  48.893   7.823  1.00  0.00     0.104 A 
ATOM      9  H1  UNL     1      65.460  50.669   8.016  1.00  0.00     0.167 HD
HETATM   10  C2  UNL     1      66.960  47.847   8.535  1.00  0.00    -0.003 A 
HETATM   11  C1  UNL     1      67.664  46.614   8.029  1.00  0.00     0.058 C 
HETATM   12  S1  UNL     1      66.612  48.300  10.139  1.00  0.00    -0.058 SA
ENDBRANCH   4   6
ENDBRANCH   1   4
BRANCH   1  13
HETATM   13  C8  UNL     1      67.306  51.959  11.056  1.00  0.00     0.030 C 
BRANCH  13  14
HETATM   14  C9  UNL     1      68.496  51.517  11.851  1.00  0.00     0.009 C 
BRANCH  14  15
HETATM   15  C10 UNL     1      69.519  50.820  10.980  1.00  0.00     0.060 C 
BRANCH  15  16
HETATM   16  C11 UNL     1      69.190  51.047   9.504  1.00  0.00     0.159 C 
BRANCH  16  17
HETATM   17  N3  UNL     1      69.979  50.336   8.627  1.00  0.00    -0.387 NA
HETATM   18  C12 UNL     1      70.758  49.633   7.759  1.00  0.00     0.298 C 
HETATM   19  O1  UNL     1      70.438  48.655   7.063  1.00  0.00    -0.256 OA
BRANCH  18  20
HETATM   20  C13 UNL     1      72.214  50.049   7.581  1.00  0.00     0.044 C 
HETATM   21  C14 UNL     1      72.973  49.983   8.870  1.00  0.00     0.026 C 
HETATM   22  C15 UNL     1      72.815  49.090   6.592  1.00  0.00     0.026 C 
HETATM   23  C16 UNL     1      72.166  51.480   7.054  1.00  0.00     0.026 C 
ENDBRANCH  18  20
ENDBRANCH  16  17
ENDBRANCH  15  16
ENDBRANCH  14  15
ENDBRANCH  13  14
ENDBRANCH   1  13
TORSDOF 8
ENDMDL
MODEL 3
REMARK VINA RESULT: -5.771828970      2.125      3.184
REMARK  8 active torsions:
REMARK  status: ('A' for Active; 'I' for Inactive)
REMARK    1  A    between atoms: C4_6  and  N2_7 
REMARK    2  A    between atoms: N2_7  and  C5_9 
REMARK    3  A    between atoms: C5_9  and  C8_12 
REMARK    4  A    between atoms: C8_12  and  C9_13 
REMARK    5  A    between atoms: C9_13  and  C10_14 
REMARK    6  A    between atoms: C10_14  and  C11_15 
REMARK    7  A    between atoms: C11_15  and  N3_16 
REMARK       I    between atoms: N3_16  and  C12_17 
REMARK    8  A    between atoms: C12_17  and  C13_19 
ROOT
HETATM    1  C5  UNL     1      68.345  51.566  10.954  1.00  0.00     0.025 C 
HETATM    2  C6  UNL     1      68.972  52.834  10.498  1.00  0.00     0.038 C 
HETATM    3  C7  UNL     1      67.476  51.096   9.750  1.00  0.00     0.038 C 
ENDROOT
BRANCH   1   4
HETATM    4  N2  UNL     1      67.435  51.637  12.044  1.00  0.00    -0.362 N 
ATOM      5  H2  UNL     1      67.795  51.448  12.979  1.00  0.00     0.162 HD
BRANCH   4   6
HETATM    6  C4  UNL     1      66.166  51.929  11.925  1.00  0.00     0.145 A 
HETATM    7  N1  UNL     1      65.710  53.176  11.875  1.00  0.00    -0.346 N 
HETATM    8  C3  UNL     1      64.414  53.359  11.759  1.00  0.00     0.104 A 
ATOM      9  H1  UNL     1      66.349  53.970  11.925  1.00  0.00     0.167 HD
HETATM   10  C2  UNL     1      63.617  52.248  11.698  1.00  0.00    -0.003 A 
HETATM   11  C1  UNL     1      62.117  52.162  11.566  1.00  0.00     0.058 C 
HETATM   12  S1  UNL     1      64.756  50.986  11.807  1.00  0.00    -0.058 SA
ENDBRANCH   4   6
ENDBRANCH   1   4
BRANCH   1  13
HETATM   13  C8  UNL     1      69.417  50.520  11.163  1.00  0.00     0.030 C 
BRANCH  13  14
HETATM   14  C9  UNL     1      68.925  49.107  11.089  1.00  0.00     0.009 C 
BRANCH  14  15
HETATM   15  C10 UNL     1      70.011  48.163  10.619  1.00  0.00     0.060 C 
BRANCH  15  16
HETATM   16  C11 UNL     1      69.781  47.795   9.151  1.00  0.00     0.159 C 
BRANCH  16  17
HETATM   17  N3  UNL     1      70.198  48.751   8.251  1.00  0.00    -0.387 NA
HETATM   18  C12 UNL     1      70.610  49.695   7.361  1.00  0.00     0.298 C 
HETATM   19  O1  UNL     1      69.936  50.274   6.493  1.00  0.00    -0.256 OA
BRANCH  18  20
HETATM   20  C13 UNL     1      72.069  50.136   7.384  1.00  0.00     0.044 C 
HETATM   21  C14 UNL     1      72.247  51.503   6.800  1.00  0.00     0.026 C 
HETATM   22  C15 UNL     1      72.490  50.145   8.827  1.00  0.00     0.026 C 
HETATM   23  C16 UNL     1      72.821  49.094   6.561  1.00  0.00     0.026 C 
ENDBRANCH  18  20
ENDBRANCH  16  17
ENDBRANCH  15  16
ENDBRANCH  14  15
ENDBRANCH  13  14
ENDBRANCH   1  13
TORSDOF 8
ENDMDL
MODEL 4
REMARK VINA RESULT: -5.743826621      2.526      3.347
REMARK  8 active torsions:
REMARK  status: ('A' for Active; 'I' for Inactive)
REMARK    1  A    between atoms: C4_6  and  N2_7 
REMARK    2  A    between atoms: N2_7  and  C5_9 
REMARK    3  A    between atoms: C5_9  and  C8_12 
REMARK    4  A    between atoms: C8_12  and  C9_13 
REMARK    5  A    between atoms: C9_13  and  C10_14 
REMARK    6  A    between atoms: C10_14  and  C11_15 
REMARK    7  A    between atoms: C11_15  and  N3_16 
REMARK       I    between atoms: N3_16  and  C12_17 
REMARK    8  A    between atoms: C12_17  and  C13_19 
ROOT
HETATM    1  C5  UNL     1      67.487  52.211  11.205  1.00  0.00     0.025 C 
HETATM    2  C6  UNL     1      67.687  53.483  10.462  1.00  0.00     0.038 C 
HETATM    3  C7  UNL     1      66.910  51.221  10.151  1.00  0.00     0.038 C 
ENDROOT
BRANCH   1   4
HETATM    4  N2  UNL     1      66.532  52.207  12.258  1.00  0.00    -0.362 N 
ATOM      5  H2  UNL     1      66.879  52.231  13.217  1.00  0.00     0.162 HD
BRANCH   4   6
HETATM    6  C4  UNL     1      65.238  52.174  12.076  1.00  0.00     0.145 A 
HETATM    7  N1  UNL     1      64.534  53.227  11.676  1.00  0.00    -0.346 N 
HETATM    8  C3  UNL     1      63.236  53.087  11.529  1.00  0.00     0.104 A 
ATOM      9  H1  UNL     1      64.990  54.120  11.487  1.00  0.00     0.167 HD
HETATM   10  C2  UNL     1      62.693  51.860  11.800  1.00  0.00    -0.003 A 
HETATM   11  C1  UNL     1      61.253  51.422  11.717  1.00  0.00     0.058 C 
HETATM   12  S1  UNL     1      64.063  50.957  12.252  1.00  0.00    -0.058 SA
ENDBRANCH   4   6
ENDBRANCH   1   4
BRANCH   1  13
HETATM   13  C8  UNL     1      68.829  51.664  11.640  1.00  0.00     0.030 C 
BRANCH  13  14
HETATM   14  C9  UNL     1      69.568  50.917  10.572  1.00  0.00     0.009 C 
BRANCH  14  15
HETATM   15  C10 UNL     1      69.845  49.487  10.983  1.00  0.00     0.060 C 
BRANCH  15  16
HETATM   16  C11 UNL     1      69.783  48.571   9.758  1.00  0.00     0.159 C 
BRANCH  16  17
HETATM   17  N3  UNL     1      70.257  49.140   8.596  1.00  0.00    -0.387 NA
HETATM   18  C12 UNL     1      70.724  49.702   7.447  1.00  0.00     0.298 C 
HETATM   19  O1  UNL     1      70.092  49.962   6.410  1.00  0.00    -0.256 OA
BRANCH  18  20
HETATM   20  C13 UNL     1      72.199  50.077   7.364  1.00  0.00     0.044 C 
HETATM   21  C14 UNL     1      72.953  49.166   6.445  1.00  0.00     0.026 C 
HETATM   22  C15 UNL     1      72.254  51.483   6.835  1.00  0.00     0.026 C 
HETATM   23  C16 UNL     1      72.729  49.966   8.791  1.00  0.00     0.026 C 
ENDBRANCH  18  20
ENDBRANCH  16  17
ENDBRANCH  15  16
ENDBRANCH  14  15
ENDBRANCH  13  14
ENDBRANCH   1  13
TORSDOF 8
ENDMDL
MODEL 5
REMARK VINA RESULT: -5.730854454      2.592      4.355
REMARK  8 active torsions:
REMARK  status: ('A' for Active; 'I' for Inactive)
REMARK    1  A    between atoms: C4_6  and  N2_7 
REMARK    2  A    between atoms: N2_7  and  C5_9 
REMARK    3  A    between atoms: C5_9  and  C8_12 
REMARK    4  A    between atoms: C8_12  and  C9_13 
REMARK    5  A    between atoms: C9_13  and  C10_14 
REMARK    6  A    between atoms: C10_14  and  C11_15 
REMARK    7  A    between atoms: C11_15  and  N3_16 
REMARK       I    between atoms: N3_16  and  C12_17 
REMARK    8  A    between atoms: C12_17  and  C13_19 
ROOT
HETATM    1  C5  UNL     1      65.697  50.050  11.784  1.00  0.00     0.025 C 
HETATM    2  C6  UNL     1      65.218  50.077  10.377  1.00  0.00     0.038 C 
HETATM    3  C7  UNL     1      64.589  49.285  12.567  1.00  0.00     0.038 C 
ENDROOT
BRANCH   1   4
HETATM    4  N2  UNL     1      65.819  51.293  12.462  1.00  0.00    -0.362 N 
ATOM      5  H2  UNL     1      65.640  51.309  13.465  1.00  0.00     0.162 HD
BRANCH   4   6
HETATM    6  C4  UNL     1      66.146  52.418  11.881  1.00  0.00     0.145 A 
HETATM    7  N1  UNL     1      65.423  53.527  11.989  1.00  0.00    -0.346 N 
HETATM    8  C3  UNL     1      65.839  54.603  11.359  1.00  0.00     0.104 A 
ATOM      9  H1  UNL     1      64.569  53.543  12.546  1.00  0.00     0.167 HD
HETATM   10  C2  UNL     1      66.994  54.509  10.631  1.00  0.00    -0.003 A 
HETATM   11  C1  UNL     1      67.693  55.570   9.820  1.00  0.00     0.058 C 
HETATM   12  S1  UNL     1      67.438  52.883  10.878  1.00  0.00    -0.058 SA
ENDBRANCH   4   6
ENDBRANCH   1   4
BRANCH   1  13
HETATM   13  C8  UNL     1      66.957  49.217  11.871  1.00  0.00     0.030 C 
BRANCH  13  14
HETATM   14  C9  UNL     1      67.760  49.175  10.607  1.00  0.00     0.009 C 
BRANCH  14  15
HETATM   15  C10 UNL     1      69.205  48.814  10.877  1.00  0.00     0.060 C 
BRANCH  15  16
HETATM   16  C11 UNL     1      70.084  50.061  10.765  1.00  0.00     0.159 C 
BRANCH  16  17
HETATM   17  N3  UNL     1      71.113  49.955   9.855  1.00  0.00    -0.387 NA
HETATM   18  C12 UNL     1      72.130  49.849   8.957  1.00  0.00     0.298 C 
HETATM   19  O1  UNL     1      73.297  49.474   9.161  1.00  0.00    -0.256 OA
BRANCH  18  20
HETATM   20  C13 UNL     1      71.865  50.228   7.504  1.00  0.00     0.044 C 
HETATM   21  C14 UNL     1      70.430  50.021   7.128  1.00  0.00     0.026 C 
HETATM   22  C15 UNL     1      72.216  51.684   7.371  1.00  0.00     0.026 C 
HETATM   23  C16 UNL     1      72.776  49.328   6.676  1.00  0.00     0.026 C 
ENDBRANCH  18  20
ENDBRANCH  16  17
ENDBRANCH  15  16
ENDBRANCH  14  15
ENDBRANCH  13  14
ENDBRANCH   1  13
TORSDOF 8
ENDMDL
