MODEL 1
REMARK VINA RESULT: -7.029960386      0.000      0.000
REMARK  6 active torsions:
REMARK  status: ('A' for Active; 'I' for Inactive)
REMARK    1  A    between atoms: C2_2  and  C3_3 
REMARK    2  A    between atoms: C3_3  and  C4_4 
REMARK    3  A    between atoms: C3_3  and  N3_23 
REMARK    4  A    between atoms: C4_4  and  O1_5 
REMARK    5  A    between atoms: C4_4  and  C5_7 
REMARK    6  A    between atoms: C9_11  and  C10_12 
ROOT
HETATM    1  C10 UNL     1      65.754  48.459  11.872  1.00  0.00     0.012 A 
HETATM    2  C11 UNL     1      65.235  48.604  13.162  1.00  0.00     0.101 A 
HETATM    3  N1  UNL     1      63.905  48.400  13.099  1.00  0.00    -0.373 N 
ATOM      4  H1  UNL     1      63.262  48.442  13.890  1.00  0.00     0.164 HD
HETATM    5  C12 UNL     1      63.563  48.132  11.835  1.00  0.00     0.111 A 
HETATM    6  C13 UNL     1      64.702  48.164  11.057  1.00  0.00     0.072 A 
HETATM    7  C14 UNL     1      64.702  47.939   9.636  1.00  0.00     0.102 C 
HETATM    8  N2  UNL     1      64.681  47.753   8.485  1.00  0.00    -0.191 NA
ENDROOT
BRANCH   1   9
HETATM    9  C9  UNL     1      67.159  48.615  11.503  1.00  0.00    -0.017 A 
HETATM   10  C7  UNL     1      68.025  47.595  11.223  1.00  0.00    -0.050 A 
HETATM   11  C6  UNL     1      69.332  47.869  10.859  1.00  0.00     0.022 A 
HETATM   12  C8  UNL     1      67.555  46.172  11.288  1.00  0.00     0.049 C 
HETATM   13  C5  UNL     1      69.820  49.160  10.758  1.00  0.00     0.005 A 
HETATM   14  C16 UNL     1      68.911  50.181  11.058  1.00  0.00    -0.048 A 
HETATM   15  C15 UNL     1      67.634  49.895  11.413  1.00  0.00     0.020 A 
HETATM   16  C17 UNL     1      69.428  51.574  11.094  1.00  0.00     0.049 C 
BRANCH  13  17
HETATM   17  C4  UNL     1      71.090  49.531  10.133  1.00  0.00     0.098 C 
BRANCH  17  18
HETATM   18  C3  UNL     1      71.196  49.826   8.701  1.00  0.00     0.040 C 
BRANCH  18  19
HETATM   19  C2  UNL     1      72.487  50.385   8.211  1.00  0.00     0.055 C 
HETATM   20  C1  UNL     1      72.273  51.697   7.486  1.00  0.00     0.011 C 
ENDBRANCH  18  19
BRANCH  18  21
HETATM   21  N3  UNL     1      70.567  48.993   7.768  1.00  0.00    -0.391 N 
HETATM   22  C18 UNL     1      71.404  48.081   7.030  1.00  0.00     0.149 C 
HETATM   23  C19 UNL     1      69.450  49.498   7.059  1.00  0.00     0.149 C 
ENDBRANCH  18  21
ENDBRANCH  17  18
BRANCH  17  24
HETATM   24  O1  UNL     1      72.227  49.159  10.831  1.00  0.00    -0.358 OA
ATOM     25  H1  UNL     1      72.855  49.826  11.083  1.00  0.00     0.217 HD
ENDBRANCH  17  24
ENDBRANCH  13  17
ENDBRANCH   1   9
TORSDOF 6
ENDMDL
MODEL 2
REMARK VINA RESULT: -6.903128698      1.465      2.450
REMARK  6 active torsions:
REMARK  status: ('A' for Active; 'I' for Inactive)
REMARK    1  A    between atoms: C2_2  and  C3_3 
REMARK    2  A    between atoms: C3_3  and  C4_4 
REMARK    3  A    between atoms: C3_3  and  N3_23 
REMARK    4  A    between atoms: C4_4  and  O1_5 
REMARK    5  A    between atoms: C4_4  and  C5_7 
REMARK    6  A    between atoms: C9_11  and  C10_12 
ROOT
HETATM    1  C10 UNL     1      66.418  50.115  12.140  1.00  0.00     0.012 A 
HETATM    2  C11 UNL     1      66.149  50.720  13.371  1.00  0.00     0.101 A 
HETATM    3  N1  UNL     1      64.835  50.572  13.628  1.00  0.00    -0.373 N 
ATOM      4  H1  UNL     1      64.351  50.916  14.458  1.00  0.00     0.164 HD
HETATM    5  C12 UNL     1      64.266  49.904  12.620  1.00  0.00     0.111 A 
HETATM    6  C13 UNL     1      65.237  49.610  11.685  1.00  0.00     0.072 A 
HETATM    7  C14 UNL     1      64.973  48.910  10.456  1.00  0.00     0.102 C 
HETATM    8  N2  UNL     1      64.739  48.341   9.465  1.00  0.00    -0.191 NA
ENDROOT
BRANCH   1   9
HETATM    9  C9  UNL     1      67.725  50.066  11.490  1.00  0.00    -0.017 A 
HETATM   10  C7  UNL     1      68.420  51.145  11.020  1.00  0.00    -0.050 A 
HETATM   11  C6  UNL     1      69.667  50.975  10.443  1.00  0.00     0.022 A 
HETATM   12  C8  UNL     1      67.843  52.523  11.147  1.00  0.00     0.049 C 
HETATM   13  C5  UNL     1      70.265  49.733  10.317  1.00  0.00     0.005 A 
HETATM   14  C16 UNL     1      69.525  48.649  10.802  1.00  0.00    -0.048 A 
HETATM   15  C15 UNL     1      68.304  48.832  11.364  1.00  0.00     0.020 A 
HETATM   16  C17 UNL     1      70.067  47.286  10.565  1.00  0.00     0.049 C 
BRANCH  13  17
HETATM   17  C4  UNL     1      71.668  49.509   9.968  1.00  0.00     0.098 C 
BRANCH  17  18
HETATM   18  C3  UNL     1      72.125  49.454   8.577  1.00  0.00     0.040 C 
BRANCH  18  19
HETATM   19  C2  UNL     1      72.819  50.655   8.035  1.00  0.00     0.055 C 
HETATM   20  C1  UNL     1      72.041  51.264   6.887  1.00  0.00     0.011 C 
ENDBRANCH  18  19
BRANCH  18  21
HETATM   21  N3  UNL     1      72.611  48.252   8.048  1.00  0.00    -0.391 N 
HETATM   22  C18 UNL     1      74.018  48.192   7.738  1.00  0.00     0.149 C 
HETATM   23  C19 UNL     1      71.771  47.502   7.192  1.00  0.00     0.149 C 
ENDBRANCH  18  21
ENDBRANCH  17  18
BRANCH  17  24
HETATM   24  O1  UNL     1      72.439  48.917  10.955  1.00  0.00    -0.358 OA
ATOM     25  H1  UNL     1      73.384  48.898  10.856  1.00  0.00     0.217 HD
ENDBRANCH  17  24
ENDBRANCH  13  17
ENDBRANCH   1   9
TORSDOF 6
ENDMDL
MODEL 3
REMARK VINA RESULT: -6.900939418      1.972      2.282
REMARK  6 active torsions:
REMARK  status: ('A' for Active; 'I' for Inactive)
REMARK    1  A    between atoms: C2_2  and  C3_3 
REMARK    2  A    between atoms: C3_3  and  C4_4 
REMARK    3  A    between atoms: C3_3  and  N3_23 
REMARK    4  A    between atoms: C4_4  and  O1_5 
REMARK    5  A    between atoms: C4_4  and  C5_7 
REMARK    6  A    between atoms: C9_11  and  C10_12 
ROOT
HETATM    1  C10 UNL     1      67.266  46.390  11.197  1.00  0.00     0.012 A 
HETATM    2  C11 UNL     1      66.680  46.196  12.451  1.00  0.00     0.101 A 
HETATM    3  N1  UNL     1      65.447  45.690  12.259  1.00  0.00    -0.373 N 
ATOM      4  H1  UNL     1      64.784  45.448  12.996  1.00  0.00     0.164 HD
HETATM    5  C12 UNL     1      65.230  45.554  10.947  1.00  0.00     0.111 A 
HETATM    6  C13 UNL     1      66.353  45.984  10.270  1.00  0.00     0.072 A 
HETATM    7  C14 UNL     1      66.462  45.997   8.836  1.00  0.00     0.102 C 
HETATM    8  N2  UNL     1      66.531  45.999   7.672  1.00  0.00    -0.191 NA
ENDROOT
BRANCH   1   9
HETATM    9  C9  UNL     1      68.600  46.937  10.963  1.00  0.00    -0.017 A 
HETATM   10  C7  UNL     1      69.723  46.207  10.693  1.00  0.00    -0.050 A 
HETATM   11  C6  UNL     1      70.931  46.842  10.462  1.00  0.00     0.022 A 
HETATM   12  C8  UNL     1      69.647  44.711  10.624  1.00  0.00     0.049 C 
HETATM   13  C5  UNL     1      71.063  48.220  10.488  1.00  0.00     0.005 A 
HETATM   14  C16 UNL     1      69.897  48.938  10.774  1.00  0.00    -0.048 A 
HETATM   15  C15 UNL     1      68.721  48.301  10.998  1.00  0.00     0.020 A 
HETATM   16  C17 UNL     1      70.020  50.409  10.946  1.00  0.00     0.049 C 
BRANCH  13  17
HETATM   17  C4  UNL     1      72.227  48.960  10.001  1.00  0.00     0.098 C 
BRANCH  17  18
HETATM   18  C3  UNL     1      72.443  49.223   8.576  1.00  0.00     0.040 C 
BRANCH  18  19
HETATM   19  C2  UNL     1      72.992  50.556   8.199  1.00  0.00     0.055 C 
HETATM   20  C1  UNL     1      72.055  51.287   7.261  1.00  0.00     0.011 C 
ENDBRANCH  18  19
BRANCH  18  21
HETATM   21  N3  UNL     1      72.874  48.191   7.733  1.00  0.00    -0.391 N 
HETATM   22  C18 UNL     1      74.259  48.206   7.333  1.00  0.00     0.149 C 
HETATM   23  C19 UNL     1      71.971  47.685   6.768  1.00  0.00     0.149 C 
ENDBRANCH  18  21
ENDBRANCH  17  18
BRANCH  17  24
HETATM   24  O1  UNL     1      73.309  49.004  10.866  1.00  0.00    -0.358 OA
ATOM     25  H1  UNL     1      73.400  48.327  11.528  1.00  0.00     0.217 HD
ENDBRANCH  17  24
ENDBRANCH  13  17
ENDBRANCH   1   9
TORSDOF 6
ENDMDL
MODEL 4
REMARK VINA RESULT: -6.798740232      2.402      3.585
REMARK  6 active torsions:
REMARK  status: ('A' for Active; 'I' for Inactive)
REMARK    1  A    between atoms: C2_2  and  C3_3 
REMARK    2  A    between atoms: C3_3  and  C4_4 
REMARK    3  A    between atoms: C3_3  and  N3_23 
REMARK    4  A    between atoms: C4_4  and  O1_5 
REMARK    5  A    between atoms: C4_4  and  C5_7 
REMARK    6  A    between atoms: C9_11  and  C10_12 
ROOT
HETATM    1  C10 UNL     1      67.491  50.275  11.310  1.00  0.00     0.012 A 
HETATM    2  C11 UNL     1      66.579  49.672  12.182  1.00  0.00     0.101 A 
HETATM    3  N1  UNL     1      65.972  50.646  12.886  1.00  0.00    -0.373 N 
ATOM      4  H1  UNL     1      65.257  50.503  13.600  1.00  0.00     0.164 HD
HETATM    5  C12 UNL     1      66.456  51.830  12.499  1.00  0.00     0.111 A 
HETATM    6  C13 UNL     1      67.402  51.619  11.517  1.00  0.00     0.072 A 
HETATM    7  C14 UNL     1      68.144  52.677  10.885  1.00  0.00     0.102 C 
HETATM    8  N2  UNL     1      68.734  53.548  10.383  1.00  0.00    -0.191 NA
ENDROOT
BRANCH   1   9
HETATM    9  C9  UNL     1      68.366  49.567  10.379  1.00  0.00    -0.017 A 
HETATM   10  C7  UNL     1      68.016  49.139   9.129  1.00  0.00    -0.050 A 
HETATM   11  C6  UNL     1      68.944  48.499   8.325  1.00  0.00     0.022 A 
HETATM   12  C8  UNL     1      66.629  49.382   8.613  1.00  0.00     0.049 C 
HETATM   13  C5  UNL     1      70.246  48.265   8.733  1.00  0.00     0.005 A 
HETATM   14  C16 UNL     1      70.570  48.709  10.020  1.00  0.00    -0.048 A 
HETATM   15  C15 UNL     1      69.650  49.334  10.795  1.00  0.00     0.020 A 
HETATM   16  C17 UNL     1      71.914  48.359  10.549  1.00  0.00     0.049 C 
BRANCH  13  17
HETATM   17  C4  UNL     1      71.336  47.841   7.855  1.00  0.00     0.098 C 
BRANCH  17  18
HETATM   18  C3  UNL     1      71.968  48.755   6.899  1.00  0.00     0.040 C 
BRANCH  18  19
HETATM   19  C2  UNL     1      71.434  50.144   6.823  1.00  0.00     0.055 C 
HETATM   20  C1  UNL     1      72.288  51.101   7.627  1.00  0.00     0.011 C 
ENDBRANCH  18  19
BRANCH  18  21
HETATM   21  N3  UNL     1      73.347  48.681   6.669  1.00  0.00    -0.391 N 
HETATM   22  C18 UNL     1      73.775  48.125   5.410  1.00  0.00     0.149 C 
HETATM   23  C19 UNL     1      74.201  48.421   7.767  1.00  0.00     0.149 C 
ENDBRANCH  18  21
ENDBRANCH  17  18
BRANCH  17  24
HETATM   24  O1  UNL     1      71.435  46.474   7.648  1.00  0.00    -0.358 OA
ATOM     25  H1  UNL     1      71.449  45.892   8.399  1.00  0.00     0.217 HD
ENDBRANCH  17  24
ENDBRANCH  13  17
ENDBRANCH   1   9
TORSDOF 6
ENDMDL
MODEL 5
REMARK VINA RESULT: -6.779304857      2.591      6.797
REMARK  6 active torsions:
REMARK  status: ('A' for Active; 'I' for Inactive)
REMARK    1  A    between atoms: C2_2  and  C3_3 
REMARK    2  A    between atoms: C3_3  and  C4_4 
REMARK    3  A    between atoms: C3_3  and  N3_23 
REMARK    4  A    between atoms: C4_4  and  O1_5 
REMARK    5  A    between atoms: C4_4  and  C5_7 
REMARK    6  A    between atoms: C9_11  and  C10_12 
ROOT
HETATM    1  C10 UNL     1      69.961  49.479  10.027  1.00  0.00     0.012 A 
HETATM    2  C11 UNL     1      71.268  49.489  10.522  1.00  0.00     0.101 A 
HETATM    3  N1  UNL     1      72.097  49.166   9.511  1.00  0.00    -0.373 N 
ATOM      4  H1  UNL     1      73.113  49.094   9.579  1.00  0.00     0.164 HD
HETATM    5  C12 UNL     1      71.376  48.955   8.407  1.00  0.00     0.111 A 
HETATM    6  C13 UNL     1      70.043  49.146   8.709  1.00  0.00     0.072 A 
HETATM    7  C14 UNL     1      68.979  48.983   7.754  1.00  0.00     0.102 C 
HETATM    8  N2  UNL     1      68.131  48.847   6.966  1.00  0.00    -0.191 NA
ENDROOT
BRANCH   1   9
HETATM    9  C9  UNL     1      68.759  49.762  10.808  1.00  0.00    -0.017 A 
HETATM   10  C7  UNL     1      68.322  51.005  11.171  1.00  0.00    -0.050 A 
HETATM   11  C6  UNL     1      67.149  51.150  11.892  1.00  0.00     0.022 A 
HETATM   12  C8  UNL     1      69.101  52.222  10.769  1.00  0.00     0.049 C 
HETATM   13  C5  UNL     1      66.372  50.070  12.272  1.00  0.00     0.005 A 
HETATM   14  C16 UNL     1      66.851  48.811  11.892  1.00  0.00    -0.048 A 
HETATM   15  C15 UNL     1      68.002  48.686  11.185  1.00  0.00     0.020 A 
HETATM   16  C17 UNL     1      66.122  47.617  12.395  1.00  0.00     0.049 C 
BRANCH  13  17
HETATM   17  C4  UNL     1      65.009  50.159  12.795  1.00  0.00     0.098 C 
BRANCH  17  18
HETATM   18  C3  UNL     1      63.865  50.478  11.937  1.00  0.00     0.040 C 
BRANCH  18  19
HETATM   19  C2  UNL     1      62.909  49.378  11.630  1.00  0.00     0.055 C 
HETATM   20  C1  UNL     1      63.333  48.615  10.393  1.00  0.00     0.011 C 
ENDBRANCH  18  19
BRANCH  18  21
HETATM   21  N3  UNL     1      63.248  51.732  12.032  1.00  0.00    -0.391 N 
HETATM   22  C18 UNL     1      61.906  51.846  11.518  1.00  0.00     0.149 C 
HETATM   23  C19 UNL     1      64.049  52.890  11.893  1.00  0.00     0.149 C 
ENDBRANCH  18  21
ENDBRANCH  17  18
BRANCH  17  24
HETATM   24  O1  UNL     1      64.908  50.374  14.160  1.00  0.00    -0.358 OA
ATOM     25  H1  UNL     1      65.689  50.606  14.651  1.00  0.00     0.217 HD
ENDBRANCH  17  24
ENDBRANCH  13  17
ENDBRANCH   1   9
TORSDOF 6
ENDMDL
