MODEL 1
REMARK VINA RESULT: -7.120213652      0.000      0.000
REMARK  7 active torsions:
REMARK  status: ('A' for Active; 'I' for Inactive)
REMARK    1  A    between atoms: C2_2  and  C3_3 
REMARK    2  A    between atoms: C9_10  and  O2_12 
REMARK    3  A    between atoms: C11_14  and  C12_15 
REMARK    4  A    between atoms: C13_16  and  C15_18 
REMARK    5  A    between atoms: C15_18  and  C16_19 
REMARK    6  A    between atoms: C17_20  and  C18_21 
REMARK    7  A    between atoms: C18_21  and  O3_24 
ROOT
HETATM    1  C3  UNL     1      72.991  48.899   6.812  1.00  0.00     0.084 C 
HETATM    2  C4  UNL     1      71.594  49.254   6.623  1.00  0.00     0.140 C 
HETATM    3  O1  UNL     1      70.957  49.051   5.615  1.00  0.00    -0.297 OA
HETATM    4  C5  UNL     1      70.893  49.922   7.763  1.00  0.00     0.066 C 
HETATM    5  C6  UNL     1      71.731  51.122   8.226  1.00  0.00     0.013 C 
HETATM    6  C7  UNL     1      73.177  50.743   8.329  1.00  0.00     0.009 C 
HETATM    7  C8  UNL     1      73.327  49.233   8.267  1.00  0.00     0.035 C 
HETATM    8  C9  UNL     1      72.348  48.635   9.242  1.00  0.00     0.066 C 
HETATM    9  C10 UNL     1      72.456  47.145   9.359  1.00  0.00     0.047 C 
HETATM   10  C11 UNL     1      70.906  48.942   8.911  1.00  0.00     0.054 C 
ENDROOT
BRANCH  10  11
HETATM   11  C12 UNL     1      70.138  49.413  10.075  1.00  0.00    -0.016 C 
HETATM   12  C13 UNL     1      68.936  48.952  10.402  1.00  0.00    -0.084 C 
HETATM   13  C14 UNL     1      68.254  47.900   9.601  1.00  0.00     0.043 C 
BRANCH  12  14
HETATM   14  C15 UNL     1      68.223  49.489  11.603  1.00  0.00     0.060 C 
BRANCH  14  15
HETATM   15  C16 UNL     1      66.857  49.942  11.303  1.00  0.00    -0.024 C 
HETATM   16  C17 UNL     1      66.404  51.158  11.197  1.00  0.00     0.006 C 
BRANCH  16  17
HETATM   17  C18 UNL     1      67.227  52.386  11.368  1.00  0.00     0.068 C 
HETATM   18  C19 UNL     1      68.134  52.592  10.170  1.00  0.00     0.050 C 
HETATM   19  C20 UNL     1      66.407  53.625  11.624  1.00  0.00     0.050 C 
BRANCH  17  20
HETATM   20  O3  UNL     1      68.058  52.225  12.493  1.00  0.00    -0.387 OA
ATOM     21  H3  UNL     1      68.948  52.068  12.199  1.00  0.00     0.211 HD
ENDBRANCH  17  20
ENDBRANCH  16  17
ENDBRANCH  14  15
ENDBRANCH  12  14
ENDBRANCH  10  11
BRANCH   8  22
HETATM   22  O2  UNL     1      72.666  49.166  10.492  1.00  0.00    -0.389 OA
ATOM     23  H2  UNL     1      71.881  49.088  11.023  1.00  0.00     0.210 HD
ENDBRANCH   8  22
BRANCH   1  24
HETATM   24  C2  UNL     1      73.439  47.586   6.398  1.00  0.00    -0.024 C 
HETATM   25  C1  UNL     1      73.916  47.262   5.217  1.00  0.00     0.008 C 
ENDBRANCH   1  24
TORSDOF 7
ENDMDL
MODEL 2
REMARK VINA RESULT: -7.061343892      2.489      7.550
REMARK  7 active torsions:
REMARK  status: ('A' for Active; 'I' for Inactive)
REMARK    1  A    between atoms: C2_2  and  C3_3 
REMARK    2  A    between atoms: C9_10  and  O2_12 
REMARK    3  A    between atoms: C11_14  and  C12_15 
REMARK    4  A    between atoms: C13_16  and  C15_18 
REMARK    5  A    between atoms: C15_18  and  C16_19 
REMARK    6  A    between atoms: C17_20  and  C18_21 
REMARK    7  A    between atoms: C18_21  and  O3_24 
ROOT
HETATM    1  C3  UNL     1      64.070  51.560  12.419  1.00  0.00     0.084 C 
HETATM    2  C4  UNL     1      65.016  51.079  13.414  1.00  0.00     0.140 C 
HETATM    3  O1  UNL     1      64.722  50.712  14.529  1.00  0.00    -0.297 OA
HETATM    4  C5  UNL     1      66.460  51.039  13.029  1.00  0.00     0.066 C 
HETATM    5  C6  UNL     1      66.864  52.412  12.472  1.00  0.00     0.013 C 
HETATM    6  C7  UNL     1      65.826  52.914  11.514  1.00  0.00     0.009 C 
HETATM    7  C8  UNL     1      64.874  51.791  11.139  1.00  0.00     0.035 C 
HETATM    8  C9  UNL     1      65.706  50.597  10.749  1.00  0.00     0.066 C 
HETATM    9  C10 UNL     1      64.893  49.439  10.257  1.00  0.00     0.047 C 
HETATM   10  C11 UNL     1      66.571  50.076  11.873  1.00  0.00     0.054 C 
ENDROOT
BRANCH  10  11
HETATM   11  C12 UNL     1      67.963  49.834  11.460  1.00  0.00    -0.016 C 
HETATM   12  C13 UNL     1      68.462  48.628  11.217  1.00  0.00    -0.084 C 
HETATM   13  C14 UNL     1      67.638  47.397  11.346  1.00  0.00     0.043 C 
BRANCH  12  14
HETATM   14  C15 UNL     1      69.892  48.472  10.803  1.00  0.00     0.060 C 
BRANCH  14  15
HETATM   15  C16 UNL     1      70.505  49.738  10.375  1.00  0.00    -0.024 C 
HETATM   16  C17 UNL     1      70.577  50.248   9.179  1.00  0.00     0.006 C 
BRANCH  16  17
HETATM   17  C18 UNL     1      70.024  49.613   7.953  1.00  0.00     0.068 C 
HETATM   18  C19 UNL     1      70.657  50.210   6.711  1.00  0.00     0.050 C 
HETATM   19  C20 UNL     1      70.161  48.111   7.942  1.00  0.00     0.050 C 
BRANCH  17  20
HETATM   20  O3  UNL     1      68.643  49.882   7.883  1.00  0.00    -0.387 OA
ATOM     21  H3  UNL     1      68.165  49.064   7.953  1.00  0.00     0.211 HD
ENDBRANCH  17  20
ENDBRANCH  16  17
ENDBRANCH  14  15
ENDBRANCH  12  14
ENDBRANCH  10  11
BRANCH   8  22
HETATM   22  O2  UNL     1      66.512  51.010   9.689  1.00  0.00    -0.389 OA
ATOM     23  H2  UNL     1      67.280  50.450   9.703  1.00  0.00     0.210 HD
ENDBRANCH   8  22
BRANCH   1  24
HETATM   24  C2  UNL     1      62.843  50.821  12.210  1.00  0.00    -0.024 C 
HETATM   25  C1  UNL     1      61.797  51.227  11.524  1.00  0.00     0.008 C 
ENDBRANCH   1  24
TORSDOF 7
ENDMDL
MODEL 3
REMARK VINA RESULT: -6.989863522      0.942      1.283
REMARK  7 active torsions:
REMARK  status: ('A' for Active; 'I' for Inactive)
REMARK    1  A    between atoms: C2_2  and  C3_3 
REMARK    2  A    between atoms: C9_10  and  O2_12 
REMARK    3  A    between atoms: C11_14  and  C12_15 
REMARK    4  A    between atoms: C13_16  and  C15_18 
REMARK    5  A    between atoms: C15_18  and  C16_19 
REMARK    6  A    between atoms: C17_20  and  C18_21 
REMARK    7  A    between atoms: C18_21  and  O3_24 
ROOT
HETATM    1  C3  UNL     1      72.963  48.886   6.767  1.00  0.00     0.084 C 
HETATM    2  C4  UNL     1      71.572  49.269   6.585  1.00  0.00     0.140 C 
HETATM    3  O1  UNL     1      70.925  49.076   5.582  1.00  0.00    -0.297 OA
HETATM    4  C5  UNL     1      70.893  49.956   7.726  1.00  0.00     0.066 C 
HETATM    5  C6  UNL     1      71.758  51.140   8.179  1.00  0.00     0.013 C 
HETATM    6  C7  UNL     1      73.196  50.731   8.275  1.00  0.00     0.009 C 
HETATM    7  C8  UNL     1      73.315  49.218   8.218  1.00  0.00     0.035 C 
HETATM    8  C9  UNL     1      72.329  48.644   9.202  1.00  0.00     0.066 C 
HETATM    9  C10 UNL     1      72.407  47.154   9.324  1.00  0.00     0.047 C 
HETATM   10  C11 UNL     1      70.893  48.981   8.878  1.00  0.00     0.054 C 
ENDROOT
BRANCH  10  11
HETATM   11  C12 UNL     1      70.141  49.472  10.045  1.00  0.00    -0.016 C 
HETATM   12  C13 UNL     1      68.905  49.087  10.342  1.00  0.00    -0.084 C 
HETATM   13  C14 UNL     1      68.164  48.108   9.503  1.00  0.00     0.043 C 
BRANCH  12  14
HETATM   14  C15 UNL     1      68.213  49.639  11.549  1.00  0.00     0.060 C 
BRANCH  14  15
HETATM   15  C16 UNL     1      68.426  51.084  11.720  1.00  0.00    -0.024 C 
HETATM   16  C17 UNL     1      67.544  52.023  11.912  1.00  0.00     0.006 C 
BRANCH  16  17
HETATM   17  C18 UNL     1      66.076  51.801  11.999  1.00  0.00     0.068 C 
HETATM   18  C19 UNL     1      65.739  50.919  13.187  1.00  0.00     0.050 C 
HETATM   19  C20 UNL     1      65.279  53.079  12.053  1.00  0.00     0.050 C 
BRANCH  17  20
HETATM   20  O3  UNL     1      65.648  51.118  10.844  1.00  0.00    -0.387 OA
ATOM     21  H3  UNL     1      66.012  50.240  10.852  1.00  0.00     0.211 HD
ENDBRANCH  17  20
ENDBRANCH  16  17
ENDBRANCH  14  15
ENDBRANCH  12  14
ENDBRANCH  10  11
BRANCH   8  22
HETATM   22  O2  UNL     1      72.666  49.174  10.448  1.00  0.00    -0.389 OA
ATOM     23  H2  UNL     1      71.957  48.941  11.037  1.00  0.00     0.210 HD
ENDBRANCH   8  22
BRANCH   1  24
HETATM   24  C2  UNL     1      73.381  47.562   6.356  1.00  0.00    -0.024 C 
HETATM   25  C1  UNL     1      73.934  47.242   5.207  1.00  0.00     0.008 C 
ENDBRANCH   1  24
TORSDOF 7
ENDMDL
MODEL 4
REMARK VINA RESULT: -6.972979856      1.470      2.041
REMARK  7 active torsions:
REMARK  status: ('A' for Active; 'I' for Inactive)
REMARK    1  A    between atoms: C2_2  and  C3_3 
REMARK    2  A    between atoms: C9_10  and  O2_12 
REMARK    3  A    between atoms: C11_14  and  C12_15 
REMARK    4  A    between atoms: C13_16  and  C15_18 
REMARK    5  A    between atoms: C15_18  and  C16_19 
REMARK    6  A    between atoms: C17_20  and  C18_21 
REMARK    7  A    between atoms: C18_21  and  O3_24 
ROOT
HETATM    1  C3  UNL     1      72.898  46.949   7.315  1.00  0.00     0.084 C 
HETATM    2  C4  UNL     1      71.465  47.048   7.544  1.00  0.00     0.140 C 
HETATM    3  O1  UNL     1      70.675  46.145   7.391  1.00  0.00    -0.297 OA
HETATM    4  C5  UNL     1      70.931  48.367   8.001  1.00  0.00     0.066 C 
HETATM    5  C6  UNL     1      71.435  49.463   7.053  1.00  0.00     0.013 C 
HETATM    6  C7  UNL     1      72.896  49.281   6.773  1.00  0.00     0.009 C 
HETATM    7  C8  UNL     1      73.496  48.287   7.752  1.00  0.00     0.035 C 
HETATM    8  C9  UNL     1      73.067  48.693   9.137  1.00  0.00     0.066 C 
HETATM    9  C10 UNL     1      73.671  47.853  10.220  1.00  0.00     0.047 C 
HETATM   10  C11 UNL     1      71.570  48.651   9.338  1.00  0.00     0.054 C 
ENDROOT
BRANCH  10  11
HETATM   11  C12 UNL     1      71.043  49.868   9.978  1.00  0.00    -0.016 C 
HETATM   12  C13 UNL     1      69.946  49.892  10.727  1.00  0.00    -0.084 C 
HETATM   13  C14 UNL     1      69.145  48.666  10.985  1.00  0.00     0.043 C 
BRANCH  12  14
HETATM   14  C15 UNL     1      69.479  51.175  11.340  1.00  0.00     0.060 C 
BRANCH  14  15
HETATM   15  C16 UNL     1      69.001  52.144  10.343  1.00  0.00    -0.024 C 
HETATM   16  C17 UNL     1      67.923  52.875  10.365  1.00  0.00     0.006 C 
BRANCH  16  17
HETATM   17  C18 UNL     1      66.917  52.867  11.462  1.00  0.00     0.068 C 
HETATM   18  C19 UNL     1      66.189  54.196  11.527  1.00  0.00     0.050 C 
HETATM   19  C20 UNL     1      65.929  51.733  11.361  1.00  0.00     0.050 C 
BRANCH  17  20
HETATM   20  O3  UNL     1      67.584  52.701  12.691  1.00  0.00    -0.387 OA
ATOM     21  H3  UNL     1      66.973  52.872  13.398  1.00  0.00     0.211 HD
ENDBRANCH  17  20
ENDBRANCH  16  17
ENDBRANCH  14  15
ENDBRANCH  12  14
ENDBRANCH  10  11
BRANCH   8  22
HETATM   22  O2  UNL     1      73.530  49.995   9.326  1.00  0.00    -0.389 OA
ATOM     23  H2  UNL     1      72.826  50.469   9.754  1.00  0.00     0.210 HD
ENDBRANCH   8  22
BRANCH   1  24
HETATM   24  C2  UNL     1      73.609  45.798   7.831  1.00  0.00    -0.024 C 
HETATM   25  C1  UNL     1      74.867  45.494   7.604  1.00  0.00     0.008 C 
ENDBRANCH   1  24
TORSDOF 7
ENDMDL
MODEL 5
REMARK VINA RESULT: -6.958899346      1.885      3.366
REMARK  7 active torsions:
REMARK  status: ('A' for Active; 'I' for Inactive)
REMARK    1  A    between atoms: C2_2  and  C3_3 
REMARK    2  A    between atoms: C9_10  and  O2_12 
REMARK    3  A    between atoms: C11_14  and  C12_15 
REMARK    4  A    between atoms: C13_16  and  C15_18 
REMARK    5  A    between atoms: C15_18  and  C16_19 
REMARK    6  A    between atoms: C17_20  and  C18_21 
REMARK    7  A    between atoms: C18_21  and  O3_24 
ROOT
HETATM    1  C3  UNL     1      72.203  48.205   8.653  1.00  0.00     0.084 C 
HETATM    2  C4  UNL     1      72.222  48.521  10.073  1.00  0.00     0.140 C 
HETATM    3  O1  UNL     1      73.191  48.906  10.684  1.00  0.00    -0.297 OA
HETATM    4  C5  UNL     1      70.944  48.355  10.831  1.00  0.00     0.066 C 
HETATM    5  C6  UNL     1      70.388  46.949  10.566  1.00  0.00     0.013 C 
HETATM    6  C7  UNL     1      70.462  46.624   9.105  1.00  0.00     0.009 C 
HETATM    7  C8  UNL     1      70.750  47.882   8.304  1.00  0.00     0.035 C 
HETATM    8  C9  UNL     1      69.790  48.947   8.764  1.00  0.00     0.066 C 
HETATM    9  C10 UNL     1      69.894  50.222   7.984  1.00  0.00     0.047 C 
HETATM   10  C11 UNL     1      69.952  49.313  10.220  1.00  0.00     0.054 C 
ENDROOT
BRANCH  10  11
HETATM   11  C12 UNL     1      68.673  49.354  10.947  1.00  0.00    -0.016 C 
HETATM   12  C13 UNL     1      68.202  50.439  11.553  1.00  0.00    -0.084 C 
HETATM   13  C14 UNL     1      68.945  51.727  11.545  1.00  0.00     0.043 C 
BRANCH  12  14
HETATM   14  C15 UNL     1      66.890  50.392  12.272  1.00  0.00     0.060 C 
BRANCH  14  15
HETATM   15  C16 UNL     1      65.758  50.105  11.380  1.00  0.00    -0.024 C 
HETATM   16  C17 UNL     1      64.629  50.743  11.260  1.00  0.00     0.006 C 
BRANCH  16  17
HETATM   17  C18 UNL     1      64.251  51.949  12.045  1.00  0.00     0.068 C 
HETATM   18  C19 UNL     1      65.323  53.016  11.935  1.00  0.00     0.050 C 
HETATM   19  C20 UNL     1      62.906  52.515  11.663  1.00  0.00     0.050 C 
BRANCH  17  20
HETATM   20  O3  UNL     1      64.157  51.596  13.405  1.00  0.00    -0.387 OA
ATOM     21  H3  UNL     1      63.700  52.287  13.872  1.00  0.00     0.211 HD
ENDBRANCH  17  20
ENDBRANCH  16  17
ENDBRANCH  14  15
ENDBRANCH  12  14
ENDBRANCH  10  11
BRANCH   8  22
HETATM   22  O2  UNL     1      68.508  48.441   8.547  1.00  0.00    -0.389 OA
ATOM     23  H2  UNL     1      68.463  47.619   9.022  1.00  0.00     0.210 HD
ENDBRANCH   8  22
BRANCH   1  24
HETATM   24  C2  UNL     1      72.835  49.121   7.727  1.00  0.00    -0.024 C 
HETATM   25  C1  UNL     1      73.143  48.871   6.473  1.00  0.00     0.008 C 
ENDBRANCH   1  24
TORSDOF 7
ENDMDL
