MODEL 1
REMARK VINA RESULT: -6.691238500      0.000      0.000
REMARK  7 active torsions:
REMARK  status: ('A' for Active; 'I' for Inactive)
REMARK    1  A    between atoms: C9_9  and  O1_10 
REMARK    2  A    between atoms: C13_15  and  C14_16 
REMARK    3  A    between atoms: C14_16  and  O2_17 
REMARK    4  A    between atoms: C14_16  and  C15_19 
REMARK    5  A    between atoms: C15_19  and  C16_20 
REMARK    6  A    between atoms: C16_20  and  C17_21 
REMARK    7  A    between atoms: C17_21  and  C19_23 
ROOT
HETATM    1  C1  UNL     1      72.556  51.454   7.499  1.00  0.00     0.014 C 
HETATM    2  C2  UNL     1      71.623  50.598   7.773  1.00  0.00    -0.085 C 
HETATM    3  C3  UNL     1      70.462  50.486   6.790  1.00  0.00     0.034 C 
HETATM    4  C4  UNL     1      70.491  49.152   6.123  1.00  0.00     0.005 C 
HETATM    5  C5  UNL     1      71.168  48.092   6.992  1.00  0.00     0.006 C 
HETATM    6  C6  UNL     1      70.854  48.446   8.420  1.00  0.00     0.005 C 
HETATM    7  C7  UNL     1      71.500  49.685   8.935  1.00  0.00     0.021 C 
HETATM    8  C8  UNL     1      72.707  49.487   9.757  1.00  0.00     0.042 C 
HETATM    9  C9  UNL     1      73.315  48.153   9.561  1.00  0.00     0.127 C 
HETATM   10  C10 UNL     1      72.369  47.000   9.812  1.00  0.00    -0.012 C 
HETATM   11  C11 UNL     1      72.520  46.647  11.265  1.00  0.00     0.018 C 
HETATM   12  C12 UNL     1      73.011  45.857   9.042  1.00  0.00     0.018 C 
HETATM   13  C13 UNL     1      70.972  47.221   9.354  1.00  0.00     0.057 C 
ENDROOT
BRANCH  13  14
HETATM   14  C14 UNL     1      69.909  47.338  10.345  1.00  0.00     0.048 C 
BRANCH  14  15
HETATM   15  O2  UNL     1      69.452  46.099  10.863  1.00  0.00    -0.365 OA
ATOM     16  H2  UNL     1      68.507  46.004  10.876  1.00  0.00     0.217 HD
ENDBRANCH  14  15
BRANCH  14  17
HETATM   17  C15 UNL     1      68.877  48.373  10.353  1.00  0.00     0.029 C 
BRANCH  17  18
HETATM   18  C16 UNL     1      68.825  49.450  11.359  1.00  0.00    -0.013 C 
BRANCH  18  19
HETATM   19  C17 UNL     1      68.879  50.873  11.005  1.00  0.00     0.065 C 
HETATM   20  C18 UNL     1      68.156  51.139   9.690  1.00  0.00     0.021 C 
BRANCH  19  21
HETATM   21  C19 UNL     1      68.075  51.696  12.013  1.00  0.00     0.239 C 
HETATM   22  O3  UNL     1      67.779  52.828  11.771  1.00  0.00    -0.306 OA
ENDBRANCH  19  21
ENDBRANCH  18  19
ENDBRANCH  17  18
ENDBRANCH  14  17
ENDBRANCH  13  14
BRANCH   9  23
HETATM   23  O1  UNL     1      74.482  48.024  10.341  1.00  0.00    -0.395 OA
ATOM     24  H1  UNL     1      74.434  47.246  10.883  1.00  0.00     0.210 HD
ENDBRANCH   9  23
TORSDOF 7
ENDMDL
MODEL 2
REMARK VINA RESULT: -6.627189919      2.064      3.856
REMARK  7 active torsions:
REMARK  status: ('A' for Active; 'I' for Inactive)
REMARK    1  A    between atoms: C9_9  and  O1_10 
REMARK    2  A    between atoms: C13_15  and  C14_16 
REMARK    3  A    between atoms: C14_16  and  O2_17 
REMARK    4  A    between atoms: C14_16  and  C15_19 
REMARK    5  A    between atoms: C15_19  and  C16_20 
REMARK    6  A    between atoms: C16_20  and  C17_21 
REMARK    7  A    between atoms: C17_21  and  C19_23 
ROOT
HETATM    1  C1  UNL     1      73.391  48.905   8.721  1.00  0.00     0.014 C 
HETATM    2  C2  UNL     1      72.455  49.799   8.681  1.00  0.00    -0.085 C 
HETATM    3  C3  UNL     1      72.503  50.816   7.544  1.00  0.00     0.034 C 
HETATM    4  C4  UNL     1      71.346  50.604   6.628  1.00  0.00     0.005 C 
HETATM    5  C5  UNL     1      70.156  49.966   7.345  1.00  0.00     0.006 C 
HETATM    6  C6  UNL     1      70.181  50.483   8.758  1.00  0.00     0.005 C 
HETATM    7  C7  UNL     1      71.310  50.000   9.602  1.00  0.00     0.021 C 
HETATM    8  C8  UNL     1      70.996  48.896  10.525  1.00  0.00     0.042 C 
HETATM    9  C9  UNL     1      69.763  48.171  10.145  1.00  0.00     0.127 C 
HETATM   10  C10 UNL     1      68.542  49.054  10.019  1.00  0.00    -0.012 C 
HETATM   11  C11 UNL     1      67.893  49.062  11.375  1.00  0.00     0.018 C 
HETATM   12  C12 UNL     1      67.620  48.238   9.127  1.00  0.00     0.018 C 
HETATM   13  C13 UNL     1      68.791  50.395   9.427  1.00  0.00     0.057 C 
ENDROOT
BRANCH  13  14
HETATM   14  C14 UNL     1      68.647  51.580  10.263  1.00  0.00     0.048 C 
BRANCH  14  15
HETATM   15  O2  UNL     1      69.196  51.448  11.565  1.00  0.00    -0.365 OA
ATOM     16  H2  UNL     1      69.835  52.113  11.790  1.00  0.00     0.217 HD
ENDBRANCH  14  15
BRANCH  14  17
HETATM   17  C15 UNL     1      67.523  52.513  10.213  1.00  0.00     0.029 C 
BRANCH  17  18
HETATM   18  C16 UNL     1      66.886  53.072  11.419  1.00  0.00    -0.013 C 
BRANCH  18  19
HETATM   19  C17 UNL     1      66.452  54.470  11.514  1.00  0.00     0.065 C 
HETATM   20  C18 UNL     1      67.006  55.297  10.360  1.00  0.00     0.021 C 
BRANCH  19  21
HETATM   21  C19 UNL     1      64.939  54.565  11.310  1.00  0.00     0.239 C 
HETATM   22  O3  UNL     1      64.484  55.295  10.480  1.00  0.00    -0.306 OA
ENDBRANCH  19  21
ENDBRANCH  18  19
ENDBRANCH  17  18
ENDBRANCH  14  17
ENDBRANCH  13  14
BRANCH   9  23
HETATM   23  O1  UNL     1      69.523  47.106  11.036  1.00  0.00    -0.395 OA
ATOM     24  H1  UNL     1      68.591  46.943  11.114  1.00  0.00     0.210 HD
ENDBRANCH   9  23
TORSDOF 7
ENDMDL
MODEL 3
REMARK VINA RESULT: -6.589924703      3.124      5.786
REMARK  7 active torsions:
REMARK  status: ('A' for Active; 'I' for Inactive)
REMARK    1  A    between atoms: C9_9  and  O1_10 
REMARK    2  A    between atoms: C13_15  and  C14_16 
REMARK    3  A    between atoms: C14_16  and  O2_17 
REMARK    4  A    between atoms: C14_16  and  C15_19 
REMARK    5  A    between atoms: C15_19  and  C16_20 
REMARK    6  A    between atoms: C16_20  and  C17_21 
REMARK    7  A    between atoms: C17_21  and  C19_23 
ROOT
HETATM    1  C1  UNL     1      65.110  47.292   8.822  1.00  0.00     0.014 C 
HETATM    2  C2  UNL     1      65.400  47.963   9.892  1.00  0.00    -0.085 C 
HETATM    3  C3  UNL     1      64.864  47.434  11.219  1.00  0.00     0.034 C 
HETATM    4  C4  UNL     1      65.996  46.972  12.073  1.00  0.00     0.005 C 
HETATM    5  C5  UNL     1      67.298  47.702  11.743  1.00  0.00     0.006 C 
HETATM    6  C6  UNL     1      66.913  49.097  11.329  1.00  0.00     0.005 C 
HETATM    7  C7  UNL     1      66.191  49.209  10.031  1.00  0.00     0.021 C 
HETATM    8  C8  UNL     1      67.009  49.612   8.874  1.00  0.00     0.042 C 
HETATM    9  C9  UNL     1      68.456  49.402   9.100  1.00  0.00     0.127 C 
HETATM   10  C10 UNL     1      68.994  50.094  10.332  1.00  0.00    -0.012 C 
HETATM   11  C11 UNL     1      69.454  51.452   9.880  1.00  0.00     0.018 C 
HETATM   12  C12 UNL     1      70.262  49.312  10.637  1.00  0.00     0.018 C 
HETATM   13  C13 UNL     1      68.082  50.092  11.506  1.00  0.00     0.057 C 
ENDROOT
BRANCH  13  14
HETATM   14  C14 UNL     1      67.504  51.351  11.960  1.00  0.00     0.048 C 
BRANCH  14  15
HETATM   15  O2  UNL     1      68.403  52.184  12.673  1.00  0.00    -0.365 OA
ATOM     16  H2  UNL     1      67.991  52.913  13.120  1.00  0.00     0.217 HD
ENDBRANCH  14  15
BRANCH  14  17
HETATM   17  C15 UNL     1      66.112  51.540  12.363  1.00  0.00     0.029 C 
BRANCH  17  18
HETATM   18  C16 UNL     1      65.182  52.434  11.649  1.00  0.00    -0.013 C 
BRANCH  18  19
HETATM   19  C17 UNL     1      64.945  53.824  12.055  1.00  0.00     0.065 C 
HETATM   20  C18 UNL     1      66.107  54.721  11.646  1.00  0.00     0.021 C 
BRANCH  19  21
HETATM   21  C19 UNL     1      63.768  54.406  11.270  1.00  0.00     0.239 C 
HETATM   22  O3  UNL     1      63.926  55.348  10.552  1.00  0.00    -0.306 OA
ENDBRANCH  19  21
ENDBRANCH  18  19
ENDBRANCH  17  18
ENDBRANCH  14  17
ENDBRANCH  13  14
BRANCH   9  23
HETATM   23  O1  UNL     1      69.191  49.770   7.956  1.00  0.00    -0.395 OA
ATOM     24  H1  UNL     1      68.760  49.457   7.169  1.00  0.00     0.210 HD
ENDBRANCH   9  23
TORSDOF 7
ENDMDL
MODEL 4
REMARK VINA RESULT: -6.565560110      0.866      1.075
REMARK  7 active torsions:
REMARK  status: ('A' for Active; 'I' for Inactive)
REMARK    1  A    between atoms: C9_9  and  O1_10 
REMARK    2  A    between atoms: C13_15  and  C14_16 
REMARK    3  A    between atoms: C14_16  and  O2_17 
REMARK    4  A    between atoms: C14_16  and  C15_19 
REMARK    5  A    between atoms: C15_19  and  C16_20 
REMARK    6  A    between atoms: C16_20  and  C17_21 
REMARK    7  A    between atoms: C17_21  and  C19_23 
ROOT
HETATM    1  C1  UNL     1      72.450  51.437   7.742  1.00  0.00     0.014 C 
HETATM    2  C2  UNL     1      71.615  50.448   7.804  1.00  0.00    -0.085 C 
HETATM    3  C3  UNL     1      70.633  50.285   6.648  1.00  0.00     0.034 C 
HETATM    4  C4  UNL     1      70.942  49.034   5.897  1.00  0.00     0.005 C 
HETATM    5  C5  UNL     1      71.628  47.990   6.778  1.00  0.00     0.006 C 
HETATM    6  C6  UNL     1      71.067  48.165   8.164  1.00  0.00     0.005 C 
HETATM    7  C7  UNL     1      71.455  49.422   8.863  1.00  0.00     0.021 C 
HETATM    8  C8  UNL     1      72.547  49.301   9.844  1.00  0.00     0.042 C 
HETATM    9  C9  UNL     1      73.356  48.078   9.646  1.00  0.00     0.127 C 
HETATM   10  C10 UNL     1      72.552  46.797   9.661  1.00  0.00    -0.012 C 
HETATM   11  C11 UNL     1      72.541  46.330  11.090  1.00  0.00     0.018 C 
HETATM   12  C12 UNL     1      73.449  45.821   8.917  1.00  0.00     0.018 C 
HETATM   13  C13 UNL     1      71.217  46.882   9.011  1.00  0.00     0.057 C 
ENDROOT
BRANCH  13  14
HETATM   14  C14 UNL     1      70.018  46.772   9.832  1.00  0.00     0.048 C 
BRANCH  14  15
HETATM   15  O2  UNL     1      69.497  45.456   9.932  1.00  0.00    -0.365 OA
ATOM     16  H2  UNL     1      70.005  44.874  10.483  1.00  0.00     0.217 HD
ENDBRANCH  14  15
BRANCH  14  17
HETATM   17  C15 UNL     1      68.990  47.802   9.962  1.00  0.00     0.029 C 
BRANCH  17  18
HETATM   18  C16 UNL     1      68.871  48.676  11.143  1.00  0.00    -0.013 C 
BRANCH  18  19
HETATM   19  C17 UNL     1      68.335  50.041  11.072  1.00  0.00     0.065 C 
HETATM   20  C18 UNL     1      69.427  51.073  11.325  1.00  0.00     0.021 C 
BRANCH  19  21
HETATM   21  C19 UNL     1      67.887  50.355   9.644  1.00  0.00     0.239 C 
HETATM   22  O3  UNL     1      67.575  51.468   9.339  1.00  0.00    -0.306 OA
ENDBRANCH  19  21
ENDBRANCH  18  19
ENDBRANCH  17  18
ENDBRANCH  14  17
ENDBRANCH  13  14
BRANCH   9  23
HETATM   23  O1  UNL     1      74.405  48.024  10.585  1.00  0.00    -0.395 OA
ATOM     24  H1  UNL     1      74.240  48.626  11.301  1.00  0.00     0.210 HD
ENDBRANCH   9  23
TORSDOF 7
ENDMDL
MODEL 5
REMARK VINA RESULT: -6.559049193      1.835      3.038
REMARK  7 active torsions:
REMARK  status: ('A' for Active; 'I' for Inactive)
REMARK    1  A    between atoms: C9_9  and  O1_10 
REMARK    2  A    between atoms: C13_15  and  C14_16 
REMARK    3  A    between atoms: C14_16  and  O2_17 
REMARK    4  A    between atoms: C14_16  and  C15_19 
REMARK    5  A    between atoms: C15_19  and  C16_20 
REMARK    6  A    between atoms: C16_20  and  C17_21 
REMARK    7  A    between atoms: C17_21  and  C19_23 
ROOT
HETATM    1  C1  UNL     1      73.505  49.834   8.946  1.00  0.00     0.014 C 
HETATM    2  C2  UNL     1      72.304  50.230   8.663  1.00  0.00    -0.085 C 
HETATM    3  C3  UNL     1      72.124  51.090   7.416  1.00  0.00     0.034 C 
HETATM    4  C4  UNL     1      71.341  50.339   6.393  1.00  0.00     0.005 C 
HETATM    5  C5  UNL     1      70.419  49.297   7.028  1.00  0.00     0.006 C 
HETATM    6  C6  UNL     1      69.978  49.866   8.350  1.00  0.00     0.005 C 
HETATM    7  C7  UNL     1      71.037  49.976   9.391  1.00  0.00     0.021 C 
HETATM    8  C8  UNL     1      71.055  48.908  10.405  1.00  0.00     0.042 C 
HETATM    9  C9  UNL     1      70.324  47.698   9.969  1.00  0.00     0.127 C 
HETATM   10  C10 UNL     1      68.890  47.955   9.567  1.00  0.00    -0.012 C 
HETATM   11  C11 UNL     1      68.068  47.770  10.813  1.00  0.00     0.018 C 
HETATM   12  C12 UNL     1      68.564  46.763   8.681  1.00  0.00     0.018 C 
HETATM   13  C13 UNL     1      68.658  49.229   8.837  1.00  0.00     0.057 C 
ENDROOT
BRANCH  13  14
HETATM   14  C14 UNL     1      67.887  50.287   9.480  1.00  0.00     0.048 C 
BRANCH  14  15
HETATM   15  O2  UNL     1      66.616  50.523   8.895  1.00  0.00    -0.365 OA
ATOM     16  H2  UNL     1      66.176  51.301   9.215  1.00  0.00     0.217 HD
ENDBRANCH  14  15
BRANCH  14  17
HETATM   17  C15 UNL     1      68.455  51.478  10.106  1.00  0.00     0.029 C 
BRANCH  17  18
HETATM   18  C16 UNL     1      68.564  51.645  11.567  1.00  0.00    -0.013 C 
BRANCH  18  19
HETATM   19  C17 UNL     1      67.430  52.043  12.410  1.00  0.00     0.065 C 
HETATM   20  C18 UNL     1      66.503  52.998  11.666  1.00  0.00     0.021 C 
BRANCH  19  21
HETATM   21  C19 UNL     1      66.532  50.835  12.685  1.00  0.00     0.239 C 
HETATM   22  O3  UNL     1      65.605  50.595  11.970  1.00  0.00    -0.306 OA
ENDBRANCH  19  21
ENDBRANCH  18  19
ENDBRANCH  17  18
ENDBRANCH  14  17
ENDBRANCH  13  14
BRANCH   9  23
HETATM   23  O1  UNL     1      70.397  46.696  10.957  1.00  0.00    -0.395 OA
ATOM     24  H1  UNL     1      69.755  46.016  10.788  1.00  0.00     0.210 HD
ENDBRANCH   9  23
TORSDOF 7
ENDMDL
