MODEL 1
REMARK VINA RESULT: -5.765744692      0.000      0.000
REMARK  17 active torsions:
REMARK  status: ('A' for Active; 'I' for Inactive)
REMARK    1  A    between atoms: C2_2  and  C3_3 
REMARK    2  A    between atoms: C3_3  and  C4_4 
REMARK    3  A    between atoms: C5_5  and  O1_6 
REMARK    4  A    between atoms: O1_6  and  C6_7 
REMARK    5  A    between atoms: C7_8  and  O2_9 
REMARK    6  A    between atoms: C8_11  and  O3_12 
REMARK    7  A    between atoms: C11_17  and  O5_18 
REMARK    8  A    between atoms: C12_20  and  O6_21 
REMARK    9  A    between atoms: C13_23  and  O7_24 
REMARK   10  A    between atoms: O7_24  and  C14_25 
REMARK   11  A    between atoms: C14_25  and  O8_26 
REMARK   12  A    between atoms: C17_29  and  O9_30 
REMARK   13  A    between atoms: C18_32  and  O10_33 
REMARK   14  A    between atoms: C23_40  and  O12_41 
REMARK   15  A    between atoms: C24_43  and  C25_44 
REMARK   16  A    between atoms: C24_43  and  C27_46 
REMARK   17  A    between atoms: C27_46  and  O13_47 
ROOT
HETATM    1  C6  UNL     1      -4.774   1.854   5.561  1.00  0.00     0.167 C 
HETATM    2  C7  UNL     1      -5.771   3.015   5.535  1.00  0.00     0.179 C 
HETATM    3  C8  UNL     1      -6.640   2.745   4.367  1.00  0.00     0.178 C 
HETATM    4  C9  UNL     1      -6.401   1.307   3.930  1.00  0.00     0.160 C 
HETATM    5  O4  UNL     1      -7.593   0.682   3.857  1.00  0.00    -0.372 OA
HETATM    6  C10 UNL     1      -7.664  -0.630   3.529  1.00  0.00     0.184 C 
HETATM    7  C11 UNL     1      -6.565  -1.220   2.754  1.00  0.00     0.180 C 
HETATM    8  C12 UNL     1      -5.420  -1.801   3.452  1.00  0.00     0.178 C 
HETATM    9  C13 UNL     1      -5.396  -1.783   4.938  1.00  0.00     0.162 C 
HETATM   10  C16 UNL     1      -5.809  -0.482   5.595  1.00  0.00     0.058 C 
HETATM   11  C17 UNL     1      -7.248  -0.711   5.916  1.00  0.00     0.156 C 
HETATM   12  C18 UNL     1      -8.036  -1.380   4.800  1.00  0.00     0.178 C 
HETATM   13  C19 UNL     1      -5.385   0.704   4.864  1.00  0.00     0.058 C 
ENDROOT
BRANCH   1  14
HETATM   14  O1  UNL     1      -4.232   1.678   6.811  1.00  0.00    -0.343 OA
BRANCH  14  15
HETATM   15  C5  UNL     1      -2.850   1.559   6.827  1.00  0.00     0.088 C 
HETATM   16  C4  UNL     1      -2.131   2.834   6.431  1.00  0.00    -0.010 C 
HETATM   17  C24 UNL     1      -0.706   2.497   6.190  1.00  0.00     0.060 C 
HETATM   18  C23 UNL     1      -0.190   1.466   7.213  1.00  0.00     0.273 C 
HETATM   19  O11 UNL     1      -0.991   1.383   8.320  1.00  0.00    -0.343 OA
HETATM   20  C20 UNL     1      -2.240   0.814   7.949  1.00  0.00     0.105 C 
HETATM   21  C21 UNL     1      -1.838  -0.630   7.558  1.00  0.00     0.053 C 
HETATM   22  C22 UNL     1      -3.036   0.651   9.193  1.00  0.00     0.053 C 
BRANCH  16  23
HETATM   23  C3  UNL     1      -2.488   4.078   7.094  1.00  0.00     0.010 C 
BRANCH  23  24
HETATM   24  C2  UNL     1      -3.037   5.225   6.411  1.00  0.00    -0.010 C 
HETATM   25  C1  UNL     1      -2.991   5.396   5.092  1.00  0.00     0.011 C 
ENDBRANCH  23  24
ENDBRANCH  16  23
BRANCH  17  26
HETATM   26  C25 UNL     1      -0.461   1.805   4.835  1.00  0.00     0.017 C 
HETATM   27  C26 UNL     1      -1.371   2.190   3.750  1.00  0.00     0.006 C 
ENDBRANCH  17  26
BRANCH  17  28
HETATM   28  C27 UNL     1       0.287   3.609   6.219  1.00  0.00     0.183 C 
BRANCH  28  29
HETATM   29  O13 UNL     1       1.383   3.475   5.407  1.00  0.00    -0.400 OA
ATOM     30  H13 UNL     1       2.086   4.102   5.534  1.00  0.00     0.209 HD
ENDBRANCH  28  29
ENDBRANCH  17  28
BRANCH  18  31
HETATM   31  O12 UNL     1       1.118   1.779   7.629  1.00  0.00    -0.370 OA
ATOM     32  H12 UNL     1       1.422   2.530   7.134  1.00  0.00     0.212 HD
ENDBRANCH  18  31
ENDBRANCH  14  15
ENDBRANCH   1  14
BRANCH   2  33
HETATM   33  O2  UNL     1      -6.404   3.223   6.740  1.00  0.00    -0.390 OA
ATOM     34  H2  UNL     1      -6.832   4.069   6.803  1.00  0.00     0.210 HD
ENDBRANCH   2  33
BRANCH   3  35
HETATM   35  O3  UNL     1      -6.386   3.660   3.317  1.00  0.00    -0.390 OA
ATOM     36  H3  UNL     1      -6.834   4.485   3.464  1.00  0.00     0.210 HD
ENDBRANCH   3  35
BRANCH   9  37
HETATM   37  O7  UNL     1      -4.107  -2.124   5.340  1.00  0.00    -0.359 OA
BRANCH  37  38
HETATM   38  C14 UNL     1      -4.110  -3.175   6.266  1.00  0.00     0.337 C 
BRANCH  38  39
HETATM   39  O8  UNL     1      -3.750  -4.329   5.619  1.00  0.00    -0.372 OA
HETATM   40  C15 UNL     1      -4.102  -5.447   6.380  1.00  0.00     0.204 C 
ENDBRANCH  38  39
ENDBRANCH  37  38
ENDBRANCH   9  37
BRANCH  11  41
HETATM   41  O9  UNL     1      -7.972   0.308   6.421  1.00  0.00    -0.392 OA
ATOM     42  H9  UNL     1      -8.491   0.839   5.828  1.00  0.00     0.210 HD
ENDBRANCH  11  41
BRANCH   8  43
HETATM   43  O6  UNL     1      -5.252  -3.178   3.119  1.00  0.00    -0.390 OA
ATOM     44  H6  UNL     1      -5.001  -3.690   3.878  1.00  0.00     0.210 HD
ENDBRANCH   8  43
BRANCH  12  45
HETATM   45  O10 UNL     1      -9.411  -1.163   5.056  1.00  0.00    -0.390 OA
ATOM     46  H10 UNL     1      -9.518  -0.992   5.984  1.00  0.00     0.210 HD
ENDBRANCH  12  45
BRANCH   7  47
HETATM   47  O5  UNL     1      -7.101  -2.214   1.894  1.00  0.00    -0.390 OA
ATOM     48  H5  UNL     1      -6.412  -2.512   1.311  1.00  0.00     0.210 HD
ENDBRANCH   7  47
TORSDOF 17
ENDMDL
MODEL 2
REMARK VINA RESULT: -5.737103175      2.143      6.499
REMARK  17 active torsions:
REMARK  status: ('A' for Active; 'I' for Inactive)
REMARK    1  A    between atoms: C2_2  and  C3_3 
REMARK    2  A    between atoms: C3_3  and  C4_4 
REMARK    3  A    between atoms: C5_5  and  O1_6 
REMARK    4  A    between atoms: O1_6  and  C6_7 
REMARK    5  A    between atoms: C7_8  and  O2_9 
REMARK    6  A    between atoms: C8_11  and  O3_12 
REMARK    7  A    between atoms: C11_17  and  O5_18 
REMARK    8  A    between atoms: C12_20  and  O6_21 
REMARK    9  A    between atoms: C13_23  and  O7_24 
REMARK   10  A    between atoms: O7_24  and  C14_25 
REMARK   11  A    between atoms: C14_25  and  O8_26 
REMARK   12  A    between atoms: C17_29  and  O9_30 
REMARK   13  A    between atoms: C18_32  and  O10_33 
REMARK   14  A    between atoms: C23_40  and  O12_41 
REMARK   15  A    between atoms: C24_43  and  C25_44 
REMARK   16  A    between atoms: C24_43  and  C27_46 
REMARK   17  A    between atoms: C27_46  and  O13_47 
ROOT
HETATM    1  C6  UNL     1      -4.662   1.899   4.948  1.00  0.00     0.167 C 
HETATM    2  C7  UNL     1      -3.745   3.120   5.050  1.00  0.00     0.179 C 
HETATM    3  C8  UNL     1      -3.494   3.287   6.500  1.00  0.00     0.178 C 
HETATM    4  C9  UNL     1      -3.947   2.015   7.201  1.00  0.00     0.160 C 
HETATM    5  O4  UNL     1      -2.931   1.568   7.967  1.00  0.00    -0.372 OA
HETATM    6  C10 UNL     1      -3.054   0.418   8.671  1.00  0.00     0.184 C 
HETATM    7  C11 UNL     1      -4.401  -0.043   9.033  1.00  0.00     0.180 C 
HETATM    8  C12 UNL     1      -5.133  -0.918   8.121  1.00  0.00     0.178 C 
HETATM    9  C13 UNL     1      -4.494  -1.324   6.842  1.00  0.00     0.162 C 
HETATM   10  C16 UNL     1      -3.793  -0.226   6.069  1.00  0.00     0.058 C 
HETATM   11  C17 UNL     1      -2.369  -0.380   6.487  1.00  0.00     0.156 C 
HETATM   12  C18 UNL     1      -2.179  -0.616   7.978  1.00  0.00     0.178 C 
HETATM   13  C19 UNL     1      -4.460   1.066   6.150  1.00  0.00     0.058 C 
ENDROOT
BRANCH   1  14
HETATM   14  O1  UNL     1      -4.598   1.319   3.704  1.00  0.00    -0.343 OA
BRANCH  14  15
HETATM   15  C5  UNL     1      -5.746   0.639   3.326  1.00  0.00     0.088 C 
HETATM   16  C4  UNL     1      -7.007   1.471   3.449  1.00  0.00    -0.010 C 
HETATM   17  C24 UNL     1      -8.171   0.557   3.319  1.00  0.00     0.060 C 
HETATM   18  C23 UNL     1      -7.919  -0.525   2.250  1.00  0.00     0.273 C 
HETATM   19  O11 UNL     1      -6.896  -0.195   1.403  1.00  0.00    -0.343 OA
HETATM   20  C20 UNL     1      -5.670  -0.217   2.123  1.00  0.00     0.105 C 
HETATM   21  C21 UNL     1      -5.521  -1.720   2.467  1.00  0.00     0.053 C 
HETATM   22  C22 UNL     1      -4.582   0.047   1.146  1.00  0.00     0.053 C 
BRANCH  16  23
HETATM   23  C3  UNL     1      -7.041   2.791   2.841  1.00  0.00     0.010 C 
BRANCH  23  24
HETATM   24  C2  UNL     1      -6.636   3.060   1.482  1.00  0.00    -0.010 C 
HETATM   25  C1  UNL     1      -7.479   3.114   0.453  1.00  0.00     0.011 C 
ENDBRANCH  23  24
ENDBRANCH  16  23
BRANCH  17  26
HETATM   26  C25 UNL     1      -8.451  -0.261   4.594  1.00  0.00     0.017 C 
HETATM   27  C26 UNL     1      -8.176   0.422   5.862  1.00  0.00     0.006 C 
ENDBRANCH  17  26
BRANCH  17  28
HETATM   28  C27 UNL     1      -9.490   1.156   2.968  1.00  0.00     0.183 C 
BRANCH  28  29
HETATM   29  O13 UNL     1     -10.595   0.593   3.552  1.00  0.00    -0.400 OA
ATOM     30  H13 UNL     1     -11.142   0.053   2.994  1.00  0.00     0.209 HD
ENDBRANCH  28  29
ENDBRANCH  17  28
BRANCH  18  31
HETATM   31  O12 UNL     1      -9.078  -0.757   1.485  1.00  0.00    -0.370 OA
ATOM     32  H12 UNL     1      -9.652  -1.336   1.972  1.00  0.00     0.212 HD
ENDBRANCH  18  31
ENDBRANCH  14  15
ENDBRANCH   1  14
BRANCH   2  33
HETATM   33  O2  UNL     1      -2.637   3.045   4.237  1.00  0.00    -0.390 OA
ATOM     34  H2  UNL     1      -2.701   3.585   3.458  1.00  0.00     0.210 HD
ENDBRANCH   2  33
BRANCH   3  35
HETATM   35  O3  UNL     1      -4.160   4.430   7.007  1.00  0.00    -0.390 OA
ATOM     36  H3  UNL     1      -3.993   4.541   7.935  1.00  0.00     0.210 HD
ENDBRANCH   3  35
BRANCH   9  37
HETATM   37  O7  UNL     1      -5.480  -1.901   6.046  1.00  0.00    -0.359 OA
BRANCH  37  38
HETATM   38  C14 UNL     1      -5.049  -3.104   5.472  1.00  0.00     0.337 C 
BRANCH  38  39
HETATM   39  O8  UNL     1      -4.631  -3.942   6.474  1.00  0.00    -0.372 OA
HETATM   40  C15 UNL     1      -3.869  -4.989   5.950  1.00  0.00     0.204 C 
ENDBRANCH  38  39
ENDBRANCH  37  38
ENDBRANCH   9  37
BRANCH  11  41
HETATM   41  O9  UNL     1      -1.464   0.526   6.064  1.00  0.00    -0.392 OA
ATOM     42  H9  UNL     1      -0.552   0.407   6.300  1.00  0.00     0.210 HD
ENDBRANCH  11  41
BRANCH   8  43
HETATM   43  O6  UNL     1      -5.475  -2.154   8.746  1.00  0.00    -0.390 OA
ATOM     44  H6  UNL     1      -5.844  -2.767   8.122  1.00  0.00     0.210 HD
ENDBRANCH   8  43
BRANCH  12  45
HETATM   45  O10 UNL     1      -0.827  -0.334   8.289  1.00  0.00    -0.390 OA
ATOM     46  H10 UNL     1      -0.677  -0.566   9.198  1.00  0.00     0.210 HD
ENDBRANCH  12  45
BRANCH   7  47
HETATM   47  O5  UNL     1      -4.333  -0.689  10.295  1.00  0.00    -0.390 OA
ATOM     48  H5  UNL     1      -4.516  -1.613  10.172  1.00  0.00     0.210 HD
ENDBRANCH   7  47
TORSDOF 17
ENDMDL
MODEL 3
REMARK VINA RESULT: -5.737089775      2.578      4.844
REMARK  17 active torsions:
REMARK  status: ('A' for Active; 'I' for Inactive)
REMARK    1  A    between atoms: C2_2  and  C3_3 
REMARK    2  A    between atoms: C3_3  and  C4_4 
REMARK    3  A    between atoms: C5_5  and  O1_6 
REMARK    4  A    between atoms: O1_6  and  C6_7 
REMARK    5  A    between atoms: C7_8  and  O2_9 
REMARK    6  A    between atoms: C8_11  and  O3_12 
REMARK    7  A    between atoms: C11_17  and  O5_18 
REMARK    8  A    between atoms: C12_20  and  O6_21 
REMARK    9  A    between atoms: C13_23  and  O7_24 
REMARK   10  A    between atoms: O7_24  and  C14_25 
REMARK   11  A    between atoms: C14_25  and  O8_26 
REMARK   12  A    between atoms: C17_29  and  O9_30 
REMARK   13  A    between atoms: C18_32  and  O10_33 
REMARK   14  A    between atoms: C23_40  and  O12_41 
REMARK   15  A    between atoms: C24_43  and  C25_44 
REMARK   16  A    between atoms: C24_43  and  C27_46 
REMARK   17  A    between atoms: C27_46  and  O13_47 
ROOT
HETATM    1  C6  UNL     1      -5.635   1.352   5.025  1.00  0.00     0.167 C 
HETATM    2  C7  UNL     1      -5.719   2.727   5.690  1.00  0.00     0.179 C 
HETATM    3  C8  UNL     1      -5.593   3.696   4.577  1.00  0.00     0.178 C 
HETATM    4  C9  UNL     1      -5.784   2.936   3.273  1.00  0.00     0.160 C 
HETATM    5  O4  UNL     1      -6.735   3.563   2.552  1.00  0.00    -0.372 OA
HETATM    6  C10 UNL     1      -7.133   3.067   1.356  1.00  0.00     0.184 C 
HETATM    7  C11 UNL     1      -6.206   2.204   0.612  1.00  0.00     0.180 C 
HETATM    8  C12 UNL     1      -6.224   0.761   0.838  1.00  0.00     0.178 C 
HETATM    9  C13 UNL     1      -7.186   0.197   1.822  1.00  0.00     0.162 C 
HETATM   10  C16 UNL     1      -7.306   0.938   3.137  1.00  0.00     0.058 C 
HETATM   11  C17 UNL     1      -8.495   1.813   2.920  1.00  0.00     0.156 C 
HETATM   12  C18 UNL     1      -8.528   2.495   1.562  1.00  0.00     0.178 C 
HETATM   13  C19 UNL     1      -6.046   1.493   3.614  1.00  0.00     0.058 C 
ENDROOT
BRANCH   1  14
HETATM   14  O1  UNL     1      -6.208   0.376   5.803  1.00  0.00    -0.343 OA
BRANCH  14  15
HETATM   15  C5  UNL     1      -5.302  -0.418   6.491  1.00  0.00     0.088 C 
HETATM   16  C4  UNL     1      -5.186  -0.063   7.961  1.00  0.00    -0.010 C 
HETATM   17  C24 UNL     1      -3.990  -0.756   8.503  1.00  0.00     0.060 C 
HETATM   18  C23 UNL     1      -3.847  -2.175   7.916  1.00  0.00     0.273 C 
HETATM   19  O11 UNL     1      -5.010  -2.628   7.356  1.00  0.00    -0.343 OA
HETATM   20  C20 UNL     1      -5.293  -1.865   6.189  1.00  0.00     0.105 C 
HETATM   21  C21 UNL     1      -4.135  -2.271   5.245  1.00  0.00     0.053 C 
HETATM   22  C22 UNL     1      -6.505  -2.455   5.562  1.00  0.00     0.053 C 
BRANCH  16  23
HETATM   23  C3  UNL     1      -6.397   0.040   8.758  1.00  0.00     0.010 C 
BRANCH  23  24
HETATM   24  C2  UNL     1      -6.697  -0.818   9.879  1.00  0.00    -0.010 C 
HETATM   25  C1  UNL     1      -7.540  -0.494  10.857  1.00  0.00     0.011 C 
ENDBRANCH  23  24
ENDBRANCH  16  23
BRANCH  17  26
HETATM   26  C25 UNL     1      -2.662  -0.077   8.117  1.00  0.00     0.017 C 
HETATM   27  C26 UNL     1      -2.759   1.332   7.720  1.00  0.00     0.006 C 
ENDBRANCH  17  26
BRANCH  17  28
HETATM   28  C27 UNL     1      -3.898  -0.932   9.981  1.00  0.00     0.183 C 
BRANCH  28  29
HETATM   29  O13 UNL     1      -2.698  -0.614  10.563  1.00  0.00    -0.400 OA
ATOM     30  H13 UNL     1      -2.543  -0.961  11.434  1.00  0.00     0.209 HD
ENDBRANCH  28  29
ENDBRANCH  17  28
BRANCH  18  31
HETATM   31  O12 UNL     1      -3.438  -3.090   8.904  1.00  0.00    -0.370 OA
ATOM     32  H12 UNL     1      -3.079  -3.858   8.476  1.00  0.00     0.212 HD
ENDBRANCH  18  31
ENDBRANCH  14  15
ENDBRANCH   1  14
BRANCH   2  33
HETATM   33  O2  UNL     1      -6.812   2.874   6.514  1.00  0.00    -0.390 OA
ATOM     34  H2  UNL     1      -7.278   3.691   6.385  1.00  0.00     0.210 HD
ENDBRANCH   2  33
BRANCH   3  35
HETATM   35  O3  UNL     1      -4.344   4.362   4.617  1.00  0.00    -0.390 OA
ATOM     36  H3  UNL     1      -4.392   5.209   4.189  1.00  0.00     0.210 HD
ENDBRANCH   3  35
BRANCH   9  37
HETATM   37  O7  UNL     1      -6.815  -1.124   2.059  1.00  0.00    -0.359 OA
BRANCH  37  38
HETATM   38  C14 UNL     1      -7.927  -1.971   2.144  1.00  0.00     0.337 C 
BRANCH  38  39
HETATM   39  O8  UNL     1      -7.485  -3.263   2.264  1.00  0.00    -0.372 OA
HETATM   40  C15 UNL     1      -8.468  -4.159   1.835  1.00  0.00     0.204 C 
ENDBRANCH  38  39
ENDBRANCH  37  38
ENDBRANCH   9  37
BRANCH  11  41
HETATM   41  O9  UNL     1      -8.827   2.708   3.873  1.00  0.00    -0.392 OA
ATOM     42  H9  UNL     1      -8.165   3.316   4.181  1.00  0.00     0.210 HD
ENDBRANCH  11  41
BRANCH   8  43
HETATM   43  O6  UNL     1      -6.501   0.048  -0.366  1.00  0.00    -0.390 OA
ATOM     44  H6  UNL     1      -6.296  -0.875  -0.277  1.00  0.00     0.210 HD
ENDBRANCH   8  43
BRANCH  12  45
HETATM   45  O10 UNL     1      -9.441   3.574   1.644  1.00  0.00    -0.390 OA
ATOM     46  H10 UNL     1     -10.040   3.402   2.362  1.00  0.00     0.210 HD
ENDBRANCH  12  45
BRANCH   7  47
HETATM   47  O5  UNL     1      -6.396   2.429  -0.777  1.00  0.00    -0.390 OA
ATOM     48  H5  UNL     1      -5.850   3.159  -1.043  1.00  0.00     0.210 HD
ENDBRANCH   7  47
TORSDOF 17
ENDMDL
MODEL 4
REMARK VINA RESULT: -5.706117401      2.617      7.087
REMARK  17 active torsions:
REMARK  status: ('A' for Active; 'I' for Inactive)
REMARK    1  A    between atoms: C2_2  and  C3_3 
REMARK    2  A    between atoms: C3_3  and  C4_4 
REMARK    3  A    between atoms: C5_5  and  O1_6 
REMARK    4  A    between atoms: O1_6  and  C6_7 
REMARK    5  A    between atoms: C7_8  and  O2_9 
REMARK    6  A    between atoms: C8_11  and  O3_12 
REMARK    7  A    between atoms: C11_17  and  O5_18 
REMARK    8  A    between atoms: C12_20  and  O6_21 
REMARK    9  A    between atoms: C13_23  and  O7_24 
REMARK   10  A    between atoms: O7_24  and  C14_25 
REMARK   11  A    between atoms: C14_25  and  O8_26 
REMARK   12  A    between atoms: C17_29  and  O9_30 
REMARK   13  A    between atoms: C18_32  and  O10_33 
REMARK   14  A    between atoms: C23_40  and  O12_41 
REMARK   15  A    between atoms: C24_43  and  C25_44 
REMARK   16  A    between atoms: C24_43  and  C27_46 
REMARK   17  A    between atoms: C27_46  and  O13_47 
ROOT
HETATM    1  C6  UNL     1      -6.466   1.805   4.830  1.00  0.00     0.167 C 
HETATM    2  C7  UNL     1      -5.883   3.218   4.761  1.00  0.00     0.179 C 
HETATM    3  C8  UNL     1      -5.215   3.418   6.067  1.00  0.00     0.178 C 
HETATM    4  C9  UNL     1      -5.096   2.060   6.743  1.00  0.00     0.160 C 
HETATM    5  O4  UNL     1      -3.809   1.875   7.100  1.00  0.00    -0.372 OA
HETATM    6  C10 UNL     1      -3.417   0.720   7.688  1.00  0.00     0.184 C 
HETATM    7  C11 UNL     1      -4.419  -0.077   8.408  1.00  0.00     0.180 C 
HETATM    8  C12 UNL     1      -5.184  -1.094   7.689  1.00  0.00     0.178 C 
HETATM    9  C13 UNL     1      -4.926  -1.300   6.240  1.00  0.00     0.162 C 
HETATM   10  C16 UNL     1      -4.800  -0.046   5.400  1.00  0.00     0.058 C 
HETATM   11  C17 UNL     1      -3.324   0.163   5.331  1.00  0.00     0.156 C 
HETATM   12  C18 UNL     1      -2.603  -0.043   6.654  1.00  0.00     0.178 C 
HETATM   13  C19 UNL     1      -5.688   1.031   5.818  1.00  0.00     0.058 C 
ENDROOT
BRANCH   1  14
HETATM   14  O1  UNL     1      -6.682   1.283   3.578  1.00  0.00    -0.343 OA
BRANCH  14  15
HETATM   15  C5  UNL     1      -7.992   1.377   3.133  1.00  0.00     0.088 C 
HETATM   16  C4  UNL     1      -8.175   2.375   2.005  1.00  0.00    -0.010 C 
HETATM   17  C24 UNL     1      -9.631   2.607   1.834  1.00  0.00     0.060 C 
HETATM   18  C23 UNL     1     -10.434   1.302   2.006  1.00  0.00     0.273 C 
HETATM   19  O11 UNL     1      -9.649   0.187   1.886  1.00  0.00    -0.343 OA
HETATM   20  C20 UNL     1      -8.760   0.122   2.994  1.00  0.00     0.105 C 
HETATM   21  C21 UNL     1      -9.730  -0.119   4.177  1.00  0.00     0.053 C 
HETATM   22  C22 UNL     1      -8.001  -1.150   2.874  1.00  0.00     0.053 C 
BRANCH  16  23
HETATM   23  C3  UNL     1      -7.305   2.290   0.844  1.00  0.00     0.010 C 
BRANCH  23  24
HETATM   24  C2  UNL     1      -6.930   1.049   0.209  1.00  0.00    -0.010 C 
HETATM   25  C1  UNL     1      -5.746   0.462   0.369  1.00  0.00     0.011 C 
ENDBRANCH  23  24
ENDBRANCH  16  23
BRANCH  17  26
HETATM   26  C25 UNL     1     -10.232   3.537   2.906  1.00  0.00     0.017 C 
HETATM   27  C26 UNL     1     -11.327   2.970   3.700  1.00  0.00     0.006 C 
ENDBRANCH  17  26
BRANCH  17  28
HETATM   28  C27 UNL     1     -10.096   3.187   0.541  1.00  0.00     0.183 C 
BRANCH  28  29
HETATM   29  O13 UNL     1     -10.942   4.263   0.620  1.00  0.00    -0.400 OA
ATOM     30  H13 UNL     1     -11.593   4.343  -0.068  1.00  0.00     0.209 HD
ENDBRANCH  28  29
ENDBRANCH  17  28
BRANCH  18  31
HETATM   31  O12 UNL     1     -11.475   1.222   1.062  1.00  0.00    -0.370 OA
ATOM     32  H12 UNL     1     -12.149   0.646   1.402  1.00  0.00     0.212 HD
ENDBRANCH  18  31
ENDBRANCH  14  15
ENDBRANCH   1  14
BRANCH   2  33
HETATM   33  O2  UNL     1      -5.122   3.445   3.637  1.00  0.00    -0.390 OA
ATOM     34  H2  UNL     1      -5.309   4.273   3.212  1.00  0.00     0.210 HD
ENDBRANCH   2  33
BRANCH   3  35
HETATM   35  O3  UNL     1      -5.925   4.343   6.870  1.00  0.00    -0.390 OA
ATOM     36  H3  UNL     1      -6.849   4.126   6.909  1.00  0.00     0.210 HD
ENDBRANCH   3  35
BRANCH   9  37
HETATM   37  O7  UNL     1      -5.953  -2.097   5.741  1.00  0.00    -0.359 OA
BRANCH  37  38
HETATM   38  C14 UNL     1      -5.469  -3.108   4.902  1.00  0.00     0.337 C 
BRANCH  38  39
HETATM   39  O8  UNL     1      -4.217  -3.468   5.328  1.00  0.00    -0.372 OA
HETATM   40  C15 UNL     1      -4.218  -4.783   5.798  1.00  0.00     0.204 C 
ENDBRANCH  38  39
ENDBRANCH  37  38
ENDBRANCH   9  37
BRANCH  11  41
HETATM   41  O9  UNL     1      -2.851   1.278   4.738  1.00  0.00    -0.392 OA
ATOM     42  H9  UNL     1      -2.861   2.094   5.224  1.00  0.00     0.210 HD
ENDBRANCH  11  41
BRANCH   8  43
HETATM   43  O6  UNL     1      -4.997  -2.387   8.262  1.00  0.00    -0.390 OA
ATOM     44  H6  UNL     1      -5.171  -3.075   7.630  1.00  0.00     0.210 HD
ENDBRANCH   8  43
BRANCH  12  45
HETATM   45  O10 UNL     1      -1.331   0.571   6.550  1.00  0.00    -0.390 OA
ATOM     46  H10 UNL     1      -1.240   0.921   5.672  1.00  0.00     0.210 HD
ENDBRANCH  12  45
BRANCH   7  47
HETATM   47  O5  UNL     1      -3.788  -0.707   9.512  1.00  0.00    -0.390 OA
ATOM     48  H5  UNL     1      -3.846  -1.648   9.397  1.00  0.00     0.210 HD
ENDBRANCH   7  47
TORSDOF 17
ENDMDL
MODEL 5
REMARK VINA RESULT: -5.689322898      2.139      5.770
REMARK  17 active torsions:
REMARK  status: ('A' for Active; 'I' for Inactive)
REMARK    1  A    between atoms: C2_2  and  C3_3 
REMARK    2  A    between atoms: C3_3  and  C4_4 
REMARK    3  A    between atoms: C5_5  and  O1_6 
REMARK    4  A    between atoms: O1_6  and  C6_7 
REMARK    5  A    between atoms: C7_8  and  O2_9 
REMARK    6  A    between atoms: C8_11  and  O3_12 
REMARK    7  A    between atoms: C11_17  and  O5_18 
REMARK    8  A    between atoms: C12_20  and  O6_21 
REMARK    9  A    between atoms: C13_23  and  O7_24 
REMARK   10  A    between atoms: O7_24  and  C14_25 
REMARK   11  A    between atoms: C14_25  and  O8_26 
REMARK   12  A    between atoms: C17_29  and  O9_30 
REMARK   13  A    between atoms: C18_32  and  O10_33 
REMARK   14  A    between atoms: C23_40  and  O12_41 
REMARK   15  A    between atoms: C24_43  and  C25_44 
REMARK   16  A    between atoms: C24_43  and  C27_46 
REMARK   17  A    between atoms: C27_46  and  O13_47 
ROOT
HETATM    1  C6  UNL     1      -5.567  -1.187   5.069  1.00  0.00     0.167 C 
HETATM    2  C7  UNL     1      -5.492  -2.616   4.525  1.00  0.00     0.179 C 
HETATM    3  C8  UNL     1      -6.821  -2.862   3.919  1.00  0.00     0.178 C 
HETATM    4  C9  UNL     1      -7.530  -1.523   3.790  1.00  0.00     0.160 C 
HETATM    5  O4  UNL     1      -7.945  -1.383   2.515  1.00  0.00    -0.372 OA
HETATM    6  C10 UNL     1      -8.574  -0.252   2.114  1.00  0.00     0.184 C 
HETATM    7  C11 UNL     1      -9.268   0.559   3.123  1.00  0.00     0.180 C 
HETATM    8  C12 UNL     1      -8.540   1.613   3.826  1.00  0.00     0.178 C 
HETATM    9  C13 UNL     1      -7.107   1.841   3.501  1.00  0.00     0.162 C 
HETATM   10  C16 UNL     1      -6.247   0.600   3.375  1.00  0.00     0.058 C 
HETATM   11  C17 UNL     1      -6.235   0.349   1.904  1.00  0.00     0.156 C 
HETATM   12  C18 UNL     1      -7.591   0.507   1.234  1.00  0.00     0.178 C 
HETATM   13  C19 UNL     1      -6.603  -0.457   4.311  1.00  0.00     0.058 C 
ENDROOT
BRANCH   1  14
HETATM   14  O1  UNL     1      -4.318  -0.634   5.216  1.00  0.00    -0.343 OA
BRANCH  14  15
HETATM   15  C5  UNL     1      -4.086  -0.059   6.456  1.00  0.00     0.088 C 
HETATM   16  C4  UNL     1      -3.877  -1.076   7.562  1.00  0.00    -0.010 C 
HETATM   17  C24 UNL     1      -3.947  -0.358   8.859  1.00  0.00     0.060 C 
HETATM   18  C23 UNL     1      -3.264   1.021   8.778  1.00  0.00     0.273 C 
HETATM   19  O11 UNL     1      -2.424   1.126   7.702  1.00  0.00    -0.343 OA
HETATM   20  C20 UNL     1      -3.196   1.121   6.507  1.00  0.00     0.105 C 
HETATM   21  C21 UNL     1      -3.977   2.454   6.618  1.00  0.00     0.053 C 
HETATM   22  C22 UNL     1      -2.257   1.336   5.376  1.00  0.00     0.053 C 
BRANCH  16  23
HETATM   23  C3  UNL     1      -2.905  -2.139   7.364  1.00  0.00     0.010 C 
BRANCH  23  24
HETATM   24  C2  UNL     1      -3.256  -3.531   7.214  1.00  0.00    -0.010 C 
HETATM   25  C1  UNL     1      -3.730  -4.288   8.200  1.00  0.00     0.011 C 
ENDBRANCH  23  24
ENDBRANCH  16  23
BRANCH  17  26
HETATM   26  C25 UNL     1      -5.386  -0.016   9.292  1.00  0.00     0.017 C 
HETATM   27  C26 UNL     1      -6.393  -1.050   9.026  1.00  0.00     0.006 C 
ENDBRANCH  17  26
BRANCH  17  28
HETATM   28  C27 UNL     1      -3.351  -1.021  10.055  1.00  0.00     0.183 C 
BRANCH  28  29
HETATM   29  O13 UNL     1      -3.859  -0.657  11.275  1.00  0.00    -0.400 OA
ATOM     30  H13 UNL     1      -4.779  -0.842  11.425  1.00  0.00     0.209 HD
ENDBRANCH  28  29
ENDBRANCH  17  28
BRANCH  18  31
HETATM   31  O12 UNL     1      -2.529   1.290   9.948  1.00  0.00    -0.370 OA
ATOM     32  H12 UNL     1      -3.016   0.962  10.695  1.00  0.00     0.212 HD
ENDBRANCH  18  31
ENDBRANCH  14  15
ENDBRANCH   1  14
BRANCH   2  33
HETATM   33  O2  UNL     1      -4.397  -2.842   3.723  1.00  0.00    -0.390 OA
ATOM     34  H2  UNL     1      -4.171  -2.103   3.171  1.00  0.00     0.210 HD
ENDBRANCH   2  33
BRANCH   3  35
HETATM   35  O3  UNL     1      -7.574  -3.782   4.689  1.00  0.00    -0.390 OA
ATOM     36  H3  UNL     1      -7.566  -4.647   4.297  1.00  0.00     0.210 HD
ENDBRANCH   3  35
BRANCH   9  37
HETATM   37  O7  UNL     1      -6.583   2.678   4.482  1.00  0.00    -0.359 OA
BRANCH  37  38
HETATM   38  C14 UNL     1      -5.849   3.735   3.929  1.00  0.00     0.337 C 
BRANCH  38  39
HETATM   39  O8  UNL     1      -6.513   4.196   2.822  1.00  0.00    -0.372 OA
HETATM   40  C15 UNL     1      -6.644   5.586   2.873  1.00  0.00     0.204 C 
ENDBRANCH  38  39
ENDBRANCH  37  38
ENDBRANCH   9  37
BRANCH  11  41
HETATM   41  O9  UNL     1      -5.639  -0.767   1.439  1.00  0.00    -0.392 OA
ATOM     42  H9  UNL     1      -5.842  -1.063   0.560  1.00  0.00     0.210 HD
ENDBRANCH  11  41
BRANCH   8  43
HETATM   43  O6  UNL     1      -9.147   2.888   3.626  1.00  0.00    -0.390 OA
ATOM     44  H6  UNL     1      -9.093   3.425   4.408  1.00  0.00     0.210 HD
ENDBRANCH   8  43
BRANCH  12  45
HETATM   45  O10 UNL     1      -7.528  -0.143  -0.022  1.00  0.00    -0.390 OA
ATOM     46  H10 UNL     1      -6.641  -0.457  -0.150  1.00  0.00     0.210 HD
ENDBRANCH  12  45
BRANCH   7  47
HETATM   47  O5  UNL     1     -10.411   1.147   2.521  1.00  0.00    -0.390 OA
ATOM     48  H5  UNL     1     -10.581   1.980   2.946  1.00  0.00     0.210 HD
ENDBRANCH   7  47
TORSDOF 17
ENDMDL
