MODEL 1
REMARK VINA RESULT: -8.186362013      0.000      0.000
REMARK  18 active torsions:
REMARK  status: ('A' for Active; 'I' for Inactive)
REMARK    1  A    between atoms: C2_2  and  O2_4 
REMARK    2  A    between atoms: O2_4  and  C3_5 
REMARK    3  A    between atoms: C3_5  and  C4_6 
REMARK    4  A    between atoms: C4_6  and  O3_7 
REMARK    5  A    between atoms: C5_9  and  O4_10 
REMARK    6  A    between atoms: O4_10  and  C6_11 
REMARK    7  A    between atoms: C6_11  and  C7_13 
REMARK    8  A    between atoms: C8_14  and  C9_15 
REMARK    9  A    between atoms: C15_22  and  O7_23 
REMARK   10  A    between atoms: C15_22  and  C16_25 
REMARK   11  A    between atoms: C16_25  and  O8_26 
REMARK   12  A    between atoms: C17_28  and  O9_29 
REMARK   13  A    between atoms: C17_28  and  C18_31 
REMARK   14  A    between atoms: C18_31  and  O10_32 
REMARK   15  A    between atoms: C18_31  and  N1_34 
REMARK   16  A    between atoms: N1_34  and  N2_35 
REMARK       I    between atoms: N2_35  and  C19_37 
REMARK   17  A    between atoms: C19_37  and  C20_39 
REMARK   18  A    between atoms: C23_42  and  N3_43 
ROOT
HETATM    1  C3  UNL     1      -5.274  -0.092   4.749  1.00  0.00     0.186 C 
HETATM    2  C5  UNL     1      -5.219  -1.275   5.742  1.00  0.00     0.314 C 
HETATM    3  O6  UNL     1      -4.924  -2.474   4.980  1.00  0.00    -0.316 OA
HETATM    4  C15 UNL     1      -5.797  -2.214   3.848  1.00  0.00     0.230 C 
HETATM    5  C17 UNL     1      -5.420  -0.813   3.493  1.00  0.00     0.235 C 
ENDROOT
BRANCH   5   6
HETATM    6  O9  UNL     1      -4.218  -0.897   2.794  1.00  0.00    -0.373 OA
ATOM      7  H9  UNL     1      -4.210  -0.334   2.028  1.00  0.00     0.211 HD
ENDBRANCH   5   6
BRANCH   5   8
HETATM    8  C18 UNL     1      -6.289  -0.080   2.446  1.00  0.00     0.258 C 
BRANCH   8   9
HETATM    9  O10 UNL     1      -5.602  -0.079   1.318  1.00  0.00    -0.335 OA
ATOM     10  H10 UNL     1      -5.792   0.745   0.886  1.00  0.00     0.220 HD
ENDBRANCH   8   9
BRANCH   8  11
HETATM   11  N1  UNL     1      -7.444   0.334   2.842  1.00  0.00    -0.298 NA
BRANCH  11  12
HETATM   12  N2  UNL     1      -8.662   0.774   3.229  1.00  0.00    -0.196 N 
HETATM   13  C19 UNL     1      -9.518   0.186   4.096  1.00  0.00     0.280 C 
HETATM   14  O11 UNL     1      -9.390  -0.914   4.704  1.00  0.00    -0.265 OA
ATOM     15  H2  UNL     1      -8.973   1.655   2.818  1.00  0.00     0.205 HD
BRANCH  13  16
HETATM   16  C20 UNL     1     -10.799   0.930   4.338  1.00  0.00     0.034 A 
HETATM   17  C21 UNL     1     -11.460   0.807   5.465  1.00  0.00     0.019 A 
HETATM   18  C22 UNL     1     -12.401   1.790   5.838  1.00  0.00     0.030 A 
HETATM   19  C23 UNL     1     -12.594   2.886   4.949  1.00  0.00     0.029 A 
HETATM   20  C26 UNL     1     -11.790   2.863   3.777  1.00  0.00     0.030 A 
HETATM   21  C27 UNL     1     -10.941   1.953   3.456  1.00  0.00     0.019 A 
BRANCH  19  22
HETATM   22  N3  UNL     1     -13.353   3.997   5.373  1.00  0.00    -0.390 N 
HETATM   23  C24 UNL     1     -13.801   4.879   4.351  1.00  0.00     0.149 C 
HETATM   24  C25 UNL     1     -13.630   4.151   6.736  1.00  0.00     0.149 C 
ENDBRANCH  19  22
ENDBRANCH  13  16
ENDBRANCH  11  12
ENDBRANCH   8  11
ENDBRANCH   5   8
BRANCH   1  25
HETATM   25  O2  UNL     1      -6.389   0.602   5.080  1.00  0.00    -0.299 OA
BRANCH  25  26
HETATM   26  C2  UNL     1      -6.722   1.256   6.348  1.00  0.00     0.255 C 
HETATM   27  C1  UNL     1      -7.723   0.708   7.265  1.00  0.00     0.126 C 
HETATM   28  O1  UNL     1      -6.076   2.269   6.488  1.00  0.00    -0.266 OA
ENDBRANCH  25  26
ENDBRANCH   1  25
BRANCH   1  29
HETATM   29  C4  UNL     1      -4.001   0.529   4.745  1.00  0.00     0.212 C 
BRANCH  29  30
HETATM   30  O3  UNL     1      -3.956   1.806   4.253  1.00  0.00    -0.398 OA
ATOM     31  H3  UNL     1      -3.425   2.424   4.742  1.00  0.00     0.209 HD
ENDBRANCH  29  30
ENDBRANCH   1  29
BRANCH   4  32
HETATM   32  O7  UNL     1      -5.138  -3.149   2.881  1.00  0.00    -0.361 OA
ATOM     33  H7  UNL     1      -5.079  -2.545   2.151  1.00  0.00     0.213 HD
ENDBRANCH   4  32
BRANCH   4  34
HETATM   34  C16 UNL     1      -7.129  -2.759   3.881  1.00  0.00     0.236 C 
BRANCH  34  35
HETATM   35  O8  UNL     1      -7.268  -4.105   4.325  1.00  0.00    -0.395 OA
ATOM     36  H8  UNL     1      -8.152  -4.427   4.460  1.00  0.00     0.209 HD
ENDBRANCH  34  35
ENDBRANCH   4  34
BRANCH   2  37
HETATM   37  O4  UNL     1      -4.168  -1.081   6.711  1.00  0.00    -0.283 OA
BRANCH  37  38
HETATM   38  C6  UNL     1      -4.304  -1.755   7.816  1.00  0.00     0.285 C 
HETATM   39  O5  UNL     1      -3.543  -2.705   8.153  1.00  0.00    -0.260 OA
BRANCH  38  40
HETATM   40  C7  UNL     1      -5.327  -1.548   8.832  1.00  0.00     0.083 C 
HETATM   41  C8  UNL     1      -4.851  -0.598   9.724  1.00  0.00     0.017 C 
BRANCH  41  42
HETATM   42  C9  UNL     1      -5.692  -0.298  10.920  1.00  0.00    -0.036 A 
HETATM   43  C10 UNL     1      -7.049  -0.396  10.851  1.00  0.00     0.011 A 
HETATM   44  C11 UNL     1      -7.724  -0.563  12.070  1.00  0.00     0.001 A 
HETATM   45  C12 UNL     1      -7.081  -0.604  13.243  1.00  0.00     0.000 A 
HETATM   46  C13 UNL     1      -5.772  -0.468  13.255  1.00  0.00     0.001 A 
HETATM   47  C14 UNL     1      -4.971  -0.322  12.131  1.00  0.00     0.011 A 
ENDBRANCH  41  42
ENDBRANCH  38  40
ENDBRANCH  37  38
ENDBRANCH   2  37
TORSDOF 18
ENDMDL
MODEL 2
REMARK VINA RESULT: -8.173360016      0.675      1.104
REMARK  18 active torsions:
REMARK  status: ('A' for Active; 'I' for Inactive)
REMARK    1  A    between atoms: C2_2  and  O2_4 
REMARK    2  A    between atoms: O2_4  and  C3_5 
REMARK    3  A    between atoms: C3_5  and  C4_6 
REMARK    4  A    between atoms: C4_6  and  O3_7 
REMARK    5  A    between atoms: C5_9  and  O4_10 
REMARK    6  A    between atoms: O4_10  and  C6_11 
REMARK    7  A    between atoms: C6_11  and  C7_13 
REMARK    8  A    between atoms: C8_14  and  C9_15 
REMARK    9  A    between atoms: C15_22  and  O7_23 
REMARK   10  A    between atoms: C15_22  and  C16_25 
REMARK   11  A    between atoms: C16_25  and  O8_26 
REMARK   12  A    between atoms: C17_28  and  O9_29 
REMARK   13  A    between atoms: C17_28  and  C18_31 
REMARK   14  A    between atoms: C18_31  and  O10_32 
REMARK   15  A    between atoms: C18_31  and  N1_34 
REMARK   16  A    between atoms: N1_34  and  N2_35 
REMARK       I    between atoms: N2_35  and  C19_37 
REMARK   17  A    between atoms: C19_37  and  C20_39 
REMARK   18  A    between atoms: C23_42  and  N3_43 
ROOT
HETATM    1  C3  UNL     1      -4.869  -0.165   4.825  1.00  0.00     0.186 C 
HETATM    2  C5  UNL     1      -4.943  -1.313   5.855  1.00  0.00     0.314 C 
HETATM    3  O6  UNL     1      -4.741  -2.560   5.140  1.00  0.00    -0.316 OA
HETATM    4  C15 UNL     1      -5.562  -2.261   3.979  1.00  0.00     0.230 C 
HETATM    5  C17 UNL     1      -5.051  -0.912   3.589  1.00  0.00     0.235 C 
ENDROOT
BRANCH   5   6
HETATM    6  O9  UNL     1      -3.847  -1.127   2.923  1.00  0.00    -0.373 OA
ATOM      7  H9  UNL     1      -3.472  -1.976   3.128  1.00  0.00     0.211 HD
ENDBRANCH   5   6
BRANCH   5   8
HETATM    8  C18 UNL     1      -5.827  -0.140   2.498  1.00  0.00     0.258 C 
BRANCH   8   9
HETATM    9  O10 UNL     1      -5.200  -0.365   1.357  1.00  0.00    -0.335 OA
ATOM     10  H10 UNL     1      -5.750  -0.008   0.670  1.00  0.00     0.220 HD
ENDBRANCH   8   9
BRANCH   8  11
HETATM   11  N1  UNL     1      -6.876   0.504   2.881  1.00  0.00    -0.298 NA
BRANCH  11  12
HETATM   12  N2  UNL     1      -7.970   1.200   3.262  1.00  0.00    -0.196 N 
HETATM   13  C19 UNL     1      -9.151   0.709   3.705  1.00  0.00     0.280 C 
HETATM   14  O11 UNL     1      -9.507  -0.497   3.825  1.00  0.00    -0.265 OA
ATOM     15  H2  UNL     1      -7.897   2.216   3.210  1.00  0.00     0.205 HD
BRANCH  13  16
HETATM   16  C20 UNL     1     -10.178   1.741   4.070  1.00  0.00     0.034 A 
HETATM   17  C21 UNL     1     -10.308   2.851   3.382  1.00  0.00     0.019 A 
HETATM   18  C22 UNL     1     -11.504   3.595   3.467  1.00  0.00     0.030 A 
HETATM   19  C23 UNL     1     -12.531   3.093   4.318  1.00  0.00     0.029 A 
HETATM   20  C26 UNL     1     -12.224   1.874   4.982  1.00  0.00     0.030 A 
HETATM   21  C27 UNL     1     -11.123   1.216   4.892  1.00  0.00     0.019 A 
BRANCH  19  22
HETATM   22  N3  UNL     1     -13.815   3.673   4.270  1.00  0.00    -0.390 N 
HETATM   23  C24 UNL     1     -14.120   4.611   5.294  1.00  0.00     0.149 C 
HETATM   24  C25 UNL     1     -14.685   3.315   3.233  1.00  0.00     0.149 C 
ENDBRANCH  19  22
ENDBRANCH  13  16
ENDBRANCH  11  12
ENDBRANCH   8  11
ENDBRANCH   5   8
BRANCH   1  25
HETATM   25  O2  UNL     1      -5.923   0.637   5.105  1.00  0.00    -0.299 OA
BRANCH  25  26
HETATM   26  C2  UNL     1      -6.320   1.218   6.391  1.00  0.00     0.255 C 
HETATM   27  C1  UNL     1      -7.543   0.807   7.082  1.00  0.00     0.126 C 
HETATM   28  O1  UNL     1      -5.519   2.050   6.748  1.00  0.00    -0.266 OA
ENDBRANCH  25  26
ENDBRANCH   1  25
BRANCH   1  29
HETATM   29  C4  UNL     1      -3.545   0.338   4.832  1.00  0.00     0.212 C 
BRANCH  29  30
HETATM   30  O3  UNL     1      -3.394   1.641   4.438  1.00  0.00    -0.398 OA
ATOM     31  H3  UNL     1      -2.857   2.188   5.000  1.00  0.00     0.209 HD
ENDBRANCH  29  30
ENDBRANCH   1  29
BRANCH   4  32
HETATM   32  O7  UNL     1      -4.969  -3.284   3.059  1.00  0.00    -0.361 OA
ATOM     33  H7  UNL     1      -5.750  -3.452   2.546  1.00  0.00     0.213 HD
ENDBRANCH   4  32
BRANCH   4  34
HETATM   34  C16 UNL     1      -6.938  -2.683   3.995  1.00  0.00     0.236 C 
BRANCH  34  35
HETATM   35  O8  UNL     1      -7.205  -4.005   4.453  1.00  0.00    -0.395 OA
ATOM     36  H8  UNL     1      -7.327  -4.675   3.790  1.00  0.00     0.209 HD
ENDBRANCH  34  35
ENDBRANCH   4  34
BRANCH   2  37
HETATM   37  O4  UNL     1      -3.900  -1.182   6.844  1.00  0.00    -0.283 OA
BRANCH  37  38
HETATM   38  C6  UNL     1      -4.114  -1.816   7.960  1.00  0.00     0.285 C 
HETATM   39  O5  UNL     1      -3.450  -2.826   8.327  1.00  0.00    -0.260 OA
BRANCH  38  40
HETATM   40  C7  UNL     1      -5.125  -1.492   8.956  1.00  0.00     0.083 C 
HETATM   41  C8  UNL     1      -4.515  -0.744   9.952  1.00  0.00     0.017 C 
BRANCH  41  42
HETATM   42  C9  UNL     1      -5.340  -0.383  11.143  1.00  0.00    -0.036 A 
HETATM   43  C10 UNL     1      -6.700  -0.409  11.072  1.00  0.00     0.011 A 
HETATM   44  C11 UNL     1      -7.385  -0.523  12.291  1.00  0.00     0.001 A 
HETATM   45  C12 UNL     1      -6.746  -0.584  13.466  1.00  0.00     0.000 A 
HETATM   46  C13 UNL     1      -5.432  -0.519  13.479  1.00  0.00     0.001 A 
HETATM   47  C14 UNL     1      -4.623  -0.432  12.355  1.00  0.00     0.011 A 
ENDBRANCH  41  42
ENDBRANCH  38  40
ENDBRANCH  37  38
ENDBRANCH   2  37
TORSDOF 18
ENDMDL
MODEL 3
REMARK VINA RESULT: -8.136714036      2.836      4.082
REMARK  18 active torsions:
REMARK  status: ('A' for Active; 'I' for Inactive)
REMARK    1  A    between atoms: C2_2  and  O2_4 
REMARK    2  A    between atoms: O2_4  and  C3_5 
REMARK    3  A    between atoms: C3_5  and  C4_6 
REMARK    4  A    between atoms: C4_6  and  O3_7 
REMARK    5  A    between atoms: C5_9  and  O4_10 
REMARK    6  A    between atoms: O4_10  and  C6_11 
REMARK    7  A    between atoms: C6_11  and  C7_13 
REMARK    8  A    between atoms: C8_14  and  C9_15 
REMARK    9  A    between atoms: C15_22  and  O7_23 
REMARK   10  A    between atoms: C15_22  and  C16_25 
REMARK   11  A    between atoms: C16_25  and  O8_26 
REMARK   12  A    between atoms: C17_28  and  O9_29 
REMARK   13  A    between atoms: C17_28  and  C18_31 
REMARK   14  A    between atoms: C18_31  and  O10_32 
REMARK   15  A    between atoms: C18_31  and  N1_34 
REMARK   16  A    between atoms: N1_34  and  N2_35 
REMARK       I    between atoms: N2_35  and  C19_37 
REMARK   17  A    between atoms: C19_37  and  C20_39 
REMARK   18  A    between atoms: C23_42  and  N3_43 
ROOT
HETATM    1  C3  UNL     1      -4.545  -2.439   6.732  1.00  0.00     0.186 C 
HETATM    2  C5  UNL     1      -3.940  -2.523   8.150  1.00  0.00     0.314 C 
HETATM    3  O6  UNL     1      -3.242  -3.791   8.256  1.00  0.00    -0.316 OA
HETATM    4  C15 UNL     1      -4.229  -4.620   7.586  1.00  0.00     0.230 C 
HETATM    5  C17 UNL     1      -4.480  -3.839   6.338  1.00  0.00     0.235 C 
ENDROOT
BRANCH   5   6
HETATM    6  O9  UNL     1      -3.405  -4.096   5.491  1.00  0.00    -0.373 OA
ATOM      7  H9  UNL     1      -3.315  -5.022   5.299  1.00  0.00     0.211 HD
ENDBRANCH   5   6
BRANCH   5   8
HETATM    8  C18 UNL     1      -5.649  -4.290   5.432  1.00  0.00     0.258 C 
BRANCH   8   9
HETATM    9  O10 UNL     1      -5.790  -5.590   5.617  1.00  0.00    -0.335 OA
ATOM     10  H10 UNL     1      -6.724  -5.762   5.632  1.00  0.00     0.220 HD
ENDBRANCH   8   9
BRANCH   8  11
HETATM   11  N1  UNL     1      -6.234  -3.370   4.743  1.00  0.00    -0.298 NA
BRANCH  11  12
HETATM   12  N2  UNL     1      -6.862  -2.398   4.045  1.00  0.00    -0.196 N 
HETATM   13  C19 UNL     1      -7.501  -2.513   2.858  1.00  0.00     0.280 C 
HETATM   14  O11 UNL     1      -7.621  -3.534   2.124  1.00  0.00    -0.265 OA
ATOM     15  H2  UNL     1      -6.853  -1.468   4.463  1.00  0.00     0.205 HD
BRANCH  13  16
HETATM   16  C20 UNL     1      -8.118  -1.248   2.337  1.00  0.00     0.034 A 
HETATM   17  C21 UNL     1      -8.776  -0.431   3.127  1.00  0.00     0.019 A 
HETATM   18  C22 UNL     1      -8.984   0.909   2.736  1.00  0.00     0.030 A 
HETATM   19  C23 UNL     1      -8.464   1.313   1.474  1.00  0.00     0.029 A 
HETATM   20  C26 UNL     1      -7.772   0.302   0.752  1.00  0.00     0.030 A 
HETATM   21  C27 UNL     1      -7.599  -0.915   1.128  1.00  0.00     0.019 A 
BRANCH  19  22
HETATM   22  N3  UNL     1      -8.452   2.682   1.136  1.00  0.00    -0.390 N 
HETATM   23  C24 UNL     1      -7.445   3.095   0.220  1.00  0.00     0.149 C 
HETATM   24  C25 UNL     1      -9.419   3.529   1.691  1.00  0.00     0.149 C 
ENDBRANCH  19  22
ENDBRANCH  13  16
ENDBRANCH  11  12
ENDBRANCH   8  11
ENDBRANCH   5   8
BRANCH   1  25
HETATM   25  O2  UNL     1      -5.816  -2.009   6.909  1.00  0.00    -0.299 OA
BRANCH  25  26
HETATM   26  C2  UNL     1      -6.329  -0.636   6.925  1.00  0.00     0.255 C 
HETATM   27  C1  UNL     1      -6.937  -0.050   8.121  1.00  0.00     0.126 C 
HETATM   28  O1  UNL     1      -6.183  -0.113   5.845  1.00  0.00    -0.266 OA
ENDBRANCH  25  26
ENDBRANCH   1  25
BRANCH   1  29
HETATM   29  C4  UNL     1      -3.637  -1.720   5.916  1.00  0.00     0.212 C 
BRANCH  29  30
HETATM   30  O3  UNL     1      -4.059  -1.445   4.643  1.00  0.00    -0.398 OA
ATOM     31  H3  UNL     1      -3.386  -1.177   4.028  1.00  0.00     0.209 HD
ENDBRANCH  29  30
ENDBRANCH   1  29
BRANCH   4  32
HETATM   32  O7  UNL     1      -3.323  -5.768   7.260  1.00  0.00    -0.361 OA
ATOM     33  H7  UNL     1      -3.621  -5.908   6.369  1.00  0.00     0.213 HD
ENDBRANCH   4  32
BRANCH   4  34
HETATM   34  C16 UNL     1      -5.219  -5.283   8.393  1.00  0.00     0.236 C 
BRANCH  34  35
HETATM   35  O8  UNL     1      -5.245  -6.707   8.348  1.00  0.00    -0.395 OA
ATOM     36  H8  UNL     1      -6.063  -7.116   8.093  1.00  0.00     0.209 HD
ENDBRANCH  34  35
ENDBRANCH   4  34
BRANCH   2  37
HETATM   37  O4  UNL     1      -2.987  -1.461   8.364  1.00  0.00    -0.283 OA
BRANCH  37  38
HETATM   38  C6  UNL     1      -3.400  -0.495   9.133  1.00  0.00     0.285 C 
HETATM   39  O5  UNL     1      -3.541   0.697   8.742  1.00  0.00    -0.260 OA
BRANCH  38  40
HETATM   40  C7  UNL     1      -3.759  -0.607  10.540  1.00  0.00     0.083 C 
HETATM   41  C8  UNL     1      -5.102  -0.283  10.661  1.00  0.00     0.017 C 
BRANCH  41  42
HETATM   42  C9  UNL     1      -5.673  -0.225  12.040  1.00  0.00    -0.036 A 
HETATM   43  C10 UNL     1      -7.020  -0.300  12.231  1.00  0.00     0.011 A 
HETATM   44  C11 UNL     1      -7.446  -0.704  13.505  1.00  0.00     0.001 A 
HETATM   45  C12 UNL     1      -6.585  -0.984  14.491  1.00  0.00     0.000 A 
HETATM   46  C13 UNL     1      -5.295  -0.861  14.262  1.00  0.00     0.001 A 
HETATM   47  C14 UNL     1      -4.728  -0.497  13.048  1.00  0.00     0.011 A 
ENDBRANCH  41  42
ENDBRANCH  38  40
ENDBRANCH  37  38
ENDBRANCH   2  37
TORSDOF 18
ENDMDL
MODEL 4
REMARK VINA RESULT: -8.041143495      1.790      2.523
REMARK  18 active torsions:
REMARK  status: ('A' for Active; 'I' for Inactive)
REMARK    1  A    between atoms: C2_2  and  O2_4 
REMARK    2  A    between atoms: O2_4  and  C3_5 
REMARK    3  A    between atoms: C3_5  and  C4_6 
REMARK    4  A    between atoms: C4_6  and  O3_7 
REMARK    5  A    between atoms: C5_9  and  O4_10 
REMARK    6  A    between atoms: O4_10  and  C6_11 
REMARK    7  A    between atoms: C6_11  and  C7_13 
REMARK    8  A    between atoms: C8_14  and  C9_15 
REMARK    9  A    between atoms: C15_22  and  O7_23 
REMARK   10  A    between atoms: C15_22  and  C16_25 
REMARK   11  A    between atoms: C16_25  and  O8_26 
REMARK   12  A    between atoms: C17_28  and  O9_29 
REMARK   13  A    between atoms: C17_28  and  C18_31 
REMARK   14  A    between atoms: C18_31  and  O10_32 
REMARK   15  A    between atoms: C18_31  and  N1_34 
REMARK   16  A    between atoms: N1_34  and  N2_35 
REMARK       I    between atoms: N2_35  and  C19_37 
REMARK   17  A    between atoms: C19_37  and  C20_39 
REMARK   18  A    between atoms: C23_42  and  N3_43 
ROOT
HETATM    1  C3  UNL     1      -4.987  -1.500   5.823  1.00  0.00     0.186 C 
HETATM    2  C5  UNL     1      -3.807  -1.787   6.776  1.00  0.00     0.314 C 
HETATM    3  O6  UNL     1      -3.159  -3.003   6.320  1.00  0.00    -0.316 OA
HETATM    4  C15 UNL     1      -4.356  -3.770   6.022  1.00  0.00     0.230 C 
HETATM    5  C17 UNL     1      -5.133  -2.803   5.189  1.00  0.00     0.235 C 
ENDROOT
BRANCH   5   6
HETATM    6  O9  UNL     1      -4.562  -2.834   3.919  1.00  0.00    -0.373 OA
ATOM      7  H9  UNL     1      -4.295  -3.711   3.668  1.00  0.00     0.211 HD
ENDBRANCH   5   6
BRANCH   5   8
HETATM    8  C18 UNL     1      -6.592  -3.170   4.837  1.00  0.00     0.258 C 
BRANCH   8   9
HETATM    9  O10 UNL     1      -6.647  -4.488   4.781  1.00  0.00    -0.335 OA
ATOM     10  H10 UNL     1      -7.009  -4.709   3.931  1.00  0.00     0.220 HD
ENDBRANCH   8   9
BRANCH   8  11
HETATM   11  N1  UNL     1      -7.418  -2.189   4.703  1.00  0.00    -0.298 NA
BRANCH  11  12
HETATM   12  N2  UNL     1      -8.276  -1.158   4.534  1.00  0.00    -0.196 N 
HETATM   13  C19 UNL     1      -8.480  -0.426   3.414  1.00  0.00     0.280 C 
HETATM   14  O11 UNL     1      -7.896  -0.515   2.298  1.00  0.00    -0.265 OA
ATOM     15  H2  UNL     1      -8.835  -0.901   5.347  1.00  0.00     0.205 HD
BRANCH  13  16
HETATM   16  C20 UNL     1      -9.518   0.652   3.533  1.00  0.00     0.034 A 
HETATM   17  C21 UNL     1      -9.955   1.301   2.479  1.00  0.00     0.019 A 
HETATM   18  C22 UNL     1     -11.184   1.991   2.538  1.00  0.00     0.030 A 
HETATM   19  C23 UNL     1     -11.901   1.952   3.768  1.00  0.00     0.029 A 
HETATM   20  C26 UNL     1     -11.285   1.197   4.803  1.00  0.00     0.030 A 
HETATM   21  C27 UNL     1     -10.161   0.579   4.727  1.00  0.00     0.019 A 
BRANCH  19  22
HETATM   22  N3  UNL     1     -13.225   2.436   3.814  1.00  0.00    -0.390 N 
HETATM   23  C24 UNL     1     -14.208   1.636   3.170  1.00  0.00     0.149 C 
HETATM   24  C25 UNL     1     -13.489   3.632   4.491  1.00  0.00     0.149 C 
ENDBRANCH  19  22
ENDBRANCH  13  16
ENDBRANCH  11  12
ENDBRANCH   8  11
ENDBRANCH   5   8
BRANCH   1  25
HETATM   25  O2  UNL     1      -6.033  -1.197   6.628  1.00  0.00    -0.299 OA
BRANCH  25  26
HETATM   26  C2  UNL     1      -6.474   0.116   7.107  1.00  0.00     0.255 C 
HETATM   27  C1  UNL     1      -7.816   0.332   7.649  1.00  0.00     0.126 C 
HETATM   28  O1  UNL     1      -5.597   0.936   6.972  1.00  0.00    -0.266 OA
ENDBRANCH  25  26
ENDBRANCH   1  25
BRANCH   1  29
HETATM   29  C4  UNL     1      -4.536  -0.589   4.837  1.00  0.00     0.212 C 
BRANCH  29  30
HETATM   30  O3  UNL     1      -5.504  -0.025   4.049  1.00  0.00    -0.398 OA
ATOM     31  H3  UNL     1      -5.922  -0.604   3.422  1.00  0.00     0.209 HD
ENDBRANCH  29  30
ENDBRANCH   1  29
BRANCH   4  32
HETATM   32  O7  UNL     1      -3.716  -4.777   5.117  1.00  0.00    -0.361 OA
ATOM     33  H7  UNL     1      -4.448  -4.886   4.521  1.00  0.00     0.213 HD
ENDBRANCH   4  32
BRANCH   4  34
HETATM   34  C16 UNL     1      -4.884  -4.630   7.048  1.00  0.00     0.236 C 
BRANCH  34  35
HETATM   35  O8  UNL     1      -4.878  -6.030   6.786  1.00  0.00    -0.395 OA
ATOM     36  H8  UNL     1      -4.930  -6.610   7.537  1.00  0.00     0.209 HD
ENDBRANCH  34  35
ENDBRANCH   4  34
BRANCH   2  37
HETATM   37  O4  UNL     1      -2.843  -0.715   6.735  1.00  0.00    -0.283 OA
BRANCH  37  38
HETATM   38  C6  UNL     1      -2.337  -0.381   7.887  1.00  0.00     0.285 C 
HETATM   39  O5  UNL     1      -1.126  -0.561   8.197  1.00  0.00    -0.260 OA
BRANCH  38  40
HETATM   40  C7  UNL     1      -3.051   0.239   8.994  1.00  0.00     0.083 C 
HETATM   41  C8  UNL     1      -3.730  -0.763   9.673  1.00  0.00     0.017 C 
BRANCH  41  42
HETATM   42  C9  UNL     1      -4.625  -0.348  10.794  1.00  0.00    -0.036 A 
HETATM   43  C10 UNL     1      -5.978  -0.358  10.635  1.00  0.00     0.011 A 
HETATM   44  C11 UNL     1      -6.742  -0.418  11.810  1.00  0.00     0.001 A 
HETATM   45  C12 UNL     1      -6.183  -0.444  13.026  1.00  0.00     0.000 A 
HETATM   46  C13 UNL     1      -4.872  -0.396  13.122  1.00  0.00     0.001 A 
HETATM   47  C14 UNL     1      -3.990  -0.361  12.051  1.00  0.00     0.011 A 
ENDBRANCH  41  42
ENDBRANCH  38  40
ENDBRANCH  37  38
ENDBRANCH   2  37
TORSDOF 18
ENDMDL
MODEL 5
REMARK VINA RESULT: -7.973743567      1.834      2.529
REMARK  18 active torsions:
REMARK  status: ('A' for Active; 'I' for Inactive)
REMARK    1  A    between atoms: C2_2  and  O2_4 
REMARK    2  A    between atoms: O2_4  and  C3_5 
REMARK    3  A    between atoms: C3_5  and  C4_6 
REMARK    4  A    between atoms: C4_6  and  O3_7 
REMARK    5  A    between atoms: C5_9  and  O4_10 
REMARK    6  A    between atoms: O4_10  and  C6_11 
REMARK    7  A    between atoms: C6_11  and  C7_13 
REMARK    8  A    between atoms: C8_14  and  C9_15 
REMARK    9  A    between atoms: C15_22  and  O7_23 
REMARK   10  A    between atoms: C15_22  and  C16_25 
REMARK   11  A    between atoms: C16_25  and  O8_26 
REMARK   12  A    between atoms: C17_28  and  O9_29 
REMARK   13  A    between atoms: C17_28  and  C18_31 
REMARK   14  A    between atoms: C18_31  and  O10_32 
REMARK   15  A    between atoms: C18_31  and  N1_34 
REMARK   16  A    between atoms: N1_34  and  N2_35 
REMARK       I    between atoms: N2_35  and  C19_37 
REMARK   17  A    between atoms: C19_37  and  C20_39 
REMARK   18  A    between atoms: C23_42  and  N3_43 
ROOT
HETATM    1  C3  UNL     1      -5.102  -1.572   5.786  1.00  0.00     0.186 C 
HETATM    2  C5  UNL     1      -3.916  -1.795   6.751  1.00  0.00     0.314 C 
HETATM    3  O6  UNL     1      -3.210  -2.985   6.312  1.00  0.00    -0.316 OA
HETATM    4  C15 UNL     1      -4.369  -3.809   6.013  1.00  0.00     0.230 C 
HETATM    5  C17 UNL     1      -5.182  -2.886   5.164  1.00  0.00     0.235 C 
ENDROOT
BRANCH   5   6
HETATM    6  O9  UNL     1      -4.601  -2.904   3.899  1.00  0.00    -0.373 OA
ATOM      7  H9  UNL     1      -4.719  -3.739   3.463  1.00  0.00     0.211 HD
ENDBRANCH   5   6
BRANCH   5   8
HETATM    8  C18 UNL     1      -6.620  -3.323   4.805  1.00  0.00     0.258 C 
BRANCH   8   9
HETATM    9  O10 UNL     1      -6.647  -4.641   4.886  1.00  0.00    -0.335 OA
ATOM     10  H10 UNL     1      -6.328  -4.971   4.054  1.00  0.00     0.220 HD
ENDBRANCH   8   9
BRANCH   8  11
HETATM   11  N1  UNL     1      -7.461  -2.381   4.542  1.00  0.00    -0.298 NA
BRANCH  11  12
HETATM   12  N2  UNL     1      -8.352  -1.396   4.295  1.00  0.00    -0.196 N 
HETATM   13  C19 UNL     1      -8.472  -0.651   3.171  1.00  0.00     0.280 C 
HETATM   14  O11 UNL     1      -7.763  -0.683   2.126  1.00  0.00    -0.265 OA
ATOM     15  H2  UNL     1      -9.012  -1.188   5.045  1.00  0.00     0.205 HD
BRANCH  13  16
HETATM   16  C20 UNL     1      -9.576   0.366   3.190  1.00  0.00     0.034 A 
HETATM   17  C21 UNL     1     -10.189   0.690   4.305  1.00  0.00     0.019 A 
HETATM   18  C22 UNL     1     -10.908   1.901   4.384  1.00  0.00     0.030 A 
HETATM   19  C23 UNL     1     -10.936   2.726   3.223  1.00  0.00     0.029 A 
HETATM   20  C26 UNL     1     -10.212   2.225   2.107  1.00  0.00     0.030 A 
HETATM   21  C27 UNL     1      -9.567   1.114   2.057  1.00  0.00     0.019 A 
BRANCH  19  22
HETATM   22  N3  UNL     1     -11.449   4.036   3.316  1.00  0.00    -0.390 N 
HETATM   23  C24 UNL     1     -10.654   5.065   2.741  1.00  0.00     0.149 C 
HETATM   24  C25 UNL     1     -12.688   4.240   3.935  1.00  0.00     0.149 C 
ENDBRANCH  19  22
ENDBRANCH  13  16
ENDBRANCH  11  12
ENDBRANCH   8  11
ENDBRANCH   5   8
BRANCH   1  25
HETATM   25  O2  UNL     1      -6.166  -1.309   6.581  1.00  0.00    -0.299 OA
BRANCH  25  26
HETATM   26  C2  UNL     1      -6.664  -0.014   7.051  1.00  0.00     0.255 C 
HETATM   27  C1  UNL     1      -8.069   0.193   7.408  1.00  0.00     0.126 C 
HETATM   28  O1  UNL     1      -5.773   0.802   7.079  1.00  0.00    -0.266 OA
ENDBRANCH  25  26
ENDBRANCH   1  25
BRANCH   1  29
HETATM   29  C4  UNL     1      -4.684  -0.651   4.795  1.00  0.00     0.212 C 
BRANCH  29  30
HETATM   30  O3  UNL     1      -5.682   0.003   4.123  1.00  0.00    -0.398 OA
ATOM     31  H3  UNL     1      -5.775  -0.209   3.201  1.00  0.00     0.209 HD
ENDBRANCH  29  30
ENDBRANCH   1  29
BRANCH   4  32
HETATM   32  O7  UNL     1      -3.676  -4.794   5.123  1.00  0.00    -0.361 OA
ATOM     33  H7  UNL     1      -3.250  -5.296   5.807  1.00  0.00     0.213 HD
ENDBRANCH   4  32
BRANCH   4  34
HETATM   34  C16 UNL     1      -4.865  -4.682   7.044  1.00  0.00     0.236 C 
BRANCH  34  35
HETATM   35  O8  UNL     1      -4.803  -6.083   6.792  1.00  0.00    -0.395 OA
ATOM     36  H8  UNL     1      -5.003  -6.662   7.518  1.00  0.00     0.209 HD
ENDBRANCH  34  35
ENDBRANCH   4  34
BRANCH   2  37
HETATM   37  O4  UNL     1      -3.002  -0.680   6.706  1.00  0.00    -0.283 OA
BRANCH  37  38
HETATM   38  C6  UNL     1      -2.488  -0.341   7.852  1.00  0.00     0.285 C 
HETATM   39  O5  UNL     1      -1.272  -0.509   8.149  1.00  0.00    -0.260 OA
BRANCH  38  40
HETATM   40  C7  UNL     1      -3.196   0.272   8.967  1.00  0.00     0.083 C 
HETATM   41  C8  UNL     1      -3.849  -0.737   9.660  1.00  0.00     0.017 C 
BRANCH  41  42
HETATM   42  C9  UNL     1      -4.734  -0.331  10.792  1.00  0.00    -0.036 A 
HETATM   43  C10 UNL     1      -6.089  -0.368  10.653  1.00  0.00     0.011 A 
HETATM   44  C11 UNL     1      -6.834  -0.433  11.840  1.00  0.00     0.001 A 
HETATM   45  C12 UNL     1      -6.256  -0.441  13.048  1.00  0.00     0.000 A 
HETATM   46  C13 UNL     1      -4.945  -0.367  13.124  1.00  0.00     0.001 A 
HETATM   47  C14 UNL     1      -4.080  -0.323  12.039  1.00  0.00     0.011 A 
ENDBRANCH  41  42
ENDBRANCH  38  40
ENDBRANCH  37  38
ENDBRANCH   2  37
TORSDOF 18
ENDMDL
