MODEL 1
REMARK VINA RESULT: -8.786766335      0.000      0.000
REMARK  17 active torsions:
REMARK  status: ('A' for Active; 'I' for Inactive)
REMARK    1  A    between atoms: O1_2  and  C2_3 
REMARK    2  A    between atoms: C2_3  and  C3_4 
REMARK    3  A    between atoms: C2_3  and  C16_32 
REMARK    4  A    between atoms: C3_4  and  O2_5 
REMARK    5  A    between atoms: O2_5  and  C4_6 
REMARK    6  A    between atoms: C5_7  and  O3_8 
REMARK    7  A    between atoms: C6_10  and  O4_11 
REMARK    8  A    between atoms: C7_13  and  N1_14 
REMARK    9  A    between atoms: C8_18  and  O5_19 
REMARK   10  A    between atoms: C9_21  and  O6_22 
REMARK   11  A    between atoms: O6_22  and  C10_23 
REMARK   12  A    between atoms: C13_26  and  O7_27 
REMARK   13  A    between atoms: C17_34  and  O10_35 
REMARK   14  A    between atoms: O10_35  and  C18_36 
REMARK   15  A    between atoms: C18_36  and  C19_37 
REMARK   16  A    between atoms: C25_43  and  O11_44 
REMARK   17  A    between atoms: C26_46  and  O12_47 
ROOT
HETATM    1  C4  UNL     1      -6.809  -2.077   4.954  1.00  0.00     0.184 C 
HETATM    2  C5  UNL     1      -6.897  -3.115   3.889  1.00  0.00     0.180 C 
HETATM    3  C6  UNL     1      -7.725  -2.743   2.705  1.00  0.00     0.182 C 
HETATM    4  C7  UNL     1      -7.387  -1.389   2.141  1.00  0.00     0.245 C 
HETATM    5  C8  UNL     1      -7.015  -0.398   3.216  1.00  0.00     0.182 C 
HETATM    6  C9  UNL     1      -7.552  -0.786   4.549  1.00  0.00     0.187 C 
ENDROOT
BRANCH   1   7
HETATM    7  O2  UNL     1      -5.481  -1.818   5.213  1.00  0.00    -0.378 OA
BRANCH   7   8
HETATM    8  C3  UNL     1      -4.840  -2.724   5.993  1.00  0.00     0.203 C 
BRANCH   8   9
HETATM    9  C2  UNL     1      -3.412  -2.522   6.299  1.00  0.00     0.176 C 
BRANCH   9  10
HETATM   10  O1  UNL     1      -2.835  -3.797   6.518  1.00  0.00    -0.386 OA
HETATM   11  C1  UNL     1      -3.753  -4.805   6.268  1.00  0.00     0.202 C 
ENDBRANCH   9  10
BRANCH   9  12
HETATM   12  C16 UNL     1      -3.130  -1.779   7.599  1.00  0.00     0.187 C 
HETATM   13  O9  UNL     1      -4.316  -1.398   8.202  1.00  0.00    -0.348 OA
HETATM   14  C17 UNL     1      -4.368  -0.040   8.330  1.00  0.00     0.291 C 
HETATM   15  C25 UNL     1      -2.998   0.513   8.122  1.00  0.00     0.204 C 
HETATM   16  C26 UNL     1      -2.238  -0.604   7.448  1.00  0.00     0.183 C 
BRANCH  14  17
HETATM   17  O10 UNL     1      -4.966   0.393   9.502  1.00  0.00    -0.358 OA
BRANCH  17  18
HETATM   18  C18 UNL     1      -5.948  -0.488   9.940  1.00  0.00     0.175 C 
BRANCH  18  19
HETATM   19  C19 UNL     1      -5.932  -0.641  11.425  1.00  0.00     0.009 C 
HETATM   20  C20 UNL     1      -4.685   0.062  11.952  1.00  0.00     0.007 C 
HETATM   21  C21 UNL     1      -4.741   0.140  13.467  1.00  0.00     0.000 C 
HETATM   22  C22 UNL     1      -5.687  -0.937  13.972  1.00  0.00     0.000 C 
HETATM   23  C23 UNL     1      -7.122  -0.597  13.550  1.00  0.00     0.000 C 
HETATM   24  C24 UNL     1      -7.116  -0.059  12.128  1.00  0.00     0.007 C 
ENDBRANCH  18  19
ENDBRANCH  17  18
ENDBRANCH  14  17
BRANCH  15  25
HETATM   25  O11 UNL     1      -2.464   0.854   9.361  1.00  0.00    -0.388 OA
ATOM     26  H11 UNL     1      -2.034   0.090   9.727  1.00  0.00     0.210 HD
ENDBRANCH  15  25
BRANCH  16  27
HETATM   27  O12 UNL     1      -1.047  -0.762   8.194  1.00  0.00    -0.390 OA
ATOM     28  H12 UNL     1      -0.783   0.054   8.602  1.00  0.00     0.210 HD
ENDBRANCH  16  27
ENDBRANCH   9  12
ENDBRANCH   8   9
ENDBRANCH   7   8
ENDBRANCH   1   7
BRANCH   2  29
HETATM   29  O3  UNL     1      -7.432  -4.320   4.400  1.00  0.00    -0.390 OA
ATOM     30  H3  UNL     1      -7.318  -5.032   3.781  1.00  0.00     0.210 HD
ENDBRANCH   2  29
BRANCH   6  31
HETATM   31  O6  UNL     1      -8.875  -1.092   4.603  1.00  0.00    -0.351 OA
BRANCH  31  32
HETATM   32  C10 UNL     1      -9.740  -0.085   4.905  1.00  0.00     0.261 C 
HETATM   33  C11 UNL     1     -10.799  -0.487   5.916  1.00  0.00     0.063 C 
HETATM   34  C12 UNL     1     -12.077   0.306   5.702  1.00  0.00     0.039 C 
HETATM   35  C13 UNL     1     -11.763   1.652   5.051  1.00  0.00     0.147 C 
HETATM   36  C14 UNL     1     -11.038   1.464   3.742  1.00  0.00     0.149 C 
HETATM   37  C15 UNL     1     -10.116   2.611   3.405  1.00  0.00     0.042 C 
HETATM   38  O8  UNL     1     -10.428   0.239   3.736  1.00  0.00    -0.354 OA
BRANCH  35  39
HETATM   39  O7  UNL     1     -12.996   2.268   4.825  1.00  0.00    -0.393 OA
ATOM     40  H7  UNL     1     -13.048   2.415   3.888  1.00  0.00     0.210 HD
ENDBRANCH  35  39
ENDBRANCH  31  32
ENDBRANCH   6  31
BRANCH   3  41
HETATM   41  O4  UNL     1      -7.446  -3.678   1.686  1.00  0.00    -0.391 OA
ATOM     42  H4  UNL     1      -7.643  -3.260   0.856  1.00  0.00     0.210 HD
ENDBRANCH   3  41
BRANCH   5  43
HETATM   43  O5  UNL     1      -7.353   0.911   2.850  1.00  0.00    -0.391 OA
ATOM     44  H5  UNL     1      -6.589   1.405   2.576  1.00  0.00     0.210 HD
ENDBRANCH   5  43
BRANCH   4  45
HETATM   45  N1  UNL     1      -8.552  -0.923   1.378  1.00  0.00    -0.070 N 
ATOM     46  H13 UNL     1      -9.309  -0.587   1.974  1.00  0.00     0.274 HD
ATOM     47  H12 UNL     1      -8.378  -0.050   0.879  1.00  0.00     0.274 HD
ATOM     48  H11 UNL     1      -8.840  -1.682   0.761  1.00  0.00     0.274 HD
ENDBRANCH   4  45
TORSDOF 17
ENDMDL
MODEL 2
REMARK VINA RESULT: -8.564924514      1.476      1.985
REMARK  17 active torsions:
REMARK  status: ('A' for Active; 'I' for Inactive)
REMARK    1  A    between atoms: O1_2  and  C2_3 
REMARK    2  A    between atoms: C2_3  and  C3_4 
REMARK    3  A    between atoms: C2_3  and  C16_32 
REMARK    4  A    between atoms: C3_4  and  O2_5 
REMARK    5  A    between atoms: O2_5  and  C4_6 
REMARK    6  A    between atoms: C5_7  and  O3_8 
REMARK    7  A    between atoms: C6_10  and  O4_11 
REMARK    8  A    between atoms: C7_13  and  N1_14 
REMARK    9  A    between atoms: C8_18  and  O5_19 
REMARK   10  A    between atoms: C9_21  and  O6_22 
REMARK   11  A    between atoms: O6_22  and  C10_23 
REMARK   12  A    between atoms: C13_26  and  O7_27 
REMARK   13  A    between atoms: C17_34  and  O10_35 
REMARK   14  A    between atoms: O10_35  and  C18_36 
REMARK   15  A    between atoms: C18_36  and  C19_37 
REMARK   16  A    between atoms: C25_43  and  O11_44 
REMARK   17  A    between atoms: C26_46  and  O12_47 
ROOT
HETATM    1  C4  UNL     1      -6.335  -2.142   4.604  1.00  0.00     0.184 C 
HETATM    2  C5  UNL     1      -5.291  -2.106   3.543  1.00  0.00     0.180 C 
HETATM    3  C6  UNL     1      -5.203  -0.827   2.779  1.00  0.00     0.182 C 
HETATM    4  C7  UNL     1      -5.149   0.392   3.661  1.00  0.00     0.245 C 
HETATM    5  C8  UNL     1      -5.996   0.241   4.899  1.00  0.00     0.182 C 
HETATM    6  C9  UNL     1      -7.060  -0.785   4.732  1.00  0.00     0.187 C 
ENDROOT
BRANCH   1   7
HETATM    7  O2  UNL     1      -5.743  -2.495   5.797  1.00  0.00    -0.378 OA
BRANCH   7   8
HETATM    8  C3  UNL     1      -4.454  -2.910   5.722  1.00  0.00     0.203 C 
BRANCH   8   9
HETATM    9  C2  UNL     1      -3.753  -3.297   6.960  1.00  0.00     0.176 C 
BRANCH   9  10
HETATM   10  O1  UNL     1      -4.610  -4.160   7.686  1.00  0.00    -0.386 OA
HETATM   11  C1  UNL     1      -4.162  -5.470   7.624  1.00  0.00     0.202 C 
ENDBRANCH   9  10
BRANCH   9  12
HETATM   12  C16 UNL     1      -3.491  -2.157   7.936  1.00  0.00     0.187 C 
HETATM   13  O9  UNL     1      -4.666  -1.785   8.567  1.00  0.00    -0.348 OA
HETATM   14  C17 UNL     1      -4.951  -0.477   8.305  1.00  0.00     0.291 C 
HETATM   15  C25 UNL     1      -3.730   0.178   7.752  1.00  0.00     0.204 C 
HETATM   16  C26 UNL     1      -2.846  -0.970   7.327  1.00  0.00     0.183 C 
BRANCH  14  17
HETATM   17  O10 UNL     1      -5.507   0.205   9.375  1.00  0.00    -0.358 OA
BRANCH  17  18
HETATM   18  C18 UNL     1      -6.469  -0.554  10.030  1.00  0.00     0.175 C 
BRANCH  18  19
HETATM   19  C19 UNL     1      -6.178  -0.678  11.489  1.00  0.00     0.009 C 
HETATM   20  C20 UNL     1      -4.893   0.094  11.775  1.00  0.00     0.007 C 
HETATM   21  C21 UNL     1      -4.678   0.198  13.273  1.00  0.00     0.000 C 
HETATM   22  C22 UNL     1      -5.462  -0.913  13.953  1.00  0.00     0.000 C 
HETATM   23  C23 UNL     1      -6.965  -0.649  13.795  1.00  0.00     0.000 C 
HETATM   24  C24 UNL     1      -7.243  -0.139  12.390  1.00  0.00     0.007 C 
ENDBRANCH  18  19
ENDBRANCH  17  18
ENDBRANCH  14  17
BRANCH  15  25
HETATM   25  O11 UNL     1      -3.154   0.958   8.750  1.00  0.00    -0.388 OA
ATOM     26  H11 UNL     1      -3.832   1.217   9.363  1.00  0.00     0.210 HD
ENDBRANCH  15  25
BRANCH  16  27
HETATM   27  O12 UNL     1      -1.581  -0.715   7.908  1.00  0.00    -0.390 OA
ATOM     28  H12 UNL     1      -0.969  -1.418   7.727  1.00  0.00     0.210 HD
ENDBRANCH  16  27
ENDBRANCH   9  12
ENDBRANCH   8   9
ENDBRANCH   7   8
ENDBRANCH   1   7
BRANCH   2  29
HETATM   29  O3  UNL     1      -5.498  -3.134   2.594  1.00  0.00    -0.390 OA
ATOM     30  H3  UNL     1      -4.672  -3.513   2.318  1.00  0.00     0.210 HD
ENDBRANCH   2  29
BRANCH   6  31
HETATM   31  O6  UNL     1      -7.834  -0.678   3.619  1.00  0.00    -0.351 OA
BRANCH  31  32
HETATM   32  C10 UNL     1      -9.061  -0.103   3.762  1.00  0.00     0.261 C 
HETATM   33  C11 UNL     1      -9.185   1.229   3.045  1.00  0.00     0.063 C 
HETATM   34  C12 UNL     1     -10.180   2.132   3.755  1.00  0.00     0.039 C 
HETATM   35  C13 UNL     1     -11.208   1.294   4.513  1.00  0.00     0.147 C 
HETATM   36  C14 UNL     1     -10.534   0.377   5.504  1.00  0.00     0.149 C 
HETATM   37  C15 UNL     1     -11.309  -0.894   5.756  1.00  0.00     0.042 C 
HETATM   38  O8  UNL     1      -9.238   0.171   5.117  1.00  0.00    -0.354 OA
BRANCH  35  39
HETATM   39  O7  UNL     1     -12.024   2.204   5.191  1.00  0.00    -0.393 OA
ATOM     40  H7  UNL     1     -12.481   2.697   4.520  1.00  0.00     0.210 HD
ENDBRANCH  35  39
ENDBRANCH  31  32
ENDBRANCH   6  31
BRANCH   3  41
HETATM   41  O4  UNL     1      -3.991  -0.849   2.058  1.00  0.00    -0.391 OA
ATOM     42  H4  UNL     1      -3.358  -1.327   2.581  1.00  0.00     0.210 HD
ENDBRANCH   3  41
BRANCH   5  43
HETATM   43  O5  UNL     1      -6.490   1.476   5.339  1.00  0.00    -0.391 OA
ATOM     44  H5  UNL     1      -7.291   1.714   4.885  1.00  0.00     0.210 HD
ENDBRANCH   5  43
BRANCH   4  45
HETATM   45  N1  UNL     1      -5.591   1.540   2.859  1.00  0.00    -0.070 N 
ATOM     46  H13 UNL     1      -5.182   1.552   1.924  1.00  0.00     0.274 HD
ATOM     47  H12 UNL     1      -6.569   1.475   2.576  1.00  0.00     0.274 HD
ATOM     48  H11 UNL     1      -5.387   2.385   3.392  1.00  0.00     0.274 HD
ENDBRANCH   4  45
TORSDOF 17
ENDMDL
MODEL 3
REMARK VINA RESULT: -8.547753237      1.570      2.182
REMARK  17 active torsions:
REMARK  status: ('A' for Active; 'I' for Inactive)
REMARK    1  A    between atoms: O1_2  and  C2_3 
REMARK    2  A    between atoms: C2_3  and  C3_4 
REMARK    3  A    between atoms: C2_3  and  C16_32 
REMARK    4  A    between atoms: C3_4  and  O2_5 
REMARK    5  A    between atoms: O2_5  and  C4_6 
REMARK    6  A    between atoms: C5_7  and  O3_8 
REMARK    7  A    between atoms: C6_10  and  O4_11 
REMARK    8  A    between atoms: C7_13  and  N1_14 
REMARK    9  A    between atoms: C8_18  and  O5_19 
REMARK   10  A    between atoms: C9_21  and  O6_22 
REMARK   11  A    between atoms: O6_22  and  C10_23 
REMARK   12  A    between atoms: C13_26  and  O7_27 
REMARK   13  A    between atoms: C17_34  and  O10_35 
REMARK   14  A    between atoms: O10_35  and  C18_36 
REMARK   15  A    between atoms: C18_36  and  C19_37 
REMARK   16  A    between atoms: C25_43  and  O11_44 
REMARK   17  A    between atoms: C26_46  and  O12_47 
ROOT
HETATM    1  C4  UNL     1      -7.195  -0.432   4.082  1.00  0.00     0.184 C 
HETATM    2  C5  UNL     1      -6.819  -1.751   4.662  1.00  0.00     0.180 C 
HETATM    3  C6  UNL     1      -7.559  -2.923   4.111  1.00  0.00     0.182 C 
HETATM    4  C7  UNL     1      -7.583  -2.960   2.606  1.00  0.00     0.245 C 
HETATM    5  C8  UNL     1      -7.678  -1.581   2.002  1.00  0.00     0.182 C 
HETATM    6  C9  UNL     1      -8.240  -0.586   2.955  1.00  0.00     0.187 C 
ENDROOT
BRANCH   1   7
HETATM    7  O2  UNL     1      -6.058   0.189   3.614  1.00  0.00    -0.378 OA
BRANCH   7   8
HETATM    8  C3  UNL     1      -4.879  -0.325   4.048  1.00  0.00     0.203 C 
BRANCH   8   9
HETATM    9  C2  UNL     1      -4.008   0.504   4.900  1.00  0.00     0.176 C 
BRANCH   9  10
HETATM   10  O1  UNL     1      -2.837   0.799   4.159  1.00  0.00    -0.386 OA
HETATM   11  C1  UNL     1      -2.982   1.984   3.456  1.00  0.00     0.202 C 
ENDBRANCH   9  10
BRANCH   9  12
HETATM   12  C16 UNL     1      -3.472  -0.193   6.145  1.00  0.00     0.187 C 
HETATM   13  O9  UNL     1      -4.518  -0.630   6.938  1.00  0.00    -0.348 OA
HETATM   14  C17 UNL     1      -4.454  -0.048   8.171  1.00  0.00     0.291 C 
HETATM   15  C25 UNL     1      -3.100   0.552   8.347  1.00  0.00     0.204 C 
HETATM   16  C26 UNL     1      -2.536   0.630   6.948  1.00  0.00     0.183 C 
BRANCH  14  17
HETATM   17  O10 UNL     1      -4.828  -0.884   9.210  1.00  0.00    -0.358 OA
BRANCH  17  18
HETATM   18  C18 UNL     1      -5.990  -0.448   9.835  1.00  0.00     0.175 C 
BRANCH  18  19
HETATM   19  C19 UNL     1      -5.914  -0.603  11.317  1.00  0.00     0.009 C 
HETATM   20  C20 UNL     1      -4.651   0.107  11.796  1.00  0.00     0.007 C 
HETATM   21  C21 UNL     1      -4.647   0.182  13.311  1.00  0.00     0.000 C 
HETATM   22  C22 UNL     1      -5.566  -0.901  13.852  1.00  0.00     0.000 C 
HETATM   23  C23 UNL     1      -7.019  -0.568  13.489  1.00  0.00     0.000 C 
HETATM   24  C24 UNL     1      -7.073  -0.028  12.068  1.00  0.00     0.007 C 
ENDBRANCH  18  19
ENDBRANCH  17  18
ENDBRANCH  14  17
BRANCH  15  25
HETATM   25  O11 UNL     1      -2.353  -0.274   9.182  1.00  0.00    -0.388 OA
ATOM     26  H11 UNL     1      -2.521  -1.178   8.943  1.00  0.00     0.210 HD
ENDBRANCH  15  25
BRANCH  16  27
HETATM   27  O12 UNL     1      -1.255   0.033   7.018  1.00  0.00    -0.390 OA
ATOM     28  H12 UNL     1      -0.569   0.661   6.827  1.00  0.00     0.210 HD
ENDBRANCH  16  27
ENDBRANCH   9  12
ENDBRANCH   8   9
ENDBRANCH   7   8
ENDBRANCH   1   7
BRANCH   2  29
HETATM   29  O3  UNL     1      -7.020  -1.763   6.063  1.00  0.00    -0.390 OA
ATOM     30  H3  UNL     1      -7.184  -2.645   6.375  1.00  0.00     0.210 HD
ENDBRANCH   2  29
BRANCH   6  31
HETATM   31  O6  UNL     1      -9.399  -0.930   3.575  1.00  0.00    -0.351 OA
BRANCH  31  32
HETATM   32  C10 UNL     1      -9.974  -0.002   4.391  1.00  0.00     0.261 C 
HETATM   33  C11 UNL     1     -10.460  -0.581   5.707  1.00  0.00     0.063 C 
HETATM   34  C12 UNL     1     -11.650   0.204   6.233  1.00  0.00     0.039 C 
HETATM   35  C13 UNL     1     -11.607   1.641   5.717  1.00  0.00     0.147 C 
HETATM   36  C14 UNL     1     -11.584   1.674   4.209  1.00  0.00     0.149 C 
HETATM   37  C15 UNL     1     -10.868   2.882   3.654  1.00  0.00     0.042 C 
HETATM   38  O8  UNL     1     -11.108   0.480   3.739  1.00  0.00    -0.354 OA
BRANCH  35  39
HETATM   39  O7  UNL     1     -12.772   2.254   6.185  1.00  0.00    -0.393 OA
ATOM     40  H7  UNL     1     -13.276   2.485   5.414  1.00  0.00     0.210 HD
ENDBRANCH  35  39
ENDBRANCH  31  32
ENDBRANCH   6  31
BRANCH   3  41
HETATM   41  O4  UNL     1      -6.874  -4.085   4.525  1.00  0.00    -0.391 OA
ATOM     42  H4  UNL     1      -7.504  -4.796   4.537  1.00  0.00     0.210 HD
ENDBRANCH   3  41
BRANCH   5  43
HETATM   43  O5  UNL     1      -8.351  -1.602   0.773  1.00  0.00    -0.391 OA
ATOM     44  H5  UNL     1      -8.085  -0.880   0.216  1.00  0.00     0.210 HD
ENDBRANCH   5  43
BRANCH   4  45
HETATM   45  N1  UNL     1      -8.724  -3.791   2.201  1.00  0.00    -0.070 N 
ATOM     46  H13 UNL     1      -9.354  -4.004   2.974  1.00  0.00     0.274 HD
ATOM     47  H12 UNL     1      -9.394  -3.289   1.616  1.00  0.00     0.274 HD
ATOM     48  H11 UNL     1      -8.352  -4.626   1.750  1.00  0.00     0.274 HD
ENDBRANCH   4  45
TORSDOF 17
ENDMDL
MODEL 4
REMARK VINA RESULT: -8.533237018      1.421      1.703
REMARK  17 active torsions:
REMARK  status: ('A' for Active; 'I' for Inactive)
REMARK    1  A    between atoms: O1_2  and  C2_3 
REMARK    2  A    between atoms: C2_3  and  C3_4 
REMARK    3  A    between atoms: C2_3  and  C16_32 
REMARK    4  A    between atoms: C3_4  and  O2_5 
REMARK    5  A    between atoms: O2_5  and  C4_6 
REMARK    6  A    between atoms: C5_7  and  O3_8 
REMARK    7  A    between atoms: C6_10  and  O4_11 
REMARK    8  A    between atoms: C7_13  and  N1_14 
REMARK    9  A    between atoms: C8_18  and  O5_19 
REMARK   10  A    between atoms: C9_21  and  O6_22 
REMARK   11  A    between atoms: O6_22  and  C10_23 
REMARK   12  A    between atoms: C13_26  and  O7_27 
REMARK   13  A    between atoms: C17_34  and  O10_35 
REMARK   14  A    between atoms: O10_35  and  C18_36 
REMARK   15  A    between atoms: C18_36  and  C19_37 
REMARK   16  A    between atoms: C25_43  and  O11_44 
REMARK   17  A    between atoms: C26_46  and  O12_47 
ROOT
HETATM    1  C4  UNL     1      -7.615  -2.033   3.373  1.00  0.00     0.184 C 
HETATM    2  C5  UNL     1      -7.726  -2.073   1.889  1.00  0.00     0.180 C 
HETATM    3  C6  UNL     1      -8.324  -0.858   1.262  1.00  0.00     0.182 C 
HETATM    4  C7  UNL     1      -7.705   0.428   1.744  1.00  0.00     0.245 C 
HETATM    5  C8  UNL     1      -7.324   0.369   3.202  1.00  0.00     0.182 C 
HETATM    6  C9  UNL     1      -8.085  -0.676   3.940  1.00  0.00     0.187 C 
ENDROOT
BRANCH   1   7
HETATM    7  O2  UNL     1      -6.308  -2.287   3.728  1.00  0.00    -0.378 OA
BRANCH   7   8
HETATM    8  C3  UNL     1      -6.104  -2.664   5.015  1.00  0.00     0.203 C 
BRANCH   8   9
HETATM    9  C2  UNL     1      -4.725  -2.722   5.533  1.00  0.00     0.176 C 
BRANCH   9  10
HETATM   10  O1  UNL     1      -4.658  -3.794   6.457  1.00  0.00    -0.386 OA
HETATM   11  C1  UNL     1      -4.017  -4.889   5.898  1.00  0.00     0.202 C 
ENDBRANCH   9  10
BRANCH   9  12
HETATM   12  C16 UNL     1      -4.296  -1.517   6.361  1.00  0.00     0.187 C 
HETATM   13  O9  UNL     1      -4.866  -1.572   7.621  1.00  0.00    -0.348 OA
HETATM   14  C17 UNL     1      -5.650  -0.476   7.835  1.00  0.00     0.291 C 
HETATM   15  C25 UNL     1      -5.325   0.553   6.806  1.00  0.00     0.204 C 
HETATM   16  C26 UNL     1      -4.588  -0.208   5.729  1.00  0.00     0.183 C 
BRANCH  14  17
HETATM   17  O10 UNL     1      -5.603   0.007   9.133  1.00  0.00    -0.358 OA
BRANCH  17  18
HETATM   18  C18 UNL     1      -6.630  -0.508   9.916  1.00  0.00     0.175 C 
BRANCH  18  19
HETATM   19  C19 UNL     1      -6.221  -0.644  11.345  1.00  0.00     0.009 C 
HETATM   20  C20 UNL     1      -4.898   0.095  11.524  1.00  0.00     0.007 C 
HETATM   21  C21 UNL     1      -4.558   0.188  13.000  1.00  0.00     0.000 C 
HETATM   22  C22 UNL     1      -5.309  -0.906  13.740  1.00  0.00     0.000 C 
HETATM   23  C23 UNL     1      -6.813  -0.605  13.708  1.00  0.00     0.000 C 
HETATM   24  C24 UNL     1      -7.194  -0.083  12.332  1.00  0.00     0.007 C 
ENDBRANCH  18  19
ENDBRANCH  17  18
ENDBRANCH  14  17
BRANCH  15  25
HETATM   25  O11 UNL     1      -4.542   1.541   7.396  1.00  0.00    -0.388 OA
ATOM     26  H11 UNL     1      -4.615   1.462   8.340  1.00  0.00     0.210 HD
ENDBRANCH  15  25
BRANCH  16  27
HETATM   27  O12 UNL     1      -3.402   0.523   5.486  1.00  0.00    -0.390 OA
ATOM     28  H12 UNL     1      -3.413   1.360   5.936  1.00  0.00     0.210 HD
ENDBRANCH  16  27
ENDBRANCH   9  12
ENDBRANCH   8   9
ENDBRANCH   7   8
ENDBRANCH   1   7
BRANCH   2  29
HETATM   29  O3  UNL     1      -8.508  -3.175   1.470  1.00  0.00    -0.390 OA
ATOM     30  H3  UNL     1      -7.960  -3.930   1.288  1.00  0.00     0.210 HD
ENDBRANCH   2  29
BRANCH   6  31
HETATM   31  O6  UNL     1      -9.435  -0.663   3.787  1.00  0.00    -0.351 OA
BRANCH  31  32
HETATM   32  C10 UNL     1     -10.133   0.298   4.455  1.00  0.00     0.261 C 
HETATM   33  C11 UNL     1     -10.888  -0.237   5.658  1.00  0.00     0.063 C 
HETATM   34  C12 UNL     1     -12.135   0.590   5.922  1.00  0.00     0.039 C 
HETATM   35  C13 UNL     1     -11.949   2.013   5.398  1.00  0.00     0.147 C 
HETATM   36  C14 UNL     1     -11.625   2.009   3.925  1.00  0.00     0.149 C 
HETATM   37  C15 UNL     1     -10.778   3.185   3.502  1.00  0.00     0.042 C 
HETATM   38  O8  UNL     1     -11.100   0.793   3.581  1.00  0.00    -0.354 OA
BRANCH  35  39
HETATM   39  O7  UNL     1     -13.165   2.666   5.613  1.00  0.00    -0.393 OA
ATOM     40  H7  UNL     1     -12.975   3.387   6.201  1.00  0.00     0.210 HD
ENDBRANCH  35  39
ENDBRANCH  31  32
ENDBRANCH   6  31
BRANCH   3  41
HETATM   41  O4  UNL     1      -8.065  -0.928  -0.122  1.00  0.00    -0.391 OA
ATOM     42  H4  UNL     1      -7.997  -0.037  -0.444  1.00  0.00     0.210 HD
ENDBRANCH   3  41
BRANCH   5  43
HETATM   43  O5  UNL     1      -7.400   1.630   3.806  1.00  0.00    -0.391 OA
ATOM     44  H5  UNL     1      -7.489   2.322   3.160  1.00  0.00     0.210 HD
ENDBRANCH   5  43
BRANCH   4  45
HETATM   45  N1  UNL     1      -8.672   1.505   1.497  1.00  0.00    -0.070 N 
ATOM     46  H13 UNL     1      -9.640   1.187   1.541  1.00  0.00     0.274 HD
ATOM     47  H12 UNL     1      -8.718   2.181   2.260  1.00  0.00     0.274 HD
ATOM     48  H11 UNL     1      -8.435   1.932   0.602  1.00  0.00     0.274 HD
ENDBRANCH   4  45
TORSDOF 17
ENDMDL
MODEL 5
REMARK VINA RESULT: -8.287921971      2.038      3.494
REMARK  17 active torsions:
REMARK  status: ('A' for Active; 'I' for Inactive)
REMARK    1  A    between atoms: O1_2  and  C2_3 
REMARK    2  A    between atoms: C2_3  and  C3_4 
REMARK    3  A    between atoms: C2_3  and  C16_32 
REMARK    4  A    between atoms: C3_4  and  O2_5 
REMARK    5  A    between atoms: O2_5  and  C4_6 
REMARK    6  A    between atoms: C5_7  and  O3_8 
REMARK    7  A    between atoms: C6_10  and  O4_11 
REMARK    8  A    between atoms: C7_13  and  N1_14 
REMARK    9  A    between atoms: C8_18  and  O5_19 
REMARK   10  A    between atoms: C9_21  and  O6_22 
REMARK   11  A    between atoms: O6_22  and  C10_23 
REMARK   12  A    between atoms: C13_26  and  O7_27 
REMARK   13  A    between atoms: C17_34  and  O10_35 
REMARK   14  A    between atoms: O10_35  and  C18_36 
REMARK   15  A    between atoms: C18_36  and  C19_37 
REMARK   16  A    between atoms: C25_43  and  O11_44 
REMARK   17  A    between atoms: C26_46  and  O12_47 
ROOT
HETATM    1  C4  UNL     1      -6.886   0.199   2.461  1.00  0.00     0.184 C 
HETATM    2  C5  UNL     1      -6.833   0.636   1.039  1.00  0.00     0.180 C 
HETATM    3  C6  UNL     1      -7.373   2.001   0.772  1.00  0.00     0.182 C 
HETATM    4  C7  UNL     1      -6.827   3.052   1.702  1.00  0.00     0.245 C 
HETATM    5  C8  UNL     1      -6.609   2.523   3.097  1.00  0.00     0.182 C 
HETATM    6  C9  UNL     1      -7.433   1.315   3.377  1.00  0.00     0.187 C 
ENDROOT
BRANCH   1   7
HETATM    7  O2  UNL     1      -5.624  -0.185   2.856  1.00  0.00    -0.378 OA
BRANCH   7   8
HETATM    8  C3  UNL     1      -5.545  -0.839   4.042  1.00  0.00     0.203 C 
BRANCH   8   9
HETATM    9  C2  UNL     1      -5.132  -2.254   4.053  1.00  0.00     0.176 C 
BRANCH   9  10
HETATM   10  O1  UNL     1      -5.975  -2.954   3.155  1.00  0.00    -0.386 OA
HETATM   11  C1  UNL     1      -7.241  -3.120   3.693  1.00  0.00     0.202 C 
ENDBRANCH   9  10
BRANCH   9  12
HETATM   12  C16 UNL     1      -5.347  -2.979   5.376  1.00  0.00     0.187 C 
HETATM   13  O9  UNL     1      -5.226  -2.094   6.434  1.00  0.00    -0.348 OA
HETATM   14  C17 UNL     1      -4.215  -2.482   7.263  1.00  0.00     0.291 C 
HETATM   15  C25 UNL     1      -3.853  -3.894   6.948  1.00  0.00     0.204 C 
HETATM   16  C26 UNL     1      -4.455  -4.144   5.586  1.00  0.00     0.183 C 
BRANCH  14  17
HETATM   17  O10 UNL     1      -4.472  -2.265   8.607  1.00  0.00    -0.358 OA
BRANCH  17  18
HETATM   18  C18 UNL     1      -5.437  -1.283   8.798  1.00  0.00     0.175 C 
BRANCH  18  19
HETATM   19  C19 UNL     1      -5.678  -1.018  10.248  1.00  0.00     0.009 C 
HETATM   20  C20 UNL     1      -4.489  -0.223  10.779  1.00  0.00     0.007 C 
HETATM   21  C21 UNL     1      -4.789   0.274  12.181  1.00  0.00     0.000 C 
HETATM   22  C22 UNL     1      -5.879  -0.599  12.781  1.00  0.00     0.000 C 
HETATM   23  C23 UNL     1      -7.197  -0.358  12.034  1.00  0.00     0.000 C 
HETATM   24  C24 UNL     1      -6.918  -0.237  10.544  1.00  0.00     0.007 C 
ENDBRANCH  18  19
ENDBRANCH  17  18
ENDBRANCH  14  17
BRANCH  15  25
HETATM   25  O11 UNL     1      -4.389  -4.721   7.931  1.00  0.00    -0.388 OA
ATOM     26  H11 UNL     1      -5.065  -5.260   7.538  1.00  0.00     0.210 HD
ENDBRANCH  15  25
BRANCH  16  27
HETATM   27  O12 UNL     1      -5.194  -5.344   5.707  1.00  0.00    -0.390 OA
ATOM     28  H12 UNL     1      -4.722  -6.081   5.338  1.00  0.00     0.210 HD
ENDBRANCH  16  27
ENDBRANCH   9  12
ENDBRANCH   8   9
ENDBRANCH   7   8
ENDBRANCH   1   7
BRANCH   2  29
HETATM   29  O3  UNL     1      -7.550  -0.256   0.208  1.00  0.00    -0.390 OA
ATOM     30  H3  UNL     1      -7.112  -0.369  -0.628  1.00  0.00     0.210 HD
ENDBRANCH   2  29
BRANCH   6  31
HETATM   31  O6  UNL     1      -8.758   1.408   3.091  1.00  0.00    -0.351 OA
BRANCH  31  32
HETATM   32  C10 UNL     1      -9.623   1.475   4.141  1.00  0.00     0.261 C 
HETATM   33  C11 UNL     1      -9.195   0.629   5.326  1.00  0.00     0.063 C 
HETATM   34  C12 UNL     1     -10.405   0.152   6.112  1.00  0.00     0.039 C 
HETATM   35  C13 UNL     1     -11.569   1.125   5.935  1.00  0.00     0.147 C 
HETATM   36  C14 UNL     1     -11.923   1.287   4.477  1.00  0.00     0.149 C 
HETATM   37  C15 UNL     1     -12.504   2.643   4.156  1.00  0.00     0.042 C 
HETATM   38  O8  UNL     1     -10.841   0.949   3.711  1.00  0.00    -0.354 OA
BRANCH  35  39
HETATM   39  O7  UNL     1     -12.648   0.566   6.624  1.00  0.00    -0.393 OA
ATOM     40  H7  UNL     1     -12.674   1.000   7.469  1.00  0.00     0.210 HD
ENDBRANCH  35  39
ENDBRANCH  31  32
ENDBRANCH   6  31
BRANCH   3  41
HETATM   41  O4  UNL     1      -6.962   2.369  -0.526  1.00  0.00    -0.391 OA
ATOM     42  H4  UNL     1      -7.486   3.118  -0.788  1.00  0.00     0.210 HD
ENDBRANCH   3  41
BRANCH   5  43
HETATM   43  O5  UNL     1      -6.766   3.527   4.060  1.00  0.00    -0.391 OA
ATOM     44  H5  UNL     1      -6.030   3.555   4.661  1.00  0.00     0.210 HD
ENDBRANCH   5  43
BRANCH   4  45
HETATM   45  N1  UNL     1      -7.774   4.174   1.708  1.00  0.00    -0.070 N 
ATOM     46  H13 UNL     1      -7.351   5.048   2.020  1.00  0.00     0.274 HD
ATOM     47  H12 UNL     1      -8.035   4.479   0.770  1.00  0.00     0.274 HD
ATOM     48  H11 UNL     1      -8.576   3.896   2.273  1.00  0.00     0.274 HD
ENDBRANCH   4  45
TORSDOF 17
ENDMDL
