MODEL 1
REMARK VINA RESULT: -9.301711331      0.000      0.000
REMARK  13 active torsions:
REMARK  status: ('A' for Active; 'I' for Inactive)
REMARK    1  A    between atoms: N1_2  and  C3_4 
REMARK    2  A    between atoms: C6_7  and  C7_8 
REMARK       I    between atoms: C7_8  and  N2_10 
REMARK    3  A    between atoms: N2_10  and  C8_12 
REMARK    4  A    between atoms: C8_12  and  C9_13 
REMARK    5  A    between atoms: C8_12  and  C13_23 
REMARK    6  A    between atoms: C9_13  and  C10_14 
REMARK       I    between atoms: C13_23  and  N5_25 
REMARK    7  A    between atoms: N5_25  and  C14_27 
REMARK    8  A    between atoms: C14_27  and  N6_28 
REMARK    9  A    between atoms: C14_27  and  C19_47 
REMARK   10  A    between atoms: N6_28  and  C15_30 
REMARK   11  A    between atoms: C16_33  and  N8_34 
REMARK   12  A    between atoms: C17_37  and  N9_38 
REMARK   13  A    between atoms: C18_41  and  N10_42 
ROOT
HETATM    1  C13 UNL     1      -7.486   0.946   4.767  1.00  0.00     0.242 C 
HETATM    2  O2  UNL     1      -6.600   1.824   4.655  1.00  0.00    -0.271 OA
HETATM    3  N5  UNL     1      -7.526  -0.164   3.935  1.00  0.00    -0.329 N 
ATOM      4  H5  UNL     1      -8.284  -0.752   4.282  1.00  0.00     0.165 HD
ENDROOT
BRANCH   1   5
HETATM    5  C8  UNL     1      -8.579   1.037   5.825  1.00  0.00     0.181 C 
BRANCH   5   6
HETATM    6  N2  UNL     1      -7.926   0.909   7.104  1.00  0.00    -0.343 N 
HETATM    7  C7  UNL     1      -7.191  -0.172   7.555  1.00  0.00     0.252 C 
HETATM    8  O1  UNL     1      -6.871  -1.184   6.919  1.00  0.00    -0.268 OA
ATOM      9  H2  UNL     1      -8.016   1.698   7.744  1.00  0.00     0.163 HD
BRANCH   7  10
HETATM   10  C6  UNL     1      -6.720  -0.222   8.928  1.00  0.00     0.032 A 
HETATM   11  C5  UNL     1      -7.777  -0.225   9.869  1.00  0.00     0.019 A 
HETATM   12  C4  UNL     1      -7.487  -0.278  11.179  1.00  0.00     0.030 A 
HETATM   13  C3  UNL     1      -6.174  -0.327  11.600  1.00  0.00     0.029 A 
HETATM   14  C21 UNL     1      -5.133  -0.327  10.707  1.00  0.00     0.030 A 
HETATM   15  C20 UNL     1      -5.451  -0.272   9.328  1.00  0.00     0.019 A 
BRANCH  13  16
HETATM   16  N1  UNL     1      -5.925  -0.331  13.021  1.00  0.00    -0.390 N 
HETATM   17  C1  UNL     1      -7.028  -0.699  13.887  1.00  0.00     0.149 C 
HETATM   18  C2  UNL     1      -4.624   0.008  13.523  1.00  0.00     0.149 C 
ENDBRANCH  13  16
ENDBRANCH   7  10
ENDBRANCH   5   6
BRANCH   5  19
HETATM   19  C9  UNL     1      -9.611  -0.011   5.518  1.00  0.00     0.082 C 
BRANCH  19  20
HETATM   20  C10 UNL     1     -10.895   0.644   5.043  1.00  0.00     0.004 A 
HETATM   21  C11 UNL     1     -12.141   0.083   5.378  1.00  0.00     0.105 A 
HETATM   22  N3  UNL     1     -13.194   0.714   4.972  1.00  0.00    -0.346 N 
HETATM   23  C12 UNL     1     -13.056   1.840   4.279  1.00  0.00     0.142 A 
ATOM     24  H3  UNL     1     -14.123   0.351   5.183  1.00  0.00     0.167 HD
HETATM   25  N4  UNL     1     -14.010   2.607   3.802  1.00  0.00    -0.380 N 
HETATM   26  S1  UNL     1     -11.331   2.006   4.192  1.00  0.00    -0.058 SA
ATOM     27  H42 UNL     1     -15.024   2.510   3.854  1.00  0.00     0.158 HD
ATOM     28  H41 UNL     1     -13.904   3.471   3.270  1.00  0.00     0.158 HD
ENDBRANCH  19  20
ENDBRANCH   5  19
ENDBRANCH   1   5
BRANCH   3  29
HETATM   29  C14 UNL     1      -6.994  -0.827   2.842  1.00  0.00     0.304 C 
BRANCH  29  30
HETATM   30  N6  UNL     1      -5.584  -1.069   2.879  1.00  0.00    -0.195 N 
ATOM     31  H6  UNL     1      -5.031  -0.907   2.037  1.00  0.00     0.180 HD
BRANCH  30  32
HETATM   32  C15 UNL     1      -4.986  -1.491   3.955  1.00  0.00     0.683 A 
HETATM   33  N7  UNL     1      -4.962  -2.808   4.214  1.00  0.00    -0.168 N 
HETATM   34  C16 UNL     1      -4.398  -3.322   5.348  1.00  0.00     0.225 A 
ATOM     35  H7  UNL     1      -5.379  -3.449   3.540  1.00  0.00     0.186 HD
HETATM   36  C17 UNL     1      -3.833  -2.476   6.273  1.00  0.00     0.197 A 
HETATM   37  C18 UNL     1      -3.853  -1.104   6.010  1.00  0.00     0.152 A 
HETATM   38  N11 UNL     1      -4.429  -0.688   4.861  1.00  0.00    -0.174 N 
ATOM     39  H11 UNL     1      -4.439   0.315   4.674  1.00  0.00     0.186 HD
BRANCH  34  40
HETATM   40  N8  UNL     1      -4.394  -4.716   5.570  1.00  0.00    -0.095 N 
HETATM   41  O3  UNL     1      -3.307  -5.345   5.470  1.00  0.00    -0.530 OA
HETATM   42  O4  UNL     1      -5.483  -5.466   5.895  1.00  0.00    -0.530 OA
ENDBRANCH  34  40
BRANCH  36  43
HETATM   43  N9  UNL     1      -3.249  -2.905   7.489  1.00  0.00    -0.108 N 
HETATM   44  O5  UNL     1      -2.040  -3.113   7.557  1.00  0.00    -0.531 OA
HETATM   45  O6  UNL     1      -4.042  -3.049   8.580  1.00  0.00    -0.531 OA
ENDBRANCH  36  43
BRANCH  37  46
HETATM   46  N10 UNL     1      -3.345  -0.287   6.846  1.00  0.00    -0.383 N 
ATOM     47 2H10 UNL     1      -2.429  -0.442   7.267  1.00  0.00     0.157 HD
ATOM     48 1H10 UNL     1      -3.855   0.556   7.110  1.00  0.00     0.157 HD
ENDBRANCH  37  46
ENDBRANCH  30  32
ENDBRANCH  29  30
BRANCH  29  49
HETATM   49  C19 UNL     1      -7.749  -2.088   2.532  1.00  0.00     0.218 C 
HETATM   50  O7  UNL     1      -9.007  -2.058   2.584  1.00  0.00    -0.645 OA
HETATM   51  O8  UNL     1      -7.138  -3.276   2.194  1.00  0.00    -0.645 OA
ENDBRANCH  29  49
ENDBRANCH   3  29
TORSDOF 13
ENDMDL
MODEL 2
REMARK VINA RESULT: -9.184268961      0.863      1.239
REMARK  13 active torsions:
REMARK  status: ('A' for Active; 'I' for Inactive)
REMARK    1  A    between atoms: N1_2  and  C3_4 
REMARK    2  A    between atoms: C6_7  and  C7_8 
REMARK       I    between atoms: C7_8  and  N2_10 
REMARK    3  A    between atoms: N2_10  and  C8_12 
REMARK    4  A    between atoms: C8_12  and  C9_13 
REMARK    5  A    between atoms: C8_12  and  C13_23 
REMARK    6  A    between atoms: C9_13  and  C10_14 
REMARK       I    between atoms: C13_23  and  N5_25 
REMARK    7  A    between atoms: N5_25  and  C14_27 
REMARK    8  A    between atoms: C14_27  and  N6_28 
REMARK    9  A    between atoms: C14_27  and  C19_47 
REMARK   10  A    between atoms: N6_28  and  C15_30 
REMARK   11  A    between atoms: C16_33  and  N8_34 
REMARK   12  A    between atoms: C17_37  and  N9_38 
REMARK   13  A    between atoms: C18_41  and  N10_42 
ROOT
HETATM    1  C13 UNL     1      -8.199  -1.003   5.007  1.00  0.00     0.242 C 
HETATM    2  O2  UNL     1      -7.927  -2.158   5.408  1.00  0.00    -0.271 OA
HETATM    3  N5  UNL     1      -7.752  -0.529   3.781  1.00  0.00    -0.329 N 
ATOM      4  H5  UNL     1      -8.173   0.393   3.663  1.00  0.00     0.165 HD
ENDROOT
BRANCH   1   5
HETATM    5  C8  UNL     1      -9.040  -0.041   5.838  1.00  0.00     0.181 C 
BRANCH   5   6
HETATM    6  N2  UNL     1      -8.520  -0.095   7.182  1.00  0.00    -0.343 N 
HETATM    7  C7  UNL     1      -7.286   0.354   7.612  1.00  0.00     0.252 C 
HETATM    8  O1  UNL     1      -6.437   0.972   6.955  1.00  0.00    -0.268 OA
ATOM      9  H2  UNL     1      -9.127  -0.509   7.890  1.00  0.00     0.163 HD
BRANCH   7  10
HETATM   10  C6  UNL     1      -6.838   0.093   8.969  1.00  0.00     0.032 A 
HETATM   11  C5  UNL     1      -7.903   0.060   9.899  1.00  0.00     0.019 A 
HETATM   12  C4  UNL     1      -7.634  -0.180  11.193  1.00  0.00     0.030 A 
HETATM   13  C3  UNL     1      -6.336  -0.392  11.607  1.00  0.00     0.029 A 
HETATM   14  C21 UNL     1      -5.287  -0.367  10.723  1.00  0.00     0.030 A 
HETATM   15  C20 UNL     1      -5.582  -0.113   9.361  1.00  0.00     0.019 A 
BRANCH  13  16
HETATM   16  N1  UNL     1      -6.106  -0.595  13.017  1.00  0.00    -0.390 N 
HETATM   17  C1  UNL     1      -4.728  -0.649  13.463  1.00  0.00     0.149 C 
HETATM   18  C2  UNL     1      -7.218  -0.722  13.915  1.00  0.00     0.149 C 
ENDBRANCH  13  16
ENDBRANCH   7  10
ENDBRANCH   5   6
BRANCH   5  19
HETATM   19  C9  UNL     1     -10.482  -0.435   5.687  1.00  0.00     0.082 C 
BRANCH  19  20
HETATM   20  C10 UNL     1     -11.239   0.633   4.921  1.00  0.00     0.004 A 
HETATM   21  C11 UNL     1     -12.643   0.588   4.841  1.00  0.00     0.105 A 
HETATM   22  N3  UNL     1     -13.224   1.551   4.206  1.00  0.00    -0.346 N 
HETATM   23  C12 UNL     1     -12.488   2.521   3.673  1.00  0.00     0.142 A 
ATOM     24  H3  UNL     1     -14.240   1.566   4.113  1.00  0.00     0.167 HD
HETATM   25  N4  UNL     1     -12.912   3.572   3.007  1.00  0.00    -0.380 N 
HETATM   26  S1  UNL     1     -10.878   2.031   4.092  1.00  0.00    -0.058 SA
ATOM     27  H42 UNL     1     -13.859   3.860   2.760  1.00  0.00     0.158 HD
ATOM     28  H41 UNL     1     -12.348   4.317   2.598  1.00  0.00     0.158 HD
ENDBRANCH  19  20
ENDBRANCH   5  19
ENDBRANCH   1   5
BRANCH   3  29
HETATM   29  C14 UNL     1      -6.989  -0.752   2.648  1.00  0.00     0.304 C 
BRANCH  29  30
HETATM   30  N6  UNL     1      -5.573  -0.813   2.846  1.00  0.00    -0.195 N 
ATOM     31  H6  UNL     1      -4.954  -0.463   2.114  1.00  0.00     0.180 HD
BRANCH  30  32
HETATM   32  C15 UNL     1      -5.050  -1.303   3.933  1.00  0.00     0.683 A 
HETATM   33  N7  UNL     1      -5.050  -2.633   4.114  1.00  0.00    -0.168 N 
HETATM   34  C16 UNL     1      -4.566  -3.218   5.251  1.00  0.00     0.225 A 
ATOM     35  H7  UNL     1      -5.424  -3.229   3.376  1.00  0.00     0.186 HD
HETATM   36  C17 UNL     1      -4.061  -2.433   6.260  1.00  0.00     0.197 A 
HETATM   37  C18 UNL     1      -4.057  -1.048   6.078  1.00  0.00     0.152 A 
HETATM   38  N11 UNL     1      -4.552  -0.559   4.921  1.00  0.00    -0.174 N 
ATOM     39  H11 UNL     1      -4.544   0.453   4.793  1.00  0.00     0.186 HD
BRANCH  34  40
HETATM   40  N8  UNL     1      -4.584  -4.623   5.389  1.00  0.00    -0.095 N 
HETATM   41  O3  UNL     1      -3.498  -5.256   5.300  1.00  0.00    -0.530 OA
HETATM   42  O4  UNL     1      -5.692  -5.379   5.619  1.00  0.00    -0.530 OA
ENDBRANCH  34  40
BRANCH  36  43
HETATM   43  N9  UNL     1      -3.562  -2.939   7.484  1.00  0.00    -0.108 N 
HETATM   44  O5  UNL     1      -2.355  -3.113   7.638  1.00  0.00    -0.531 OA
HETATM   45  O6  UNL     1      -4.436  -3.194   8.490  1.00  0.00    -0.531 OA
ENDBRANCH  36  43
BRANCH  37  46
HETATM   46  N10 UNL     1      -3.602  -0.287   6.994  1.00  0.00    -0.383 N 
ATOM     47 2H10 UNL     1      -3.987   0.642   7.169  1.00  0.00     0.157 HD
ATOM     48 1H10 UNL     1      -2.833  -0.604   7.585  1.00  0.00     0.157 HD
ENDBRANCH  37  46
ENDBRANCH  30  32
ENDBRANCH  29  30
BRANCH  29  49
HETATM   49  C19 UNL     1      -7.475  -1.941   1.872  1.00  0.00     0.218 C 
HETATM   50  O7  UNL     1      -7.151  -3.090   2.274  1.00  0.00    -0.645 OA
HETATM   51  O8  UNL     1      -8.259  -1.843   0.742  1.00  0.00    -0.645 OA
ENDBRANCH  29  49
ENDBRANCH   3  29
TORSDOF 13
ENDMDL
MODEL 3
REMARK VINA RESULT: -8.740016167      2.475      4.270
REMARK  13 active torsions:
REMARK  status: ('A' for Active; 'I' for Inactive)
REMARK    1  A    between atoms: N1_2  and  C3_4 
REMARK    2  A    between atoms: C6_7  and  C7_8 
REMARK       I    between atoms: C7_8  and  N2_10 
REMARK    3  A    between atoms: N2_10  and  C8_12 
REMARK    4  A    between atoms: C8_12  and  C9_13 
REMARK    5  A    between atoms: C8_12  and  C13_23 
REMARK    6  A    between atoms: C9_13  and  C10_14 
REMARK       I    between atoms: C13_23  and  N5_25 
REMARK    7  A    between atoms: N5_25  and  C14_27 
REMARK    8  A    between atoms: C14_27  and  N6_28 
REMARK    9  A    between atoms: C14_27  and  C19_47 
REMARK   10  A    between atoms: N6_28  and  C15_30 
REMARK   11  A    between atoms: C16_33  and  N8_34 
REMARK   12  A    between atoms: C17_37  and  N9_38 
REMARK   13  A    between atoms: C18_41  and  N10_42 
ROOT
HETATM    1  C13 UNL     1      -5.962  -2.244   4.639  1.00  0.00     0.242 C 
HETATM    2  O2  UNL     1      -6.000  -2.919   3.583  1.00  0.00    -0.271 OA
HETATM    3  N5  UNL     1      -4.982  -2.443   5.600  1.00  0.00    -0.329 N 
ATOM      4  H5  UNL     1      -5.129  -1.724   6.308  1.00  0.00     0.165 HD
ENDROOT
BRANCH   1   5
HETATM    5  C8  UNL     1      -6.991  -1.160   4.936  1.00  0.00     0.181 C 
BRANCH   5   6
HETATM    6  N2  UNL     1      -7.074  -1.054   6.372  1.00  0.00    -0.343 N 
HETATM    7  C7  UNL     1      -6.632  -0.003   7.153  1.00  0.00     0.252 C 
HETATM    8  O1  UNL     1      -6.175   1.081   6.769  1.00  0.00    -0.268 OA
ATOM      9  H2  UNL     1      -7.504  -1.838   6.864  1.00  0.00     0.163 HD
BRANCH   7  10
HETATM   10  C6  UNL     1      -6.644  -0.105   8.602  1.00  0.00     0.032 A 
HETATM   11  C5  UNL     1      -5.350  -0.271   9.149  1.00  0.00     0.019 A 
HETATM   12  C4  UNL     1      -5.211  -0.371  10.482  1.00  0.00     0.030 A 
HETATM   13  C3  UNL     1      -6.317  -0.313  11.304  1.00  0.00     0.029 A 
HETATM   14  C21 UNL     1      -7.581  -0.151  10.797  1.00  0.00     0.030 A 
HETATM   15  C20 UNL     1      -7.715  -0.046   9.390  1.00  0.00     0.019 A 
BRANCH  13  16
HETATM   16  N1  UNL     1      -6.108  -0.477  12.722  1.00  0.00    -0.390 N 
HETATM   17  C1  UNL     1      -4.740  -0.441  13.200  1.00  0.00     0.149 C 
HETATM   18  C2  UNL     1      -7.232  -0.654  13.597  1.00  0.00     0.149 C 
ENDBRANCH  13  16
ENDBRANCH   7  10
ENDBRANCH   5   6
BRANCH   5  19
HETATM   19  C9  UNL     1      -8.270  -1.530   4.241  1.00  0.00     0.082 C 
BRANCH  19  20
HETATM   20  C10 UNL     1      -9.390  -0.606   4.680  1.00  0.00     0.004 A 
HETATM   21  C11 UNL     1      -9.439   0.720   4.213  1.00  0.00     0.105 A 
HETATM   22  N3  UNL     1     -10.441   1.439   4.597  1.00  0.00    -0.346 N 
HETATM   23  C12 UNL     1     -11.363   0.905   5.392  1.00  0.00     0.142 A 
ATOM     24  H3  UNL     1     -10.525   2.409   4.292  1.00  0.00     0.167 HD
HETATM   25  N4  UNL     1     -12.443   1.485   5.866  1.00  0.00    -0.380 N 
HETATM   26  S1  UNL     1     -10.765  -0.708   5.613  1.00  0.00    -0.058 SA
ATOM     27  H42 UNL     1     -12.795   2.434   5.736  1.00  0.00     0.158 HD
ATOM     28  H41 UNL     1     -13.150   1.075   6.477  1.00  0.00     0.158 HD
ENDBRANCH  19  20
ENDBRANCH   5  19
ENDBRANCH   1   5
BRANCH   3  29
HETATM   29  C14 UNL     1      -3.893  -3.185   6.025  1.00  0.00     0.304 C 
BRANCH  29  30
HETATM   30  N6  UNL     1      -3.161  -2.650   7.133  1.00  0.00    -0.195 N 
ATOM     31  H6  UNL     1      -2.988  -3.242   7.945  1.00  0.00     0.180 HD
BRANCH  30  32
HETATM   32  C15 UNL     1      -2.709  -1.429   7.134  1.00  0.00     0.683 A 
HETATM   33  N7  UNL     1      -1.723  -1.100   7.984  1.00  0.00    -0.168 N 
HETATM   34  C16 UNL     1      -1.231   0.172   8.079  1.00  0.00     0.225 A 
ATOM     35  H7  UNL     1      -1.326  -1.826   8.580  1.00  0.00     0.186 HD
HETATM   36  C17 UNL     1      -1.756   1.166   7.288  1.00  0.00     0.197 A 
HETATM   37  C18 UNL     1      -2.782   0.831   6.400  1.00  0.00     0.152 A 
HETATM   38  N11 UNL     1      -3.201  -0.452   6.373  1.00  0.00    -0.174 N 
ATOM     39  H11 UNL     1      -3.949  -0.691   5.721  1.00  0.00     0.186 HD
BRANCH  34  40
HETATM   40  N8  UNL     1      -0.190   0.464   8.985  1.00  0.00    -0.095 N 
HETATM   41  O3  UNL     1       1.002   0.414   8.578  1.00  0.00    -0.530 OA
HETATM   42  O4  UNL     1      -0.354   0.808  10.292  1.00  0.00    -0.530 OA
ENDBRANCH  34  40
BRANCH  36  43
HETATM   43  N9  UNL     1      -1.336   2.518   7.330  1.00  0.00    -0.108 N 
HETATM   44  O5  UNL     1      -0.455   2.918   6.571  1.00  0.00    -0.531 OA
HETATM   45  O6  UNL     1      -1.946   3.365   8.196  1.00  0.00    -0.531 OA
ENDBRANCH  36  43
BRANCH  37  46
HETATM   46  N10 UNL     1      -3.297   1.728   5.655  1.00  0.00    -0.383 N 
ATOM     47 2H10 UNL     1      -4.306   1.823   5.540  1.00  0.00     0.157 HD
ATOM     48 1H10 UNL     1      -2.695   2.383   5.155  1.00  0.00     0.157 HD
ENDBRANCH  37  46
ENDBRANCH  30  32
ENDBRANCH  29  30
BRANCH  29  49
HETATM   49  C19 UNL     1      -4.254  -4.622   6.263  1.00  0.00     0.218 C 
HETATM   50  O7  UNL     1      -3.513  -5.307   7.017  1.00  0.00    -0.645 OA
HETATM   51  O8  UNL     1      -5.354  -5.233   5.700  1.00  0.00    -0.645 OA
ENDBRANCH  29  49
ENDBRANCH   3  29
TORSDOF 13
ENDMDL
MODEL 4
REMARK VINA RESULT: -8.537412063      1.547      2.834
REMARK  13 active torsions:
REMARK  status: ('A' for Active; 'I' for Inactive)
REMARK    1  A    between atoms: N1_2  and  C3_4 
REMARK    2  A    between atoms: C6_7  and  C7_8 
REMARK       I    between atoms: C7_8  and  N2_10 
REMARK    3  A    between atoms: N2_10  and  C8_12 
REMARK    4  A    between atoms: C8_12  and  C9_13 
REMARK    5  A    between atoms: C8_12  and  C13_23 
REMARK    6  A    between atoms: C9_13  and  C10_14 
REMARK       I    between atoms: C13_23  and  N5_25 
REMARK    7  A    between atoms: N5_25  and  C14_27 
REMARK    8  A    between atoms: C14_27  and  N6_28 
REMARK    9  A    between atoms: C14_27  and  C19_47 
REMARK   10  A    between atoms: N6_28  and  C15_30 
REMARK   11  A    between atoms: C16_33  and  N8_34 
REMARK   12  A    between atoms: C17_37  and  N9_38 
REMARK   13  A    between atoms: C18_41  and  N10_42 
ROOT
HETATM    1  C13 UNL     1      -6.563   1.865   5.006  1.00  0.00     0.242 C 
HETATM    2  O2  UNL     1      -6.553   2.401   3.873  1.00  0.00    -0.271 OA
HETATM    3  N5  UNL     1      -5.389   1.571   5.686  1.00  0.00    -0.329 N 
ATOM      4  H5  UNL     1      -5.673   1.220   6.601  1.00  0.00     0.165 HD
ENDROOT
BRANCH   1   5
HETATM    5  C8  UNL     1      -7.863   1.501   5.711  1.00  0.00     0.181 C 
BRANCH   5   6
HETATM    6  N2  UNL     1      -7.527   1.250   7.092  1.00  0.00    -0.343 N 
HETATM    7  C7  UNL     1      -7.106   0.053   7.638  1.00  0.00     0.252 C 
HETATM    8  O1  UNL     1      -6.843  -0.998   7.039  1.00  0.00    -0.268 OA
ATOM      9  H2  UNL     1      -7.608   2.040   7.732  1.00  0.00     0.163 HD
BRANCH   7  10
HETATM   10  C6  UNL     1      -6.950  -0.087   9.076  1.00  0.00     0.032 A 
HETATM   11  C5  UNL     1      -5.606  -0.298   9.462  1.00  0.00     0.019 A 
HETATM   12  C4  UNL     1      -5.313  -0.437  10.765  1.00  0.00     0.030 A 
HETATM   13  C3  UNL     1      -6.313  -0.375  11.714  1.00  0.00     0.029 A 
HETATM   14  C21 UNL     1      -7.623  -0.169  11.364  1.00  0.00     0.030 A 
HETATM   15  C20 UNL     1      -7.919  -0.024   9.986  1.00  0.00     0.019 A 
BRANCH  13  16
HETATM   16  N1  UNL     1      -5.943  -0.581  13.093  1.00  0.00    -0.390 N 
HETATM   17  C1  UNL     1      -4.531  -0.531  13.416  1.00  0.00     0.149 C 
HETATM   18  C2  UNL     1      -6.958  -0.813  14.082  1.00  0.00     0.149 C 
ENDBRANCH  13  16
ENDBRANCH   7  10
ENDBRANCH   5   6
BRANCH   5  19
HETATM   19  C9  UNL     1      -8.482   0.345   4.977  1.00  0.00     0.082 C 
BRANCH  19  20
HETATM   20  C10 UNL     1      -9.967   0.583   4.785  1.00  0.00     0.004 A 
HETATM   21  C11 UNL     1     -10.904  -0.125   5.560  1.00  0.00     0.105 A 
HETATM   22  N3  UNL     1     -12.152   0.155   5.370  1.00  0.00    -0.346 N 
HETATM   23  C12 UNL     1     -12.485   1.082   4.477  1.00  0.00     0.142 A 
ATOM     24  H3  UNL     1     -12.874  -0.330   5.901  1.00  0.00     0.167 HD
HETATM   25  N4  UNL     1     -13.694   1.495   4.168  1.00  0.00    -0.380 N 
HETATM   26  S1  UNL     1     -10.938   1.576   3.867  1.00  0.00    -0.058 SA
ATOM     27  H42 UNL     1     -14.603   1.205   4.526  1.00  0.00     0.158 HD
ATOM     28  H41 UNL     1     -13.950   2.206   3.482  1.00  0.00     0.158 HD
ENDBRANCH  19  20
ENDBRANCH   5  19
ENDBRANCH   1   5
BRANCH   3  29
HETATM   29  C14 UNL     1      -4.006   1.542   5.674  1.00  0.00     0.304 C 
BRANCH  29  30
HETATM   30  N6  UNL     1      -3.387   0.631   6.589  1.00  0.00    -0.195 N 
ATOM     31  H6  UNL     1      -2.842   1.004   7.366  1.00  0.00     0.180 HD
BRANCH  30  32
HETATM   32  C15 UNL     1      -3.501  -0.659   6.458  1.00  0.00     0.683 A 
HETATM   33  N7  UNL     1      -4.354  -1.148   5.543  1.00  0.00    -0.168 N 
HETATM   34  C16 UNL     1      -4.565  -2.489   5.382  1.00  0.00     0.225 A 
ATOM     35  H7  UNL     1      -4.862  -0.496   4.947  1.00  0.00     0.186 HD
HETATM   36  C17 UNL     1      -3.893  -3.386   6.178  1.00  0.00     0.197 A 
HETATM   37  C18 UNL     1      -3.003  -2.884   7.131  1.00  0.00     0.152 A 
HETATM   38  N11 UNL     1      -2.856  -1.544   7.216  1.00  0.00    -0.174 N 
ATOM     39  H11 UNL     1      -2.203  -1.184   7.913  1.00  0.00     0.186 HD
BRANCH  34  40
HETATM   40  N8  UNL     1      -5.469  -2.952   4.401  1.00  0.00    -0.095 N 
HETATM   41  O3  UNL     1      -6.569  -3.442   4.772  1.00  0.00    -0.530 OA
HETATM   42  O4  UNL     1      -5.262  -2.914   3.057  1.00  0.00    -0.530 OA
ENDBRANCH  34  40
BRANCH  36  43
HETATM   43  N9  UNL     1      -4.062  -4.790   6.108  1.00  0.00    -0.108 N 
HETATM   44  O5  UNL     1      -3.411  -5.454   5.304  1.00  0.00    -0.531 OA
HETATM   45  O6  UNL     1      -4.927  -5.388   6.965  1.00  0.00    -0.531 OA
ENDBRANCH  36  43
BRANCH  37  46
HETATM   46  N10 UNL     1      -2.367  -3.685   7.892  1.00  0.00    -0.383 N 
ATOM     47 2H10 UNL     1      -1.614  -4.279   7.545  1.00  0.00     0.157 HD
ATOM     48 1H10 UNL     1      -2.602  -3.741   8.883  1.00  0.00     0.157 HD
ENDBRANCH  37  46
ENDBRANCH  30  32
ENDBRANCH  29  30
BRANCH  29  49
HETATM   49  C19 UNL     1      -3.463   1.362   4.286  1.00  0.00     0.218 C 
HETATM   50  O7  UNL     1      -2.417   1.988   3.969  1.00  0.00    -0.645 OA
HETATM   51  O8  UNL     1      -4.048   0.548   3.340  1.00  0.00    -0.645 OA
ENDBRANCH  29  49
ENDBRANCH   3  29
TORSDOF 13
ENDMDL
MODEL 5
REMARK VINA RESULT: -8.363354628      2.473      4.186
REMARK  13 active torsions:
REMARK  status: ('A' for Active; 'I' for Inactive)
REMARK    1  A    between atoms: N1_2  and  C3_4 
REMARK    2  A    between atoms: C6_7  and  C7_8 
REMARK       I    between atoms: C7_8  and  N2_10 
REMARK    3  A    between atoms: N2_10  and  C8_12 
REMARK    4  A    between atoms: C8_12  and  C9_13 
REMARK    5  A    between atoms: C8_12  and  C13_23 
REMARK    6  A    between atoms: C9_13  and  C10_14 
REMARK       I    between atoms: C13_23  and  N5_25 
REMARK    7  A    between atoms: N5_25  and  C14_27 
REMARK    8  A    between atoms: C14_27  and  N6_28 
REMARK    9  A    between atoms: C14_27  and  C19_47 
REMARK   10  A    between atoms: N6_28  and  C15_30 
REMARK   11  A    between atoms: C16_33  and  N8_34 
REMARK   12  A    between atoms: C17_37  and  N9_38 
REMARK   13  A    between atoms: C18_41  and  N10_42 
ROOT
HETATM    1  C13 UNL     1      -5.988  -2.124   4.751  1.00  0.00     0.242 C 
HETATM    2  O2  UNL     1      -6.057  -2.861   3.739  1.00  0.00    -0.271 OA
HETATM    3  N5  UNL     1      -4.956  -2.239   5.671  1.00  0.00    -0.329 N 
ATOM      4  H5  UNL     1      -5.090  -1.484   6.343  1.00  0.00     0.165 HD
ENDROOT
BRANCH   1   5
HETATM    5  C8  UNL     1      -7.034  -1.054   5.037  1.00  0.00     0.181 C 
BRANCH   5   6
HETATM    6  N2  UNL     1      -7.126  -0.942   6.473  1.00  0.00    -0.343 N 
HETATM    7  C7  UNL     1      -6.492  -0.010   7.273  1.00  0.00     0.252 C 
HETATM    8  O1  UNL     1      -5.812   0.958   6.911  1.00  0.00    -0.268 OA
ATOM      9  H2  UNL     1      -7.720  -1.622   6.947  1.00  0.00     0.163 HD
BRANCH   7  10
HETATM   10  C6  UNL     1      -6.558  -0.116   8.721  1.00  0.00     0.032 A 
HETATM   11  C5  UNL     1      -5.284  -0.268   9.316  1.00  0.00     0.019 A 
HETATM   12  C4  UNL     1      -5.194  -0.370  10.652  1.00  0.00     0.030 A 
HETATM   13  C3  UNL     1      -6.330  -0.327  11.432  1.00  0.00     0.029 A 
HETATM   14  C21 UNL     1      -7.576  -0.178  10.878  1.00  0.00     0.030 A 
HETATM   15  C20 UNL     1      -7.659  -0.071   9.468  1.00  0.00     0.019 A 
BRANCH  13  16
HETATM   16  N1  UNL     1      -6.173  -0.492  12.857  1.00  0.00    -0.390 N 
HETATM   17  C1  UNL     1      -7.380  -0.649  13.644  1.00  0.00     0.149 C 
HETATM   18  C2  UNL     1      -4.861  -0.508  13.438  1.00  0.00     0.149 C 
ENDBRANCH  13  16
ENDBRANCH   7  10
ENDBRANCH   5   6
BRANCH   5  19
HETATM   19  C9  UNL     1      -8.305  -1.447   4.338  1.00  0.00     0.082 C 
BRANCH  19  20
HETATM   20  C10 UNL     1      -9.432  -0.516   4.741  1.00  0.00     0.004 A 
HETATM   21  C11 UNL     1      -9.458   0.810   4.271  1.00  0.00     0.105 A 
HETATM   22  N3  UNL     1     -10.468   1.536   4.623  1.00  0.00    -0.346 N 
HETATM   23  C12 UNL     1     -11.418   1.009   5.389  1.00  0.00     0.142 A 
ATOM     24  H3  UNL     1     -10.536   2.506   4.314  1.00  0.00     0.167 HD
HETATM   25  N4  UNL     1     -12.508   1.596   5.828  1.00  0.00    -0.380 N 
HETATM   26  S1  UNL     1     -10.836  -0.608   5.630  1.00  0.00    -0.058 SA
ATOM     27  H42 UNL     1     -12.850   2.546   5.686  1.00  0.00     0.158 HD
ATOM     28  H41 UNL     1     -13.237   1.191   6.416  1.00  0.00     0.158 HD
ENDBRANCH  19  20
ENDBRANCH   5  19
ENDBRANCH   1   5
BRANCH   3  29
HETATM   29  C14 UNL     1      -3.825  -2.923   6.081  1.00  0.00     0.304 C 
BRANCH  29  30
HETATM   30  N6  UNL     1      -3.210  -2.456   7.286  1.00  0.00    -0.195 N 
ATOM     31  H6  UNL     1      -3.211  -3.059   8.109  1.00  0.00     0.180 HD
BRANCH  30  32
HETATM   32  C15 UNL     1      -2.648  -1.284   7.363  1.00  0.00     0.683 A 
HETATM   33  N7  UNL     1      -2.896  -0.379   6.402  1.00  0.00    -0.168 N 
HETATM   34  C16 UNL     1      -2.305   0.854   6.386  1.00  0.00     0.225 A 
ATOM     35  H7  UNL     1      -3.549  -0.620   5.657  1.00  0.00     0.186 HD
HETATM   36  C17 UNL     1      -1.419   1.197   7.379  1.00  0.00     0.197 A 
HETATM   37  C18 UNL     1      -1.157   0.262   8.383  1.00  0.00     0.152 A 
HETATM   38  N11 UNL     1      -1.790  -0.930   8.319  1.00  0.00    -0.174 N 
ATOM     39  H11 UNL     1      -1.597  -1.608   9.056  1.00  0.00     0.186 HD
BRANCH  34  40
HETATM   40  N8  UNL     1      -2.603   1.770   5.355  1.00  0.00    -0.095 N 
HETATM   41  O3  UNL     1      -1.978   1.683   4.265  1.00  0.00    -0.530 OA
HETATM   42  O4  UNL     1      -3.530   2.764   5.427  1.00  0.00    -0.530 OA
ENDBRANCH  34  40
BRANCH  36  43
HETATM   43  N9  UNL     1      -0.735   2.436   7.438  1.00  0.00    -0.108 N 
HETATM   44  O5  UNL     1       0.344   2.577   6.865  1.00  0.00    -0.531 OA
HETATM   45  O6  UNL     1      -1.307   3.467   8.107  1.00  0.00    -0.531 OA
ENDBRANCH  36  43
BRANCH  37  46
HETATM   46  N10 UNL     1      -0.336   0.542   9.317  1.00  0.00    -0.383 N 
ATOM     47 2H10 UNL     1      -0.490   1.320   9.959  1.00  0.00     0.157 HD
ATOM     48 1H10 UNL     1       0.504  -0.022   9.444  1.00  0.00     0.157 HD
ENDBRANCH  37  46
ENDBRANCH  30  32
ENDBRANCH  29  30
BRANCH  29  49
HETATM   49  C19 UNL     1      -4.057  -4.405   6.136  1.00  0.00     0.218 C 
HETATM   50  O7  UNL     1      -3.742  -5.096   5.131  1.00  0.00    -0.645 OA
HETATM   51  O8  UNL     1      -4.598  -5.050   7.227  1.00  0.00    -0.645 OA
ENDBRANCH  29  49
ENDBRANCH   3  29
TORSDOF 13
ENDMDL
