MODEL 1
REMARK VINA RESULT: -7.665074490      0.000      0.000
REMARK  14 active torsions:
REMARK  status: ('A' for Active; 'I' for Inactive)
REMARK    1  A    between atoms: N1_2  and  C3_4 
REMARK    2  A    between atoms: C3_4  and  C4_5 
REMARK    3  A    between atoms: C4_5  and  N2_6 
REMARK    4  A    between atoms: C6_9  and  O1_10 
REMARK    5  A    between atoms: N3_15  and  C10_16 
REMARK    6  A    between atoms: C10_16  and  C11_17 
REMARK    7  A    between atoms: C14_20  and  C15_21 
REMARK    8  A    between atoms: C16_24  and  O3_25 
REMARK    9  A    between atoms: C18_28  and  C19_29 
REMARK   10  A    between atoms: C19_29  and  O4_30 
REMARK   11  A    between atoms: C20_33  and  C21_34 
REMARK   12  A    between atoms: C20_33  and  C22_37 
REMARK   13  A    between atoms: C22_37  and  N6_38 
REMARK   14  A    between atoms: C22_37  and  O7_42 
ROOT
HETATM    1  N2  UNL     1      -2.265   1.677   8.336  1.00  0.00    -0.372 N 
ATOM      2  H2  UNL     1      -2.275   0.749   8.761  1.00  0.00     0.161 HD
HETATM    3  C5  UNL     1      -3.120   1.832   7.436  1.00  0.00     0.144 A 
HETATM    4  C6  UNL     1      -3.269   2.988   6.751  1.00  0.00     0.141 A 
HETATM    5  C7  UNL     1      -4.218   3.090   5.766  1.00  0.00     0.117 A 
HETATM    6  C8  UNL     1      -4.967   1.972   5.539  1.00  0.00     0.107 A 
HETATM    7  C9  UNL     1      -4.818   0.757   6.244  1.00  0.00     0.073 A 
HETATM    8  N3  UNL     1      -3.892   0.681   7.204  1.00  0.00    -0.305 N 
HETATM    9  C18 UNL     1      -5.474  -0.592   6.109  1.00  0.00     0.161 C 
HETATM   10  N5  UNL     1      -6.513  -0.335   5.123  1.00  0.00    -0.363 N 
HETATM   11  C20 UNL     1      -6.840  -1.087   4.073  1.00  0.00     0.141 C 
HETATM   12  C23 UNL     1      -7.497   0.597   5.570  1.00  0.00     0.125 C 
HETATM   13  C24 UNL     1      -7.930   1.621   4.612  1.00  0.00     0.042 C 
HETATM   14  C25 UNL     1      -6.820   2.231   3.786  1.00  0.00     0.151 C 
HETATM   15  N7  UNL     1      -5.689   2.566   4.607  1.00  0.00    -0.285 N 
HETATM   16  N8  UNL     1      -4.960   3.668   4.812  1.00  0.00    -0.289 N 
HETATM   17  C26 UNL     1      -4.964   4.976   4.235  1.00  0.00     0.178 C 
ENDROOT
BRANCH   8  18
HETATM   18  C10 UNL     1      -3.739  -0.431   8.028  1.00  0.00     0.110 C 
BRANCH  18  19
HETATM   19  C11 UNL     1      -4.476  -0.435   9.340  1.00  0.00    -0.018 A 
HETATM   20  C12 UNL     1      -3.722  -0.527  10.490  1.00  0.00     0.014 A 
HETATM   21  C13 UNL     1      -4.318  -0.542  11.740  1.00  0.00     0.020 A 
HETATM   22  C14 UNL     1      -5.700  -0.465  11.881  1.00  0.00     0.062 A 
HETATM   23  C16 UNL     1      -6.456  -0.373  10.749  1.00  0.00     0.081 A 
HETATM   24  C17 UNL     1      -5.808  -0.361   9.497  1.00  0.00     0.050 A 
BRANCH  22  25
HETATM   25  C15 UNL     1      -6.258  -0.486  13.219  1.00  0.00     0.267 C 
HETATM   26  N4  UNL     1      -7.623  -0.583  13.531  1.00  0.00    -0.057 NA
HETATM   27  O2  UNL     1      -5.467  -0.412  14.220  1.00  0.00    -0.271 OA
ENDBRANCH  22  25
BRANCH  23  28
HETATM   28  O3  UNL     1      -7.790  -0.293  10.752  1.00  0.00    -0.360 OA
ATOM     29  H3  UNL     1      -8.320  -0.292   9.963  1.00  0.00     0.217 HD
ENDBRANCH  23  28
ENDBRANCH  18  19
ENDBRANCH   8  18
BRANCH   1  30
HETATM   30  C4  UNL     1      -1.303   2.532   8.868  1.00  0.00     0.151 C 
BRANCH  30  31
HETATM   31  C3  UNL     1      -1.088   2.303  10.367  1.00  0.00     0.290 C 
BRANCH  31  32
HETATM   32  N1  UNL     1      -0.417   1.018  10.572  1.00  0.00     0.081 N 
HETATM   33  C1  UNL     1       0.929   1.160  10.080  1.00  0.00     0.309 C 
HETATM   34  C2  UNL     1      -0.439   0.798  12.022  1.00  0.00     0.309 C 
ENDBRANCH  31  32
ENDBRANCH  30  31
ENDBRANCH   1  30
BRANCH   4  35
HETATM   35  O1  UNL     1      -2.507   4.117   6.980  1.00  0.00    -0.355 OA
ATOM     36  H1  UNL     1      -2.868   4.993   7.041  1.00  0.00     0.218 HD
ENDBRANCH   4  35
BRANCH   9  37
HETATM   37  C19 UNL     1      -4.575  -1.685   5.677  1.00  0.00     0.195 C 
BRANCH  37  38
HETATM   38  O4  UNL     1      -4.908  -2.977   5.897  1.00  0.00    -0.398 OA
ATOM     39  H4  UNL     1      -4.841  -3.620   5.200  1.00  0.00     0.209 HD
ENDBRANCH  37  38
ENDBRANCH   9  37
BRANCH  11  40
HETATM   40  C21 UNL     1      -6.072  -1.410   2.876  1.00  0.00     0.227 C 
HETATM   41  O5  UNL     1      -6.157  -0.693   1.846  1.00  0.00    -0.643 OA
HETATM   42  O6  UNL     1      -5.189  -2.446   2.653  1.00  0.00    -0.643 OA
ENDBRANCH  11  40
BRANCH  11  43
HETATM   43  C22 UNL     1      -7.874  -2.179   4.383  1.00  0.00     0.374 C 
BRANCH  43  44
HETATM   44  N6  UNL     1      -7.364  -3.525   4.118  1.00  0.00    -0.047 N 
ATOM     45  H63 UNL     1      -6.616  -3.504   3.425  1.00  0.00     0.277 HD
ATOM     46  H62 UNL     1      -6.839  -3.882   4.916  1.00  0.00     0.277 HD
ATOM     47  H61 UNL     1      -8.102  -4.175   3.843  1.00  0.00     0.277 HD
ENDBRANCH  43  44
BRANCH  43  48
HETATM   48  O7  UNL     1      -9.007  -2.091   3.549  1.00  0.00    -0.365 OA
ATOM     49  H7  UNL     1      -9.157  -1.204   3.242  1.00  0.00     0.212 HD
ENDBRANCH  43  48
ENDBRANCH  11  43
TORSDOF 14
ENDMDL
MODEL 2
REMARK VINA RESULT: -7.433824284      0.553      1.147
REMARK  14 active torsions:
REMARK  status: ('A' for Active; 'I' for Inactive)
REMARK    1  A    between atoms: N1_2  and  C3_4 
REMARK    2  A    between atoms: C3_4  and  C4_5 
REMARK    3  A    between atoms: C4_5  and  N2_6 
REMARK    4  A    between atoms: C6_9  and  O1_10 
REMARK    5  A    between atoms: N3_15  and  C10_16 
REMARK    6  A    between atoms: C10_16  and  C11_17 
REMARK    7  A    between atoms: C14_20  and  C15_21 
REMARK    8  A    between atoms: C16_24  and  O3_25 
REMARK    9  A    between atoms: C18_28  and  C19_29 
REMARK   10  A    between atoms: C19_29  and  O4_30 
REMARK   11  A    between atoms: C20_33  and  C21_34 
REMARK   12  A    between atoms: C20_33  and  C22_37 
REMARK   13  A    between atoms: C22_37  and  N6_38 
REMARK   14  A    between atoms: C22_37  and  O7_42 
ROOT
HETATM    1  N2  UNL     1      -2.392   1.812   8.361  1.00  0.00    -0.372 N 
ATOM      2  H2  UNL     1      -2.368   0.873   8.759  1.00  0.00     0.161 HD
HETATM    3  C5  UNL     1      -3.254   1.963   7.466  1.00  0.00     0.144 A 
HETATM    4  C6  UNL     1      -3.444   3.132   6.816  1.00  0.00     0.141 A 
HETATM    5  C7  UNL     1      -4.398   3.229   5.834  1.00  0.00     0.117 A 
HETATM    6  C8  UNL     1      -5.107   2.093   5.576  1.00  0.00     0.107 A 
HETATM    7  C9  UNL     1      -4.914   0.864   6.244  1.00  0.00     0.073 A 
HETATM    8  N3  UNL     1      -3.985   0.793   7.201  1.00  0.00    -0.305 N 
HETATM    9  C18 UNL     1      -5.523  -0.502   6.071  1.00  0.00     0.161 C 
HETATM   10  N5  UNL     1      -6.572  -0.254   5.094  1.00  0.00    -0.363 N 
HETATM   11  C20 UNL     1      -6.874  -0.986   4.023  1.00  0.00     0.141 C 
HETATM   12  C23 UNL     1      -7.587   0.629   5.568  1.00  0.00     0.125 C 
HETATM   13  C24 UNL     1      -8.057   1.665   4.641  1.00  0.00     0.042 C 
HETATM   14  C25 UNL     1      -6.971   2.337   3.832  1.00  0.00     0.151 C 
HETATM   15  N7  UNL     1      -5.851   2.688   4.661  1.00  0.00    -0.285 N 
HETATM   16  N8  UNL     1      -5.160   3.809   4.898  1.00  0.00    -0.289 N 
HETATM   17  C26 UNL     1      -5.211   5.132   4.360  1.00  0.00     0.178 C 
ENDROOT
BRANCH   8  18
HETATM   18  C10 UNL     1      -3.791  -0.337   7.993  1.00  0.00     0.110 C 
BRANCH  18  19
HETATM   19  C11 UNL     1      -4.504  -0.393   9.317  1.00  0.00    -0.018 A 
HETATM   20  C12 UNL     1      -5.873  -0.547   9.294  1.00  0.00     0.014 A 
HETATM   21  C13 UNL     1      -6.609  -0.604  10.465  1.00  0.00     0.020 A 
HETATM   22  C14 UNL     1      -5.995  -0.507  11.709  1.00  0.00     0.062 A 
HETATM   23  C16 UNL     1      -4.639  -0.353  11.744  1.00  0.00     0.081 A 
HETATM   24  C17 UNL     1      -3.929  -0.300  10.528  1.00  0.00     0.050 A 
BRANCH  22  25
HETATM   25  C15 UNL     1      -6.825  -0.574  12.894  1.00  0.00     0.267 C 
HETATM   26  N4  UNL     1      -6.356  -0.676  14.214  1.00  0.00    -0.057 NA
HETATM   27  O2  UNL     1      -8.096  -0.539  12.763  1.00  0.00    -0.271 OA
ENDBRANCH  22  25
BRANCH  23  28
HETATM   28  O3  UNL     1      -3.934  -0.248  12.874  1.00  0.00    -0.360 OA
ATOM     29  H3  UNL     1      -3.470   0.539  13.135  1.00  0.00     0.217 HD
ENDBRANCH  23  28
ENDBRANCH  18  19
ENDBRANCH   8  18
BRANCH   1  30
HETATM   30  C4  UNL     1      -1.459   2.684   8.917  1.00  0.00     0.151 C 
BRANCH  30  31
HETATM   31  C3  UNL     1      -1.185   2.377  10.393  1.00  0.00     0.290 C 
BRANCH  31  32
HETATM   32  N1  UNL     1      -0.577   1.050  10.508  1.00  0.00     0.081 N 
HETATM   33  C1  UNL     1       0.771   1.156  10.011  1.00  0.00     0.309 C 
HETATM   34  C2  UNL     1      -0.598   0.740  11.941  1.00  0.00     0.309 C 
ENDBRANCH  31  32
ENDBRANCH  30  31
ENDBRANCH   1  30
BRANCH   4  35
HETATM   35  O1  UNL     1      -2.721   4.281   7.077  1.00  0.00    -0.355 OA
ATOM     36  H1  UNL     1      -2.779   5.070   6.552  1.00  0.00     0.218 HD
ENDBRANCH   4  35
BRANCH   9  37
HETATM   37  C19 UNL     1      -4.587  -1.550   5.606  1.00  0.00     0.195 C 
BRANCH  37  38
HETATM   38  O4  UNL     1      -4.867  -2.859   5.802  1.00  0.00    -0.398 OA
ATOM     39  H4  UNL     1      -5.680  -3.233   5.483  1.00  0.00     0.209 HD
ENDBRANCH  37  38
ENDBRANCH   9  37
BRANCH  11  40
HETATM   40  C21 UNL     1      -6.097  -1.247   2.816  1.00  0.00     0.227 C 
HETATM   41  O5  UNL     1      -6.226  -0.518   1.799  1.00  0.00    -0.643 OA
HETATM   42  O6  UNL     1      -5.161  -2.230   2.570  1.00  0.00    -0.643 OA
ENDBRANCH  11  40
BRANCH  11  43
HETATM   43  C22 UNL     1      -7.868  -2.122   4.301  1.00  0.00     0.374 C 
BRANCH  43  44
HETATM   44  N6  UNL     1      -7.300  -3.444   4.032  1.00  0.00    -0.047 N 
ATOM     45  H63 UNL     1      -6.812  -3.808   4.852  1.00  0.00     0.277 HD
ATOM     46  H62 UNL     1      -8.033  -4.149   3.951  1.00  0.00     0.277 HD
ATOM     47  H61 UNL     1      -6.693  -3.448   3.212  1.00  0.00     0.277 HD
ENDBRANCH  43  44
BRANCH  43  48
HETATM   48  O7  UNL     1      -8.988  -2.070   3.446  1.00  0.00    -0.365 OA
ATOM     49  H7  UNL     1      -9.674  -2.669   3.718  1.00  0.00     0.212 HD
ENDBRANCH  43  48
ENDBRANCH  11  43
TORSDOF 14
ENDMDL
MODEL 3
REMARK VINA RESULT: -7.256514672      3.309      5.367
REMARK  14 active torsions:
REMARK  status: ('A' for Active; 'I' for Inactive)
REMARK    1  A    between atoms: N1_2  and  C3_4 
REMARK    2  A    between atoms: C3_4  and  C4_5 
REMARK    3  A    between atoms: C4_5  and  N2_6 
REMARK    4  A    between atoms: C6_9  and  O1_10 
REMARK    5  A    between atoms: N3_15  and  C10_16 
REMARK    6  A    between atoms: C10_16  and  C11_17 
REMARK    7  A    between atoms: C14_20  and  C15_21 
REMARK    8  A    between atoms: C16_24  and  O3_25 
REMARK    9  A    between atoms: C18_28  and  C19_29 
REMARK   10  A    between atoms: C19_29  and  O4_30 
REMARK   11  A    between atoms: C20_33  and  C21_34 
REMARK   12  A    between atoms: C20_33  and  C22_37 
REMARK   13  A    between atoms: C22_37  and  N6_38 
REMARK   14  A    between atoms: C22_37  and  O7_42 
ROOT
HETATM    1  N2  UNL     1      -5.966  -0.374   8.266  1.00  0.00    -0.372 N 
ATOM      2  H2  UNL     1      -5.007  -0.715   8.347  1.00  0.00     0.161 HD
HETATM    3  C5  UNL     1      -6.288  -0.039   7.103  1.00  0.00     0.144 A 
HETATM    4  C6  UNL     1      -7.512   0.437   6.787  1.00  0.00     0.141 A 
HETATM    5  C7  UNL     1      -7.799   0.799   5.495  1.00  0.00     0.117 A 
HETATM    6  C8  UNL     1      -6.786   0.649   4.593  1.00  0.00     0.107 A 
HETATM    7  C9  UNL     1      -5.502   0.157   4.912  1.00  0.00     0.073 A 
HETATM    8  N3  UNL     1      -5.245  -0.195   6.175  1.00  0.00    -0.305 N 
HETATM    9  C18 UNL     1      -4.242  -0.018   4.105  1.00  0.00     0.161 C 
HETATM   10  N5  UNL     1      -4.691   0.294   2.757  1.00  0.00    -0.363 N 
HETATM   11  C20 UNL     1      -4.078   1.055   1.852  1.00  0.00     0.141 C 
HETATM   12  C23 UNL     1      -5.668  -0.620   2.262  1.00  0.00     0.125 C 
HETATM   13  C24 UNL     1      -6.816  -0.049   1.548  1.00  0.00     0.042 C 
HETATM   14  C25 UNL     1      -7.390   1.207   2.164  1.00  0.00     0.151 C 
HETATM   15  N7  UNL     1      -7.534   1.065   3.587  1.00  0.00    -0.285 N 
HETATM   16  N8  UNL     1      -8.535   1.224   4.459  1.00  0.00    -0.289 N 
HETATM   17  C26 UNL     1      -9.886   1.677   4.340  1.00  0.00     0.178 C 
ENDROOT
BRANCH   8  18
HETATM   18  C10 UNL     1      -4.050  -0.791   6.572  1.00  0.00     0.110 C 
BRANCH  18  19
HETATM   19  C11 UNL     1      -4.085  -2.250   6.939  1.00  0.00    -0.018 A 
HETATM   20  C12 UNL     1      -3.577  -2.607   8.169  1.00  0.00     0.014 A 
HETATM   21  C13 UNL     1      -3.565  -3.927   8.586  1.00  0.00     0.020 A 
HETATM   22  C14 UNL     1      -4.066  -4.943   7.779  1.00  0.00     0.062 A 
HETATM   23  C16 UNL     1      -4.573  -4.601   6.558  1.00  0.00     0.081 A 
HETATM   24  C17 UNL     1      -4.564  -3.245   6.174  1.00  0.00     0.050 A 
BRANCH  22  25
HETATM   25  C15 UNL     1      -4.023  -6.303   8.277  1.00  0.00     0.267 C 
HETATM   26  N4  UNL     1      -4.188  -6.686   9.617  1.00  0.00    -0.057 NA
HETATM   27  O2  UNL     1      -3.821  -7.258   7.451  1.00  0.00    -0.271 OA
ENDBRANCH  22  25
BRANCH  23  28
HETATM   28  O3  UNL     1      -5.081  -5.483   5.693  1.00  0.00    -0.360 OA
ATOM     29  H3  UNL     1      -5.492  -6.300   5.953  1.00  0.00     0.217 HD
ENDBRANCH  23  28
ENDBRANCH  18  19
ENDBRANCH   8  18
BRANCH   1  30
HETATM   30  C4  UNL     1      -6.668  -0.370   9.468  1.00  0.00     0.151 C 
BRANCH  30  31
HETATM   31  C3  UNL     1      -5.737  -0.331  10.684  1.00  0.00     0.290 C 
BRANCH  31  32
HETATM   32  N1  UNL     1      -6.518  -0.035  11.886  1.00  0.00     0.081 N 
HETATM   33  C1  UNL     1      -7.796  -0.681  11.729  1.00  0.00     0.309 C 
HETATM   34  C2  UNL     1      -5.755  -0.615  12.995  1.00  0.00     0.309 C 
ENDBRANCH  31  32
ENDBRANCH  30  31
ENDBRANCH   1  30
BRANCH   4  35
HETATM   35  O1  UNL     1      -8.535   0.592   7.703  1.00  0.00    -0.355 OA
ATOM     36  H1  UNL     1      -9.449   0.679   7.461  1.00  0.00     0.218 HD
ENDBRANCH   4  35
BRANCH   9  37
HETATM   37  C19 UNL     1      -3.113   0.847   4.513  1.00  0.00     0.195 C 
BRANCH  37  38
HETATM   38  O4  UNL     1      -3.338   2.035   5.117  1.00  0.00    -0.398 OA
ATOM     39  H4  UNL     1      -3.263   2.120   6.061  1.00  0.00     0.209 HD
ENDBRANCH  37  38
ENDBRANCH   9  37
BRANCH  11  40
HETATM   40  C21 UNL     1      -3.796   2.486   1.867  1.00  0.00     0.227 C 
HETATM   41  O5  UNL     1      -3.261   3.045   0.875  1.00  0.00    -0.643 OA
HETATM   42  O6  UNL     1      -4.037   3.418   2.855  1.00  0.00    -0.643 OA
ENDBRANCH  11  40
BRANCH  11  43
HETATM   43  C22 UNL     1      -3.068   0.297   0.978  1.00  0.00     0.374 C 
BRANCH  43  44
HETATM   44  N6  UNL     1      -1.696   0.772   1.167  1.00  0.00    -0.047 N 
ATOM     45  H63 UNL     1      -1.655   1.791   1.150  1.00  0.00     0.277 HD
ATOM     46  H62 UNL     1      -1.381   0.611   2.124  1.00  0.00     0.277 HD
ATOM     47  H61 UNL     1      -1.047   0.367   0.493  1.00  0.00     0.277 HD
ENDBRANCH  43  44
BRANCH  43  48
HETATM   48  O7  UNL     1      -3.296   0.503  -0.397  1.00  0.00    -0.365 OA
ATOM     49  H7  UNL     1      -2.621   1.040  -0.796  1.00  0.00     0.212 HD
ENDBRANCH  43  48
ENDBRANCH  11  43
TORSDOF 14
ENDMDL
MODEL 4
REMARK VINA RESULT: -7.176518281      0.934      1.514
REMARK  14 active torsions:
REMARK  status: ('A' for Active; 'I' for Inactive)
REMARK    1  A    between atoms: N1_2  and  C3_4 
REMARK    2  A    between atoms: C3_4  and  C4_5 
REMARK    3  A    between atoms: C4_5  and  N2_6 
REMARK    4  A    between atoms: C6_9  and  O1_10 
REMARK    5  A    between atoms: N3_15  and  C10_16 
REMARK    6  A    between atoms: C10_16  and  C11_17 
REMARK    7  A    between atoms: C14_20  and  C15_21 
REMARK    8  A    between atoms: C16_24  and  O3_25 
REMARK    9  A    between atoms: C18_28  and  C19_29 
REMARK   10  A    between atoms: C19_29  and  O4_30 
REMARK   11  A    between atoms: C20_33  and  C21_34 
REMARK   12  A    between atoms: C20_33  and  C22_37 
REMARK   13  A    between atoms: C22_37  and  N6_38 
REMARK   14  A    between atoms: C22_37  and  O7_42 
ROOT
HETATM    1  N2  UNL     1      -2.049   1.247   8.615  1.00  0.00    -0.372 N 
ATOM      2  H2  UNL     1      -2.155   0.316   9.018  1.00  0.00     0.161 HD
HETATM    3  C5  UNL     1      -2.854   1.495   7.689  1.00  0.00     0.144 A 
HETATM    4  C6  UNL     1      -2.874   2.673   7.027  1.00  0.00     0.141 A 
HETATM    5  C7  UNL     1      -3.774   2.878   6.012  1.00  0.00     0.117 A 
HETATM    6  C8  UNL     1      -4.610   1.836   5.734  1.00  0.00     0.107 A 
HETATM    7  C9  UNL     1      -4.595   0.599   6.415  1.00  0.00     0.073 A 
HETATM    8  N3  UNL     1      -3.715   0.422   7.405  1.00  0.00    -0.305 N 
HETATM    9  C18 UNL     1      -5.362  -0.683   6.228  1.00  0.00     0.161 C 
HETATM   10  N5  UNL     1      -6.337  -0.316   5.212  1.00  0.00    -0.363 N 
HETATM   11  C20 UNL     1      -6.690  -1.015   4.135  1.00  0.00     0.141 C 
HETATM   12  C23 UNL     1      -7.251   0.691   5.646  1.00  0.00     0.125 C 
HETATM   13  C24 UNL     1      -7.556   1.768   4.697  1.00  0.00     0.042 C 
HETATM   14  C25 UNL     1      -6.368   2.293   3.924  1.00  0.00     0.151 C 
HETATM   15  N7  UNL     1      -5.242   2.510   4.791  1.00  0.00    -0.285 N 
HETATM   16  N8  UNL     1      -4.427   3.539   5.046  1.00  0.00    -0.289 N 
HETATM   17  C26 UNL     1      -4.294   4.853   4.499  1.00  0.00     0.178 C 
ENDROOT
BRANCH   8  18
HETATM   18  C10 UNL     1      -3.690  -0.715   8.209  1.00  0.00     0.110 C 
BRANCH  18  19
HETATM   19  C11 UNL     1      -4.437  -0.664   9.514  1.00  0.00    -0.018 A 
HETATM   20  C12 UNL     1      -5.813  -0.726   9.460  1.00  0.00     0.014 A 
HETATM   21  C13 UNL     1      -6.579  -0.681  10.612  1.00  0.00     0.020 A 
HETATM   22  C14 UNL     1      -5.990  -0.572  11.867  1.00  0.00     0.062 A 
HETATM   23  C16 UNL     1      -4.628  -0.511  11.933  1.00  0.00     0.081 A 
HETATM   24  C17 UNL     1      -3.887  -0.559  10.735  1.00  0.00     0.050 A 
BRANCH  22  25
HETATM   25  C15 UNL     1      -6.852  -0.530  13.031  1.00  0.00     0.267 C 
HETATM   26  N4  UNL     1      -6.428  -0.657  14.364  1.00  0.00    -0.057 NA
HETATM   27  O2  UNL     1      -8.108  -0.364  12.866  1.00  0.00    -0.271 OA
ENDBRANCH  22  25
BRANCH  23  28
HETATM   28  O3  UNL     1      -3.945  -0.405  13.076  1.00  0.00    -0.360 OA
ATOM     29  H3  UNL     1      -4.343  -0.470  13.936  1.00  0.00     0.217 HD
ENDBRANCH  23  28
ENDBRANCH  18  19
ENDBRANCH   8  18
BRANCH   1  30
HETATM   30  C4  UNL     1      -1.035   2.002   9.200  1.00  0.00     0.151 C 
BRANCH  30  31
HETATM   31  C3  UNL     1       0.182   1.150   9.574  1.00  0.00     0.290 C 
BRANCH  31  32
HETATM   32  N1  UNL     1       1.350   1.614   8.824  1.00  0.00     0.081 N 
HETATM   33  C1  UNL     1       1.325   0.947   7.547  1.00  0.00     0.309 C 
HETATM   34  C2  UNL     1       1.165   3.061   8.678  1.00  0.00     0.309 C 
ENDBRANCH  31  32
ENDBRANCH  30  31
ENDBRANCH   1  30
BRANCH   4  35
HETATM   35  O1  UNL     1      -2.025   3.725   7.308  1.00  0.00    -0.355 OA
ATOM     36  H1  UNL     1      -1.098   3.724   7.100  1.00  0.00     0.218 HD
ENDBRANCH   4  35
BRANCH   9  37
HETATM   37  C19 UNL     1      -4.548  -1.843   5.802  1.00  0.00     0.195 C 
BRANCH  37  38
HETATM   38  O4  UNL     1      -4.999  -3.105   5.984  1.00  0.00    -0.398 OA
ATOM     39  H4  UNL     1      -4.492  -3.849   5.680  1.00  0.00     0.209 HD
ENDBRANCH  37  38
ENDBRANCH   9  37
BRANCH  11  40
HETATM   40  C21 UNL     1      -5.911  -1.381   2.958  1.00  0.00     0.227 C 
HETATM   41  O5  UNL     1      -5.869  -0.625   1.954  1.00  0.00    -0.643 OA
HETATM   42  O6  UNL     1      -5.140  -2.503   2.730  1.00  0.00    -0.643 OA
ENDBRANCH  11  40
BRANCH  11  43
HETATM   43  C22 UNL     1      -7.827  -2.017   4.384  1.00  0.00     0.374 C 
BRANCH  43  44
HETATM   44  N6  UNL     1      -7.443  -3.392   4.064  1.00  0.00    -0.047 N 
ATOM     45  H63 UNL     1      -7.484  -3.560   3.058  1.00  0.00     0.277 HD
ATOM     46  H62 UNL     1      -6.445  -3.538   4.214  1.00  0.00     0.277 HD
ATOM     47  H61 UNL     1      -7.996  -4.081   4.575  1.00  0.00     0.277 HD
ENDBRANCH  43  44
BRANCH  43  48
HETATM   48  O7  UNL     1      -8.934  -1.785   3.542  1.00  0.00    -0.365 OA
ATOM     49  H7  UNL     1      -8.680  -1.709   2.630  1.00  0.00     0.212 HD
ENDBRANCH  43  48
ENDBRANCH  11  43
TORSDOF 14
ENDMDL
MODEL 5
REMARK VINA RESULT: -7.140107020      1.513      2.218
REMARK  14 active torsions:
REMARK  status: ('A' for Active; 'I' for Inactive)
REMARK    1  A    between atoms: N1_2  and  C3_4 
REMARK    2  A    between atoms: C3_4  and  C4_5 
REMARK    3  A    between atoms: C4_5  and  N2_6 
REMARK    4  A    between atoms: C6_9  and  O1_10 
REMARK    5  A    between atoms: N3_15  and  C10_16 
REMARK    6  A    between atoms: C10_16  and  C11_17 
REMARK    7  A    between atoms: C14_20  and  C15_21 
REMARK    8  A    between atoms: C16_24  and  O3_25 
REMARK    9  A    between atoms: C18_28  and  C19_29 
REMARK   10  A    between atoms: C19_29  and  O4_30 
REMARK   11  A    between atoms: C20_33  and  C21_34 
REMARK   12  A    between atoms: C20_33  and  C22_37 
REMARK   13  A    between atoms: C22_37  and  N6_38 
REMARK   14  A    between atoms: C22_37  and  O7_42 
ROOT
HETATM    1  N2  UNL     1      -1.399   1.105   9.913  1.00  0.00    -0.372 N 
ATOM      2  H2  UNL     1      -1.671   0.160  10.186  1.00  0.00     0.161 HD
HETATM    3  C5  UNL     1      -1.989   1.528   8.893  1.00  0.00     0.144 A 
HETATM    4  C6  UNL     1      -1.769   2.755   8.372  1.00  0.00     0.141 A 
HETATM    5  C7  UNL     1      -2.439   3.156   7.243  1.00  0.00     0.117 A 
HETATM    6  C8  UNL     1      -3.306   2.247   6.709  1.00  0.00     0.107 A 
HETATM    7  C9  UNL     1      -3.541   0.961   7.242  1.00  0.00     0.073 A 
HETATM    8  N3  UNL     1      -2.883   0.594   8.345  1.00  0.00    -0.305 N 
HETATM    9  C18 UNL     1      -4.382  -0.200   6.782  1.00  0.00     0.161 C 
HETATM   10  N5  UNL     1      -5.109   0.369   5.657  1.00  0.00    -0.363 N 
HETATM   11  C20 UNL     1      -5.322  -0.183   4.464  1.00  0.00     0.141 C 
HETATM   12  C23 UNL     1      -5.984   1.432   6.032  1.00  0.00     0.125 C 
HETATM   13  C24 UNL     1      -5.999   2.620   5.169  1.00  0.00     0.042 C 
HETATM   14  C25 UNL     1      -4.641   3.070   4.679  1.00  0.00     0.151 C 
HETATM   15  N7  UNL     1      -3.681   3.074   5.749  1.00  0.00    -0.285 N 
HETATM   16  N8  UNL     1      -2.830   3.972   6.256  1.00  0.00    -0.289 N 
HETATM   17  C26 UNL     1      -2.469   5.307   5.890  1.00  0.00     0.178 C 
ENDROOT
BRANCH   8  18
HETATM   18  C10 UNL     1      -3.121  -0.607   9.010  1.00  0.00     0.110 C 
BRANCH  18  19
HETATM   19  C11 UNL     1      -4.165  -0.610  10.093  1.00  0.00    -0.018 A 
HETATM   20  C12 UNL     1      -5.486  -0.564   9.701  1.00  0.00     0.014 A 
HETATM   21  C13 UNL     1      -6.511  -0.559  10.632  1.00  0.00     0.020 A 
HETATM   22  C14 UNL     1      -6.247  -0.599  11.997  1.00  0.00     0.062 A 
HETATM   23  C16 UNL     1      -4.943  -0.644  12.397  1.00  0.00     0.081 A 
HETATM   24  C17 UNL     1      -3.931  -0.648  11.416  1.00  0.00     0.050 A 
BRANCH  22  25
HETATM   25  C15 UNL     1      -7.368  -0.591  12.916  1.00  0.00     0.267 C 
HETATM   26  N4  UNL     1      -7.299  -0.279  14.283  1.00  0.00    -0.057 NA
HETATM   27  O2  UNL     1      -8.531  -0.887  12.476  1.00  0.00    -0.271 OA
ENDBRANCH  22  25
BRANCH  23  28
HETATM   28  O3  UNL     1      -4.561  -0.685  13.676  1.00  0.00    -0.360 OA
ATOM     29  H3  UNL     1      -4.716  -1.427  14.250  1.00  0.00     0.217 HD
ENDBRANCH  23  28
ENDBRANCH  18  19
ENDBRANCH   8  18
BRANCH   1  30
HETATM   30  C4  UNL     1      -0.443   1.679  10.747  1.00  0.00     0.151 C 
BRANCH  30  31
HETATM   31  C3  UNL     1      -0.120   0.796  11.955  1.00  0.00     0.290 C 
BRANCH  31  32
HETATM   32  N1  UNL     1       1.147   1.227  12.547  1.00  0.00     0.081 N 
HETATM   33  C1  UNL     1       1.402   0.366  13.675  1.00  0.00     0.309 C 
HETATM   34  C2  UNL     1       2.149   1.042  11.493  1.00  0.00     0.309 C 
ENDBRANCH  31  32
ENDBRANCH  30  31
ENDBRANCH   1  30
BRANCH   4  35
HETATM   35  O1  UNL     1      -0.887   3.671   8.912  1.00  0.00    -0.355 OA
ATOM     36  H1  UNL     1      -0.743   4.538   8.553  1.00  0.00     0.218 HD
ENDBRANCH   4  35
BRANCH   9  37
HETATM   37  C19 UNL     1      -3.621  -1.404   6.380  1.00  0.00     0.195 C 
BRANCH  37  38
HETATM   38  O4  UNL     1      -4.156  -2.637   6.528  1.00  0.00    -0.398 OA
ATOM     39  H4  UNL     1      -3.604  -3.411   6.499  1.00  0.00     0.209 HD
ENDBRANCH  37  38
ENDBRANCH   9  37
BRANCH  11  40
HETATM   40  C21 UNL     1      -4.376  -0.530   3.409  1.00  0.00     0.227 C 
HETATM   41  O5  UNL     1      -3.311   0.121   3.262  1.00  0.00    -0.643 OA
HETATM   42  O6  UNL     1      -4.443  -1.535   2.466  1.00  0.00    -0.643 OA
ENDBRANCH  11  40
BRANCH  11  43
HETATM   43  C22 UNL     1      -6.578  -1.063   4.397  1.00  0.00     0.374 C 
BRANCH  43  44
HETATM   44  N6  UNL     1      -6.262  -2.492   4.376  1.00  0.00    -0.047 N 
ATOM     45  H63 UNL     1      -6.775  -2.971   3.635  1.00  0.00     0.277 HD
ATOM     46  H62 UNL     1      -5.310  -2.652   4.045  1.00  0.00     0.277 HD
ATOM     47  H61 UNL     1      -6.418  -2.940   5.279  1.00  0.00     0.277 HD
ENDBRANCH  43  44
BRANCH  43  48
HETATM   48  O7  UNL     1      -7.298  -0.872   3.200  1.00  0.00    -0.365 OA
ATOM     49  H7  UNL     1      -6.759  -0.496   2.514  1.00  0.00     0.212 HD
ENDBRANCH  43  48
ENDBRANCH  11  43
TORSDOF 14
ENDMDL
