MODEL 1
REMARK VINA RESULT: -6.774569565      0.000      0.000
REMARK  7 active torsions:
REMARK  status: ('A' for Active; 'I' for Inactive)
REMARK    1  A    between atoms: C2_2  and  C3_3 
REMARK    2  A    between atoms: C3_3  and  C4_4 
REMARK    3  A    between atoms: C4_4  and  C5_5 
REMARK    4  A    between atoms: C5_5  and  N1_6 
REMARK    5  A    between atoms: N1_6  and  C6_8 
REMARK    6  A    between atoms: C7_11  and  N3_12 
REMARK    7  A    between atoms: C12_19  and  N5_20 
ROOT
HETATM    1  C6  UNL     1       0.268  -5.746  30.994  1.00  0.00     0.707 A 
HETATM    2  N2  UNL     1       0.824  -5.681  32.224  1.00  0.00    -0.021 N 
ATOM      3  H2  UNL     1       1.752  -6.082  32.362  1.00  0.00     0.203 HD
HETATM    4  C7  UNL     1       0.206  -5.110  33.275  1.00  0.00     0.709 A 
HETATM    5  N4  UNL     1      -1.026  -4.598  33.018  1.00  0.00    -0.021 N 
ATOM      6  H4  UNL     1      -1.536  -4.154  33.782  1.00  0.00     0.203 HD
HETATM    7  C12 UNL     1      -1.603  -4.648  31.809  1.00  0.00     0.706 A 
HETATM    8  N6  UNL     1      -0.954  -5.226  30.783  1.00  0.00    -0.022 N 
ATOM      9  H6  UNL     1      -1.382  -5.270  29.859  1.00  0.00     0.203 HD
ENDROOT
BRANCH   1  10
HETATM   10  N1  UNL     1       0.920  -6.311  30.028  1.00  0.00    -0.225 N 
ATOM     11  H1  UNL     1       1.589  -7.042  30.268  1.00  0.00     0.177 HD
BRANCH  10  12
HETATM   12  C5  UNL     1       0.763  -5.973  28.636  1.00  0.00     0.138 C 
BRANCH  12  13
HETATM   13  C4  UNL     1       1.908  -6.560  27.865  1.00  0.00     0.020 C 
BRANCH  13  14
HETATM   14  C3  UNL     1       1.994  -6.015  26.457  1.00  0.00     0.001 C 
BRANCH  14  15
HETATM   15  C2  UNL     1       0.615  -5.880  25.839  1.00  0.00    -0.004 C 
HETATM   16  C1  UNL     1       0.687  -5.850  24.331  1.00  0.00     0.005 C 
ENDBRANCH  14  15
ENDBRANCH  13  14
ENDBRANCH  12  13
ENDBRANCH  10  12
ENDBRANCH   1  10
BRANCH   4  17
HETATM   17  N3  UNL     1       0.794  -5.044  34.562  1.00  0.00    -0.217 N 
HETATM   18  C8  UNL     1       2.176  -4.682  34.799  1.00  0.00     0.141 A 
HETATM   19  C9  UNL     1       2.356  -4.683  36.300  1.00  0.00     0.022 A 
HETATM   20  C10 UNL     1       1.087  -5.182  36.906  1.00  0.00     0.022 A 
HETATM   21  C11 UNL     1       0.102  -5.327  35.799  1.00  0.00     0.141 A 
ENDBRANCH   4  17
BRANCH   7  22
HETATM   22  N5  UNL     1      -2.755  -4.162  31.594  1.00  0.00    -0.229 N 
HETATM   23  C13 UNL     1      -3.122  -2.776  31.685  1.00  0.00     0.165 C 
ATOM     24  H5  UNL     1      -3.491  -4.818  31.333  1.00  0.00     0.177 HD
ENDBRANCH   7  22
TORSDOF 7
ENDMDL
MODEL 2
REMARK VINA RESULT: -6.656008775      2.112      3.221
REMARK  7 active torsions:
REMARK  status: ('A' for Active; 'I' for Inactive)
REMARK    1  A    between atoms: C2_2  and  C3_3 
REMARK    2  A    between atoms: C3_3  and  C4_4 
REMARK    3  A    between atoms: C4_4  and  C5_5 
REMARK    4  A    between atoms: C5_5  and  N1_6 
REMARK    5  A    between atoms: N1_6  and  C6_8 
REMARK    6  A    between atoms: C7_11  and  N3_12 
REMARK    7  A    between atoms: C12_19  and  N5_20 
ROOT
HETATM    1  C6  UNL     1       1.040  -6.735  30.247  1.00  0.00     0.707 A 
HETATM    2  N2  UNL     1       1.042  -6.089  31.434  1.00  0.00    -0.021 N 
ATOM      3  H2  UNL     1       1.332  -5.111  31.458  1.00  0.00     0.203 HD
HETATM    4  C7  UNL     1       0.679  -6.682  32.587  1.00  0.00     0.709 A 
HETATM    5  N4  UNL     1       0.306  -7.984  32.480  1.00  0.00    -0.021 N 
ATOM      6  H4  UNL     1       0.022  -8.479  33.326  1.00  0.00     0.203 HD
HETATM    7  C12 UNL     1       0.295  -8.650  31.316  1.00  0.00     0.706 A 
HETATM    8  N6  UNL     1       0.665  -8.024  30.186  1.00  0.00    -0.022 N 
ATOM      9  H6  UNL     1       0.660  -8.520  29.294  1.00  0.00     0.203 HD
ENDROOT
BRANCH   1  10
HETATM   10  N1  UNL     1       1.403  -6.103  29.176  1.00  0.00    -0.225 N 
ATOM     11  H1  UNL     1       1.324  -5.086  29.174  1.00  0.00     0.177 HD
BRANCH  10  12
HETATM   12  C5  UNL     1       1.909  -6.741  27.987  1.00  0.00     0.138 C 
BRANCH  12  13
HETATM   13  C4  UNL     1       2.241  -5.684  26.977  1.00  0.00     0.020 C 
BRANCH  13  14
HETATM   14  C3  UNL     1       1.858  -6.090  25.571  1.00  0.00     0.001 C 
BRANCH  14  15
HETATM   15  C2  UNL     1       0.388  -5.820  25.308  1.00  0.00    -0.004 C 
HETATM   16  C1  UNL     1       0.085  -5.812  23.828  1.00  0.00     0.005 C 
ENDBRANCH  14  15
ENDBRANCH  13  14
ENDBRANCH  12  13
ENDBRANCH  10  12
ENDBRANCH   1  10
BRANCH   4  17
HETATM   17  N3  UNL     1       0.682  -6.001  33.829  1.00  0.00    -0.217 N 
HETATM   18  C8  UNL     1       0.012  -6.489  35.017  1.00  0.00     0.141 A 
HETATM   19  C9  UNL     1       0.321  -5.491  36.110  1.00  0.00     0.022 A 
HETATM   20  C10 UNL     1       1.068  -4.359  35.488  1.00  0.00     0.022 A 
HETATM   21  C11 UNL     1       1.346  -4.741  34.076  1.00  0.00     0.141 A 
ENDBRANCH   4  17
BRANCH   7  22
HETATM   22  N5  UNL     1      -0.057  -9.867  31.243  1.00  0.00    -0.229 N 
HETATM   23  C13 UNL     1       0.315 -10.914  32.153  1.00  0.00     0.165 C 
ATOM     24  H5  UNL     1      -0.661 -10.126  30.463  1.00  0.00     0.177 HD
ENDBRANCH   7  22
TORSDOF 7
ENDMDL
MODEL 3
REMARK VINA RESULT: -6.645065046      2.981      4.479
REMARK  7 active torsions:
REMARK  status: ('A' for Active; 'I' for Inactive)
REMARK    1  A    between atoms: C2_2  and  C3_3 
REMARK    2  A    between atoms: C3_3  and  C4_4 
REMARK    3  A    between atoms: C4_4  and  C5_5 
REMARK    4  A    between atoms: C5_5  and  N1_6 
REMARK    5  A    between atoms: N1_6  and  C6_8 
REMARK    6  A    between atoms: C7_11  and  N3_12 
REMARK    7  A    between atoms: C12_19  and  N5_20 
ROOT
HETATM    1  C6  UNL     1       1.342  -6.714  29.060  1.00  0.00     0.707 A 
HETATM    2  N2  UNL     1       0.507  -5.691  29.349  1.00  0.00    -0.021 N 
ATOM      3  H2  UNL     1       0.652  -4.796  28.883  1.00  0.00     0.203 HD
HETATM    4  C7  UNL     1      -0.509  -5.805  30.225  1.00  0.00     0.709 A 
HETATM    5  N4  UNL     1      -0.642  -7.024  30.808  1.00  0.00    -0.021 N 
ATOM      6  H4  UNL     1      -1.397  -7.162  31.480  1.00  0.00     0.203 HD
HETATM    7  C12 UNL     1       0.172  -8.057  30.542  1.00  0.00     0.706 A 
HETATM    8  N6  UNL     1       1.175  -7.905  29.660  1.00  0.00    -0.022 N 
ATOM      9  H6  UNL     1       1.800  -8.683  29.449  1.00  0.00     0.203 HD
ENDROOT
BRANCH   1  10
HETATM   10  N1  UNL     1       2.299  -6.534  28.206  1.00  0.00    -0.225 N 
ATOM     11  H1  UNL     1       3.088  -7.180  28.233  1.00  0.00     0.177 HD
BRANCH  10  12
HETATM   12  C5  UNL     1       2.323  -5.483  27.222  1.00  0.00     0.138 C 
BRANCH  12  13
HETATM   13  C4  UNL     1       2.089  -6.085  25.868  1.00  0.00     0.020 C 
BRANCH  13  14
HETATM   14  C3  UNL     1       0.639  -6.007  25.445  1.00  0.00     0.001 C 
BRANCH  14  15
HETATM   15  C2  UNL     1       0.519  -5.735  23.958  1.00  0.00    -0.004 C 
HETATM   16  C1  UNL     1      -0.881  -5.307  23.586  1.00  0.00     0.005 C 
ENDBRANCH  14  15
ENDBRANCH  13  14
ENDBRANCH  12  13
ENDBRANCH  10  12
ENDBRANCH   1  10
BRANCH   4  17
HETATM   17  N3  UNL     1      -1.382  -4.730  30.523  1.00  0.00    -0.217 N 
HETATM   18  C8  UNL     1      -1.862  -3.783  29.537  1.00  0.00     0.141 A 
HETATM   19  C9  UNL     1      -2.802  -2.855  30.272  1.00  0.00     0.022 A 
HETATM   20  C10 UNL     1      -2.744  -3.210  31.720  1.00  0.00     0.022 A 
HETATM   21  C11 UNL     1      -1.907  -4.436  31.837  1.00  0.00     0.141 A 
ENDBRANCH   4  17
BRANCH   7  22
HETATM   22  N5  UNL     1       0.026  -9.187  31.100  1.00  0.00    -0.229 N 
HETATM   23  C13 UNL     1       0.625  -9.605  32.337  1.00  0.00     0.165 C 
ATOM     24  H5  UNL     1      -0.572  -9.863  30.625  1.00  0.00     0.177 HD
ENDBRANCH   7  22
TORSDOF 7
ENDMDL
MODEL 4
REMARK VINA RESULT: -6.603199006      3.209      7.662
REMARK  7 active torsions:
REMARK  status: ('A' for Active; 'I' for Inactive)
REMARK    1  A    between atoms: C2_2  and  C3_3 
REMARK    2  A    between atoms: C3_3  and  C4_4 
REMARK    3  A    between atoms: C4_4  and  C5_5 
REMARK    4  A    between atoms: C5_5  and  N1_6 
REMARK    5  A    between atoms: N1_6  and  C6_8 
REMARK    6  A    between atoms: C7_11  and  N3_12 
REMARK    7  A    between atoms: C12_19  and  N5_20 
ROOT
HETATM    1  C6  UNL     1      -1.274  -5.286  29.175  1.00  0.00     0.707 A 
HETATM    2  N2  UNL     1      -1.250  -5.200  27.827  1.00  0.00    -0.021 N 
ATOM      3  H2  UNL     1      -2.063  -4.813  27.348  1.00  0.00     0.203 HD
HETATM    4  C7  UNL     1      -0.199  -5.603  27.089  1.00  0.00     0.709 A 
HETATM    5  N4  UNL     1       0.848  -6.108  27.793  1.00  0.00    -0.021 N 
ATOM      6  H4  UNL     1       1.670  -6.427  27.280  1.00  0.00     0.203 HD
HETATM    7  C12 UNL     1       0.852  -6.206  29.131  1.00  0.00     0.706 A 
HETATM    8  N6  UNL     1      -0.217  -5.792  29.833  1.00  0.00    -0.022 N 
ATOM      9  H6  UNL     1      -0.225  -5.861  30.851  1.00  0.00     0.203 HD
ENDROOT
BRANCH   1  10
HETATM   10  N1  UNL     1      -2.320  -4.879  29.822  1.00  0.00    -0.225 N 
ATOM     11  H1  UNL     1      -3.117  -4.549  29.279  1.00  0.00     0.177 HD
BRANCH  10  12
HETATM   12  C5  UNL     1      -2.430  -4.861  31.259  1.00  0.00     0.138 C 
BRANCH  12  13
HETATM   13  C4  UNL     1      -2.190  -3.463  31.744  1.00  0.00     0.020 C 
BRANCH  13  14
HETATM   14  C3  UNL     1      -3.443  -2.616  31.705  1.00  0.00     0.001 C 
BRANCH  14  15
HETATM   15  C2  UNL     1      -3.304  -1.482  30.708  1.00  0.00    -0.004 C 
HETATM   16  C1  UNL     1      -1.868  -1.300  30.276  1.00  0.00     0.005 C 
ENDBRANCH  14  15
ENDBRANCH  13  14
ENDBRANCH  12  13
ENDBRANCH  10  12
ENDBRANCH   1  10
BRANCH   4  17
HETATM   17  N3  UNL     1      -0.178  -5.510  25.676  1.00  0.00    -0.217 N 
HETATM   18  C8  UNL     1       0.993  -5.784  24.867  1.00  0.00     0.141 A 
HETATM   19  C9  UNL     1       0.554  -5.622  23.430  1.00  0.00     0.022 A 
HETATM   20  C10 UNL     1      -0.851  -5.120  23.441  1.00  0.00     0.022 A 
HETATM   21  C11 UNL     1      -1.308  -5.133  24.858  1.00  0.00     0.141 A 
ENDBRANCH   4  17
BRANCH   7  22
HETATM   22  N5  UNL     1       1.843  -6.681  29.766  1.00  0.00    -0.229 N 
HETATM   23  C13 UNL     1       1.791  -7.371  31.024  1.00  0.00     0.165 C 
ATOM     24  H5  UNL     1       2.763  -6.562  29.342  1.00  0.00     0.177 HD
ENDBRANCH   7  22
TORSDOF 7
ENDMDL
MODEL 5
REMARK VINA RESULT: -6.580425017      1.583      1.840
REMARK  7 active torsions:
REMARK  status: ('A' for Active; 'I' for Inactive)
REMARK    1  A    between atoms: C2_2  and  C3_3 
REMARK    2  A    between atoms: C3_3  and  C4_4 
REMARK    3  A    between atoms: C4_4  and  C5_5 
REMARK    4  A    between atoms: C5_5  and  N1_6 
REMARK    5  A    between atoms: N1_6  and  C6_8 
REMARK    6  A    between atoms: C7_11  and  N3_12 
REMARK    7  A    between atoms: C12_19  and  N5_20 
ROOT
HETATM    1  C6  UNL     1       0.611  -6.303  31.255  1.00  0.00     0.707 A 
HETATM    2  N2  UNL     1       1.094  -5.768  32.399  1.00  0.00    -0.021 N 
ATOM      3  H2  UNL     1       2.037  -5.380  32.395  1.00  0.00     0.203 HD
HETATM    4  C7  UNL     1       0.384  -5.726  33.541  1.00  0.00     0.709 A 
HETATM    5  N4  UNL     1      -0.863  -6.261  33.472  1.00  0.00    -0.021 N 
ATOM      6  H4  UNL     1      -1.442  -6.254  34.312  1.00  0.00     0.203 HD
HETATM    7  C12 UNL     1      -1.369  -6.799  32.352  1.00  0.00     0.706 A 
HETATM    8  N6  UNL     1      -0.629  -6.822  31.230  1.00  0.00    -0.022 N 
ATOM      9  H6  UNL     1      -1.002  -7.228  30.373  1.00  0.00     0.203 HD
ENDROOT
BRANCH   1  10
HETATM   10  N1  UNL     1       1.350  -6.310  30.192  1.00  0.00    -0.225 N 
ATOM     11  H1  UNL     1       1.901  -5.475  29.989  1.00  0.00     0.177 HD
BRANCH  10  12
HETATM   12  C5  UNL     1       1.445  -7.418  29.276  1.00  0.00     0.138 C 
BRANCH  12  13
HETATM   13  C4  UNL     1       2.150  -6.959  28.035  1.00  0.00     0.020 C 
BRANCH  13  14
HETATM   14  C3  UNL     1       1.354  -5.928  27.266  1.00  0.00     0.001 C 
BRANCH  14  15
HETATM   15  C2  UNL     1       1.703  -5.958  25.791  1.00  0.00    -0.004 C 
HETATM   16  C1  UNL     1       0.463  -6.011  24.930  1.00  0.00     0.005 C 
ENDBRANCH  14  15
ENDBRANCH  13  14
ENDBRANCH  12  13
ENDBRANCH  10  12
ENDBRANCH   1  10
BRANCH   4  17
HETATM   17  N3  UNL     1       0.895  -5.163  34.737  1.00  0.00    -0.217 N 
HETATM   18  C8  UNL     1       2.237  -4.635  34.869  1.00  0.00     0.141 A 
HETATM   19  C9  UNL     1       2.334  -4.090  36.276  1.00  0.00     0.022 A 
HETATM   20  C10 UNL     1       1.067  -4.440  36.983  1.00  0.00     0.022 A 
HETATM   21  C11 UNL     1       0.155  -5.044  35.972  1.00  0.00     0.141 A 
ENDBRANCH   4  17
BRANCH   7  22
HETATM   22  N5  UNL     1      -2.537  -7.293  32.313  1.00  0.00    -0.229 N 
HETATM   23  C13 UNL     1      -2.944  -8.553  32.870  1.00  0.00     0.165 C 
ATOM     24  H5  UNL     1      -3.255  -6.743  31.842  1.00  0.00     0.177 HD
ENDBRANCH   7  22
TORSDOF 7
ENDMDL
