MODEL 1
REMARK VINA RESULT: -9.822918542      0.000      0.000
REMARK  7 active torsions:
REMARK  status: ('A' for Active; 'I' for Inactive)
REMARK    1  A    between atoms: O1_2  and  C2_3 
REMARK    2  A    between atoms: C3_4  and  O2_5 
REMARK    3  A    between atoms: C4_7  and  O3_8 
REMARK    4  A    between atoms: C9_14  and  C10_15 
REMARK    5  A    between atoms: C19_26  and  O6_27 
REMARK    6  A    between atoms: O6_27  and  C20_28 
REMARK    7  A    between atoms: C20_28  and  C21_29 
ROOT
HETATM    1  C2  UNL     1      39.644  27.942  27.552  1.00  0.00     0.138 A 
HETATM    2  C3  UNL     1      39.390  29.139  26.871  1.00  0.00     0.136 A 
HETATM    3  C4  UNL     1      38.117  29.638  26.706  1.00  0.00     0.115 A 
HETATM    4  C6  UNL     1      37.049  28.925  27.235  1.00  0.00     0.015 A 
HETATM    5  C7  UNL     1      35.786  29.429  27.069  1.00  0.00     0.040 A 
HETATM    6  C8  UNL     1      34.717  28.734  27.589  1.00  0.00     0.048 A 
HETATM    7 CL1  UNL     1      33.156  29.516  27.380  1.00  0.00    -0.083 Cl
HETATM    8  C9  UNL     1      34.860  27.566  28.262  1.00  0.00     0.021 A 
HETATM    9  C17 UNL     1      36.181  27.085  28.410  1.00  0.00     0.031 A 
HETATM   10  C18 UNL     1      37.274  27.736  27.915  1.00  0.00     0.014 A 
HETATM   11  C19 UNL     1      38.570  27.235  28.078  1.00  0.00     0.116 A 
ENDROOT
BRANCH  11  12
HETATM   12  O6  UNL     1      38.740  26.053  28.758  1.00  0.00    -0.340 OA
BRANCH  12  13
HETATM   13  C20 UNL     1      38.796  24.769  28.228  1.00  0.00     0.255 C 
BRANCH  13  14
HETATM   14  C21 UNL     1      39.628  24.725  26.977  1.00  0.00     0.134 A 
HETATM   15  N1  UNL     1      39.217  24.833  25.704  1.00  0.00    -0.273 N 
HETATM   16  N2  UNL     1      40.233  24.747  24.888  1.00  0.00    -0.225 N 
ATOM     17  H1  UNL     1      38.248  24.964  25.414  1.00  0.00     0.189 HD
HETATM   18  N3  UNL     1      41.320  24.581  25.621  1.00  0.00    -0.005 NA
ATOM     19  H2  UNL     1      40.195  24.799  23.870  1.00  0.00     0.205 HD
HETATM   20  N4  UNL     1      40.961  24.566  26.901  1.00  0.00    -0.269 N 
ATOM     21  H4  UNL     1      41.592  24.453  27.694  1.00  0.00     0.185 HD
ENDBRANCH  13  14
ENDBRANCH  12  13
ENDBRANCH  11  12
BRANCH   1  22
HETATM   22  O1  UNL     1      40.938  27.518  27.672  1.00  0.00    -0.351 OA
HETATM   23  C1  UNL     1      41.800  27.690  28.751  1.00  0.00     0.210 C 
ENDBRANCH   1  22
BRANCH   2  24
HETATM   24  O2  UNL     1      40.432  29.887  26.324  1.00  0.00    -0.356 OA
ATOM     25  H2  UNL     1      40.327  30.815  26.149  1.00  0.00     0.218 HD
ENDBRANCH   2  24
BRANCH   3  26
HETATM   26  O3  UNL     1      37.907  30.818  26.031  1.00  0.00    -0.352 OA
HETATM   27  C5  UNL     1      37.187  31.908  26.527  1.00  0.00     0.210 C 
ENDBRANCH   3  26
BRANCH   8  28
HETATM   28  C10 UNL     1      33.784  26.719  28.790  1.00  0.00     0.091 A 
HETATM   29  C11 UNL     1      32.465  27.016  28.820  1.00  0.00     0.093 A 
HETATM   30  C12 UNL     1      31.502  26.124  29.351  1.00  0.00     0.182 A 
HETATM   31  O4  UNL     1      30.286  26.418  29.371  1.00  0.00    -0.288 OA
HETATM   32  C13 UNL     1      31.922  24.914  29.850  1.00  0.00     0.018 A 
HETATM   33  C14 UNL     1      31.029  23.899  30.428  1.00  0.00     0.055 C 
HETATM   34  C15 UNL     1      33.276  24.671  29.789  1.00  0.00     0.059 A 
HETATM   35  C16 UNL     1      33.783  23.391  30.309  1.00  0.00     0.077 C 
HETATM   36  O5  UNL     1      34.117  25.526  29.292  1.00  0.00    -0.314 OA
ENDBRANCH   8  28
TORSDOF 7
ENDMDL
MODEL 2
REMARK VINA RESULT: -9.770285246      2.402      6.773
REMARK  7 active torsions:
REMARK  status: ('A' for Active; 'I' for Inactive)
REMARK    1  A    between atoms: O1_2  and  C2_3 
REMARK    2  A    between atoms: C3_4  and  O2_5 
REMARK    3  A    between atoms: C4_7  and  O3_8 
REMARK    4  A    between atoms: C9_14  and  C10_15 
REMARK    5  A    between atoms: C19_26  and  O6_27 
REMARK    6  A    between atoms: O6_27  and  C20_28 
REMARK    7  A    between atoms: C20_28  and  C21_29 
ROOT
HETATM    1  C2  UNL     1      32.953  25.769  29.753  1.00  0.00     0.138 A 
HETATM    2  C3  UNL     1      32.365  26.915  29.204  1.00  0.00     0.136 A 
HETATM    3  C4  UNL     1      33.105  27.909  28.604  1.00  0.00     0.115 A 
HETATM    4  C6  UNL     1      34.486  27.765  28.543  1.00  0.00     0.015 A 
HETATM    5  C7  UNL     1      35.214  28.758  27.942  1.00  0.00     0.040 A 
HETATM    6  C8  UNL     1      36.585  28.630  27.873  1.00  0.00     0.048 A 
HETATM    7 CL1  UNL     1      37.404  29.926  27.013  1.00  0.00    -0.083 Cl
HETATM    8  C9  UNL     1      37.246  27.560  28.377  1.00  0.00     0.021 A 
HETATM    9  C17 UNL     1      36.453  26.561  28.986  1.00  0.00     0.031 A 
HETATM   10  C18 UNL     1      35.094  26.639  29.079  1.00  0.00     0.014 A 
HETATM   11  C19 UNL     1      34.335  25.634  29.689  1.00  0.00     0.116 A 
ENDROOT
BRANCH  11  12
HETATM   12  O6  UNL     1      34.984  24.538  30.205  1.00  0.00    -0.340 OA
BRANCH  12  13
HETATM   13  C20 UNL     1      35.200  23.311  29.588  1.00  0.00     0.255 C 
BRANCH  13  14
HETATM   14  C21 UNL     1      36.658  22.946  29.584  1.00  0.00     0.134 A 
HETATM   15  N1  UNL     1      37.558  23.135  28.606  1.00  0.00    -0.273 N 
HETATM   16  N2  UNL     1      38.729  22.686  28.971  1.00  0.00    -0.225 N 
ATOM     17  H1  UNL     1      37.356  23.570  27.706  1.00  0.00     0.189 HD
HETATM   18  N3  UNL     1      38.604  22.196  30.192  1.00  0.00    -0.005 NA
ATOM     19  H2  UNL     1      39.583  22.709  28.414  1.00  0.00     0.205 HD
HETATM   20  N4  UNL     1      37.342  22.350  30.577  1.00  0.00    -0.269 N 
ATOM     21  H4  UNL     1      36.955  22.064  31.476  1.00  0.00     0.185 HD
ENDBRANCH  13  14
ENDBRANCH  12  13
ENDBRANCH  11  12
BRANCH   1  22
HETATM   22  O1  UNL     1      32.145  24.829  30.331  1.00  0.00    -0.351 OA
HETATM   23  C1  UNL     1      31.541  23.730  29.726  1.00  0.00     0.210 C 
ENDBRANCH   1  22
BRANCH   2  24
HETATM   24  O2  UNL     1      30.983  27.099  29.243  1.00  0.00    -0.356 OA
ATOM     25  H2  UNL     1      30.525  27.508  28.518  1.00  0.00     0.218 HD
ENDBRANCH   2  24
BRANCH   3  26
HETATM   26  O3  UNL     1      32.491  29.020  28.075  1.00  0.00    -0.352 OA
HETATM   27  C5  UNL     1      32.049  29.140  26.755  1.00  0.00     0.210 C 
ENDBRANCH   3  26
BRANCH   8  28
HETATM   28  C10 UNL     1      38.701  27.365  28.415  1.00  0.00     0.091 A 
HETATM   29  C11 UNL     1      39.600  28.138  29.065  1.00  0.00     0.093 A 
HETATM   30  C12 UNL     1      40.989  27.861  29.043  1.00  0.00     0.182 A 
HETATM   31  O4  UNL     1      41.806  28.589  29.649  1.00  0.00    -0.288 OA
HETATM   32  C13 UNL     1      41.437  26.768  28.339  1.00  0.00     0.018 A 
HETATM   33  C14 UNL     1      42.848  26.368  28.236  1.00  0.00     0.055 C 
HETATM   34  C15 UNL     1      40.471  26.021  27.703  1.00  0.00     0.059 A 
HETATM   35  C16 UNL     1      40.893  24.838  26.935  1.00  0.00     0.077 C 
HETATM   36  O5  UNL     1      39.209  26.321  27.755  1.00  0.00    -0.314 OA
ENDBRANCH   8  28
TORSDOF 7
ENDMDL
MODEL 3
REMARK VINA RESULT: -9.685284864      0.975      1.444
REMARK  7 active torsions:
REMARK  status: ('A' for Active; 'I' for Inactive)
REMARK    1  A    between atoms: O1_2  and  C2_3 
REMARK    2  A    between atoms: C3_4  and  O2_5 
REMARK    3  A    between atoms: C4_7  and  O3_8 
REMARK    4  A    between atoms: C9_14  and  C10_15 
REMARK    5  A    between atoms: C19_26  and  O6_27 
REMARK    6  A    between atoms: O6_27  and  C20_28 
REMARK    7  A    between atoms: C20_28  and  C21_29 
ROOT
HETATM    1  C2  UNL     1      39.636  27.832  27.780  1.00  0.00     0.138 A 
HETATM    2  C3  UNL     1      39.411  28.986  27.021  1.00  0.00     0.136 A 
HETATM    3  C4  UNL     1      38.145  29.471  26.774  1.00  0.00     0.115 A 
HETATM    4  C6  UNL     1      37.057  28.786  27.299  1.00  0.00     0.015 A 
HETATM    5  C7  UNL     1      35.802  29.276  27.050  1.00  0.00     0.040 A 
HETATM    6  C8  UNL     1      34.711  28.608  27.564  1.00  0.00     0.048 A 
HETATM    7 CL1  UNL     1      33.160  29.372  27.244  1.00  0.00    -0.083 Cl
HETATM    8  C9  UNL     1      34.827  27.481  28.308  1.00  0.00     0.021 A 
HETATM    9  C17 UNL     1      36.141  27.014  28.539  1.00  0.00     0.031 A 
HETATM   10  C18 UNL     1      37.254  27.638  28.054  1.00  0.00     0.014 A 
HETATM   11  C19 UNL     1      38.542  27.152  28.300  1.00  0.00     0.116 A 
ENDROOT
BRANCH  11  12
HETATM   12  O6  UNL     1      38.684  26.012  29.054  1.00  0.00    -0.340 OA
BRANCH  12  13
HETATM   13  C20 UNL     1      38.945  24.723  28.602  1.00  0.00     0.255 C 
BRANCH  13  14
HETATM   14  C21 UNL     1      40.386  24.347  28.810  1.00  0.00     0.134 A 
HETATM   15  N1  UNL     1      41.037  24.164  29.969  1.00  0.00    -0.273 N 
HETATM   16  N2  UNL     1      42.283  23.845  29.747  1.00  0.00    -0.225 N 
ATOM     17  H1  UNL     1      40.617  24.261  30.894  1.00  0.00     0.189 HD
HETATM   18  N3  UNL     1      42.460  23.817  28.438  1.00  0.00    -0.005 NA
ATOM     19  H2  UNL     1      42.991  23.652  30.456  1.00  0.00     0.205 HD
HETATM   20  N4  UNL     1      41.306  24.122  27.854  1.00  0.00    -0.269 N 
ATOM     21  H4  UNL     1      41.144  24.177  26.849  1.00  0.00     0.185 HD
ENDBRANCH  13  14
ENDBRANCH  12  13
ENDBRANCH  11  12
BRANCH   1  22
HETATM   22  O1  UNL     1      40.925  27.419  27.979  1.00  0.00    -0.351 OA
HETATM   23  C1  UNL     1      41.784  27.760  29.020  1.00  0.00     0.210 C 
ENDBRANCH   1  22
BRANCH   2  24
HETATM   24  O2  UNL     1      40.474  29.706  26.477  1.00  0.00    -0.356 OA
ATOM     25  H2  UNL     1      41.266  29.861  26.978  1.00  0.00     0.218 HD
ENDBRANCH   2  24
BRANCH   3  26
HETATM   26  O3  UNL     1      37.963  30.610  26.025  1.00  0.00    -0.352 OA
HETATM   27  C5  UNL     1      37.308  31.763  26.465  1.00  0.00     0.210 C 
ENDBRANCH   3  26
BRANCH   8  28
HETATM   28  C10 UNL     1      33.731  26.662  28.838  1.00  0.00     0.091 A 
HETATM   29  C11 UNL     1      32.419  26.990  28.863  1.00  0.00     0.093 A 
HETATM   30  C12 UNL     1      31.434  26.123  29.396  1.00  0.00     0.182 A 
HETATM   31  O4  UNL     1      30.225  26.445  29.411  1.00  0.00    -0.288 OA
HETATM   32  C13 UNL     1      31.825  24.907  29.903  1.00  0.00     0.018 A 
HETATM   33  C14 UNL     1      30.906  23.916  30.484  1.00  0.00     0.055 C 
HETATM   34  C15 UNL     1      33.173  24.632  29.847  1.00  0.00     0.059 A 
HETATM   35  C16 UNL     1      33.649  23.343  30.375  1.00  0.00     0.077 C 
HETATM   36  O5  UNL     1      34.034  25.465  29.347  1.00  0.00    -0.314 OA
ENDBRANCH   8  28
TORSDOF 7
ENDMDL
MODEL 4
REMARK VINA RESULT: -9.676541447      1.772      2.040
REMARK  7 active torsions:
REMARK  status: ('A' for Active; 'I' for Inactive)
REMARK    1  A    between atoms: O1_2  and  C2_3 
REMARK    2  A    between atoms: C3_4  and  O2_5 
REMARK    3  A    between atoms: C4_7  and  O3_8 
REMARK    4  A    between atoms: C9_14  and  C10_15 
REMARK    5  A    between atoms: C19_26  and  O6_27 
REMARK    6  A    between atoms: O6_27  and  C20_28 
REMARK    7  A    between atoms: C20_28  and  C21_29 
ROOT
HETATM    1  C2  UNL     1      39.634  27.708  27.609  1.00  0.00     0.138 A 
HETATM    2  C3  UNL     1      39.403  28.912  26.934  1.00  0.00     0.136 A 
HETATM    3  C4  UNL     1      38.140  29.437  26.772  1.00  0.00     0.115 A 
HETATM    4  C6  UNL     1      37.059  28.742  27.298  1.00  0.00     0.015 A 
HETATM    5  C7  UNL     1      35.806  29.272  27.134  1.00  0.00     0.040 A 
HETATM    6  C8  UNL     1      34.723  28.595  27.651  1.00  0.00     0.048 A 
HETATM    7 CL1  UNL     1      33.178  29.409  27.445  1.00  0.00    -0.083 Cl
HETATM    8  C9  UNL     1      34.844  27.421  28.317  1.00  0.00     0.021 A 
HETATM    9  C17 UNL     1      36.155  26.914  28.463  1.00  0.00     0.031 A 
HETATM   10  C18 UNL     1      37.260  27.546  27.971  1.00  0.00     0.014 A 
HETATM   11  C19 UNL     1      38.546  27.019  28.131  1.00  0.00     0.116 A 
ENDROOT
BRANCH  11  12
HETATM   12  O6  UNL     1      38.694  25.831  28.806  1.00  0.00    -0.340 OA
BRANCH  12  13
HETATM   13  C20 UNL     1      38.901  24.567  28.263  1.00  0.00     0.255 C 
BRANCH  13  14
HETATM   14  C21 UNL     1      38.471  23.483  29.212  1.00  0.00     0.134 A 
HETATM   15  N1  UNL     1      37.239  23.232  29.682  1.00  0.00    -0.273 N 
HETATM   16  N2  UNL     1      37.259  22.204  30.487  1.00  0.00    -0.225 N 
ATOM     17  H1  UNL     1      36.405  23.768  29.443  1.00  0.00     0.189 HD
HETATM   18  N3  UNL     1      38.507  21.773  30.553  1.00  0.00    -0.005 NA
ATOM     19  H2  UNL     1      36.457  21.807  30.976  1.00  0.00     0.205 HD
HETATM   20  N4  UNL     1      39.257  22.548  29.776  1.00  0.00    -0.269 N 
ATOM     21  H4  UNL     1      40.262  22.451  29.632  1.00  0.00     0.185 HD
ENDBRANCH  13  14
ENDBRANCH  12  13
ENDBRANCH  11  12
BRANCH   1  22
HETATM   22  O1  UNL     1      40.920  27.257  27.727  1.00  0.00    -0.351 OA
HETATM   23  C1  UNL     1      41.802  27.450  28.786  1.00  0.00     0.210 C 
ENDBRANCH   1  22
BRANCH   2  24
HETATM   24  O2  UNL     1      40.460  29.643  26.391  1.00  0.00    -0.356 OA
ATOM     25  H2  UNL     1      40.523  30.582  26.523  1.00  0.00     0.218 HD
ENDBRANCH   2  24
BRANCH   3  26
HETATM   26  O3  UNL     1      37.953  30.625  26.103  1.00  0.00    -0.352 OA
HETATM   27  C5  UNL     1      37.278  31.735  26.615  1.00  0.00     0.210 C 
ENDBRANCH   3  26
BRANCH   8  28
HETATM   28  C10 UNL     1      33.751  26.592  28.841  1.00  0.00     0.091 A 
HETATM   29  C11 UNL     1      32.437  26.910  28.861  1.00  0.00     0.093 A 
HETATM   30  C12 UNL     1      31.457  26.034  29.388  1.00  0.00     0.182 A 
HETATM   31  O4  UNL     1      30.245  26.347  29.398  1.00  0.00    -0.288 OA
HETATM   32  C13 UNL     1      31.855  24.820  29.895  1.00  0.00     0.018 A 
HETATM   33  C14 UNL     1      30.942  23.821  30.470  1.00  0.00     0.055 C 
HETATM   34  C15 UNL     1      33.205  24.557  29.844  1.00  0.00     0.059 A 
HETATM   35  C16 UNL     1      33.689  23.271  30.372  1.00  0.00     0.077 C 
HETATM   36  O5  UNL     1      34.062  25.397  29.350  1.00  0.00    -0.314 OA
ENDBRANCH   8  28
TORSDOF 7
ENDMDL
MODEL 5
REMARK VINA RESULT: -9.643630050      2.838      4.112
REMARK  7 active torsions:
REMARK  status: ('A' for Active; 'I' for Inactive)
REMARK    1  A    between atoms: O1_2  and  C2_3 
REMARK    2  A    between atoms: C3_4  and  O2_5 
REMARK    3  A    between atoms: C4_7  and  O3_8 
REMARK    4  A    between atoms: C9_14  and  C10_15 
REMARK    5  A    between atoms: C19_26  and  O6_27 
REMARK    6  A    between atoms: O6_27  and  C20_28 
REMARK    7  A    between atoms: C20_28  and  C21_29 
ROOT
HETATM    1  C2  UNL     1      37.336  28.054  28.040  1.00  0.00     0.138 A 
HETATM    2  C3  UNL     1      36.331  28.995  27.788  1.00  0.00     0.136 A 
HETATM    3  C4  UNL     1      35.002  28.740  28.043  1.00  0.00     0.115 A 
HETATM    4  C6  UNL     1      34.651  27.504  28.570  1.00  0.00     0.015 A 
HETATM    5  C7  UNL     1      33.327  27.260  28.824  1.00  0.00     0.040 A 
HETATM    6  C8  UNL     1      32.963  26.038  29.347  1.00  0.00     0.048 A 
HETATM    7 CL1  UNL     1      31.248  25.869  29.701  1.00  0.00    -0.083 Cl
HETATM    8  C9  UNL     1      33.862  25.062  29.623  1.00  0.00     0.021 A 
HETATM    9  C17 UNL     1      35.215  25.360  29.346  1.00  0.00     0.031 A 
HETATM   10  C18 UNL     1      35.629  26.554  28.829  1.00  0.00     0.014 A 
HETATM   11  C19 UNL     1      36.977  26.820  28.566  1.00  0.00     0.116 A 
ENDROOT
BRANCH  11  12
HETATM   12  O6  UNL     1      37.907  25.846  28.840  1.00  0.00    -0.340 OA
BRANCH  12  13
HETATM   13  C20 UNL     1      38.534  25.589  30.054  1.00  0.00     0.255 C 
BRANCH  13  14
HETATM   14  C21 UNL     1      39.474  26.698  30.434  1.00  0.00     0.134 A 
HETATM   15  N1  UNL     1      39.441  27.475  31.528  1.00  0.00    -0.273 N 
HETATM   16  N2  UNL     1      40.428  28.331  31.510  1.00  0.00    -0.225 N 
ATOM     17  H1  UNL     1      38.744  27.407  32.270  1.00  0.00     0.189 HD
HETATM   18  N3  UNL     1      41.116  28.122  30.401  1.00  0.00    -0.005 NA
ATOM     19  H2  UNL     1      40.629  29.033  32.221  1.00  0.00     0.205 HD
HETATM   20  N4  UNL     1      40.542  27.125  29.735  1.00  0.00    -0.269 N 
ATOM     21  H4  UNL     1      40.858  26.746  28.843  1.00  0.00     0.185 HD
ENDBRANCH  13  14
ENDBRANCH  12  13
ENDBRANCH  11  12
BRANCH   1  22
HETATM   22  O1  UNL     1      38.633  28.388  27.758  1.00  0.00    -0.351 OA
HETATM   23  C1  UNL     1      39.326  28.201  26.565  1.00  0.00     0.210 C 
ENDBRANCH   1  22
BRANCH   2  24
HETATM   24  O2  UNL     1      36.638  30.249  27.260  1.00  0.00    -0.356 OA
ATOM     25  H2  UNL     1      36.563  31.034  27.790  1.00  0.00     0.218 HD
ENDBRANCH   2  24
BRANCH   3  26
HETATM   26  O3  UNL     1      34.042  29.690  27.783  1.00  0.00    -0.352 OA
HETATM   27  C5  UNL     1      33.171  29.673  26.690  1.00  0.00     0.210 C 
ENDBRANCH   3  26
BRANCH   8  28
HETATM   28  C10 UNL     1      33.568  23.710  30.113  1.00  0.00     0.091 A 
HETATM   29  C11 UNL     1      34.448  22.691  30.242  1.00  0.00     0.093 A 
HETATM   30  C12 UNL     1      34.063  21.419  30.731  1.00  0.00     0.182 A 
HETATM   31  O4  UNL     1      34.892  20.488  30.842  1.00  0.00    -0.288 OA
HETATM   32  C13 UNL     1      32.752  21.214  31.088  1.00  0.00     0.018 A 
HETATM   33  C14 UNL     1      32.222  19.945  31.608  1.00  0.00     0.055 C 
HETATM   34  C15 UNL     1      31.908  22.291  30.935  1.00  0.00     0.059 A 
HETATM   35  C16 UNL     1      30.491  22.129  31.302  1.00  0.00     0.077 C 
HETATM   36  O5  UNL     1      32.314  23.437  30.480  1.00  0.00    -0.314 OA
ENDBRANCH   8  28
TORSDOF 7
ENDMDL
