MODEL 1
REMARK VINA RESULT: -7.407774144      0.000      0.000
REMARK  6 active torsions:
REMARK  status: ('A' for Active; 'I' for Inactive)
REMARK    1  A    between atoms: O1_2  and  C2_3 
REMARK    2  A    between atoms: C4_5  and  C5_6 
REMARK    3  A    between atoms: N3_13  and  N4_14 
REMARK    4  A    between atoms: C7_16  and  C8_17 
REMARK    5  A    between atoms: C13_24  and  O2_25 
REMARK    6  A    between atoms: C15_27  and  O3_28 
ROOT
HETATM    1  C5  UNL     1      36.957  24.927  28.954  1.00  0.00     0.155 A 
HETATM    2  N1  UNL     1      36.821  23.714  28.325  1.00  0.00    -0.281 N 
ATOM      3  H1  UNL     1      36.062  23.469  27.689  1.00  0.00     0.188 HD
HETATM    4  N2  UNL     1      37.803  22.917  28.657  1.00  0.00    -0.273 N 
ATOM      5  H2  UNL     1      37.927  21.961  28.323  1.00  0.00     0.189 HD
HETATM    6  C6  UNL     1      38.613  23.547  29.497  1.00  0.00     0.214 A 
HETATM    7  S1  UNL     1      39.991  22.995  30.213  1.00  0.00    -0.037 SA
HETATM    8  N3  UNL     1      38.070  24.811  29.675  1.00  0.00    -0.211 N 
ENDROOT
BRANCH   1   9
HETATM    9  C4  UNL     1      36.010  26.022  28.770  1.00  0.00     0.017 A 
HETATM   10  C3  UNL     1      34.744  26.098  29.260  1.00  0.00     0.055 A 
HETATM   11  C2  UNL     1      33.890  27.195  29.071  1.00  0.00     0.105 A 
HETATM   12  C15 UNL     1      34.354  28.270  28.342  1.00  0.00     0.135 A 
HETATM   13  C13 UNL     1      35.640  28.237  27.822  1.00  0.00     0.105 A 
HETATM   14  C12 UNL     1      36.440  27.135  28.036  1.00  0.00     0.055 A 
BRANCH  11  15
HETATM   15  O1  UNL     1      32.634  27.151  29.617  1.00  0.00    -0.353 OA
HETATM   16  C1  UNL     1      31.495  26.524  29.145  1.00  0.00     0.210 C 
ENDBRANCH  11  15
BRANCH  12  17
HETATM   17  O3  UNL     1      33.488  29.325  28.179  1.00  0.00    -0.351 OA
HETATM   18  C16 UNL     1      32.605  29.539  27.120  1.00  0.00     0.210 C 
ENDBRANCH  12  17
BRANCH  13  19
HETATM   19  O2  UNL     1      36.028  29.336  27.113  1.00  0.00    -0.353 OA
HETATM   20  C14 UNL     1      37.060  30.221  27.397  1.00  0.00     0.210 C 
ENDBRANCH  13  19
ENDBRANCH   1   9
BRANCH   8  21
HETATM   21  N4  UNL     1      38.646  25.734  30.471  1.00  0.00    -0.300 N 
HETATM   22  C7  UNL     1      39.418  26.685  30.458  1.00  0.00     0.119 C 
ATOM     23  H4  UNL     1      38.322  25.588  31.428  1.00  0.00     0.186 HD
BRANCH  22  24
HETATM   24  C8  UNL     1      40.153  27.303  29.336  1.00  0.00    -0.011 A 
HETATM   25  C9  UNL     1      40.042  28.642  29.073  1.00  0.00     0.063 A 
HETATM   26  S2  UNL     1      41.040  28.856  27.695  1.00  0.00    -0.093 SA
HETATM   27  C10 UNL     1      41.564  27.260  27.495  1.00  0.00     0.052 A 
HETATM   28 BR1  UNL     1      42.750  26.562  26.150  1.00  0.00    -0.043 Br
HETATM   29  C11 UNL     1      40.945  26.587  28.513  1.00  0.00     0.040 A 
ENDBRANCH  22  24
ENDBRANCH   8  21
TORSDOF 6
ENDMDL
MODEL 2
REMARK VINA RESULT: -7.372223207      0.135      2.506
REMARK  6 active torsions:
REMARK  status: ('A' for Active; 'I' for Inactive)
REMARK    1  A    between atoms: O1_2  and  C2_3 
REMARK    2  A    between atoms: C4_5  and  C5_6 
REMARK    3  A    between atoms: N3_13  and  N4_14 
REMARK    4  A    between atoms: C7_16  and  C8_17 
REMARK    5  A    between atoms: C13_24  and  O2_25 
REMARK    6  A    between atoms: C15_27  and  O3_28 
ROOT
HETATM    1  C5  UNL     1      37.006  24.992  28.980  1.00  0.00     0.155 A 
HETATM    2  N1  UNL     1      36.772  23.768  28.404  1.00  0.00    -0.281 N 
ATOM      3  H1  UNL     1      35.990  23.556  27.784  1.00  0.00     0.188 HD
HETATM    4  N2  UNL     1      37.695  22.914  28.761  1.00  0.00    -0.273 N 
ATOM      5  H2  UNL     1      37.743  21.938  28.467  1.00  0.00     0.189 HD
HETATM    6  C6  UNL     1      38.559  23.515  29.568  1.00  0.00     0.214 A 
HETATM    7  S1  UNL     1      39.899  22.890  30.296  1.00  0.00    -0.037 SA
HETATM    8  N3  UNL     1      38.115  24.823  29.698  1.00  0.00    -0.211 N 
ENDROOT
BRANCH   1   9
HETATM    9  C4  UNL     1      36.142  26.147  28.758  1.00  0.00     0.017 A 
HETATM   10  C3  UNL     1      36.449  27.275  28.063  1.00  0.00     0.055 A 
HETATM   11  C2  UNL     1      35.561  28.342  27.861  1.00  0.00     0.105 A 
HETATM   12  C15 UNL     1      34.293  28.252  28.397  1.00  0.00     0.135 A 
HETATM   13  C13 UNL     1      33.935  27.119  29.114  1.00  0.00     0.105 A 
HETATM   14  C12 UNL     1      34.844  26.098  29.285  1.00  0.00     0.055 A 
BRANCH  11  15
HETATM   15  O1  UNL     1      35.990  29.427  27.142  1.00  0.00    -0.353 OA
HETATM   16  C1  UNL     1      37.040  30.289  27.399  1.00  0.00     0.210 C 
ENDBRANCH  11  15
BRANCH  12  17
HETATM   17  O3  UNL     1      33.453  29.317  28.177  1.00  0.00    -0.351 OA
HETATM   18  C16 UNL     1      32.566  29.490  27.113  1.00  0.00     0.210 C 
ENDBRANCH  12  17
BRANCH  13  19
HETATM   19  O2  UNL     1      32.666  27.102  29.614  1.00  0.00    -0.353 OA
HETATM   20  C14 UNL     1      31.554  26.437  29.113  1.00  0.00     0.210 C 
ENDBRANCH  13  19
ENDBRANCH   1   9
BRANCH   8  21
HETATM   21  N4  UNL     1      38.767  25.731  30.449  1.00  0.00    -0.300 N 
HETATM   22  C7  UNL     1      39.561  26.661  30.382  1.00  0.00     0.119 C 
ATOM     23  H4  UNL     1      38.505  25.596  31.426  1.00  0.00     0.186 HD
BRANCH  22  24
HETATM   24  C8  UNL     1      40.236  27.258  29.210  1.00  0.00    -0.011 A 
HETATM   25  C9  UNL     1      40.023  28.565  28.866  1.00  0.00     0.063 A 
HETATM   26  S2  UNL     1      40.986  28.762  27.460  1.00  0.00    -0.093 SA
HETATM   27  C10 UNL     1      41.623  27.199  27.352  1.00  0.00     0.052 A 
HETATM   28 BR1  UNL     1      42.840  26.503  26.034  1.00  0.00    -0.043 Br
HETATM   29  C11 UNL     1      41.068  26.550  28.421  1.00  0.00     0.040 A 
ENDBRANCH  22  24
ENDBRANCH   8  21
TORSDOF 6
ENDMDL
MODEL 3
REMARK VINA RESULT: -7.214992597      0.924      1.046
REMARK  6 active torsions:
REMARK  status: ('A' for Active; 'I' for Inactive)
REMARK    1  A    between atoms: O1_2  and  C2_3 
REMARK    2  A    between atoms: C4_5  and  C5_6 
REMARK    3  A    between atoms: N3_13  and  N4_14 
REMARK    4  A    between atoms: C7_16  and  C8_17 
REMARK    5  A    between atoms: C13_24  and  O2_25 
REMARK    6  A    between atoms: C15_27  and  O3_28 
ROOT
HETATM    1  C5  UNL     1      36.913  24.936  29.019  1.00  0.00     0.155 A 
HETATM    2  N1  UNL     1      36.741  23.691  28.466  1.00  0.00    -0.281 N 
ATOM      3  H1  UNL     1      35.951  23.417  27.882  1.00  0.00     0.188 HD
HETATM    4  N2  UNL     1      37.735  22.906  28.794  1.00  0.00    -0.273 N 
ATOM      5  H2  UNL     1      37.839  21.933  28.508  1.00  0.00     0.189 HD
HETATM    6  C6  UNL     1      38.588  23.577  29.557  1.00  0.00     0.214 A 
HETATM    7  S1  UNL     1      39.997  23.056  30.235  1.00  0.00    -0.037 SA
HETATM    8  N3  UNL     1      38.060  24.853  29.691  1.00  0.00    -0.211 N 
ENDROOT
BRANCH   1   9
HETATM    9  C4  UNL     1      35.963  26.025  28.821  1.00  0.00     0.017 A 
HETATM   10  C3  UNL     1      34.692  26.098  29.300  1.00  0.00     0.055 A 
HETATM   11  C2  UNL     1      33.835  27.190  29.097  1.00  0.00     0.105 A 
HETATM   12  C15 UNL     1      34.300  28.264  28.367  1.00  0.00     0.135 A 
HETATM   13  C13 UNL     1      35.591  28.233  27.858  1.00  0.00     0.105 A 
HETATM   14  C12 UNL     1      36.394  27.137  28.085  1.00  0.00     0.055 A 
BRANCH  11  15
HETATM   15  O1  UNL     1      32.574  27.144  29.632  1.00  0.00    -0.353 OA
HETATM   16  C1  UNL     1      31.439  26.523  29.145  1.00  0.00     0.210 C 
ENDBRANCH  11  15
BRANCH  12  17
HETATM   17  O3  UNL     1      33.432  29.313  28.191  1.00  0.00    -0.351 OA
HETATM   18  C16 UNL     1      32.575  29.531  27.111  1.00  0.00     0.210 C 
ENDBRANCH  12  17
BRANCH  13  19
HETATM   19  O2  UNL     1      35.981  29.330  27.146  1.00  0.00    -0.353 OA
HETATM   20  C14 UNL     1      37.037  30.194  27.409  1.00  0.00     0.210 C 
ENDBRANCH  13  19
ENDBRANCH   1   9
BRANCH   8  21
HETATM   21  N4  UNL     1      38.678  25.814  30.405  1.00  0.00    -0.300 N 
HETATM   22  C7  UNL     1      39.481  26.734  30.309  1.00  0.00     0.119 C 
ATOM     23  H4  UNL     1      38.364  25.754  31.374  1.00  0.00     0.186 HD
BRANCH  22  24
HETATM   24  C8  UNL     1      40.219  27.239  29.132  1.00  0.00    -0.011 A 
HETATM   25  C9  UNL     1      40.067  26.657  27.903  1.00  0.00     0.063 A 
HETATM   26  S2  UNL     1      41.128  27.564  26.906  1.00  0.00    -0.093 SA
HETATM   27  C10 UNL     1      41.725  28.642  28.064  1.00  0.00     0.052 A 
HETATM   28 BR1  UNL     1      43.007  30.056  27.818  1.00  0.00    -0.043 Br
HETATM   29  C11 UNL     1      41.082  28.271  29.213  1.00  0.00     0.040 A 
ENDBRANCH  22  24
ENDBRANCH   8  21
TORSDOF 6
ENDMDL
MODEL 4
REMARK VINA RESULT: -6.945803859      1.490      3.034
REMARK  6 active torsions:
REMARK  status: ('A' for Active; 'I' for Inactive)
REMARK    1  A    between atoms: O1_2  and  C2_3 
REMARK    2  A    between atoms: C4_5  and  C5_6 
REMARK    3  A    between atoms: N3_13  and  N4_14 
REMARK    4  A    between atoms: C7_16  and  C8_17 
REMARK    5  A    between atoms: C13_24  and  O2_25 
REMARK    6  A    between atoms: C15_27  and  O3_28 
ROOT
HETATM    1  C5  UNL     1      37.241  24.475  29.108  1.00  0.00     0.155 A 
HETATM    2  N1  UNL     1      37.352  23.311  28.389  1.00  0.00    -0.281 N 
ATOM      3  H1  UNL     1      36.596  22.879  27.858  1.00  0.00     0.188 HD
HETATM    4  N2  UNL     1      38.567  22.833  28.482  1.00  0.00    -0.273 N 
ATOM      5  H2  UNL     1      38.900  21.978  28.038  1.00  0.00     0.189 HD
HETATM    6  C6  UNL     1      39.296  23.637  29.244  1.00  0.00     0.214 A 
HETATM    7  S1  UNL     1      40.880  23.494  29.676  1.00  0.00    -0.037 SA
HETATM    8  N3  UNL     1      38.451  24.667  29.631  1.00  0.00    -0.211 N 
ENDROOT
BRANCH   1   9
HETATM    9  C4  UNL     1      36.001  25.239  29.186  1.00  0.00     0.017 A 
HETATM   10  C3  UNL     1      35.805  26.522  28.779  1.00  0.00     0.055 A 
HETATM   11  C2  UNL     1      34.575  27.193  28.856  1.00  0.00     0.105 A 
HETATM   12  C15 UNL     1      33.490  26.520  29.376  1.00  0.00     0.135 A 
HETATM   13  C13 UNL     1      33.643  25.209  29.804  1.00  0.00     0.105 A 
HETATM   14  C12 UNL     1      34.872  24.593  29.708  1.00  0.00     0.055 A 
BRANCH  11  15
HETATM   15  O1  UNL     1      34.505  28.488  28.412  1.00  0.00    -0.353 OA
HETATM   16  C1  UNL     1      35.443  29.227  27.715  1.00  0.00     0.210 C 
ENDBRANCH  11  15
BRANCH  12  17
HETATM   17  O3  UNL     1      32.304  27.211  29.434  1.00  0.00    -0.351 OA
HETATM   18  C16 UNL     1      31.283  27.222  28.482  1.00  0.00     0.210 C 
ENDBRANCH  12  17
BRANCH  13  19
HETATM   19  O2  UNL     1      32.526  24.608  30.307  1.00  0.00    -0.353 OA
HETATM   20  C14 UNL     1      32.334  23.265  30.607  1.00  0.00     0.210 C 
ENDBRANCH  13  19
ENDBRANCH   1   9
BRANCH   8  21
HETATM   21  N4  UNL     1      38.868  25.680  30.416  1.00  0.00    -0.300 N 
HETATM   22  C7  UNL     1      39.398  26.783  30.381  1.00  0.00     0.119 C 
ATOM     23  H4  UNL     1      38.670  25.443  31.388  1.00  0.00     0.186 HD
BRANCH  22  24
HETATM   24  C8  UNL     1      39.873  27.579  29.230  1.00  0.00    -0.011 A 
HETATM   25  C9  UNL     1      39.145  27.649  28.074  1.00  0.00     0.063 A 
HETATM   26  S2  UNL     1      40.108  28.645  27.063  1.00  0.00    -0.093 SA
HETATM   27  C10 UNL     1      41.391  28.942  28.125  1.00  0.00     0.052 A 
HETATM   28 BR1  UNL     1      42.968  29.999  27.813  1.00  0.00    -0.043 Br
HETATM   29  C11 UNL     1      41.040  28.253  29.254  1.00  0.00     0.040 A 
ENDBRANCH  22  24
ENDBRANCH   8  21
TORSDOF 6
ENDMDL
MODEL 5
REMARK VINA RESULT: -6.915796896      1.460      1.885
REMARK  6 active torsions:
REMARK  status: ('A' for Active; 'I' for Inactive)
REMARK    1  A    between atoms: O1_2  and  C2_3 
REMARK    2  A    between atoms: C4_5  and  C5_6 
REMARK    3  A    between atoms: N3_13  and  N4_14 
REMARK    4  A    between atoms: C7_16  and  C8_17 
REMARK    5  A    between atoms: C13_24  and  O2_25 
REMARK    6  A    between atoms: C15_27  and  O3_28 
ROOT
HETATM    1  C5  UNL     1      37.249  24.332  29.116  1.00  0.00     0.155 A 
HETATM    2  N1  UNL     1      37.443  23.189  28.381  1.00  0.00    -0.281 N 
ATOM      3  H1  UNL     1      36.714  22.698  27.864  1.00  0.00     0.188 HD
HETATM    4  N2  UNL     1      38.696  22.817  28.440  1.00  0.00    -0.273 N 
ATOM      5  H2  UNL     1      39.091  21.998  27.978  1.00  0.00     0.189 HD
HETATM    6  C6  UNL     1      39.371  23.674  29.193  1.00  0.00     0.214 A 
HETATM    7  S1  UNL     1      40.972  23.665  29.586  1.00  0.00    -0.037 SA
HETATM    8  N3  UNL     1      38.451  24.624  29.612  1.00  0.00    -0.211 N 
ENDROOT
BRANCH   1   9
HETATM    9  C4  UNL     1      35.950  24.986  29.232  1.00  0.00     0.017 A 
HETATM   10  C3  UNL     1      34.811  24.453  29.750  1.00  0.00     0.055 A 
HETATM   11  C2  UNL     1      33.596  25.145  29.860  1.00  0.00     0.105 A 
HETATM   12  C15 UNL     1      33.541  26.450  29.416  1.00  0.00     0.135 A 
HETATM   13  C13 UNL     1      34.679  27.035  28.878  1.00  0.00     0.105 A 
HETATM   14  C12 UNL     1      35.849  26.313  28.793  1.00  0.00     0.055 A 
BRANCH  11  15
HETATM   15  O1  UNL     1      32.517  24.497  30.401  1.00  0.00    -0.353 OA
HETATM   16  C1  UNL     1      31.656  23.589  29.814  1.00  0.00     0.210 C 
ENDBRANCH  11  15
BRANCH  12  17
HETATM   17  O3  UNL     1      32.334  27.094  29.540  1.00  0.00    -0.351 OA
HETATM   18  C16 UNL     1      31.307  27.159  28.596  1.00  0.00     0.210 C 
ENDBRANCH  12  17
BRANCH  13  19
HETATM   19  O2  UNL     1      34.548  28.328  28.461  1.00  0.00    -0.353 OA
HETATM   20  C14 UNL     1      35.438  29.080  27.705  1.00  0.00     0.210 C 
ENDBRANCH  13  19
ENDBRANCH   1   9
BRANCH   8  21
HETATM   21  N4  UNL     1      38.797  25.662  30.398  1.00  0.00    -0.300 N 
HETATM   22  C7  UNL     1      39.296  26.780  30.369  1.00  0.00     0.119 C 
ATOM     23  H4  UNL     1      38.559  25.435  31.364  1.00  0.00     0.186 HD
BRANCH  22  24
HETATM   24  C8  UNL     1      39.803  27.572  29.229  1.00  0.00    -0.011 A 
HETATM   25  C9  UNL     1      39.083  27.678  28.070  1.00  0.00     0.063 A 
HETATM   26  S2  UNL     1      40.085  28.651  27.074  1.00  0.00    -0.093 SA
HETATM   27  C10 UNL     1      41.371  28.893  28.146  1.00  0.00     0.052 A 
HETATM   28 BR1  UNL     1      42.985  29.899  27.852  1.00  0.00    -0.043 Br
HETATM   29  C11 UNL     1      40.992  28.204  29.266  1.00  0.00     0.040 A 
ENDBRANCH  22  24
ENDBRANCH   8  21
TORSDOF 6
ENDMDL
