MODEL 1
REMARK VINA RESULT: -8.064620530      0.000      0.000
REMARK  9 active torsions:
REMARK  status: ('A' for Active; 'I' for Inactive)
REMARK    1  A    between atoms: S1_2  and  C2_3 
REMARK    2  A    between atoms: C2_3  and  C3_4 
REMARK    3  A    between atoms: C3_4  and  S2_5 
REMARK    4  A    between atoms: S2_5  and  C4_6 
REMARK    5  A    between atoms: C4_6  and  N1_8 
REMARK    6  A    between atoms: N3_16  and  N4_18 
REMARK    7  A    between atoms: N4_18  and  C9_20 
REMARK    8  A    between atoms: C11_27  and  C12_28 
REMARK    9  A    between atoms: C12_28  and  C13_29 
ROOT
HETATM    1  C9  UNL     1      44.139  28.856  26.816  1.00  0.00     0.145 A 
HETATM    2  N5  UNL     1      44.409  28.729  25.519  1.00  0.00    -0.316 N 
ATOM      3  H5  UNL     1      43.977  27.963  25.002  1.00  0.00     0.170 HD
HETATM    4  C10 UNL     1      45.233  29.574  24.858  1.00  0.00     0.180 A 
HETATM    5 CL1  UNL     1      45.557  29.364  23.140  1.00  0.00    -0.045 Cl
HETATM    6  N6  UNL     1      45.794  30.574  25.549  1.00  0.00    -0.335 N 
ATOM      7  H6  UNL     1      46.418  31.222  25.068  1.00  0.00     0.168 HD
HETATM    8  C11 UNL     1      45.553  30.751  26.880  1.00  0.00     0.036 A 
HETATM    9  C17 UNL     1      44.720  29.895  27.545  1.00  0.00     0.112 A 
HETATM   10  C18 UNL     1      44.471  30.052  28.938  1.00  0.00     0.105 C 
HETATM   11  N7  UNL     1      44.264  30.154  30.088  1.00  0.00    -0.191 NA
ENDROOT
BRANCH   1  12
HETATM   12  N4  UNL     1      43.266  27.968  27.552  1.00  0.00    -0.283 N 
ATOM     13  H4  UNL     1      43.324  27.941  28.570  1.00  0.00     0.188 HD
BRANCH  12  14
HETATM   14  N3  UNL     1      42.359  27.160  26.906  1.00  0.00    -0.296 N 
HETATM   15  C2  UNL     1      41.153  27.444  26.651  1.00  0.00     0.071 C 
ATOM     16  H3  UNL     1      42.691  26.244  26.603  1.00  0.00     0.187 HD
BRANCH  15  17
HETATM   17  S1  UNL     1      40.148  26.233  25.799  1.00  0.00    -0.119 SA
HETATM   18  C1  UNL     1      41.251  24.982  25.095  1.00  0.00     0.097 C 
ENDBRANCH  15  17
BRANCH  15  19
HETATM   19  C3  UNL     1      40.603  28.757  27.071  1.00  0.00     0.147 C 
BRANCH  19  20
HETATM   20  S2  UNL     1      39.943  28.707  28.746  1.00  0.00    -0.094 SA
BRANCH  20  21
HETATM   21  C4  UNL     1      39.215  27.169  29.205  1.00  0.00     0.137 C 
HETATM   22  S3  UNL     1      40.001  26.072  30.119  1.00  0.00    -0.053 SA
BRANCH  21  23
HETATM   23  N1  UNL     1      37.914  26.861  28.773  1.00  0.00    -0.363 N 
HETATM   24  C5  UNL     1      37.131  27.759  27.960  1.00  0.00     0.152 C 
HETATM   25  C6  UNL     1      36.043  26.891  27.305  1.00  0.00     0.252 C 
HETATM   26  N2  UNL     1      36.588  25.645  26.812  1.00  0.00    -0.072 N 
HETATM   27  C7  UNL     1      37.151  24.816  27.838  1.00  0.00     0.252 C 
ATOM     28  H22 UNL     1      35.887  25.131  26.279  1.00  0.00     0.277 HD
ATOM     29  H21 UNL     1      37.271  25.818  26.074  1.00  0.00     0.277 HD
HETATM   30  C8  UNL     1      37.319  25.602  29.144  1.00  0.00     0.152 C 
ENDBRANCH  21  23
ENDBRANCH  20  21
ENDBRANCH  19  20
ENDBRANCH  15  19
ENDBRANCH  12  14
ENDBRANCH   1  12
BRANCH   8  31
HETATM   31  C12 UNL     1      46.185  31.864  27.612  1.00  0.00     0.063 C 
BRANCH  31  32
HETATM   32  C13 UNL     1      46.349  33.039  26.711  1.00  0.00    -0.009 C 
HETATM   33  C14 UNL     1      47.657  33.782  26.859  1.00  0.00     0.005 C 
HETATM   34  C15 UNL     1      46.970  34.638  27.917  1.00  0.00     0.001 C 
HETATM   35  C16 UNL     1      45.664  34.289  27.251  1.00  0.00     0.005 C 
ENDBRANCH  31  32
ENDBRANCH   8  31
TORSDOF 9
ENDMDL
MODEL 2
REMARK VINA RESULT: -8.016777675      1.970      2.930
REMARK  9 active torsions:
REMARK  status: ('A' for Active; 'I' for Inactive)
REMARK    1  A    between atoms: S1_2  and  C2_3 
REMARK    2  A    between atoms: C2_3  and  C3_4 
REMARK    3  A    between atoms: C3_4  and  S2_5 
REMARK    4  A    between atoms: S2_5  and  C4_6 
REMARK    5  A    between atoms: C4_6  and  N1_8 
REMARK    6  A    between atoms: N3_16  and  N4_18 
REMARK    7  A    between atoms: N4_18  and  C9_20 
REMARK    8  A    between atoms: C11_27  and  C12_28 
REMARK    9  A    between atoms: C12_28  and  C13_29 
ROOT
HETATM    1  C9  UNL     1      44.037  28.988  26.784  1.00  0.00     0.145 A 
HETATM    2  N5  UNL     1      44.289  28.804  25.490  1.00  0.00    -0.316 N 
ATOM      3  H5  UNL     1      43.771  28.081  24.989  1.00  0.00     0.170 HD
HETATM    4  C10 UNL     1      45.202  29.535  24.812  1.00  0.00     0.180 A 
HETATM    5 CL1  UNL     1      45.496  29.253  23.098  1.00  0.00    -0.045 Cl
HETATM    6  N6  UNL     1      45.874  30.479  25.481  1.00  0.00    -0.335 N 
ATOM      7  H6  UNL     1      46.567  31.041  24.986  1.00  0.00     0.168 HD
HETATM    8  C11 UNL     1      45.658  30.710  26.808  1.00  0.00     0.036 A 
HETATM    9  C17 UNL     1      44.735  29.969  27.490  1.00  0.00     0.112 A 
HETATM   10  C18 UNL     1      44.509  30.182  28.880  1.00  0.00     0.105 C 
HETATM   11  N7  UNL     1      44.317  30.332  30.028  1.00  0.00    -0.191 NA
ENDROOT
BRANCH   1  12
HETATM   12  N4  UNL     1      43.071  28.221  27.539  1.00  0.00    -0.283 N 
ATOM     13  H4  UNL     1      43.393  27.457  28.133  1.00  0.00     0.188 HD
BRANCH  12  14
HETATM   14  N3  UNL     1      41.725  28.502  27.471  1.00  0.00    -0.296 N 
HETATM   15  C2  UNL     1      40.867  28.265  28.369  1.00  0.00     0.071 C 
ATOM     16  H3  UNL     1      41.389  28.943  26.615  1.00  0.00     0.187 HD
BRANCH  15  17
HETATM   17  S1  UNL     1      39.161  28.714  28.064  1.00  0.00    -0.119 SA
HETATM   18  C1  UNL     1      38.738  28.205  26.379  1.00  0.00     0.097 C 
ENDBRANCH  15  17
BRANCH  15  19
HETATM   19  C3  UNL     1      41.287  27.617  29.636  1.00  0.00     0.147 C 
BRANCH  19  20
HETATM   20  S2  UNL     1      40.903  25.858  29.654  1.00  0.00    -0.094 SA
BRANCH  20  21
HETATM   21  C4  UNL     1      41.929  24.871  28.613  1.00  0.00     0.137 C 
HETATM   22  S3  UNL     1      43.307  24.186  29.147  1.00  0.00    -0.053 SA
BRANCH  21  23
HETATM   23  N1  UNL     1      41.560  24.661  27.274  1.00  0.00    -0.363 N 
HETATM   24  C5  UNL     1      40.193  24.744  26.820  1.00  0.00     0.152 C 
HETATM   25  C6  UNL     1      40.267  24.958  25.298  1.00  0.00     0.252 C 
HETATM   26  N2  UNL     1      41.279  25.932  24.952  1.00  0.00    -0.072 N 
HETATM   27  C7  UNL     1      42.606  25.546  25.334  1.00  0.00     0.252 C 
ATOM     28  H22 UNL     1      41.241  26.151  23.957  1.00  0.00     0.277 HD
ATOM     29  H21 UNL     1      41.045  26.846  25.338  1.00  0.00     0.277 HD
HETATM   30  C8  UNL     1      42.573  24.351  26.295  1.00  0.00     0.152 C 
ENDBRANCH  21  23
ENDBRANCH  20  21
ENDBRANCH  19  20
ENDBRANCH  15  19
ENDBRANCH  12  14
ENDBRANCH   1  12
BRANCH   8  31
HETATM   31  C12 UNL     1      46.414  31.759  27.516  1.00  0.00     0.063 C 
BRANCH  31  32
HETATM   32  C13 UNL     1      46.518  32.977  26.664  1.00  0.00    -0.009 C 
HETATM   33  C14 UNL     1      47.759  33.811  26.886  1.00  0.00     0.005 C 
HETATM   34  C15 UNL     1      46.972  34.571  27.947  1.00  0.00     0.001 C 
HETATM   35  C16 UNL     1      45.720  34.150  27.223  1.00  0.00     0.005 C 
ENDBRANCH  31  32
ENDBRANCH   8  31
TORSDOF 9
ENDMDL
MODEL 3
REMARK VINA RESULT: -7.897280481      3.909      9.439
REMARK  9 active torsions:
REMARK  status: ('A' for Active; 'I' for Inactive)
REMARK    1  A    between atoms: S1_2  and  C2_3 
REMARK    2  A    between atoms: C2_3  and  C3_4 
REMARK    3  A    between atoms: C3_4  and  S2_5 
REMARK    4  A    between atoms: S2_5  and  C4_6 
REMARK    5  A    between atoms: C4_6  and  N1_8 
REMARK    6  A    between atoms: N3_16  and  N4_18 
REMARK    7  A    between atoms: N4_18  and  C9_20 
REMARK    8  A    between atoms: C11_27  and  C12_28 
REMARK    9  A    between atoms: C12_28  and  C13_29 
ROOT
HETATM    1  C9  UNL     1      36.584  26.259  27.216  1.00  0.00     0.145 A 
HETATM    2  N5  UNL     1      36.836  27.556  27.052  1.00  0.00    -0.316 N 
ATOM      3  H5  UNL     1      37.602  27.831  26.436  1.00  0.00     0.170 HD
HETATM    4  C10 UNL     1      36.120  28.523  27.668  1.00  0.00     0.180 A 
HETATM    5 CL1  UNL     1      36.493  30.226  27.416  1.00  0.00    -0.045 Cl
HETATM    6  N6  UNL     1      35.120  28.147  28.474  1.00  0.00    -0.335 N 
ATOM      7  H6  UNL     1      34.568  28.863  28.947  1.00  0.00     0.168 HD
HETATM    8  C11 UNL     1      34.818  26.834  28.680  1.00  0.00     0.036 A 
HETATM    9  C17 UNL     1      35.544  25.858  28.056  1.00  0.00     0.112 A 
HETATM   10  C18 UNL     1      35.256  24.481  28.273  1.00  0.00     0.105 C 
HETATM   11  N7  UNL     1      35.045  23.340  28.449  1.00  0.00    -0.191 NA
ENDROOT
BRANCH   1  12
HETATM   12  N4  UNL     1      37.333  25.200  26.575  1.00  0.00    -0.283 N 
ATOM     13  H4  UNL     1      36.976  24.246  26.605  1.00  0.00     0.188 HD
BRANCH  12  14
HETATM   14  N3  UNL     1      38.519  25.456  25.925  1.00  0.00    -0.296 N 
HETATM   15  C2  UNL     1      39.661  25.028  26.258  1.00  0.00     0.071 C 
ATOM     16  H3  UNL     1      38.471  26.048  25.095  1.00  0.00     0.187 HD
BRANCH  15  17
HETATM   17  S1  UNL     1      41.075  25.492  25.263  1.00  0.00    -0.119 SA
HETATM   18  C1  UNL     1      42.412  24.320  25.604  1.00  0.00     0.097 C 
ENDBRANCH  15  17
BRANCH  15  19
HETATM   19  C3  UNL     1      39.803  24.169  27.460  1.00  0.00     0.147 C 
BRANCH  19  20
HETATM   20  S2  UNL     1      40.747  24.981  28.761  1.00  0.00    -0.094 SA
BRANCH  20  21
HETATM   21  C4  UNL     1      40.050  26.492  29.344  1.00  0.00     0.137 C 
HETATM   22  S3  UNL     1      38.759  26.527  30.338  1.00  0.00    -0.053 SA
BRANCH  21  23
HETATM   23  N1  UNL     1      40.611  27.715  28.943  1.00  0.00    -0.363 N 
HETATM   24  C5  UNL     1      42.022  27.997  29.052  1.00  0.00     0.152 C 
HETATM   25  C6  UNL     1      42.293  29.162  28.085  1.00  0.00     0.252 C 
HETATM   26  N2  UNL     1      41.617  28.967  26.821  1.00  0.00    -0.072 N 
HETATM   27  C7  UNL     1      40.189  28.907  26.934  1.00  0.00     0.252 C 
ATOM     28  H22 UNL     1      41.896  29.682  26.150  1.00  0.00     0.277 HD
ATOM     29  H21 UNL     1      41.976  28.138  26.346  1.00  0.00     0.277 HD
HETATM   30  C8  UNL     1      39.763  28.745  28.398  1.00  0.00     0.152 C 
ENDBRANCH  21  23
ENDBRANCH  20  21
ENDBRANCH  19  20
ENDBRANCH  15  19
ENDBRANCH  12  14
ENDBRANCH   1  12
BRANCH   8  31
HETATM   31  C12 UNL     1      33.708  26.453  29.573  1.00  0.00     0.063 C 
BRANCH  31  32
HETATM   32  C13 UNL     1      32.420  26.479  28.825  1.00  0.00    -0.009 C 
HETATM   33  C14 UNL     1      31.188  26.683  29.678  1.00  0.00     0.005 C 
HETATM   34  C15 UNL     1      31.122  25.167  29.820  1.00  0.00     0.001 C 
HETATM   35  C16 UNL     1      31.891  25.080  28.527  1.00  0.00     0.005 C 
ENDBRANCH  31  32
ENDBRANCH   8  31
TORSDOF 9
ENDMDL
MODEL 4
REMARK VINA RESULT: -7.882100078      3.525      9.236
REMARK  9 active torsions:
REMARK  status: ('A' for Active; 'I' for Inactive)
REMARK    1  A    between atoms: S1_2  and  C2_3 
REMARK    2  A    between atoms: C2_3  and  C3_4 
REMARK    3  A    between atoms: C3_4  and  S2_5 
REMARK    4  A    between atoms: S2_5  and  C4_6 
REMARK    5  A    between atoms: C4_6  and  N1_8 
REMARK    6  A    between atoms: N3_16  and  N4_18 
REMARK    7  A    between atoms: N4_18  and  C9_20 
REMARK    8  A    between atoms: C11_27  and  C12_28 
REMARK    9  A    between atoms: C12_28  and  C13_29 
ROOT
HETATM    1  C9  UNL     1      39.123  27.999  27.974  1.00  0.00     0.145 A 
HETATM    2  N5  UNL     1      39.149  26.895  28.718  1.00  0.00    -0.316 N 
ATOM      3  H5  UNL     1      40.052  26.540  29.034  1.00  0.00     0.170 HD
HETATM    4  C10 UNL     1      38.029  26.226  29.071  1.00  0.00     0.180 A 
HETATM    5 CL1  UNL     1      38.117  24.770  30.059  1.00  0.00    -0.045 Cl
HETATM    6  N6  UNL     1      36.851  26.703  28.649  1.00  0.00    -0.335 N 
ATOM      7  H6  UNL     1      35.995  26.211  28.907  1.00  0.00     0.168 HD
HETATM    8  C11 UNL     1      36.766  27.828  27.884  1.00  0.00     0.036 A 
HETATM    9  C17 UNL     1      37.900  28.502  27.528  1.00  0.00     0.112 A 
HETATM   10  C18 UNL     1      37.832  29.668  26.714  1.00  0.00     0.105 C 
HETATM   11  N7  UNL     1      37.800  30.623  26.032  1.00  0.00    -0.191 NA
ENDROOT
BRANCH   1  12
HETATM   12  N4  UNL     1      40.302  28.735  27.575  1.00  0.00    -0.283 N 
ATOM     13  H4  UNL     1      40.369  29.729  27.794  1.00  0.00     0.188 HD
BRANCH  12  14
HETATM   14  N3  UNL     1      41.336  28.121  26.906  1.00  0.00    -0.296 N 
HETATM   15  C2  UNL     1      42.556  28.453  26.951  1.00  0.00     0.071 C 
ATOM     16  H3  UNL     1      41.096  27.323  26.319  1.00  0.00     0.187 HD
BRANCH  15  17
HETATM   17  S1  UNL     1      43.737  27.509  25.991  1.00  0.00    -0.119 SA
HETATM   18  C1  UNL     1      42.977  25.921  25.570  1.00  0.00     0.097 C 
ENDBRANCH  15  17
BRANCH  15  19
HETATM   19  C3  UNL     1      42.974  29.611  27.779  1.00  0.00     0.147 C 
BRANCH  19  20
HETATM   20  S2  UNL     1      44.715  30.010  27.552  1.00  0.00    -0.094 SA
BRANCH  20  21
HETATM   21  C4  UNL     1      45.034  31.251  26.341  1.00  0.00     0.137 C 
HETATM   22  S3  UNL     1      45.228  30.897  24.763  1.00  0.00    -0.053 SA
BRANCH  21  23
HETATM   23  N1  UNL     1      45.132  32.596  26.735  1.00  0.00    -0.363 N 
HETATM   24  C5  UNL     1      45.134  33.686  25.789  1.00  0.00     0.152 C 
HETATM   25  C6  UNL     1      44.750  34.940  26.593  1.00  0.00     0.252 C 
HETATM   26  N2  UNL     1      43.650  34.672  27.494  1.00  0.00    -0.072 N 
HETATM   27  C7  UNL     1      43.944  33.677  28.483  1.00  0.00     0.252 C 
ATOM     28  H22 UNL     1      43.328  35.534  27.935  1.00  0.00     0.277 HD
ATOM     29  H21 UNL     1      42.810  34.423  26.971  1.00  0.00     0.277 HD
HETATM   30  C8  UNL     1      45.233  32.924  28.135  1.00  0.00     0.152 C 
ENDBRANCH  21  23
ENDBRANCH  20  21
ENDBRANCH  19  20
ENDBRANCH  15  19
ENDBRANCH  12  14
ENDBRANCH   1  12
BRANCH   8  31
HETATM   31  C12 UNL     1      35.453  28.329  27.437  1.00  0.00     0.063 C 
BRANCH  31  32
HETATM   32  C13 UNL     1      34.562  28.546  28.611  1.00  0.00    -0.009 C 
HETATM   33  C14 UNL     1      33.291  27.726  28.611  1.00  0.00     0.005 C 
HETATM   34  C15 UNL     1      32.636  28.874  27.851  1.00  0.00     0.001 C 
HETATM   35  C16 UNL     1      33.679  29.779  28.454  1.00  0.00     0.005 C 
ENDBRANCH  31  32
ENDBRANCH   8  31
TORSDOF 9
ENDMDL
MODEL 5
REMARK VINA RESULT: -7.879204470      1.378      1.927
REMARK  9 active torsions:
REMARK  status: ('A' for Active; 'I' for Inactive)
REMARK    1  A    between atoms: S1_2  and  C2_3 
REMARK    2  A    between atoms: C2_3  and  C3_4 
REMARK    3  A    between atoms: C3_4  and  S2_5 
REMARK    4  A    between atoms: S2_5  and  C4_6 
REMARK    5  A    between atoms: C4_6  and  N1_8 
REMARK    6  A    between atoms: N3_16  and  N4_18 
REMARK    7  A    between atoms: N4_18  and  C9_20 
REMARK    8  A    between atoms: C11_27  and  C12_28 
REMARK    9  A    between atoms: C12_28  and  C13_29 
ROOT
HETATM    1  C9  UNL     1      44.175  28.864  26.781  1.00  0.00     0.145 A 
HETATM    2  N5  UNL     1      44.465  28.747  25.486  1.00  0.00    -0.316 N 
ATOM      3  H5  UNL     1      44.046  27.981  24.958  1.00  0.00     0.170 HD
HETATM    4  C10 UNL     1      45.290  29.603  24.842  1.00  0.00     0.180 A 
HETATM    5 CL1  UNL     1      45.640  29.407  23.127  1.00  0.00    -0.045 Cl
HETATM    6  N6  UNL     1      45.833  30.604  25.547  1.00  0.00    -0.335 N 
ATOM      7  H6  UNL     1      46.457  31.260  25.078  1.00  0.00     0.168 HD
HETATM    8  C11 UNL     1      45.572  30.770  26.875  1.00  0.00     0.036 A 
HETATM    9  C17 UNL     1      44.737  29.903  27.523  1.00  0.00     0.112 A 
HETATM   10  C18 UNL     1      44.468  30.049  28.914  1.00  0.00     0.105 C 
HETATM   11  N7  UNL     1      44.244  30.143  30.062  1.00  0.00    -0.191 NA
ENDROOT
BRANCH   1  12
HETATM   12  N4  UNL     1      43.300  27.964  27.499  1.00  0.00    -0.283 N 
ATOM     13  H4  UNL     1      43.326  27.949  28.518  1.00  0.00     0.188 HD
BRANCH  12  14
HETATM   14  N3  UNL     1      42.432  27.128  26.834  1.00  0.00    -0.296 N 
HETATM   15  C2  UNL     1      41.203  27.341  26.625  1.00  0.00     0.071 C 
ATOM     16  H3  UNL     1      42.817  26.254  26.476  1.00  0.00     0.187 HD
BRANCH  15  17
HETATM   17  S1  UNL     1      40.259  26.107  25.735  1.00  0.00    -0.119 SA
HETATM   18  C1  UNL     1      41.382  24.766  25.272  1.00  0.00     0.097 C 
ENDBRANCH  15  17
BRANCH  15  19
HETATM   19  C3  UNL     1      40.577  28.590  27.126  1.00  0.00     0.147 C 
BRANCH  19  20
HETATM   20  S2  UNL     1      39.799  28.356  28.733  1.00  0.00    -0.094 SA
BRANCH  20  21
HETATM   21  C4  UNL     1      38.630  27.038  28.800  1.00  0.00     0.137 C 
HETATM   22  S3  UNL     1      37.095  27.210  28.280  1.00  0.00    -0.053 SA
BRANCH  21  23
HETATM   23  N1  UNL     1      39.017  25.793  29.321  1.00  0.00    -0.363 N 
HETATM   24  C5  UNL     1      38.289  24.576  29.053  1.00  0.00     0.152 C 
HETATM   25  C6  UNL     1      39.267  23.427  29.351  1.00  0.00     0.252 C 
HETATM   26  N2  UNL     1      40.581  23.701  28.812  1.00  0.00    -0.072 N 
HETATM   27  C7  UNL     1      41.202  24.866  29.371  1.00  0.00     0.252 C 
ATOM     28  H22 UNL     1      41.188  22.887  28.912  1.00  0.00     0.277 HD
ATOM     29  H21 UNL     1      40.547  23.765  27.794  1.00  0.00     0.277 HD
HETATM   30  C8  UNL     1      40.186  25.702  30.159  1.00  0.00     0.152 C 
ENDBRANCH  21  23
ENDBRANCH  20  21
ENDBRANCH  19  20
ENDBRANCH  15  19
ENDBRANCH  12  14
ENDBRANCH   1  12
BRANCH   8  31
HETATM   31  C12 UNL     1      46.184  31.884  27.623  1.00  0.00     0.063 C 
BRANCH  31  32
HETATM   32  C13 UNL     1      46.374  33.057  26.724  1.00  0.00    -0.009 C 
HETATM   33  C14 UNL     1      47.671  33.810  26.919  1.00  0.00     0.005 C 
HETATM   34  C15 UNL     1      46.938  34.664  27.948  1.00  0.00     0.001 C 
HETATM   35  C16 UNL     1      45.660  34.304  27.235  1.00  0.00     0.005 C 
ENDBRANCH  31  32
ENDBRANCH   8  31
TORSDOF 9
ENDMDL
