MODEL 1
REMARK VINA RESULT: -7.825738286      0.000      0.000
REMARK  11 active torsions:
REMARK  status: ('A' for Active; 'I' for Inactive)
REMARK    1  A    between atoms: C2_2  and  O1_3 
REMARK    2  A    between atoms: O1_3  and  N1_4 
REMARK    3  A    between atoms: N1_4  and  C3_6 
REMARK    4  A    between atoms: C3_6  and  O2_7 
REMARK    5  A    between atoms: C3_6  and  C4_9 
REMARK    6  A    between atoms: C7_13  and  C8_14 
REMARK    7  A    between atoms: C11_17  and  O4_18 
REMARK    8  A    between atoms: C13_21  and  O5_22 
REMARK    9  A    between atoms: C18_30  and  C19_31 
REMARK   10  A    between atoms: C19_31  and  O9_33 
REMARK   11  A    between atoms: O9_33  and  C20_34 
ROOT
HETATM    1  C4  UNL     1      44.815  28.937  27.057  1.00  0.00     0.065 A 
HETATM    2  C5  UNL     1      44.222  28.132  26.058  1.00  0.00     0.065 A 
HETATM    3  C6  UNL     1      44.896  27.416  24.890  1.00  0.00     0.077 C 
HETATM    4  O3  UNL     1      43.007  28.040  26.245  1.00  0.00    -0.312 OA
HETATM    5  C7  UNL     1      42.599  28.761  27.381  1.00  0.00     0.109 A 
HETATM    6  C18 UNL     1      43.705  29.294  27.842  1.00  0.00     0.091 A 
ENDROOT
BRANCH   5   7
HETATM    7  C8  UNL     1      41.167  28.643  27.660  1.00  0.00     0.075 A 
HETATM    8  C9  UNL     1      40.091  29.283  27.137  1.00  0.00     0.037 A 
HETATM    9  C10 UNL     1      38.818  28.817  27.443  1.00  0.00     0.034 A 
HETATM   10  C11 UNL     1      37.668  29.374  26.925  1.00  0.00     0.081 A 
HETATM   11  C16 UNL     1      38.653  27.699  28.293  1.00  0.00     0.117 A 
HETATM   12  C12 UNL     1      36.393  28.839  27.240  1.00  0.00     0.076 A 
HETATM   13  C13 UNL     1      36.231  27.778  28.049  1.00  0.00     0.095 A 
HETATM   14  C15 UNL     1      37.455  27.209  28.596  1.00  0.00     0.102 A 
HETATM   15 CL1  UNL     1      37.284  25.873  29.752  1.00  0.00    -0.078 Cl
HETATM   16  O6  UNL     1      39.711  27.123  28.781  1.00  0.00    -0.272 OA
HETATM   17  C17 UNL     1      40.870  27.548  28.498  1.00  0.00     0.301 A 
HETATM   18  O7  UNL     1      41.878  26.954  29.022  1.00  0.00    -0.259 OA
BRANCH  10  19
HETATM   19  O4  UNL     1      37.758  30.485  26.068  1.00  0.00    -0.360 OA
ATOM     20  H4  UNL     1      36.964  30.906  25.760  1.00  0.00     0.217 HD
ENDBRANCH  10  19
BRANCH  13  21
HETATM   21  O5  UNL     1      35.166  27.141  28.428  1.00  0.00    -0.354 OA
HETATM   22  C14 UNL     1      33.973  26.936  28.911  1.00  0.00     0.210 C 
ENDBRANCH  13  21
ENDBRANCH   5   7
BRANCH   6  23
HETATM   23  C19 UNL     1      43.950  30.248  28.939  1.00  0.00     0.297 C 
HETATM   24  O8  UNL     1      44.531  30.054  30.005  1.00  0.00    -0.259 OA
BRANCH  23  25
HETATM   25  O9  UNL     1      43.493  31.547  28.720  1.00  0.00    -0.318 OA
BRANCH  25  26
HETATM   26  C20 UNL     1      43.710  32.490  27.797  1.00  0.00     0.174 C 
HETATM   27  C21 UNL     1      44.378  33.687  28.544  1.00  0.00     0.034 C 
ENDBRANCH  25  26
ENDBRANCH  23  25
ENDBRANCH   6  23
BRANCH   1  28
HETATM   28  C3  UNL     1      46.173  29.299  27.164  1.00  0.00     0.174 C 
BRANCH  28  29
HETATM   29  N1  UNL     1      47.045  30.210  26.462  1.00  0.00    -0.244 N 
ATOM     30  H1  UNL     1      47.603  29.983  25.638  1.00  0.00     0.196 HD
BRANCH  29  31
HETATM   31  O1  UNL     1      47.000  31.395  27.065  1.00  0.00    -0.279 OA
BRANCH  31  32
HETATM   32  C2  UNL     1      47.086  32.325  26.008  1.00  0.00     0.197 C 
HETATM   33  C1  UNL     1      47.755  33.551  26.697  1.00  0.00     0.036 C 
ENDBRANCH  31  32
ENDBRANCH  29  31
ENDBRANCH  28  29
BRANCH  28  34
HETATM   34  O2  UNL     1      46.902  28.678  28.130  1.00  0.00    -0.344 OA
ATOM     35  H2  UNL     1      47.812  28.676  27.857  1.00  0.00     0.219 HD
ENDBRANCH  28  34
ENDBRANCH   1  28
TORSDOF 11
ENDMDL
MODEL 2
REMARK VINA RESULT: -7.769394273      2.988      4.091
REMARK  11 active torsions:
REMARK  status: ('A' for Active; 'I' for Inactive)
REMARK    1  A    between atoms: C2_2  and  O1_3 
REMARK    2  A    between atoms: O1_3  and  N1_4 
REMARK    3  A    between atoms: N1_4  and  C3_6 
REMARK    4  A    between atoms: C3_6  and  O2_7 
REMARK    5  A    between atoms: C3_6  and  C4_9 
REMARK    6  A    between atoms: C7_13  and  C8_14 
REMARK    7  A    between atoms: C11_17  and  O4_18 
REMARK    8  A    between atoms: C13_21  and  O5_22 
REMARK    9  A    between atoms: C18_30  and  C19_31 
REMARK   10  A    between atoms: C19_31  and  O9_33 
REMARK   11  A    between atoms: O9_33  and  C20_34 
ROOT
HETATM    1  C4  UNL     1      41.568  26.829  26.340  1.00  0.00     0.065 A 
HETATM    2  C5  UNL     1      40.694  25.956  25.652  1.00  0.00     0.065 A 
HETATM    3  C6  UNL     1      41.032  24.931  24.572  1.00  0.00     0.077 C 
HETATM    4  O3  UNL     1      39.538  26.101  26.052  1.00  0.00    -0.312 OA
HETATM    5  C7  UNL     1      39.454  27.081  27.056  1.00  0.00     0.109 A 
HETATM    6  C18 UNL     1      40.686  27.505  27.201  1.00  0.00     0.091 A 
ENDROOT
BRANCH   5   7
HETATM    7  C8  UNL     1      38.100  27.253  27.587  1.00  0.00     0.075 A 
HETATM    8  C9  UNL     1      37.156  28.202  27.360  1.00  0.00     0.037 A 
HETATM    9  C10 UNL     1      35.870  27.999  27.845  1.00  0.00     0.034 A 
HETATM   10  C11 UNL     1      34.835  28.884  27.627  1.00  0.00     0.081 A 
HETATM   11  C16 UNL     1      35.557  26.826  28.569  1.00  0.00     0.117 A 
HETATM   12  C12 UNL     1      33.531  28.614  28.113  1.00  0.00     0.076 A 
HETATM   13  C13 UNL     1      33.230  27.501  28.804  1.00  0.00     0.095 A 
HETATM   14  C15 UNL     1      34.336  26.583  29.034  1.00  0.00     0.102 A 
HETATM   15 CL1  UNL     1      34.010  25.151  30.031  1.00  0.00    -0.078 Cl
HETATM   16  O6  UNL     1      36.495  25.949  28.773  1.00  0.00    -0.272 OA
HETATM   17  C17 UNL     1      37.666  26.135  28.328  1.00  0.00     0.301 A 
HETATM   18  O7  UNL     1      38.556  25.246  28.574  1.00  0.00    -0.259 OA
BRANCH  10  19
HETATM   19  O4  UNL     1      35.073  30.069  26.909  1.00  0.00    -0.360 OA
ATOM     20  H4  UNL     1      34.470  30.798  26.993  1.00  0.00     0.217 HD
ENDBRANCH  10  19
BRANCH  13  21
HETATM   21  O5  UNL     1      32.108  27.074  29.299  1.00  0.00    -0.354 OA
HETATM   22  C14 UNL     1      30.953  26.476  29.366  1.00  0.00     0.210 C 
ENDBRANCH  13  21
ENDBRANCH   5   7
BRANCH   6  23
HETATM   23  C19 UNL     1      41.258  28.597  28.009  1.00  0.00     0.297 C 
HETATM   24  O8  UNL     1      41.696  29.681  27.628  1.00  0.00    -0.259 OA
BRANCH  23  25
HETATM   25  O9  UNL     1      41.268  28.385  29.387  1.00  0.00    -0.318 OA
BRANCH  25  26
HETATM   26  C20 UNL     1      40.392  28.554  30.383  1.00  0.00     0.174 C 
HETATM   27  C21 UNL     1      40.019  27.123  30.884  1.00  0.00     0.034 C 
ENDBRANCH  25  26
ENDBRANCH  23  25
ENDBRANCH   6  23
BRANCH   1  28
HETATM   28  C3  UNL     1      42.955  26.979  26.139  1.00  0.00     0.174 C 
BRANCH  28  29
HETATM   29  N1  UNL     1      43.780  27.809  25.297  1.00  0.00    -0.244 N 
ATOM     30  H1  UNL     1      43.794  28.829  25.297  1.00  0.00     0.196 HD
BRANCH  29  31
HETATM   31  O1  UNL     1      44.522  27.024  24.519  1.00  0.00    -0.279 OA
BRANCH  31  32
HETATM   32  C2  UNL     1      45.783  27.655  24.493  1.00  0.00     0.197 C 
HETATM   33  C1  UNL     1      45.445  29.048  23.884  1.00  0.00     0.036 C 
ENDBRANCH  31  32
ENDBRANCH  29  31
ENDBRANCH  28  29
BRANCH  28  34
HETATM   34  O2  UNL     1      43.772  26.177  26.873  1.00  0.00    -0.344 OA
ATOM     35  H2  UNL     1      43.319  25.950  27.677  1.00  0.00     0.219 HD
ENDBRANCH  28  34
ENDBRANCH   1  28
TORSDOF 11
ENDMDL
MODEL 3
REMARK VINA RESULT: -7.723963717      2.519      3.624
REMARK  11 active torsions:
REMARK  status: ('A' for Active; 'I' for Inactive)
REMARK    1  A    between atoms: C2_2  and  O1_3 
REMARK    2  A    between atoms: O1_3  and  N1_4 
REMARK    3  A    between atoms: N1_4  and  C3_6 
REMARK    4  A    between atoms: C3_6  and  O2_7 
REMARK    5  A    between atoms: C3_6  and  C4_9 
REMARK    6  A    between atoms: C7_13  and  C8_14 
REMARK    7  A    between atoms: C11_17  and  O4_18 
REMARK    8  A    between atoms: C13_21  and  O5_22 
REMARK    9  A    between atoms: C18_30  and  C19_31 
REMARK   10  A    between atoms: C19_31  and  O9_33 
REMARK   11  A    between atoms: O9_33  and  C20_34 
ROOT
HETATM    1  C4  UNL     1      41.628  27.023  26.416  1.00  0.00     0.065 A 
HETATM    2  C5  UNL     1      40.765  26.174  25.687  1.00  0.00     0.065 A 
HETATM    3  C6  UNL     1      41.117  25.189  24.574  1.00  0.00     0.077 C 
HETATM    4  O3  UNL     1      39.604  26.301  26.080  1.00  0.00    -0.312 OA
HETATM    5  C7  UNL     1      39.506  27.244  27.118  1.00  0.00     0.109 A 
HETATM    6  C18 UNL     1      40.735  27.664  27.292  1.00  0.00     0.091 A 
ENDROOT
BRANCH   5   7
HETATM    7  C8  UNL     1      38.146  27.393  27.640  1.00  0.00     0.075 A 
HETATM    8  C9  UNL     1      37.175  28.304  27.378  1.00  0.00     0.037 A 
HETATM    9  C10 UNL     1      35.894  28.078  27.868  1.00  0.00     0.034 A 
HETATM   10  C11 UNL     1      34.833  28.923  27.617  1.00  0.00     0.081 A 
HETATM   11  C16 UNL     1      35.615  26.923  28.633  1.00  0.00     0.117 A 
HETATM   12  C12 UNL     1      33.536  28.631  28.110  1.00  0.00     0.076 A 
HETATM   13  C13 UNL     1      33.267  27.535  28.839  1.00  0.00     0.095 A 
HETATM   14  C15 UNL     1      34.400  26.659  29.104  1.00  0.00     0.102 A 
HETATM   15 CL1  UNL     1      34.115  25.254  30.151  1.00  0.00    -0.078 Cl
HETATM   16  O6  UNL     1      36.579  26.082  28.869  1.00  0.00    -0.272 OA
HETATM   17  C17 UNL     1      37.744  26.288  28.419  1.00  0.00     0.301 A 
HETATM   18  O7  UNL     1      38.661  25.437  28.698  1.00  0.00    -0.259 OA
BRANCH  10  19
HETATM   19  O4  UNL     1      35.037  30.089  26.858  1.00  0.00    -0.360 OA
ATOM     20  H4  UNL     1      34.343  30.735  26.794  1.00  0.00     0.217 HD
ENDBRANCH  10  19
BRANCH  13  21
HETATM   21  O5  UNL     1      32.158  27.092  29.347  1.00  0.00    -0.354 OA
HETATM   22  C14 UNL     1      31.000  26.499  29.420  1.00  0.00     0.210 C 
ENDBRANCH  13  21
ENDBRANCH   5   7
BRANCH   6  23
HETATM   23  C19 UNL     1      41.295  28.728  28.145  1.00  0.00     0.297 C 
HETATM   24  O8  UNL     1      41.206  28.856  29.365  1.00  0.00    -0.259 OA
BRANCH  23  25
HETATM   25  O9  UNL     1      42.055  29.693  27.485  1.00  0.00    -0.318 OA
BRANCH  25  26
HETATM   26  C20 UNL     1      43.084  30.483  27.812  1.00  0.00     0.174 C 
HETATM   27  C21 UNL     1      43.404  31.330  26.540  1.00  0.00     0.034 C 
ENDBRANCH  25  26
ENDBRANCH  23  25
ENDBRANCH   6  23
BRANCH   1  28
HETATM   28  C3  UNL     1      43.017  27.184  26.236  1.00  0.00     0.174 C 
BRANCH  28  29
HETATM   29  N1  UNL     1      43.848  27.916  25.313  1.00  0.00    -0.244 N 
ATOM     30  H1  UNL     1      43.922  28.932  25.256  1.00  0.00     0.196 HD
BRANCH  29  31
HETATM   31  O1  UNL     1      44.504  27.048  24.548  1.00  0.00    -0.279 OA
BRANCH  31  32
HETATM   32  C2  UNL     1      45.812  27.571  24.474  1.00  0.00     0.197 C 
HETATM   33  C1  UNL     1      45.561  29.025  23.973  1.00  0.00     0.036 C 
ENDBRANCH  31  32
ENDBRANCH  29  31
ENDBRANCH  28  29
BRANCH  28  34
HETATM   34  O2  UNL     1      43.830  26.510  27.094  1.00  0.00    -0.344 OA
ATOM     35  H2  UNL     1      43.527  25.611  27.142  1.00  0.00     0.219 HD
ENDBRANCH  28  34
ENDBRANCH   1  28
TORSDOF 11
ENDMDL
MODEL 4
REMARK VINA RESULT: -7.629840473      1.548      2.463
REMARK  11 active torsions:
REMARK  status: ('A' for Active; 'I' for Inactive)
REMARK    1  A    between atoms: C2_2  and  O1_3 
REMARK    2  A    between atoms: O1_3  and  N1_4 
REMARK    3  A    between atoms: N1_4  and  C3_6 
REMARK    4  A    between atoms: C3_6  and  O2_7 
REMARK    5  A    between atoms: C3_6  and  C4_9 
REMARK    6  A    between atoms: C7_13  and  C8_14 
REMARK    7  A    between atoms: C11_17  and  O4_18 
REMARK    8  A    between atoms: C13_21  and  O5_22 
REMARK    9  A    between atoms: C18_30  and  C19_31 
REMARK   10  A    between atoms: C19_31  and  O9_33 
REMARK   11  A    between atoms: O9_33  and  C20_34 
ROOT
HETATM    1  C4  UNL     1      44.951  29.288  26.830  1.00  0.00     0.065 A 
HETATM    2  C5  UNL     1      44.580  28.330  25.857  1.00  0.00     0.065 A 
HETATM    3  C6  UNL     1      45.338  27.910  24.600  1.00  0.00     0.077 C 
HETATM    4  O3  UNL     1      43.504  27.809  26.155  1.00  0.00    -0.312 OA
HETATM    5  C7  UNL     1      42.988  28.329  27.355  1.00  0.00     0.109 A 
HETATM    6  C18 UNL     1      43.875  29.218  27.731  1.00  0.00     0.091 A 
ENDROOT
BRANCH   5   7
HETATM    7  C8  UNL     1      41.729  27.704  27.764  1.00  0.00     0.075 A 
HETATM    8  C9  UNL     1      41.469  26.637  28.562  1.00  0.00     0.037 A 
HETATM    9  C10 UNL     1      40.157  26.392  28.948  1.00  0.00     0.034 A 
HETATM   10  C11 UNL     1      39.801  25.360  29.791  1.00  0.00     0.081 A 
HETATM   11  C16 UNL     1      39.113  27.238  28.509  1.00  0.00     0.117 A 
HETATM   12  C12 UNL     1      38.452  25.173  30.185  1.00  0.00     0.076 A 
HETATM   13  C13 UNL     1      37.457  25.974  29.768  1.00  0.00     0.095 A 
HETATM   14  C15 UNL     1      37.848  27.052  28.871  1.00  0.00     0.102 A 
HETATM   15 CL1  UNL     1      36.553  28.071  28.211  1.00  0.00    -0.078 Cl
HETATM   16  O6  UNL     1      39.406  28.242  27.737  1.00  0.00    -0.272 OA
HETATM   17  C17 UNL     1      40.603  28.465  27.388  1.00  0.00     0.301 A 
HETATM   18  O7  UNL     1      40.833  29.458  26.610  1.00  0.00    -0.259 OA
BRANCH  10  19
HETATM   19  O4  UNL     1      40.789  24.482  30.272  1.00  0.00    -0.360 OA
ATOM     20  H4  UNL     1      40.550  23.795  30.883  1.00  0.00     0.217 HD
ENDBRANCH  10  19
BRANCH  13  21
HETATM   21  O5  UNL     1      36.187  25.976  30.036  1.00  0.00    -0.354 OA
HETATM   22  C14 UNL     1      35.003  25.527  30.344  1.00  0.00     0.210 C 
ENDBRANCH  13  21
ENDBRANCH   5   7
BRANCH   6  23
HETATM   23  C19 UNL     1      43.878  30.190  28.841  1.00  0.00     0.297 C 
HETATM   24  O8  UNL     1      44.424  30.094  29.938  1.00  0.00    -0.259 OA
BRANCH  23  25
HETATM   25  O9  UNL     1      43.204  31.385  28.597  1.00  0.00    -0.318 OA
BRANCH  25  26
HETATM   26  C20 UNL     1      43.478  32.515  27.935  1.00  0.00     0.174 C 
HETATM   27  C21 UNL     1      44.044  33.514  28.993  1.00  0.00     0.034 C 
ENDBRANCH  25  26
ENDBRANCH  23  25
ENDBRANCH   6  23
BRANCH   1  28
HETATM   28  C3  UNL     1      46.094  30.111  26.821  1.00  0.00     0.174 C 
BRANCH  28  29
HETATM   29  N1  UNL     1      46.467  31.334  26.153  1.00  0.00    -0.244 N 
ATOM     30  H1  UNL     1      46.493  31.475  25.143  1.00  0.00     0.196 HD
BRANCH  29  31
HETATM   31  O1  UNL     1      46.772  32.247  27.072  1.00  0.00    -0.279 OA
BRANCH  31  32
HETATM   32  C2  UNL     1      46.776  33.465  26.360  1.00  0.00     0.197 C 
HETATM   33  C1  UNL     1      47.337  34.464  27.414  1.00  0.00     0.036 C 
ENDBRANCH  31  32
ENDBRANCH  29  31
ENDBRANCH  28  29
BRANCH  28  34
HETATM   34  O2  UNL     1      47.140  29.718  27.598  1.00  0.00    -0.344 OA
ATOM     35  H2  UNL     1      47.555  30.497  27.949  1.00  0.00     0.219 HD
ENDBRANCH  28  34
ENDBRANCH   1  28
TORSDOF 11
ENDMDL
MODEL 5
REMARK VINA RESULT: -7.607597472      1.202      2.161
REMARK  11 active torsions:
REMARK  status: ('A' for Active; 'I' for Inactive)
REMARK    1  A    between atoms: C2_2  and  O1_3 
REMARK    2  A    between atoms: O1_3  and  N1_4 
REMARK    3  A    between atoms: N1_4  and  C3_6 
REMARK    4  A    between atoms: C3_6  and  O2_7 
REMARK    5  A    between atoms: C3_6  and  C4_9 
REMARK    6  A    between atoms: C7_13  and  C8_14 
REMARK    7  A    between atoms: C11_17  and  O4_18 
REMARK    8  A    between atoms: C13_21  and  O5_22 
REMARK    9  A    between atoms: C18_30  and  C19_31 
REMARK   10  A    between atoms: C19_31  and  O9_33 
REMARK   11  A    between atoms: O9_33  and  C20_34 
ROOT
HETATM    1  C4  UNL     1      44.538  28.589  27.105  1.00  0.00     0.065 A 
HETATM    2  C5  UNL     1      43.914  27.762  26.143  1.00  0.00     0.065 A 
HETATM    3  C6  UNL     1      44.560  26.977  25.004  1.00  0.00     0.077 C 
HETATM    4  O3  UNL     1      42.699  27.715  26.339  1.00  0.00    -0.312 OA
HETATM    5  C7  UNL     1      42.319  28.494  27.446  1.00  0.00     0.109 A 
HETATM    6  C18 UNL     1      43.443  29.012  27.879  1.00  0.00     0.091 A 
ENDROOT
BRANCH   5   7
HETATM    7  C8  UNL     1      40.886  28.431  27.736  1.00  0.00     0.075 A 
HETATM    8  C9  UNL     1      39.821  29.042  27.157  1.00  0.00     0.037 A 
HETATM    9  C10 UNL     1      38.540  28.632  27.507  1.00  0.00     0.034 A 
HETATM   10  C11 UNL     1      37.400  29.161  26.941  1.00  0.00     0.081 A 
HETATM   11  C16 UNL     1      38.355  27.601  28.456  1.00  0.00     0.117 A 
HETATM   12  C12 UNL     1      36.115  28.684  27.305  1.00  0.00     0.076 A 
HETATM   13  C13 UNL     1      35.935  27.706  28.209  1.00  0.00     0.095 A 
HETATM   14  C15 UNL     1      37.148  27.165  28.805  1.00  0.00     0.102 A 
HETATM   15 CL1  UNL     1      36.955  25.945  30.080  1.00  0.00    -0.078 Cl
HETATM   16  O6  UNL     1      39.403  27.051  28.994  1.00  0.00    -0.272 OA
HETATM   17  C17 UNL     1      40.569  27.425  28.672  1.00  0.00     0.301 A 
HETATM   18  O7  UNL     1      41.567  26.862  29.247  1.00  0.00    -0.259 OA
BRANCH  10  19
HETATM   19  O4  UNL     1      37.510  30.187  25.984  1.00  0.00    -0.360 OA
ATOM     20  H4  UNL     1      37.232  30.027  25.090  1.00  0.00     0.217 HD
ENDBRANCH  10  19
BRANCH  13  21
HETATM   21  O5  UNL     1      34.858  27.128  28.646  1.00  0.00    -0.354 OA
HETATM   22  C14 UNL     1      33.602  26.953  28.944  1.00  0.00     0.210 C 
ENDBRANCH  13  21
ENDBRANCH   5   7
BRANCH   6  23
HETATM   23  C19 UNL     1      43.723  30.004  28.934  1.00  0.00     0.297 C 
HETATM   24  O8  UNL     1      44.287  29.833  30.012  1.00  0.00    -0.259 OA
BRANCH  23  25
HETATM   25  O9  UNL     1      43.327  31.310  28.653  1.00  0.00    -0.318 OA
BRANCH  25  26
HETATM   26  C20 UNL     1      43.737  32.271  27.817  1.00  0.00     0.174 C 
HETATM   27  C21 UNL     1      44.097  33.501  28.710  1.00  0.00     0.034 C 
ENDBRANCH  25  26
ENDBRANCH  23  25
ENDBRANCH   6  23
BRANCH   1  28
HETATM   28  C3  UNL     1      45.906  28.915  27.190  1.00  0.00     0.174 C 
BRANCH  28  29
HETATM   29  N1  UNL     1      47.044  28.369  27.888  1.00  0.00    -0.244 N 
ATOM     30  H1  UNL     1      47.995  28.736  27.854  1.00  0.00     0.196 HD
BRANCH  29  31
HETATM   31  O1  UNL     1      46.648  27.307  28.584  1.00  0.00    -0.279 OA
BRANCH  31  32
HETATM   32  C2  UNL     1      47.096  26.207  27.822  1.00  0.00     0.197 C 
HETATM   33  C1  UNL     1      45.957  25.167  28.038  1.00  0.00     0.036 C 
ENDBRANCH  31  32
ENDBRANCH  29  31
ENDBRANCH  28  29
BRANCH  28  34
HETATM   34  O2  UNL     1      46.326  29.995  26.478  1.00  0.00    -0.344 OA
ATOM     35  H2  UNL     1      46.188  30.770  27.009  1.00  0.00     0.219 HD
ENDBRANCH  28  34
ENDBRANCH   1  28
TORSDOF 11
ENDMDL
