MODEL 1
REMARK VINA RESULT: -8.679080173      0.000      0.000
REMARK  8 active torsions:
REMARK  status: ('A' for Active; 'I' for Inactive)
REMARK    1  A    between atoms: O1_3  and  C2_4 
REMARK    2  A    between atoms: C3_6  and  C4_7 
REMARK    3  A    between atoms: C5_12  and  S2_13 
REMARK    4  A    between atoms: S2_13  and  C6_14 
REMARK    5  A    between atoms: C6_14  and  C7_15 
REMARK       I    between atoms: C7_15  and  N4_17 
REMARK    6  A    between atoms: N4_17  and  C8_19 
REMARK    7  A    between atoms: C8_19  and  N5_21 
REMARK    8  A    between atoms: N5_21  and  C9_23 
ROOT
HETATM    1  N1  UNL     1      31.867  24.971  28.708  1.00  0.00    -0.164 NA
HETATM    2  C1  UNL     1      32.165  26.082  28.854  1.00  0.00     0.234 C 
HETATM    3  O1  UNL     1      32.540  27.396  29.019  1.00  0.00    -0.231 OA
ENDROOT
BRANCH   3   4
HETATM    4  C2  UNL     1      33.859  27.707  28.619  1.00  0.00     0.152 A 
HETATM    5  S1  UNL     1      35.319  26.931  29.044  1.00  0.00    -0.058 SA
HETATM    6  C3  UNL     1      36.411  27.896  28.164  1.00  0.00     0.062 A 
HETATM    7  C15 UNL     1      35.593  28.809  27.555  1.00  0.00     0.050 A 
HETATM    8  C16 UNL     1      34.279  28.713  27.789  1.00  0.00     0.077 A 
HETATM    9 CL1  UNL     1      33.070  29.821  27.077  1.00  0.00    -0.081 Cl
BRANCH   6  10
HETATM   10  C4  UNL     1      37.879  27.780  28.077  1.00  0.00     0.182 A 
HETATM   11  N2  UNL     1      38.525  26.610  28.214  1.00  0.00    -0.276 N 
HETATM   12  N3  UNL     1      39.798  26.884  28.080  1.00  0.00    -0.272 N 
ATOM     13  H2  UNL     1      38.108  25.695  28.386  1.00  0.00     0.189 HD
HETATM   14  C5  UNL     1      39.964  28.192  27.864  1.00  0.00     0.204 A 
ATOM     15  H3  UNL     1      40.552  26.199  28.134  1.00  0.00     0.189 HD
HETATM   16  O3  UNL     1      38.755  28.714  27.869  1.00  0.00    -0.267 OA
BRANCH  14  17
HETATM   17  S2  UNL     1      41.531  28.979  27.629  1.00  0.00    -0.075 SA
BRANCH  17  18
HETATM   18  C6  UNL     1      42.655  28.576  28.992  1.00  0.00     0.186 C 
BRANCH  18  19
HETATM   19  C7  UNL     1      43.887  29.390  28.948  1.00  0.00     0.233 C 
HETATM   20  O2  UNL     1      44.275  29.950  29.999  1.00  0.00    -0.272 OA
HETATM   21  N4  UNL     1      44.646  29.562  27.766  1.00  0.00    -0.303 N 
ATOM     22  H4  UNL     1      44.312  29.096  26.922  1.00  0.00     0.171 HD
BRANCH  21  23
HETATM   23  C8  UNL     1      45.832  30.328  27.660  1.00  0.00     0.174 C 
HETATM   24  S3  UNL     1      47.225  29.517  27.408  1.00  0.00    -0.041 SA
BRANCH  23  25
HETATM   25  N5  UNL     1      45.788  31.746  27.774  1.00  0.00    -0.362 N 
ATOM     26  H5  UNL     1      45.931  32.156  28.698  1.00  0.00     0.162 HD
BRANCH  25  27
HETATM   27  C9  UNL     1      45.557  32.631  26.680  1.00  0.00     0.083 C 
HETATM   28  C10 UNL     1      46.884  33.110  26.126  1.00  0.00     0.025 C 
HETATM   29  C11 UNL     1      47.635  33.918  27.161  1.00  0.00     0.002 C 
HETATM   30  C12 UNL     1      46.822  35.056  27.715  1.00  0.00     0.000 C 
HETATM   31  C13 UNL     1      45.483  34.512  28.231  1.00  0.00     0.002 C 
HETATM   32  C14 UNL     1      44.798  33.887  27.054  1.00  0.00     0.025 C 
ENDBRANCH  25  27
ENDBRANCH  23  25
ENDBRANCH  21  23
ENDBRANCH  18  19
ENDBRANCH  17  18
ENDBRANCH  14  17
ENDBRANCH   6  10
ENDBRANCH   3   4
TORSDOF 8
ENDMDL
MODEL 2
REMARK VINA RESULT: -8.667514994      1.430      1.430
REMARK  8 active torsions:
REMARK  status: ('A' for Active; 'I' for Inactive)
REMARK    1  A    between atoms: O1_3  and  C2_4 
REMARK    2  A    between atoms: C3_6  and  C4_7 
REMARK    3  A    between atoms: C5_12  and  S2_13 
REMARK    4  A    between atoms: S2_13  and  C6_14 
REMARK    5  A    between atoms: C6_14  and  C7_15 
REMARK       I    between atoms: C7_15  and  N4_17 
REMARK    6  A    between atoms: N4_17  and  C8_19 
REMARK    7  A    between atoms: C8_19  and  N5_21 
REMARK    8  A    between atoms: N5_21  and  C9_23 
ROOT
HETATM    1  N1  UNL     1      32.153  24.697  28.457  1.00  0.00    -0.164 NA
HETATM    2  C1  UNL     1      32.411  25.762  28.834  1.00  0.00     0.234 C 
HETATM    3  O1  UNL     1      32.737  27.028  29.267  1.00  0.00    -0.231 OA
ENDROOT
BRANCH   3   4
HETATM    4  C2  UNL     1      33.904  27.585  28.697  1.00  0.00     0.152 A 
HETATM    5  S1  UNL     1      35.504  26.994  28.740  1.00  0.00    -0.058 SA
HETATM    6  C3  UNL     1      36.275  28.218  27.842  1.00  0.00     0.062 A 
HETATM    7  C15 UNL     1      35.245  29.065  27.531  1.00  0.00     0.050 A 
HETATM    8  C16 UNL     1      34.025  28.740  27.970  1.00  0.00     0.077 A 
HETATM    9 CL1  UNL     1      32.571  29.732  27.655  1.00  0.00    -0.081 Cl
BRANCH   6  10
HETATM   10  C4  UNL     1      37.701  28.339  27.486  1.00  0.00     0.182 A 
HETATM   11  N2  UNL     1      38.169  29.304  26.677  1.00  0.00    -0.276 N 
HETATM   12  N3  UNL     1      39.459  29.104  26.585  1.00  0.00    -0.272 N 
ATOM     13  H2  UNL     1      37.628  30.041  26.225  1.00  0.00     0.189 HD
HETATM   14  C5  UNL     1      39.810  28.042  27.316  1.00  0.00     0.204 A 
ATOM     15  H3  UNL     1      40.103  29.674  26.037  1.00  0.00     0.189 HD
HETATM   16  O3  UNL     1      38.695  27.595  27.859  1.00  0.00    -0.267 OA
BRANCH  14  17
HETATM   17  S2  UNL     1      41.463  27.429  27.468  1.00  0.00    -0.075 SA
BRANCH  17  18
HETATM   18  C6  UNL     1      42.496  28.609  28.377  1.00  0.00     0.186 C 
BRANCH  18  19
HETATM   19  C7  UNL     1      43.055  29.648  27.488  1.00  0.00     0.233 C 
HETATM   20  O2  UNL     1      42.288  30.532  27.041  1.00  0.00    -0.272 OA
HETATM   21  N4  UNL     1      44.421  29.685  27.123  1.00  0.00    -0.303 N 
ATOM     22  H4  UNL     1      45.028  28.956  27.499  1.00  0.00     0.171 HD
BRANCH  21  23
HETATM   23  C8  UNL     1      45.015  30.653  26.276  1.00  0.00     0.174 C 
HETATM   24  S3  UNL     1      45.364  30.195  24.749  1.00  0.00    -0.041 SA
BRANCH  23  25
HETATM   25  N5  UNL     1      45.289  31.963  26.758  1.00  0.00    -0.362 N 
ATOM     26  H5  UNL     1      45.405  32.087  27.764  1.00  0.00     0.162 HD
BRANCH  25  27
HETATM   27  C9  UNL     1      45.413  33.114  25.925  1.00  0.00     0.083 C 
HETATM   28  C10 UNL     1      46.881  33.415  25.691  1.00  0.00     0.025 C 
HETATM   29  C11 UNL     1      47.567  33.769  26.993  1.00  0.00     0.002 C 
HETATM   30  C12 UNL     1      46.881  34.888  27.728  1.00  0.00     0.000 C 
HETATM   31  C13 UNL     1      45.398  34.536  27.906  1.00  0.00     0.002 C 
HETATM   32  C14 UNL     1      44.832  34.376  26.527  1.00  0.00     0.025 C 
ENDBRANCH  25  27
ENDBRANCH  23  25
ENDBRANCH  21  23
ENDBRANCH  18  19
ENDBRANCH  17  18
ENDBRANCH  14  17
ENDBRANCH   6  10
ENDBRANCH   3   4
TORSDOF 8
ENDMDL
MODEL 3
REMARK VINA RESULT: -8.636729086      2.178      2.292
REMARK  8 active torsions:
REMARK  status: ('A' for Active; 'I' for Inactive)
REMARK    1  A    between atoms: O1_3  and  C2_4 
REMARK    2  A    between atoms: C3_6  and  C4_7 
REMARK    3  A    between atoms: C5_12  and  S2_13 
REMARK    4  A    between atoms: S2_13  and  C6_14 
REMARK    5  A    between atoms: C6_14  and  C7_15 
REMARK       I    between atoms: C7_15  and  N4_17 
REMARK    6  A    between atoms: N4_17  and  C8_19 
REMARK    7  A    between atoms: C8_19  and  N5_21 
REMARK    8  A    between atoms: N5_21  and  C9_23 
ROOT
HETATM    1  N1  UNL     1      31.173  26.916  28.520  1.00  0.00    -0.164 NA
HETATM    2  C1  UNL     1      32.092  26.506  29.095  1.00  0.00     0.234 C 
HETATM    3  O1  UNL     1      33.196  26.020  29.759  1.00  0.00    -0.231 OA
ENDROOT
BRANCH   3   4
HETATM    4  C2  UNL     1      34.345  25.818  28.961  1.00  0.00     0.152 A 
HETATM    5  S1  UNL     1      35.642  26.885  28.658  1.00  0.00    -0.058 SA
HETATM    6  C3  UNL     1      36.577  25.901  27.631  1.00  0.00     0.062 A 
HETATM    7  C15 UNL     1      35.839  24.750  27.554  1.00  0.00     0.050 A 
HETATM    8  C16 UNL     1      34.690  24.707  28.238  1.00  0.00     0.077 A 
HETATM    9 CL1  UNL     1      33.606  23.285  28.248  1.00  0.00    -0.081 Cl
BRANCH   6  10
HETATM   10  C4  UNL     1      37.865  26.208  26.983  1.00  0.00     0.182 A 
HETATM   11  N2  UNL     1      38.125  25.903  25.702  1.00  0.00    -0.276 N 
HETATM   12  N3  UNL     1      39.346  26.317  25.473  1.00  0.00    -0.272 N 
ATOM     13  H2  UNL     1      37.499  25.442  25.041  1.00  0.00     0.189 HD
HETATM   14  C5  UNL     1      39.855  26.872  26.576  1.00  0.00     0.204 A 
ATOM     15  H3  UNL     1      39.837  26.228  24.583  1.00  0.00     0.189 HD
HETATM   16  O3  UNL     1      38.910  26.786  27.490  1.00  0.00    -0.267 OA
BRANCH  14  17
HETATM   17  S2  UNL     1      41.480  27.560  26.696  1.00  0.00    -0.075 SA
BRANCH  17  18
HETATM   18  C6  UNL     1      41.415  29.224  27.410  1.00  0.00     0.186 C 
BRANCH  18  19
HETATM   19  C7  UNL     1      42.750  29.853  27.461  1.00  0.00     0.233 C 
HETATM   20  O2  UNL     1      43.187  30.248  28.567  1.00  0.00    -0.272 OA
HETATM   21  N4  UNL     1      43.556  30.027  26.311  1.00  0.00    -0.303 N 
ATOM     22  H4  UNL     1      43.181  29.698  25.421  1.00  0.00     0.171 HD
BRANCH  21  23
HETATM   23  C8  UNL     1      44.841  30.623  26.295  1.00  0.00     0.174 C 
HETATM   24  S3  UNL     1      46.057  29.755  25.638  1.00  0.00    -0.041 SA
BRANCH  23  25
HETATM   25  N5  UNL     1      45.041  31.923  26.837  1.00  0.00    -0.362 N 
ATOM     26  H5  UNL     1      45.130  32.010  27.850  1.00  0.00     0.162 HD
BRANCH  25  27
HETATM   27  C9  UNL     1      45.125  33.113  26.055  1.00  0.00     0.083 C 
HETATM   28  C10 UNL     1      46.574  33.384  25.698  1.00  0.00     0.025 C 
HETATM   29  C11 UNL     1      47.390  33.648  26.944  1.00  0.00     0.002 C 
HETATM   30  C12 UNL     1      46.815  34.744  27.798  1.00  0.00     0.000 C 
HETATM   31  C13 UNL     1      45.344  34.427  28.098  1.00  0.00     0.002 C 
HETATM   32  C14 UNL     1      44.646  34.357  26.773  1.00  0.00     0.025 C 
ENDBRANCH  25  27
ENDBRANCH  23  25
ENDBRANCH  21  23
ENDBRANCH  18  19
ENDBRANCH  17  18
ENDBRANCH  14  17
ENDBRANCH   6  10
ENDBRANCH   3   4
TORSDOF 8
ENDMDL
MODEL 4
REMARK VINA RESULT: -8.576410400      1.137      1.163
REMARK  8 active torsions:
REMARK  status: ('A' for Active; 'I' for Inactive)
REMARK    1  A    between atoms: O1_3  and  C2_4 
REMARK    2  A    between atoms: C3_6  and  C4_7 
REMARK    3  A    between atoms: C5_12  and  S2_13 
REMARK    4  A    between atoms: S2_13  and  C6_14 
REMARK    5  A    between atoms: C6_14  and  C7_15 
REMARK       I    between atoms: C7_15  and  N4_17 
REMARK    6  A    between atoms: N4_17  and  C8_19 
REMARK    7  A    between atoms: C8_19  and  N5_21 
REMARK    8  A    between atoms: N5_21  and  C9_23 
ROOT
HETATM    1  N1  UNL     1      31.363  25.028  29.741  1.00  0.00    -0.164 NA
HETATM    2  C1  UNL     1      31.659  26.079  29.351  1.00  0.00     0.234 C 
HETATM    3  O1  UNL     1      32.032  27.320  28.886  1.00  0.00    -0.231 OA
ENDROOT
BRANCH   3   4
HETATM    4  C2  UNL     1      33.415  27.490  28.650  1.00  0.00     0.152 A 
HETATM    5  S1  UNL     1      34.721  26.535  29.193  1.00  0.00    -0.058 SA
HETATM    6  C3  UNL     1      36.008  27.400  28.489  1.00  0.00     0.062 A 
HETATM    7  C15 UNL     1      35.371  28.424  27.842  1.00  0.00     0.050 A 
HETATM    8  C16 UNL     1      34.036  28.472  27.924  1.00  0.00     0.077 A 
HETATM    9 CL1  UNL     1      33.048  29.739  27.140  1.00  0.00    -0.081 Cl
BRANCH   6  10
HETATM   10  C4  UNL     1      37.453  27.118  28.559  1.00  0.00     0.182 A 
HETATM   11  N2  UNL     1      37.971  26.166  29.353  1.00  0.00    -0.276 N 
HETATM   12  N3  UNL     1      39.265  26.199  29.158  1.00  0.00    -0.272 N 
ATOM     13  H2  UNL     1      37.460  25.545  29.980  1.00  0.00     0.189 HD
HETATM   14  C5  UNL     1      39.569  27.144  28.264  1.00  0.00     0.204 A 
ATOM     15  H3  UNL     1      39.942  25.592  29.620  1.00  0.00     0.189 HD
HETATM   16  O3  UNL     1      38.423  27.692  27.916  1.00  0.00    -0.267 OA
BRANCH  14  17
HETATM   17  S2  UNL     1      41.210  27.516  27.716  1.00  0.00    -0.075 SA
BRANCH  17  18
HETATM   18  C6  UNL     1      41.322  29.243  27.176  1.00  0.00     0.186 C 
BRANCH  18  19
HETATM   19  C7  UNL     1      42.669  29.804  27.406  1.00  0.00     0.233 C 
HETATM   20  O2  UNL     1      43.035  30.024  28.583  1.00  0.00    -0.272 OA
HETATM   21  N4  UNL     1      43.561  30.102  26.349  1.00  0.00    -0.303 N 
ATOM     22  H4  UNL     1      43.243  29.913  25.398  1.00  0.00     0.171 HD
BRANCH  21  23
HETATM   23  C8  UNL     1      44.862  30.640  26.505  1.00  0.00     0.174 C 
HETATM   24  S3  UNL     1      46.120  29.675  26.118  1.00  0.00    -0.041 SA
BRANCH  23  25
HETATM   25  N5  UNL     1      45.041  31.969  26.982  1.00  0.00    -0.362 N 
ATOM     26  H5  UNL     1      45.107  32.109  27.990  1.00  0.00     0.162 HD
BRANCH  25  27
HETATM   27  C9  UNL     1      45.135  33.117  26.140  1.00  0.00     0.083 C 
HETATM   28  C10 UNL     1      46.589  33.377  25.799  1.00  0.00     0.025 C 
HETATM   29  C11 UNL     1      47.378  33.712  27.046  1.00  0.00     0.002 C 
HETATM   30  C12 UNL     1      46.780  34.848  27.829  1.00  0.00     0.000 C 
HETATM   31  C13 UNL     1      45.305  34.537  28.115  1.00  0.00     0.002 C 
HETATM   32  C14 UNL     1      44.635  34.393  26.782  1.00  0.00     0.025 C 
ENDBRANCH  25  27
ENDBRANCH  23  25
ENDBRANCH  21  23
ENDBRANCH  18  19
ENDBRANCH  17  18
ENDBRANCH  14  17
ENDBRANCH   6  10
ENDBRANCH   3   4
TORSDOF 8
ENDMDL
MODEL 5
REMARK VINA RESULT: -8.466540985      2.125      2.224
REMARK  8 active torsions:
REMARK  status: ('A' for Active; 'I' for Inactive)
REMARK    1  A    between atoms: O1_3  and  C2_4 
REMARK    2  A    between atoms: C3_6  and  C4_7 
REMARK    3  A    between atoms: C5_12  and  S2_13 
REMARK    4  A    between atoms: S2_13  and  C6_14 
REMARK    5  A    between atoms: C6_14  and  C7_15 
REMARK       I    between atoms: C7_15  and  N4_17 
REMARK    6  A    between atoms: N4_17  and  C8_19 
REMARK    7  A    between atoms: C8_19  and  N5_21 
REMARK    8  A    between atoms: N5_21  and  C9_23 
ROOT
HETATM    1  N1  UNL     1      30.691  27.370  28.940  1.00  0.00    -0.164 NA
HETATM    2  C1  UNL     1      31.516  26.592  29.184  1.00  0.00     0.234 C 
HETATM    3  O1  UNL     1      32.510  25.681  29.461  1.00  0.00    -0.231 OA
ENDROOT
BRANCH   3   4
HETATM    4  C2  UNL     1      33.757  25.936  28.847  1.00  0.00     0.152 A 
HETATM    5  S1  UNL     1      34.610  27.409  28.723  1.00  0.00    -0.058 SA
HETATM    6  C3  UNL     1      35.975  26.867  27.864  1.00  0.00     0.062 A 
HETATM    7  C15 UNL     1      35.722  25.532  27.696  1.00  0.00     0.050 A 
HETATM    8  C16 UNL     1      34.580  25.052  28.202  1.00  0.00     0.077 A 
HETATM    9 CL1  UNL     1      34.094  23.336  28.073  1.00  0.00    -0.081 Cl
BRANCH   6  10
HETATM   10  C4  UNL     1      37.145  27.642  27.410  1.00  0.00     0.182 A 
HETATM   11  N2  UNL     1      37.036  28.836  26.806  1.00  0.00    -0.276 N 
HETATM   12  N3  UNL     1      38.259  29.223  26.547  1.00  0.00    -0.272 N 
ATOM     13  H2  UNL     1      36.174  29.340  26.592  1.00  0.00     0.189 HD
HETATM   14  C5  UNL     1      39.129  28.303  26.973  1.00  0.00     0.204 A 
ATOM     15  H3  UNL     1      38.512  30.098  26.087  1.00  0.00     0.189 HD
HETATM   16  O3  UNL     1      38.403  27.339  27.501  1.00  0.00    -0.267 OA
BRANCH  14  17
HETATM   17  S2  UNL     1      40.887  28.435  26.818  1.00  0.00    -0.075 SA
BRANCH  17  18
HETATM   18  C6  UNL     1      41.597  29.213  28.293  1.00  0.00     0.186 C 
BRANCH  18  19
HETATM   19  C7  UNL     1      42.829  29.966  27.978  1.00  0.00     0.233 C 
HETATM   20  O2  UNL     1      43.512  30.423  28.924  1.00  0.00    -0.272 OA
HETATM   21  N4  UNL     1      43.267  30.190  26.652  1.00  0.00    -0.303 N 
ATOM     22  H4  UNL     1      42.696  29.808  25.897  1.00  0.00     0.171 HD
BRANCH  21  23
HETATM   23  C8  UNL     1      44.436  30.902  26.287  1.00  0.00     0.174 C 
HETATM   24  S3  UNL     1      45.449  30.182  25.229  1.00  0.00    -0.041 SA
BRANCH  23  25
HETATM   25  N5  UNL     1      44.697  32.190  26.832  1.00  0.00    -0.362 N 
ATOM     26  H5  UNL     1      44.740  32.279  27.848  1.00  0.00     0.162 HD
BRANCH  25  27
HETATM   27  C9  UNL     1      44.903  33.365  26.050  1.00  0.00     0.083 C 
HETATM   28  C10 UNL     1      46.336  33.403  25.559  1.00  0.00     0.025 C 
HETATM   29  C11 UNL     1      47.297  33.506  26.723  1.00  0.00     0.002 C 
HETATM   30  C12 UNL     1      46.992  34.665  27.632  1.00  0.00     0.000 C 
HETATM   31  C13 UNL     1      45.523  34.586  28.068  1.00  0.00     0.002 C 
HETATM   32  C14 UNL     1      44.703  34.657  26.816  1.00  0.00     0.025 C 
ENDBRANCH  25  27
ENDBRANCH  23  25
ENDBRANCH  21  23
ENDBRANCH  18  19
ENDBRANCH  17  18
ENDBRANCH  14  17
ENDBRANCH   6  10
ENDBRANCH   3   4
TORSDOF 8
ENDMDL
