MODEL 1
REMARK VINA RESULT: -9.803950856      0.000      0.000
REMARK  9 active torsions:
REMARK  status: ('A' for Active; 'I' for Inactive)
REMARK    1  A    between atoms: C1_2  and  C2_3 
REMARK    2  A    between atoms: C1_2  and  O5_26 
REMARK    3  A    between atoms: C2_3  and  S1_4 
REMARK    4  A    between atoms: S1_4  and  C3_5 
REMARK    5  A    between atoms: C4_10  and  C5_11 
REMARK    6  A    between atoms: C5_11  and  N3_12 
REMARK    7  A    between atoms: C6_13  and  O2_14 
REMARK    8  A    between atoms: C9_18  and  O3_19 
REMARK    9  A    between atoms: O5_26  and  C14_27 
ROOT
HETATM    1  C3  UNL     1      42.129  26.452  27.343  1.00  0.00     0.203 A 
HETATM    2  N1  UNL     1      41.834  25.199  27.678  1.00  0.00    -0.272 N 
ATOM      3  H1  UNL     1      42.403  24.601  28.278  1.00  0.00     0.189 HD
HETATM    4  N2  UNL     1      40.680  24.844  27.109  1.00  0.00    -0.279 N 
ATOM      5  H2  UNL     1      40.209  23.943  27.189  1.00  0.00     0.189 HD
HETATM    6  C4  UNL     1      40.272  25.901  26.416  1.00  0.00     0.159 A 
HETATM    7  O4  UNL     1      41.155  26.872  26.564  1.00  0.00    -0.270 OA
ENDROOT
BRANCH   1   8
HETATM    8  S1  UNL     1      43.537  27.489  27.785  1.00  0.00    -0.075 SA
BRANCH   8   9
HETATM    9  C2  UNL     1      43.459  29.057  26.848  1.00  0.00     0.194 C 
BRANCH   9  10
HETATM   10  C1  UNL     1      42.785  30.038  27.730  1.00  0.00     0.269 C 
HETATM   11  O1  UNL     1      41.805  29.763  28.444  1.00  0.00    -0.264 OA
BRANCH  10  12
HETATM   12  O5  UNL     1      43.297  31.322  27.750  1.00  0.00    -0.315 OA
BRANCH  12  13
HETATM   13  C14 UNL     1      44.167  31.859  28.717  1.00  0.00     0.132 C 
HETATM   14  C15 UNL     1      44.075  33.396  28.752  1.00  0.00     0.037 C 
HETATM   15  C16 UNL     1      44.592  33.777  27.385  1.00  0.00    -0.005 C 
HETATM   16  C17 UNL     1      45.360  35.064  27.389  1.00  0.00     0.005 C 
HETATM   17  C21 UNL     1      45.388  32.598  26.881  1.00  0.00     0.026 C 
HETATM   18  C18 UNL     1      46.774  34.852  27.846  1.00  0.00     0.003 C 
HETATM   19  C19 UNL     1      47.533  33.918  26.942  1.00  0.00     0.037 C 
HETATM   20  C20 UNL     1      46.661  32.963  26.188  1.00  0.00     0.174 C 
HETATM   21  F1  UNL     1      46.284  33.525  24.959  1.00  0.00    -0.249 F 
HETATM   22  C22 UNL     1      45.575  31.729  28.107  1.00  0.00     0.040 C 
ENDBRANCH  12  13
ENDBRANCH  10  12
ENDBRANCH   9  10
ENDBRANCH   8   9
ENDBRANCH   1   8
BRANCH   6  23
HETATM   23  C5  UNL     1      39.032  26.016  25.598  1.00  0.00     0.219 C 
BRANCH  23  24
HETATM   24  N3  UNL     1      37.944  26.563  26.373  1.00  0.00    -0.300 N 
HETATM   25  C6  UNL     1      36.899  25.940  26.886  1.00  0.00     0.151 A 
HETATM   26  C7  UNL     1      36.040  26.818  27.506  1.00  0.00     0.004 A 
HETATM   27  C8  UNL     1      36.623  28.076  27.348  1.00  0.00     0.004 A 
HETATM   28  C13 UNL     1      34.777  26.584  28.223  1.00  0.00     0.044 C 
HETATM   29  C9  UNL     1      37.778  27.872  26.657  1.00  0.00     0.151 A 
HETATM   30  C10 UNL     1      35.891  29.270  27.898  1.00  0.00     0.044 C 
HETATM   31  C11 UNL     1      34.411  28.940  27.611  1.00  0.00     0.005 C 
HETATM   32  C12 UNL     1      34.058  27.846  28.594  1.00  0.00     0.005 C 
BRANCH  25  33
HETATM   33  O2  UNL     1      36.740  24.542  26.779  1.00  0.00    -0.345 OA
ATOM     34  H2  UNL     1      35.890  24.126  26.874  1.00  0.00     0.219 HD
ENDBRANCH  25  33
BRANCH  29  35
HETATM   35  O3  UNL     1      38.692  28.856  26.271  1.00  0.00    -0.345 OA
ATOM     36  H3  UNL     1      38.429  29.728  26.002  1.00  0.00     0.219 HD
ENDBRANCH  29  35
ENDBRANCH  23  24
ENDBRANCH   6  23
TORSDOF 9
ENDMDL
MODEL 2
REMARK VINA RESULT: -9.722638582      1.485      2.175
REMARK  9 active torsions:
REMARK  status: ('A' for Active; 'I' for Inactive)
REMARK    1  A    between atoms: C1_2  and  C2_3 
REMARK    2  A    between atoms: C1_2  and  O5_26 
REMARK    3  A    between atoms: C2_3  and  S1_4 
REMARK    4  A    between atoms: S1_4  and  C3_5 
REMARK    5  A    between atoms: C4_10  and  C5_11 
REMARK    6  A    between atoms: C5_11  and  N3_12 
REMARK    7  A    between atoms: C6_13  and  O2_14 
REMARK    8  A    between atoms: C9_18  and  O3_19 
REMARK    9  A    between atoms: O5_26  and  C14_27 
ROOT
HETATM    1  C3  UNL     1      40.598  27.550  26.554  1.00  0.00     0.203 A 
HETATM    2  N1  UNL     1      39.868  26.770  25.762  1.00  0.00    -0.272 N 
ATOM      3  H1  UNL     1      40.217  25.956  25.254  1.00  0.00     0.189 HD
HETATM    4  N2  UNL     1      38.610  27.214  25.734  1.00  0.00    -0.279 N 
ATOM      5  H2  UNL     1      37.829  26.814  25.213  1.00  0.00     0.189 HD
HETATM    6  C4  UNL     1      38.579  28.282  26.522  1.00  0.00     0.159 A 
HETATM    7  O4  UNL     1      39.788  28.479  27.016  1.00  0.00    -0.270 OA
ENDROOT
BRANCH   1   8
HETATM    8  S1  UNL     1      42.346  27.476  26.994  1.00  0.00    -0.075 SA
BRANCH   8   9
HETATM    9  C2  UNL     1      43.115  29.111  26.717  1.00  0.00     0.194 C 
BRANCH   9  10
HETATM   10  C1  UNL     1      42.826  29.920  27.924  1.00  0.00     0.269 C 
HETATM   11  O1  UNL     1      42.236  29.477  28.925  1.00  0.00    -0.264 OA
BRANCH  10  12
HETATM   12  O5  UNL     1      43.255  31.234  27.919  1.00  0.00    -0.315 OA
BRANCH  12  13
HETATM   13  C14 UNL     1      44.150  31.824  28.832  1.00  0.00     0.132 C 
HETATM   14  C15 UNL     1      44.056  33.360  28.785  1.00  0.00     0.037 C 
HETATM   15  C16 UNL     1      44.535  33.666  27.386  1.00  0.00    -0.005 C 
HETATM   16  C17 UNL     1      45.300  34.952  27.298  1.00  0.00     0.005 C 
HETATM   17  C21 UNL     1      45.321  32.462  26.926  1.00  0.00     0.026 C 
HETATM   18  C18 UNL     1      46.726  34.766  27.728  1.00  0.00     0.003 C 
HETATM   19  C19 UNL     1      47.463  33.784  26.857  1.00  0.00     0.037 C 
HETATM   20  C20 UNL     1      46.574  32.789  26.181  1.00  0.00     0.174 C 
HETATM   21  F1  UNL     1      46.163  33.282  24.933  1.00  0.00    -0.249 F 
HETATM   22  C22 UNL     1      45.541  31.662  28.193  1.00  0.00     0.040 C 
ENDBRANCH  12  13
ENDBRANCH  10  12
ENDBRANCH   9  10
ENDBRANCH   8   9
ENDBRANCH   1   8
BRANCH   6  23
HETATM   23  C5  UNL     1      37.402  29.142  26.827  1.00  0.00     0.219 C 
BRANCH  23  24
HETATM   24  N3  UNL     1      36.434  28.436  27.631  1.00  0.00    -0.300 N 
HETATM   25  C6  UNL     1      36.631  27.449  28.486  1.00  0.00     0.151 A 
HETATM   26  C7  UNL     1      35.446  26.990  29.012  1.00  0.00     0.004 A 
HETATM   27  C8  UNL     1      34.453  27.772  28.418  1.00  0.00     0.004 A 
HETATM   28  C13 UNL     1      35.176  25.935  30.001  1.00  0.00     0.044 C 
HETATM   29  C9  UNL     1      35.100  28.637  27.590  1.00  0.00     0.151 A 
HETATM   30  C10 UNL     1      33.019  27.483  28.771  1.00  0.00     0.044 C 
HETATM   31  C11 UNL     1      32.984  25.943  28.879  1.00  0.00     0.005 C 
HETATM   32  C12 UNL     1      33.717  25.627  30.164  1.00  0.00     0.005 C 
BRANCH  25  33
HETATM   33  O2  UNL     1      37.924  26.967  28.782  1.00  0.00    -0.345 OA
ATOM     34  H2  UNL     1      38.060  26.170  29.280  1.00  0.00     0.219 HD
ENDBRANCH  25  33
BRANCH  29  35
HETATM   35  O3  UNL     1      34.502  29.611  26.787  1.00  0.00    -0.345 OA
ATOM     36  H3  UNL     1      33.722  30.088  27.048  1.00  0.00     0.219 HD
ENDBRANCH  29  35
ENDBRANCH  23  24
ENDBRANCH   6  23
TORSDOF 9
ENDMDL
MODEL 3
REMARK VINA RESULT: -9.720117432      0.964      1.105
REMARK  9 active torsions:
REMARK  status: ('A' for Active; 'I' for Inactive)
REMARK    1  A    between atoms: C1_2  and  C2_3 
REMARK    2  A    between atoms: C1_2  and  O5_26 
REMARK    3  A    between atoms: C2_3  and  S1_4 
REMARK    4  A    between atoms: S1_4  and  C3_5 
REMARK    5  A    between atoms: C4_10  and  C5_11 
REMARK    6  A    between atoms: C5_11  and  N3_12 
REMARK    7  A    between atoms: C6_13  and  O2_14 
REMARK    8  A    between atoms: C9_18  and  O3_19 
REMARK    9  A    between atoms: O5_26  and  C14_27 
ROOT
HETATM    1  C3  UNL     1      41.237  26.661  27.939  1.00  0.00     0.203 A 
HETATM    2  N1  UNL     1      40.549  25.833  28.720  1.00  0.00    -0.272 N 
ATOM      3  H1  UNL     1      40.915  25.365  29.549  1.00  0.00     0.189 HD
HETATM    4  N2  UNL     1      39.305  25.708  28.250  1.00  0.00    -0.279 N 
ATOM      5  H2  UNL     1      38.555  25.139  28.644  1.00  0.00     0.189 HD
HETATM    6  C4  UNL     1      39.243  26.473  27.167  1.00  0.00     0.159 A 
HETATM    7  O4  UNL     1      40.417  27.048  26.986  1.00  0.00    -0.270 OA
ENDROOT
BRANCH   1   8
HETATM    8  S1  UNL     1      42.948  27.225  28.041  1.00  0.00    -0.075 SA
BRANCH   8   9
HETATM    9  C2  UNL     1      43.208  28.599  26.864  1.00  0.00     0.194 C 
BRANCH   9  10
HETATM   10  C1  UNL     1      42.859  29.844  27.588  1.00  0.00     0.269 C 
HETATM   11  O1  UNL     1      41.843  29.967  28.294  1.00  0.00    -0.264 OA
BRANCH  10  12
HETATM   12  O5  UNL     1      43.731  30.909  27.466  1.00  0.00    -0.315 OA
BRANCH  12  13
HETATM   13  C14 UNL     1      44.520  31.465  28.491  1.00  0.00     0.132 C 
HETATM   14  C15 UNL     1      44.257  32.975  28.634  1.00  0.00     0.037 C 
HETATM   15  C16 UNL     1      44.750  33.512  27.311  1.00  0.00    -0.005 C 
HETATM   16  C17 UNL     1      45.370  34.871  27.427  1.00  0.00     0.005 C 
HETATM   17  C21 UNL     1      45.682  32.469  26.743  1.00  0.00     0.026 C 
HETATM   18  C18 UNL     1      46.791  34.783  27.902  1.00  0.00     0.003 C 
HETATM   19  C19 UNL     1      47.665  34.007  26.953  1.00  0.00     0.037 C 
HETATM   20  C20 UNL     1      46.918  33.022  26.111  1.00  0.00     0.174 C 
HETATM   21  F1  UNL     1      46.502  33.628  24.916  1.00  0.00    -0.249 F 
HETATM   22  C22 UNL     1      45.943  31.536  27.908  1.00  0.00     0.040 C 
ENDBRANCH  12  13
ENDBRANCH  10  12
ENDBRANCH   9  10
ENDBRANCH   8   9
ENDBRANCH   1   8
BRANCH   6  23
HETATM   23  C5  UNL     1      38.065  26.679  26.278  1.00  0.00     0.219 C 
BRANCH  23  24
HETATM   24  N3  UNL     1      36.880  26.982  27.043  1.00  0.00    -0.300 N 
HETATM   25  C6  UNL     1      36.038  26.149  27.628  1.00  0.00     0.151 A 
HETATM   26  C7  UNL     1      34.986  26.818  28.209  1.00  0.00     0.004 A 
HETATM   27  C8  UNL     1      35.219  28.169  27.947  1.00  0.00     0.004 A 
HETATM   28  C13 UNL     1      33.835  26.319  28.977  1.00  0.00     0.044 C 
HETATM   29  C9  UNL     1      36.380  28.220  27.238  1.00  0.00     0.151 A 
HETATM   30  C10 UNL     1      34.206  29.170  28.433  1.00  0.00     0.044 C 
HETATM   31  C11 UNL     1      32.860  28.447  28.212  1.00  0.00     0.005 C 
HETATM   32  C12 UNL     1      32.814  27.376  29.279  1.00  0.00     0.005 C 
BRANCH  25  33
HETATM   33  O2  UNL     1      36.248  24.753  27.625  1.00  0.00    -0.345 OA
ATOM     34  H2  UNL     1      36.374  24.268  26.817  1.00  0.00     0.219 HD
ENDBRANCH  25  33
BRANCH  29  35
HETATM   35  O3  UNL     1      37.002  29.375  26.758  1.00  0.00    -0.345 OA
ATOM     36  H3  UNL     1      36.830  30.240  27.112  1.00  0.00     0.219 HD
ENDBRANCH  29  35
ENDBRANCH  23  24
ENDBRANCH   6  23
TORSDOF 9
ENDMDL
MODEL 4
REMARK VINA RESULT: -9.709029489      3.424      9.044
REMARK  9 active torsions:
REMARK  status: ('A' for Active; 'I' for Inactive)
REMARK    1  A    between atoms: C1_2  and  C2_3 
REMARK    2  A    between atoms: C1_2  and  O5_26 
REMARK    3  A    between atoms: C2_3  and  S1_4 
REMARK    4  A    between atoms: S1_4  and  C3_5 
REMARK    5  A    between atoms: C4_10  and  C5_11 
REMARK    6  A    between atoms: C5_11  and  N3_12 
REMARK    7  A    between atoms: C6_13  and  O2_14 
REMARK    8  A    between atoms: C9_18  and  O3_19 
REMARK    9  A    between atoms: O5_26  and  C14_27 
ROOT
HETATM    1  C3  UNL     1      44.014  27.773  26.173  1.00  0.00     0.203 A 
HETATM    2  N1  UNL     1      43.751  27.308  24.956  1.00  0.00    -0.272 N 
ATOM      3  H1  UNL     1      43.108  26.546  24.743  1.00  0.00     0.189 HD
HETATM    4  N2  UNL     1      44.459  27.992  24.054  1.00  0.00    -0.279 N 
ATOM      5  H2  UNL     1      44.460  27.856  23.043  1.00  0.00     0.189 HD
HETATM    6  C4  UNL     1      45.163  28.886  24.741  1.00  0.00     0.159 A 
HETATM    7  O4  UNL     1      44.887  28.747  26.024  1.00  0.00    -0.270 OA
ENDROOT
BRANCH   1   8
HETATM    8  S1  UNL     1      43.384  27.270  27.787  1.00  0.00    -0.075 SA
BRANCH   8   9
HETATM    9  C2  UNL     1      42.880  28.749  28.734  1.00  0.00     0.194 C 
BRANCH   9  10
HETATM   10  C1  UNL     1      41.968  29.519  27.856  1.00  0.00     0.269 C 
HETATM   11  O1  UNL     1      42.336  30.476  27.152  1.00  0.00    -0.264 OA
BRANCH  10  12
HETATM   12  O5  UNL     1      40.643  29.127  27.826  1.00  0.00    -0.315 OA
BRANCH  12  13
HETATM   13  C14 UNL     1      39.947  28.617  26.714  1.00  0.00     0.132 C 
HETATM   14  C15 UNL     1      38.507  29.159  26.665  1.00  0.00     0.037 C 
HETATM   15  C16 UNL     1      37.901  28.567  27.916  1.00  0.00    -0.005 C 
HETATM   16  C17 UNL     1      36.452  28.220  27.755  1.00  0.00     0.005 C 
HETATM   17  C21 UNL     1      38.766  27.391  28.299  1.00  0.00     0.026 C 
HETATM   18  C18 UNL     1      36.283  26.897  27.067  1.00  0.00     0.003 C 
HETATM   19  C19 UNL     1      36.897  25.764  27.845  1.00  0.00     0.037 C 
HETATM   20  C20 UNL     1      38.007  26.188  28.755  1.00  0.00     0.174 C 
HETATM   21  F1  UNL     1      37.493  26.512  30.020  1.00  0.00    -0.249 F 
HETATM   22  C22 UNL     1      39.628  27.155  27.075  1.00  0.00     0.040 C 
ENDBRANCH  12  13
ENDBRANCH  10  12
ENDBRANCH   9  10
ENDBRANCH   8   9
ENDBRANCH   1   8
BRANCH   6  23
HETATM   23  C5  UNL     1      46.114  29.894  24.194  1.00  0.00     0.219 C 
BRANCH  23  24
HETATM   24  N3  UNL     1      46.027  31.139  24.918  1.00  0.00    -0.300 N 
HETATM   25  C6  UNL     1      46.777  31.569  25.916  1.00  0.00     0.151 A 
HETATM   26  C7  UNL     1      46.341  32.785  26.389  1.00  0.00     0.004 A 
HETATM   27  C8  UNL     1      45.233  33.109  25.605  1.00  0.00     0.004 A 
HETATM   28  C13 UNL     1      46.867  33.645  27.461  1.00  0.00     0.044 C 
HETATM   29  C9  UNL     1      45.082  32.082  24.725  1.00  0.00     0.151 A 
HETATM   30  C10 UNL     1      44.501  34.389  25.908  1.00  0.00     0.044 C 
HETATM   31  C11 UNL     1      44.546  34.466  27.450  1.00  0.00     0.005 C 
HETATM   32  C12 UNL     1      45.981  34.812  27.780  1.00  0.00     0.005 C 
BRANCH  25  33
HETATM   33  O2  UNL     1      47.878  30.827  26.394  1.00  0.00    -0.345 OA
ATOM     34  H2  UNL     1      48.607  30.594  25.830  1.00  0.00     0.219 HD
ENDBRANCH  25  33
BRANCH  29  35
HETATM   35  O3  UNL     1      44.094  31.979  23.743  1.00  0.00    -0.345 OA
ATOM     36  H3  UNL     1      43.193  32.245  23.885  1.00  0.00     0.219 HD
ENDBRANCH  29  35
ENDBRANCH  23  24
ENDBRANCH   6  23
TORSDOF 9
ENDMDL
MODEL 5
REMARK VINA RESULT: -9.684805957      0.812      1.848
REMARK  9 active torsions:
REMARK  status: ('A' for Active; 'I' for Inactive)
REMARK    1  A    between atoms: C1_2  and  C2_3 
REMARK    2  A    between atoms: C1_2  and  O5_26 
REMARK    3  A    between atoms: C2_3  and  S1_4 
REMARK    4  A    between atoms: S1_4  and  C3_5 
REMARK    5  A    between atoms: C4_10  and  C5_11 
REMARK    6  A    between atoms: C5_11  and  N3_12 
REMARK    7  A    between atoms: C6_13  and  O2_14 
REMARK    8  A    between atoms: C9_18  and  O3_19 
REMARK    9  A    between atoms: O5_26  and  C14_27 
ROOT
HETATM    1  C3  UNL     1      41.627  26.655  27.678  1.00  0.00     0.203 A 
HETATM    2  N1  UNL     1      41.035  25.673  28.352  1.00  0.00    -0.272 N 
ATOM      3  H1  UNL     1      41.441  25.174  29.144  1.00  0.00     0.189 HD
HETATM    4  N2  UNL     1      39.828  25.439  27.832  1.00  0.00    -0.279 N 
ATOM      5  H2  UNL     1      39.150  24.744  28.144  1.00  0.00     0.189 HD
HETATM    6  C4  UNL     1      39.690  26.295  26.825  1.00  0.00     0.159 A 
HETATM    7  O4  UNL     1      40.784  27.029  26.740  1.00  0.00    -0.270 OA
ENDROOT
BRANCH   1   8
HETATM    8  S1  UNL     1      43.248  27.418  27.891  1.00  0.00    -0.075 SA
BRANCH   8   9
HETATM    9  C2  UNL     1      43.326  28.965  26.922  1.00  0.00     0.194 C 
BRANCH   9  10
HETATM   10  C1  UNL     1      42.711  30.019  27.763  1.00  0.00     0.269 C 
HETATM   11  O1  UNL     1      41.716  29.830  28.484  1.00  0.00    -0.264 OA
BRANCH  10  12
HETATM   12  O5  UNL     1      43.300  31.269  27.737  1.00  0.00    -0.315 OA
BRANCH  12  13
HETATM   13  C14 UNL     1      44.184  31.797  28.697  1.00  0.00     0.132 C 
HETATM   14  C15 UNL     1      44.100  33.333  28.740  1.00  0.00     0.037 C 
HETATM   15  C16 UNL     1      44.603  33.719  27.369  1.00  0.00    -0.005 C 
HETATM   16  C17 UNL     1      45.378  35.001  27.371  1.00  0.00     0.005 C 
HETATM   17  C21 UNL     1      45.388  32.539  26.850  1.00  0.00     0.026 C 
HETATM   18  C18 UNL     1      46.796  34.780  27.810  1.00  0.00     0.003 C 
HETATM   19  C19 UNL     1      47.541  33.846  26.893  1.00  0.00     0.037 C 
HETATM   20  C20 UNL     1      46.655  32.900  26.145  1.00  0.00     0.174 C 
HETATM   21  F1  UNL     1      46.268  33.470  24.923  1.00  0.00    -0.249 F 
HETATM   22  C22 UNL     1      45.583  31.663  28.071  1.00  0.00     0.040 C 
ENDBRANCH  12  13
ENDBRANCH  10  12
ENDBRANCH   9  10
ENDBRANCH   8   9
ENDBRANCH   1   8
BRANCH   6  23
HETATM   23  C5  UNL     1      38.514  26.438  25.922  1.00  0.00     0.219 C 
BRANCH  23  24
HETATM   24  N3  UNL     1      37.278  26.419  26.665  1.00  0.00    -0.300 N 
HETATM   25  C6  UNL     1      36.596  27.435  27.161  1.00  0.00     0.151 A 
HETATM   26  C7  UNL     1      35.496  27.010  27.869  1.00  0.00     0.004 A 
HETATM   27  C8  UNL     1      35.524  25.617  27.790  1.00  0.00     0.004 A 
HETATM   28  C13 UNL     1      34.450  27.770  28.570  1.00  0.00     0.044 C 
HETATM   29  C9  UNL     1      36.622  25.304  27.048  1.00  0.00     0.151 A 
HETATM   30  C10 UNL     1      34.450  24.845  28.507  1.00  0.00     0.044 C 
HETATM   31  C11 UNL     1      34.244  25.652  29.808  1.00  0.00     0.005 C 
HETATM   32  C12 UNL     1      33.522  26.909  29.375  1.00  0.00     0.005 C 
BRANCH  25  33
HETATM   33  O2  UNL     1      36.997  28.773  26.955  1.00  0.00    -0.345 OA
ATOM     34  H2  UNL     1      36.595  29.320  26.290  1.00  0.00     0.219 HD
ENDBRANCH  25  33
BRANCH  29  35
HETATM   35  O3  UNL     1      37.047  24.017  26.709  1.00  0.00    -0.345 OA
ATOM     36  H3  UNL     1      36.532  23.239  26.887  1.00  0.00     0.219 HD
ENDBRANCH  29  35
ENDBRANCH  23  24
ENDBRANCH   6  23
TORSDOF 9
ENDMDL
