MODEL 1
REMARK VINA RESULT: -6.257543513      0.000      0.000
REMARK  5 active torsions:
REMARK  status: ('A' for Active; 'I' for Inactive)
REMARK    1  A    between atoms: O1_2  and  C2_3 
REMARK    2  A    between atoms: C4_5  and  C5_6 
REMARK    3  A    between atoms: C5_6  and  N1_7 
REMARK    4  A    between atoms: C9_14  and  N3_15 
REMARK    5  A    between atoms: C11_20  and  C12_21 
ROOT
HETATM    1  N1  UNL     1      15.680   2.683  15.883  1.00  0.00    -0.357 N 
HETATM    2  C6  UNL     1      15.021   2.327  17.069  1.00  0.00     0.144 C 
HETATM    3  C7  UNL     1      14.233   1.015  16.917  1.00  0.00     0.142 C 
HETATM    4  N2  UNL     1      15.248  -0.001  16.716  1.00  0.00    -0.356 N 
ATOM      5  H2  UNL     1      15.091  -0.965  17.008  1.00  0.00     0.162 HD
HETATM    6  C8  UNL     1      16.467   0.388  16.101  1.00  0.00     0.268 C 
HETATM    7  O2  UNL     1      17.411  -0.437  16.084  1.00  0.00    -0.269 OA
HETATM    8  C9  UNL     1      16.691   1.716  15.475  1.00  0.00     0.376 C 
ENDROOT
BRANCH   1   9
HETATM    9  C5  UNL     1      15.028   3.317  14.826  1.00  0.00     0.065 C 
BRANCH   9  10
HETATM   10  C4  UNL     1      15.462   4.660  14.365  1.00  0.00     0.027 C 
HETATM   11  C3  UNL     1      16.570   5.193  15.305  1.00  0.00     0.042 C 
HETATM   12  C2  UNL     1      17.676   5.624  14.370  1.00  0.00     0.131 C 
HETATM   13  C11 UNL     1      16.882   6.054  13.169  1.00  0.00     0.080 C 
HETATM   14  C10 UNL     1      16.027   4.778  12.998  1.00  0.00     0.022 C 
BRANCH  12  15
HETATM   15  O1  UNL     1      18.436   4.494  14.106  1.00  0.00    -0.390 OA
HETATM   16  C1  UNL     1      19.801   4.755  14.128  1.00  0.00     0.202 C 
ENDBRANCH  12  15
BRANCH  13  17
HETATM   17  C12 UNL     1      17.682   6.330  11.944  1.00  0.00     0.359 C 
HETATM   18  F1  UNL     1      17.779   5.290  11.080  1.00  0.00    -0.214 F 
HETATM   19  F2  UNL     1      17.132   7.438  11.326  1.00  0.00    -0.214 F 
ENDBRANCH  13  17
ENDBRANCH   9  10
ENDBRANCH   1   9
BRANCH   8  20
HETATM   20  N3  UNL     1      18.004   2.173  15.883  1.00  0.00    -0.049 N 
ATOM     21  H33 UNL     1      18.040   2.396  16.878  1.00  0.00     0.277 HD
ATOM     22  H32 UNL     1      18.690   1.419  15.875  1.00  0.00     0.277 HD
ATOM     23  H31 UNL     1      18.293   2.961  15.304  1.00  0.00     0.277 HD
ENDBRANCH   8  20
TORSDOF 5
ENDMDL
MODEL 2
REMARK VINA RESULT: -6.191498322      2.103      2.840
REMARK  5 active torsions:
REMARK  status: ('A' for Active; 'I' for Inactive)
REMARK    1  A    between atoms: O1_2  and  C2_3 
REMARK    2  A    between atoms: C4_5  and  C5_6 
REMARK    3  A    between atoms: C5_6  and  N1_7 
REMARK    4  A    between atoms: C9_14  and  N3_15 
REMARK    5  A    between atoms: C11_20  and  C12_21 
ROOT
HETATM    1  N1  UNL     1      16.521   2.420  14.629  1.00  0.00    -0.357 N 
HETATM    2  C6  UNL     1      16.149   1.632  13.529  1.00  0.00     0.144 C 
HETATM    3  C7  UNL     1      17.115   0.454  13.314  1.00  0.00     0.142 C 
HETATM    4  N2  UNL     1      16.928  -0.389  14.478  1.00  0.00    -0.356 N 
ATOM      5  H2  UNL     1      17.081  -1.396  14.426  1.00  0.00     0.162 HD
HETATM    6  C8  UNL     1      16.528   0.228  15.691  1.00  0.00     0.268 C 
HETATM    7  O2  UNL     1      16.195  -0.509  16.649  1.00  0.00    -0.269 OA
HETATM    8  C9  UNL     1      16.477   1.699  15.894  1.00  0.00     0.376 C 
ENDROOT
BRANCH   1   9
HETATM    9  C5  UNL     1      17.522   3.388  14.551  1.00  0.00     0.065 C 
BRANCH   9  10
HETATM   10  C4  UNL     1      17.253   4.708  13.925  1.00  0.00     0.027 C 
HETATM   11  C3  UNL     1      18.055   4.824  12.607  1.00  0.00     0.042 C 
HETATM   12  C2  UNL     1      17.031   5.259  11.585  1.00  0.00     0.131 C 
HETATM   13  C11 UNL     1      16.103   6.072  12.440  1.00  0.00     0.080 C 
HETATM   14  C10 UNL     1      15.853   5.029  13.553  1.00  0.00     0.022 C 
BRANCH  12  15
HETATM   15  O1  UNL     1      16.422   4.104  11.117  1.00  0.00    -0.390 OA
HETATM   16  C1  UNL     1      17.320   3.243  10.496  1.00  0.00     0.202 C 
ENDBRANCH  12  15
BRANCH  13  17
HETATM   17  C12 UNL     1      14.826   6.474  11.787  1.00  0.00     0.359 C 
HETATM   18  F1  UNL     1      13.729   6.387  12.578  1.00  0.00    -0.214 F 
HETATM   19  F2  UNL     1      14.989   7.760  11.306  1.00  0.00    -0.214 F 
ENDBRANCH  13  17
ENDBRANCH   9  10
ENDBRANCH   1   9
BRANCH   8  20
HETATM   20  N3  UNL     1      15.243   2.000  16.591  1.00  0.00    -0.049 N 
ATOM     21  H33 UNL     1      14.701   2.721  16.115  1.00  0.00     0.277 HD
ATOM     22  H32 UNL     1      14.570   1.237  16.522  1.00  0.00     0.277 HD
ATOM     23  H31 UNL     1      15.443   2.248  17.560  1.00  0.00     0.277 HD
ENDBRANCH   8  20
TORSDOF 5
ENDMDL
MODEL 3
REMARK VINA RESULT: -5.986189645      1.294      1.468
REMARK  5 active torsions:
REMARK  status: ('A' for Active; 'I' for Inactive)
REMARK    1  A    between atoms: O1_2  and  C2_3 
REMARK    2  A    between atoms: C4_5  and  C5_6 
REMARK    3  A    between atoms: C5_6  and  N1_7 
REMARK    4  A    between atoms: C9_14  and  N3_15 
REMARK    5  A    between atoms: C11_20  and  C12_21 
ROOT
HETATM    1  N1  UNL     1      16.703   2.481  14.884  1.00  0.00    -0.357 N 
HETATM    2  C6  UNL     1      17.229   1.986  16.088  1.00  0.00     0.144 C 
HETATM    3  C7  UNL     1      16.337   0.889  16.695  1.00  0.00     0.142 C 
HETATM    4  N2  UNL     1      16.417  -0.211  15.754  1.00  0.00    -0.356 N 
ATOM      5  H2  UNL     1      16.308  -1.176  16.064  1.00  0.00     0.162 HD
HETATM    6  C8  UNL     1      16.652   0.096  14.389  1.00  0.00     0.268 C 
HETATM    7  O2  UNL     1      16.898  -0.849  13.603  1.00  0.00    -0.269 OA
HETATM    8  C9  UNL     1      16.626   1.474  13.834  1.00  0.00     0.376 C 
ENDROOT
BRANCH   1   9
HETATM    9  C5  UNL     1      15.685   3.432  14.848  1.00  0.00     0.065 C 
BRANCH   9  10
HETATM   10  C4  UNL     1      15.935   4.791  14.305  1.00  0.00     0.027 C 
HETATM   11  C3  UNL     1      17.234   5.360  14.925  1.00  0.00     0.042 C 
HETATM   12  C2  UNL     1      18.039   5.832  13.737  1.00  0.00     0.131 C 
HETATM   13  C11 UNL     1      16.942   6.237  12.794  1.00  0.00     0.080 C 
HETATM   14  C10 UNL     1      16.115   4.933  12.839  1.00  0.00     0.022 C 
BRANCH  12  15
HETATM   15  O1  UNL     1      18.739   4.730  13.268  1.00  0.00    -0.390 OA
HETATM   16  C1  UNL     1      19.758   4.343  14.131  1.00  0.00     0.202 C 
ENDBRANCH  12  15
BRANCH  13  17
HETATM   17  C12 UNL     1      17.380   6.545  11.404  1.00  0.00     0.359 C 
HETATM   18  F1  UNL     1      17.212   5.535  10.516  1.00  0.00    -0.214 F 
HETATM   19  F2  UNL     1      16.706   7.681  10.995  1.00  0.00    -0.214 F 
ENDBRANCH  13  17
ENDBRANCH   9  10
ENDBRANCH   1   9
BRANCH   8  20
HETATM   20  N3  UNL     1      17.759   1.605  12.941  1.00  0.00    -0.049 N 
ATOM     21  H33 UNL     1      17.514   1.385  11.975  1.00  0.00     0.277 HD
ATOM     22  H32 UNL     1      18.030   2.579  12.807  1.00  0.00     0.277 HD
ATOM     23  H31 UNL     1      18.535   1.035  13.277  1.00  0.00     0.277 HD
ENDBRANCH   8  20
TORSDOF 5
ENDMDL
MODEL 4
REMARK VINA RESULT: -5.937168486      2.301      3.042
REMARK  5 active torsions:
REMARK  status: ('A' for Active; 'I' for Inactive)
REMARK    1  A    between atoms: O1_2  and  C2_3 
REMARK    2  A    between atoms: C4_5  and  C5_6 
REMARK    3  A    between atoms: C5_6  and  N1_7 
REMARK    4  A    between atoms: C9_14  and  N3_15 
REMARK    5  A    between atoms: C11_20  and  C12_21 
ROOT
HETATM    1  N1  UNL     1      16.454   1.580  14.995  1.00  0.00    -0.357 N 
HETATM    2  C6  UNL     1      16.206   2.546  15.982  1.00  0.00     0.144 C 
HETATM    3  C7  UNL     1      14.726   2.574  16.399  1.00  0.00     0.142 C 
HETATM    4  N2  UNL     1      14.503   1.294  17.042  1.00  0.00    -0.356 N 
ATOM      5  H2  UNL     1      13.798   1.188  17.772  1.00  0.00     0.162 HD
HETATM    6  C8  UNL     1      15.294   0.192  16.626  1.00  0.00     0.268 C 
HETATM    7  O2  UNL     1      15.233  -0.867  17.293  1.00  0.00    -0.269 OA
HETATM    8  C9  UNL     1      16.195   0.219  15.445  1.00  0.00     0.376 C 
ENDROOT
BRANCH   1   9
HETATM    9  C5  UNL     1      16.185   1.804  13.645  1.00  0.00     0.065 C 
BRANCH   9  10
HETATM   10  C4  UNL     1      17.281   2.126  12.697  1.00  0.00     0.027 C 
HETATM   11  C3  UNL     1      16.692   2.311  11.277  1.00  0.00     0.042 C 
HETATM   12  C2  UNL     1      17.259   3.631  10.809  1.00  0.00     0.131 C 
HETATM   13  C11 UNL     1      18.585   3.639  11.513  1.00  0.00     0.080 C 
HETATM   14  C10 UNL     1      18.080   3.351  12.945  1.00  0.00     0.022 C 
BRANCH  12  15
HETATM   15  O1  UNL     1      16.414   4.619  11.293  1.00  0.00    -0.390 OA
HETATM   16  C1  UNL     1      15.975   5.480  10.293  1.00  0.00     0.202 C 
ENDBRANCH  12  15
BRANCH  13  17
HETATM   17  C12 UNL     1      19.328   4.928  11.457  1.00  0.00     0.359 C 
HETATM   18  F1  UNL     1      19.056   5.788  12.469  1.00  0.00    -0.214 F 
HETATM   19  F2  UNL     1      20.678   4.631  11.409  1.00  0.00    -0.214 F 
ENDBRANCH  13  17
ENDBRANCH   9  10
ENDBRANCH   1   9
BRANCH   8  20
HETATM   20  N3  UNL     1      17.437  -0.419  15.830  1.00  0.00    -0.049 N 
ATOM     21  H33 UNL     1      18.252   0.127  15.547  1.00  0.00     0.277 HD
ATOM     22  H32 UNL     1      17.584  -0.392  16.839  1.00  0.00     0.277 HD
ATOM     23  H31 UNL     1      17.468  -1.370  15.463  1.00  0.00     0.277 HD
ENDBRANCH   8  20
TORSDOF 5
ENDMDL
MODEL 5
REMARK VINA RESULT: -5.923191257      1.492      1.917
REMARK  5 active torsions:
REMARK  status: ('A' for Active; 'I' for Inactive)
REMARK    1  A    between atoms: O1_2  and  C2_3 
REMARK    2  A    between atoms: C4_5  and  C5_6 
REMARK    3  A    between atoms: C5_6  and  N1_7 
REMARK    4  A    between atoms: C9_14  and  N3_15 
REMARK    5  A    between atoms: C11_20  and  C12_21 
ROOT
HETATM    1  N1  UNL     1      15.740   2.566  16.006  1.00  0.00    -0.357 N 
HETATM    2  C6  UNL     1      15.083   2.108  17.157  1.00  0.00     0.144 C 
HETATM    3  C7  UNL     1      14.358   0.774  16.912  1.00  0.00     0.142 C 
HETATM    4  N2  UNL     1      15.421  -0.180  16.665  1.00  0.00    -0.356 N 
ATOM      5  H2  UNL     1      15.304  -1.167  16.895  1.00  0.00     0.162 HD
HETATM    6  C8  UNL     1      16.628   0.299  16.093  1.00  0.00     0.268 C 
HETATM    7  O2  UNL     1      17.608  -0.479  16.040  1.00  0.00    -0.269 OA
HETATM    8  C9  UNL     1      16.799   1.673  15.554  1.00  0.00     0.376 C 
ENDROOT
BRANCH   1   9
HETATM    9  C5  UNL     1      15.073   3.235  14.980  1.00  0.00     0.065 C 
BRANCH   9  10
HETATM   10  C4  UNL     1      15.628   4.487  14.405  1.00  0.00     0.027 C 
HETATM   11  C3  UNL     1      16.958   4.172  13.679  1.00  0.00     0.042 C 
HETATM   12  C2  UNL     1      16.798   4.808  12.317  1.00  0.00     0.131 C 
HETATM   13  C11 UNL     1      15.920   5.980  12.651  1.00  0.00     0.080 C 
HETATM   14  C10 UNL     1      14.808   5.218  13.407  1.00  0.00     0.022 C 
BRANCH  12  15
HETATM   15  O1  UNL     1      16.140   3.881  11.522  1.00  0.00    -0.390 OA
HETATM   16  C1  UNL     1      16.892   2.731  11.313  1.00  0.00     0.202 C 
ENDBRANCH  12  15
BRANCH  13  17
HETATM   17  C12 UNL     1      15.365   6.712  11.479  1.00  0.00     0.359 C 
HETATM   18  F1  UNL     1      14.078   7.114  11.616  1.00  0.00    -0.214 F 
HETATM   19  F2  UNL     1      16.196   7.788  11.227  1.00  0.00    -0.214 F 
ENDBRANCH  13  17
ENDBRANCH   9  10
ENDBRANCH   1   9
BRANCH   8  20
HETATM   20  N3  UNL     1      18.084   2.162  16.010  1.00  0.00    -0.049 N 
ATOM     21  H33 UNL     1      18.779   1.416  16.069  1.00  0.00     0.277 HD
ATOM     22  H32 UNL     1      18.546   2.738  15.306  1.00  0.00     0.277 HD
ATOM     23  H31 UNL     1      17.975   2.654  16.896  1.00  0.00     0.277 HD
ENDBRANCH   8  20
TORSDOF 5
ENDMDL
