MODEL 1
REMARK VINA RESULT: -5.599259235      0.000      0.000
REMARK  3 active torsions:
REMARK  status: ('A' for Active; 'I' for Inactive)
REMARK    1  A    between atoms: C3_8  and  C4_9 
REMARK    2  A    between atoms: C4_9  and  N2_10 
REMARK    3  A    between atoms: N4_20  and  C11_21 
ROOT
HETATM    1  F1  UNL     1      18.166   8.312  12.081  1.00  0.00    -0.149 F 
HETATM    2  C1  UNL     1      17.334   7.725  11.145  1.00  0.00     0.615 C 
HETATM    3  F2  UNL     1      16.921   8.642  10.275  1.00  0.00    -0.149 F 
HETATM    4  N1  UNL     1      18.135   6.739  10.418  1.00  0.00     0.021 N 
ATOM      5  H11 UNL     1      19.046   7.081  10.112  1.00  0.00     0.286 HD
ATOM      6  H12 UNL     1      17.783   6.518   9.487  1.00  0.00     0.286 HD
HETATM    7  C2  UNL     1      18.194   5.617  11.310  1.00  0.00     0.279 C 
HETATM    8  C3  UNL     1      17.206   5.939  12.449  1.00  0.00     0.287 C 
HETATM    9  N4  UNL     1      16.399   6.905  11.802  1.00  0.00     0.204 N 
ENDROOT
BRANCH   8  10
HETATM   10  C4  UNL     1      16.613   4.695  12.915  1.00  0.00     0.310 C 
BRANCH  10  11
HETATM   11  N2  UNL     1      16.473   4.649  14.366  1.00  0.00     0.091 N 
HETATM   12  C5  UNL     1      15.110   4.347  14.756  1.00  0.00     0.273 C 
HETATM   13  C6  UNL     1      15.174   3.187  15.737  1.00  0.00     0.045 C 
HETATM   14  C7  UNL     1      16.465   2.544  15.347  1.00  0.00     0.035 C 
HETATM   15  C8  UNL     1      17.033   1.494  16.248  1.00  0.00     0.245 C 
HETATM   16  C9  UNL     1      16.386   1.439  14.338  1.00  0.00     0.245 C 
HETATM   17  C10 UNL     1      17.331   3.724  15.024  1.00  0.00     0.285 C 
HETATM   18  N3  UNL     1      16.276   0.508  15.474  1.00  0.00    -0.073 N 
ATOM     19  H32 UNL     1      16.585  -0.461  15.399  1.00  0.00     0.277 HD
ATOM     20  H31 UNL     1      15.370   0.163  15.794  1.00  0.00     0.277 HD
ENDBRANCH  10  11
ENDBRANCH   8  10
BRANCH   9  21
HETATM   21  C11 UNL     1      15.270   6.439  11.107  1.00  0.00     0.234 A 
HETATM   22  C12 UNL     1      14.386   7.139  10.211  1.00  0.00     0.038 A 
HETATM   23  C13 UNL     1      13.941   7.023  11.658  1.00  0.00     0.038 A 
ENDBRANCH   9  21
TORSDOF 3
ENDMDL
MODEL 2
REMARK VINA RESULT: -5.571280718      2.518      3.073
REMARK  3 active torsions:
REMARK  status: ('A' for Active; 'I' for Inactive)
REMARK    1  A    between atoms: C3_8  and  C4_9 
REMARK    2  A    between atoms: C4_9  and  N2_10 
REMARK    3  A    between atoms: N4_20  and  C11_21 
ROOT
HETATM    1  F1  UNL     1      20.638   4.107  12.942  1.00  0.00    -0.149 F 
HETATM    2  C1  UNL     1      20.134   5.362  12.657  1.00  0.00     0.615 C 
HETATM    3  F2  UNL     1      21.129   6.242  12.591  1.00  0.00    -0.149 F 
HETATM    4  N1  UNL     1      19.510   5.284  11.336  1.00  0.00     0.021 N 
ATOM      5  H11 UNL     1      20.079   4.818  10.629  1.00  0.00     0.286 HD
ATOM      6  H12 UNL     1      19.444   6.179  10.850  1.00  0.00     0.286 HD
HETATM    7  C2  UNL     1      18.246   4.653  11.587  1.00  0.00     0.279 C 
HETATM    8  C3  UNL     1      18.107   4.600  13.122  1.00  0.00     0.287 C 
HETATM    9  N4  UNL     1      19.023   5.615  13.483  1.00  0.00     0.204 N 
ENDROOT
BRANCH   8  10
HETATM   10  C4  UNL     1      16.700   4.739  13.466  1.00  0.00     0.310 C 
BRANCH  10  11
HETATM   11  N2  UNL     1      16.431   4.429  14.865  1.00  0.00     0.091 N 
HETATM   12  C5  UNL     1      15.058   4.007  15.058  1.00  0.00     0.273 C 
HETATM   13  C6  UNL     1      15.098   2.694  15.825  1.00  0.00     0.045 C 
HETATM   14  C7  UNL     1      16.455   2.184  15.461  1.00  0.00     0.035 C 
HETATM   15  C8  UNL     1      16.998   1.015  16.218  1.00  0.00     0.245 C 
HETATM   16  C9  UNL     1      16.533   1.275  14.273  1.00  0.00     0.245 C 
HETATM   17  C10 UNL     1      17.277   3.437  15.435  1.00  0.00     0.285 C 
HETATM   18  N3  UNL     1      16.373   0.153  15.213  1.00  0.00    -0.073 N 
ATOM     19  H32 UNL     1      16.743  -0.775  15.003  1.00  0.00     0.277 HD
ATOM     20  H31 UNL     1      15.463  -0.280  15.376  1.00  0.00     0.277 HD
ENDBRANCH  10  11
ENDBRANCH   8  10
BRANCH   9  21
HETATM   21  C11 UNL     1      18.523   6.923  13.596  1.00  0.00     0.234 A 
HETATM   22  C12 UNL     1      19.224   8.164  13.808  1.00  0.00     0.038 A 
HETATM   23  C13 UNL     1      18.640   7.490  15.037  1.00  0.00     0.038 A 
ENDBRANCH   9  21
TORSDOF 3
ENDMDL
MODEL 3
REMARK VINA RESULT: -5.554317555      3.379      5.837
REMARK  3 active torsions:
REMARK  status: ('A' for Active; 'I' for Inactive)
REMARK    1  A    between atoms: C3_8  and  C4_9 
REMARK    2  A    between atoms: C4_9  and  N2_10 
REMARK    3  A    between atoms: N4_20  and  C11_21 
ROOT
HETATM    1  F1  UNL     1      17.315   2.091  16.417  1.00  0.00    -0.149 F 
HETATM    2  C1  UNL     1      16.501   1.578  15.425  1.00  0.00     0.615 C 
HETATM    3  F2  UNL     1      16.539   0.248  15.456  1.00  0.00    -0.149 F 
HETATM    4  N1  UNL     1      15.134   1.998  15.731  1.00  0.00     0.021 N 
ATOM      5  H11 UNL     1      14.859   1.861  16.704  1.00  0.00     0.286 HD
ATOM      6  H12 UNL     1      14.411   1.402  15.329  1.00  0.00     0.286 HD
HETATM    7  C2  UNL     1      15.086   3.364  15.292  1.00  0.00     0.279 C 
HETATM    8  C3  UNL     1      16.403   3.599  14.526  1.00  0.00     0.287 C 
HETATM    9  N4  UNL     1      16.747   2.262  14.221  1.00  0.00     0.204 N 
ENDROOT
BRANCH   8  10
HETATM   10  C4  UNL     1      16.152   4.546  13.450  1.00  0.00     0.310 C 
BRANCH  10  11
HETATM   11  N2  UNL     1      16.944   5.764  13.577  1.00  0.00     0.091 N 
HETATM   12  C5  UNL     1      17.700   5.775  14.814  1.00  0.00     0.273 C 
HETATM   13  C6  UNL     1      19.145   6.078  14.450  1.00  0.00     0.045 C 
HETATM   14  C7  UNL     1      19.196   5.604  13.034  1.00  0.00     0.035 C 
HETATM   15  C8  UNL     1      20.395   5.958  12.212  1.00  0.00     0.245 C 
HETATM   16  C9  UNL     1      19.637   4.189  12.816  1.00  0.00     0.245 C 
HETATM   17  C10 UNL     1      17.852   6.005  12.508  1.00  0.00     0.285 C 
HETATM   18  N3  UNL     1      21.007   4.713  12.682  1.00  0.00    -0.073 N 
ATOM     19  H32 UNL     1      21.711   4.225  12.128  1.00  0.00     0.277 HD
ATOM     20  H31 UNL     1      21.660   4.704  13.466  1.00  0.00     0.277 HD
ENDBRANCH  10  11
ENDBRANCH   8  10
BRANCH   9  21
HETATM   21  C11 UNL     1      16.269   1.735  13.009  1.00  0.00     0.234 A 
HETATM   22  C12 UNL     1      16.604   0.502  12.344  1.00  0.00     0.038 A 
HETATM   23  C13 UNL     1      17.338   1.749  11.883  1.00  0.00     0.038 A 
ENDBRANCH   9  21
TORSDOF 3
ENDMDL
MODEL 4
REMARK VINA RESULT: -5.546552896      3.541      6.112
REMARK  3 active torsions:
REMARK  status: ('A' for Active; 'I' for Inactive)
REMARK    1  A    between atoms: C3_8  and  C4_9 
REMARK    2  A    between atoms: C4_9  and  N2_10 
REMARK    3  A    between atoms: N4_20  and  C11_21 
ROOT
HETATM    1  F1  UNL     1      15.836   1.096  12.006  1.00  0.00    -0.149 F 
HETATM    2  C1  UNL     1      16.630   1.064  13.137  1.00  0.00     0.615 C 
HETATM    3  F2  UNL     1      16.541  -0.131  13.716  1.00  0.00    -0.149 F 
HETATM    4  N1  UNL     1      18.013   1.250  12.697  1.00  0.00     0.021 N 
ATOM      5  H11 UNL     1      18.281   0.674  11.899  1.00  0.00     0.286 HD
ATOM      6  H12 UNL     1      18.712   0.878  13.339  1.00  0.00     0.286 HD
HETATM    7  C2  UNL     1      18.115   2.663  12.466  1.00  0.00     0.279 C 
HETATM    8  C3  UNL     1      16.808   3.268  13.017  1.00  0.00     0.287 C 
HETATM    9  N4  UNL     1      16.412   2.230  13.893  1.00  0.00     0.204 N 
ENDROOT
BRANCH   8  10
HETATM   10  C4  UNL     1      17.098   4.592  13.547  1.00  0.00     0.310 C 
BRANCH  10  11
HETATM   11  N2  UNL     1      18.149   5.277  12.804  1.00  0.00     0.091 N 
HETATM   12  C5  UNL     1      17.655   6.493  12.189  1.00  0.00     0.273 C 
HETATM   13  C6  UNL     1      18.605   7.612  12.587  1.00  0.00     0.045 C 
HETATM   14  C7  UNL     1      19.174   7.073  13.860  1.00  0.00     0.035 C 
HETATM   15  C8  UNL     1      20.356   7.768  14.456  1.00  0.00     0.245 C 
HETATM   16  C9  UNL     1      18.478   7.470  15.126  1.00  0.00     0.245 C 
HETATM   17  C10 UNL     1      19.304   5.610  13.565  1.00  0.00     0.285 C 
HETATM   18  N3  UNL     1      19.412   8.606  15.198  1.00  0.00    -0.073 N 
ATOM     19  H32 UNL     1      19.666   9.030  16.091  1.00  0.00     0.277 HD
ATOM     20  H31 UNL     1      19.150   9.534  14.866  1.00  0.00     0.277 HD
ENDBRANCH  10  11
ENDBRANCH   8  10
BRANCH   9  21
HETATM   21  C11 UNL     1      16.871   2.298  15.220  1.00  0.00     0.234 A 
HETATM   22  C12 UNL     1      16.852   1.295  16.254  1.00  0.00     0.038 A 
HETATM   23  C13 UNL     1      15.714   2.301  16.257  1.00  0.00     0.038 A 
ENDBRANCH   9  21
TORSDOF 3
ENDMDL
MODEL 5
REMARK VINA RESULT: -5.476234955      3.507      6.131
REMARK  3 active torsions:
REMARK  status: ('A' for Active; 'I' for Inactive)
REMARK    1  A    between atoms: C3_8  and  C4_9 
REMARK    2  A    between atoms: C4_9  and  N2_10 
REMARK    3  A    between atoms: N4_20  and  C11_21 
ROOT
HETATM    1  F1  UNL     1      17.468   1.532  16.503  1.00  0.00    -0.149 F 
HETATM    2  C1  UNL     1      16.611   1.232  15.460  1.00  0.00     0.615 C 
HETATM    3  F2  UNL     1      16.615  -0.079  15.237  1.00  0.00    -0.149 F 
HETATM    4  N1  UNL     1      15.264   1.613  15.889  1.00  0.00     0.021 N 
ATOM      5  H11 UNL     1      15.017   1.298  16.827  1.00  0.00     0.286 HD
ATOM      6  H12 UNL     1      14.515   1.118  15.406  1.00  0.00     0.286 HD
HETATM    7  C2  UNL     1      15.237   3.038  15.719  1.00  0.00     0.279 C 
HETATM    8  C3  UNL     1      16.536   3.390  14.965  1.00  0.00     0.287 C 
HETATM    9  N4  UNL     1      16.837   2.129  14.400  1.00  0.00     0.204 N 
ENDROOT
BRANCH   8  10
HETATM   10  C4  UNL     1      16.275   4.529  14.098  1.00  0.00     0.310 C 
BRANCH  10  11
HETATM   11  N2  UNL     1      17.438   4.907  13.303  1.00  0.00     0.091 N 
HETATM   12  C5  UNL     1      17.177   6.097  12.518  1.00  0.00     0.273 C 
HETATM   13  C6  UNL     1      18.311   7.072  12.794  1.00  0.00     0.045 C 
HETATM   14  C7  UNL     1      18.764   6.619  14.144  1.00  0.00     0.035 C 
HETATM   15  C8  UNL     1      20.049   7.166  14.679  1.00  0.00     0.245 C 
HETATM   16  C9  UNL     1      18.143   7.301  15.324  1.00  0.00     0.245 C 
HETATM   17  C10 UNL     1      18.630   5.129  14.049  1.00  0.00     0.285 C 
HETATM   18  N3  UNL     1      19.268   8.251  15.274  1.00  0.00    -0.073 N 
ATOM     19  H32 UNL     1      19.588   8.741  16.111  1.00  0.00     0.277 HD
ATOM     20  H31 UNL     1      19.179   9.157  14.814  1.00  0.00     0.277 HD
ENDBRANCH  10  11
ENDBRANCH   8  10
BRANCH   9  21
HETATM   21  C11 UNL     1      16.307   1.851  13.128  1.00  0.00     0.234 A 
HETATM   22  C12 UNL     1      16.463   0.684  12.299  1.00  0.00     0.038 A 
HETATM   23  C13 UNL     1      17.388   1.853  12.013  1.00  0.00     0.038 A 
ENDBRANCH   9  21
TORSDOF 3
ENDMDL
