MODEL 1
REMARK VINA RESULT: -6.368016493      0.000      0.000
REMARK  4 active torsions:
REMARK  status: ('A' for Active; 'I' for Inactive)
REMARK       I    between atoms: N1_2  and  C3_4 
REMARK    1  A    between atoms: C3_4  and  C4_6 
REMARK    2  A    between atoms: C4_6  and  C5_7 
REMARK    3  A    between atoms: C5_7  and  O2_8 
REMARK    4  A    between atoms: C5_7  and  C6_10 
ROOT
HETATM    1  C6  UNL     1      17.349   3.926  13.748  1.00  0.00     0.092 C 
HETATM    2  C7  UNL     1      16.661   4.045  12.394  1.00  0.00     0.011 C 
HETATM    3  C8  UNL     1      17.517   3.776  11.216  1.00  0.00     0.033 C 
HETATM    4  C9  UNL     1      17.480   5.001  10.311  1.00  0.00     0.232 C 
HETATM    5  N2  UNL     1      18.120   6.066  11.079  1.00  0.00    -0.075 N 
ATOM      6  H21 UNL     1      18.367   6.859  10.487  1.00  0.00     0.277 HD
ATOM      7  H22 UNL     1      19.056   5.799  11.382  1.00  0.00     0.277 HD
HETATM    8  C10 UNL     1      17.308   6.468  12.180  1.00  0.00     0.243 C 
HETATM    9  C11 UNL     1      16.356   5.456  12.685  1.00  0.00     0.089 C 
HETATM   10  C12 UNL     1      16.594   5.163  14.170  1.00  0.00     0.255 C 
HETATM   11  F1  UNL     1      15.457   4.870  14.878  1.00  0.00    -0.205 F 
HETATM   12  F2  UNL     1      17.332   6.124  14.807  1.00  0.00    -0.205 F 
ENDROOT
BRANCH   1  13
HETATM   13  C5  UNL     1      16.916   2.647  14.397  1.00  0.00     0.137 C 
BRANCH  13  14
HETATM   14  C4  UNL     1      17.310   2.530  15.833  1.00  0.00     0.135 C 
BRANCH  14  15
HETATM   15  C3  UNL     1      16.844   1.201  16.325  1.00  0.00     0.221 C 
HETATM   16  N1  UNL     1      15.544   1.089  16.866  1.00  0.00    -0.361 N 
HETATM   17  C1  UNL     1      15.086  -0.198  17.344  1.00  0.00     0.152 C 
HETATM   18  C2  UNL     1      14.667   2.244  16.948  1.00  0.00     0.152 C 
HETATM   19  O1  UNL     1      17.564   0.174  16.276  1.00  0.00    -0.273 OA
ENDBRANCH  14  15
ENDBRANCH  13  14
BRANCH  13  20
HETATM   20  O2  UNL     1      17.507   1.593  13.701  1.00  0.00    -0.395 OA
ATOM     21  H2  UNL     1      16.913   1.328  13.008  1.00  0.00     0.210 HD
ENDBRANCH  13  20
ENDBRANCH   1  13
TORSDOF 4
ENDMDL
MODEL 2
REMARK VINA RESULT: -6.285709467      1.659      1.824
REMARK  4 active torsions:
REMARK  status: ('A' for Active; 'I' for Inactive)
REMARK       I    between atoms: N1_2  and  C3_4 
REMARK    1  A    between atoms: C3_4  and  C4_6 
REMARK    2  A    between atoms: C4_6  and  C5_7 
REMARK    3  A    between atoms: C5_7  and  O2_8 
REMARK    4  A    between atoms: C5_7  and  C6_10 
ROOT
HETATM    1  C6  UNL     1      17.517   3.866  14.940  1.00  0.00     0.092 C 
HETATM    2  C7  UNL     1      18.131   4.175  13.581  1.00  0.00     0.011 C 
HETATM    3  C8  UNL     1      19.608   4.097  13.513  1.00  0.00     0.033 C 
HETATM    4  C9  UNL     1      20.134   5.441  13.028  1.00  0.00     0.232 C 
HETATM    5  N2  UNL     1      19.796   6.391  14.086  1.00  0.00    -0.075 N 
ATOM      6  H21 UNL     1      20.309   7.266  13.982  1.00  0.00     0.277 HD
ATOM      7  H22 UNL     1      20.172   6.096  14.988  1.00  0.00     0.277 HD
HETATM    8  C10 UNL     1      18.390   6.612  14.152  1.00  0.00     0.243 C 
HETATM    9  C11 UNL     1      17.538   5.522  13.631  1.00  0.00     0.089 C 
HETATM   10  C12 UNL     1      16.568   5.016  14.702  1.00  0.00     0.255 C 
HETATM   11  F1  UNL     1      15.353   4.604  14.218  1.00  0.00    -0.205 F 
HETATM   12  F2  UNL     1      16.406   5.883  15.749  1.00  0.00    -0.205 F 
ENDROOT
BRANCH   1  13
HETATM   13  C5  UNL     1      16.907   2.499  14.894  1.00  0.00     0.137 C 
BRANCH  13  14
HETATM   14  C4  UNL     1      17.114   1.699  16.139  1.00  0.00     0.135 C 
BRANCH  14  15
HETATM   15  C3  UNL     1      15.956   0.768  16.277  1.00  0.00     0.221 C 
HETATM   16  N1  UNL     1      14.763   1.243  16.865  1.00  0.00    -0.361 N 
HETATM   17  C1  UNL     1      13.636   0.345  17.002  1.00  0.00     0.152 C 
HETATM   18  C2  UNL     1      14.654   2.614  17.332  1.00  0.00     0.152 C 
HETATM   19  O1  UNL     1      16.001  -0.424  15.889  1.00  0.00    -0.273 OA
ENDBRANCH  14  15
ENDBRANCH  13  14
BRANCH  13  20
HETATM   20  O2  UNL     1      17.491   1.806  13.834  1.00  0.00    -0.395 OA
ATOM     21  H2  UNL     1      17.228   2.230  13.026  1.00  0.00     0.210 HD
ENDBRANCH  13  20
ENDBRANCH   1  13
TORSDOF 4
ENDMDL
MODEL 3
REMARK VINA RESULT: -6.263089613      1.805      5.773
REMARK  4 active torsions:
REMARK  status: ('A' for Active; 'I' for Inactive)
REMARK       I    between atoms: N1_2  and  C3_4 
REMARK    1  A    between atoms: C3_4  and  C4_6 
REMARK    2  A    between atoms: C4_6  and  C5_7 
REMARK    3  A    between atoms: C5_7  and  O2_8 
REMARK    4  A    between atoms: C5_7  and  C6_10 
ROOT
HETATM    1  C6  UNL     1      16.080   1.933  14.498  1.00  0.00     0.092 C 
HETATM    2  C7  UNL     1      16.465   1.363  15.858  1.00  0.00     0.011 C 
HETATM    3  C8  UNL     1      16.071  -0.044  16.096  1.00  0.00     0.033 C 
HETATM    4  C9  UNL     1      15.207  -0.090  17.349  1.00  0.00     0.232 C 
HETATM    5  N2  UNL     1      13.994   0.649  17.007  1.00  0.00    -0.075 N 
ATOM      6  H21 UNL     1      13.247   0.477  17.681  1.00  0.00     0.277 HD
ATOM      7  H22 UNL     1      13.544   0.267  16.175  1.00  0.00     0.277 HD
HETATM    8  C10 UNL     1      14.261   2.041  16.864  1.00  0.00     0.243 C 
HETATM    9  C11 UNL     1      15.651   2.401  16.511  1.00  0.00     0.089 C 
HETATM   10  C12 UNL     1      15.701   3.208  15.210  1.00  0.00     0.255 C 
HETATM   11  F1  UNL     1      16.695   4.151  15.167  1.00  0.00    -0.205 F 
HETATM   12  F2  UNL     1      14.496   3.754  14.857  1.00  0.00    -0.205 F 
ENDROOT
BRANCH   1  13
HETATM   13  C5  UNL     1      17.307   2.006  13.642  1.00  0.00     0.137 C 
BRANCH  13  14
HETATM   14  C4  UNL     1      17.181   2.935  12.478  1.00  0.00     0.135 C 
BRANCH  14  15
HETATM   15  C3  UNL     1      18.559   3.246  11.995  1.00  0.00     0.221 C 
HETATM   16  N1  UNL     1      18.717   3.900  10.753  1.00  0.00    -0.361 N 
HETATM   17  C1  UNL     1      20.050   4.204  10.279  1.00  0.00     0.152 C 
HETATM   18  C2  UNL     1      17.563   4.268   9.951  1.00  0.00     0.152 C 
HETATM   19  O1  UNL     1      19.586   2.948  12.652  1.00  0.00    -0.273 OA
ENDBRANCH  14  15
ENDBRANCH  13  14
BRANCH  13  20
HETATM   20  O2  UNL     1      17.559   0.727  13.147  1.00  0.00    -0.395 OA
ATOM     21  H2  UNL     1      16.766   0.212  13.245  1.00  0.00     0.210 HD
ENDBRANCH  13  20
ENDBRANCH   1  13
TORSDOF 4
ENDMDL
MODEL 4
REMARK VINA RESULT: -6.234988812      0.977      1.021
REMARK  4 active torsions:
REMARK  status: ('A' for Active; 'I' for Inactive)
REMARK       I    between atoms: N1_2  and  C3_4 
REMARK    1  A    between atoms: C3_4  and  C4_6 
REMARK    2  A    between atoms: C4_6  and  C5_7 
REMARK    3  A    between atoms: C5_7  and  O2_8 
REMARK    4  A    between atoms: C5_7  and  C6_10 
ROOT
HETATM    1  C6  UNL     1      17.769   3.306  13.428  1.00  0.00     0.092 C 
HETATM    2  C7  UNL     1      16.983   3.727  12.194  1.00  0.00     0.011 C 
HETATM    3  C8  UNL     1      17.347   3.035  10.937  1.00  0.00     0.033 C 
HETATM    4  C9  UNL     1      17.743   4.088   9.911  1.00  0.00     0.232 C 
HETATM    5  N2  UNL     1      18.960   4.700  10.439  1.00  0.00    -0.075 N 
ATOM      6  H21 UNL     1      19.446   5.244   9.726  1.00  0.00     0.277 HD
ATOM      7  H22 UNL     1      19.682   4.002  10.621  1.00  0.00     0.277 HD
HETATM    8  C10 UNL     1      18.684   5.482  11.598  1.00  0.00     0.243 C 
HETATM    9  C11 UNL     1      17.476   5.104  12.361  1.00  0.00     0.089 C 
HETATM   10  C12 UNL     1      17.821   4.765  13.814  1.00  0.00     0.255 C 
HETATM   11  F1  UNL     1      16.851   5.104  14.721  1.00  0.00    -0.205 F 
HETATM   12  F2  UNL     1      19.045   5.234  14.211  1.00  0.00    -0.205 F 
ENDROOT
BRANCH   1  13
HETATM   13  C5  UNL     1      16.898   2.438  14.283  1.00  0.00     0.137 C 
BRANCH  13  14
HETATM   14  C4  UNL     1      17.256   2.457  15.733  1.00  0.00     0.135 C 
BRANCH  14  15
HETATM   15  C3  UNL     1      16.833   1.153  16.322  1.00  0.00     0.221 C 
HETATM   16  N1  UNL     1      15.551   1.050  16.907  1.00  0.00    -0.361 N 
HETATM   17  C1  UNL     1      15.135  -0.212  17.480  1.00  0.00     0.152 C 
HETATM   18  C2  UNL     1      14.652   2.191  16.941  1.00  0.00     0.152 C 
HETATM   19  O1  UNL     1      17.573   0.140  16.317  1.00  0.00    -0.273 OA
ENDBRANCH  14  15
ENDBRANCH  13  14
BRANCH  13  20
HETATM   20  O2  UNL     1      17.022   1.126  13.826  1.00  0.00    -0.395 OA
ATOM     21  H2  UNL     1      17.361   1.156  12.938  1.00  0.00     0.210 HD
ENDBRANCH  13  20
ENDBRANCH   1  13
TORSDOF 4
ENDMDL
MODEL 5
REMARK VINA RESULT: -6.122968981      2.494      3.135
REMARK  4 active torsions:
REMARK  status: ('A' for Active; 'I' for Inactive)
REMARK       I    between atoms: N1_2  and  C3_4 
REMARK    1  A    between atoms: C3_4  and  C4_6 
REMARK    2  A    between atoms: C4_6  and  C5_7 
REMARK    3  A    between atoms: C5_7  and  O2_8 
REMARK    4  A    between atoms: C5_7  and  C6_10 
ROOT
HETATM    1  C6  UNL     1      17.423   3.743  15.195  1.00  0.00     0.092 C 
HETATM    2  C7  UNL     1      18.102   4.027  13.861  1.00  0.00     0.011 C 
HETATM    3  C8  UNL     1      19.582   4.042  13.887  1.00  0.00     0.033 C 
HETATM    4  C9  UNL     1      20.054   5.394  13.367  1.00  0.00     0.232 C 
HETATM    5  N2  UNL     1      19.592   6.367  14.354  1.00  0.00    -0.075 N 
ATOM      6  H21 UNL     1      20.055   7.268  14.237  1.00  0.00     0.277 HD
ATOM      7  H22 UNL     1      19.927   6.140  15.291  1.00  0.00     0.277 HD
HETATM    8  C10 UNL     1      18.173   6.500  14.324  1.00  0.00     0.243 C 
HETATM    9  C11 UNL     1      17.425   5.334  13.808  1.00  0.00     0.089 C 
HETATM   10  C12 UNL     1      16.422   4.816  14.843  1.00  0.00     0.255 C 
HETATM   11  F1  UNL     1      15.269   4.305  14.307  1.00  0.00    -0.205 F 
HETATM   12  F2  UNL     1      16.141   5.718  15.833  1.00  0.00    -0.205 F 
ENDROOT
BRANCH   1  13
HETATM   13  C5  UNL     1      16.903   2.339  15.182  1.00  0.00     0.137 C 
BRANCH  13  14
HETATM   14  C4  UNL     1      16.363   1.903  13.859  1.00  0.00     0.135 C 
BRANCH  14  15
HETATM   15  C3  UNL     1      16.748   0.475  13.660  1.00  0.00     0.221 C 
HETATM   16  N1  UNL     1      16.671  -0.080  12.363  1.00  0.00    -0.361 N 
HETATM   17  C1  UNL     1      17.044  -1.464  12.163  1.00  0.00     0.152 C 
HETATM   18  C2  UNL     1      16.226   0.719  11.234  1.00  0.00     0.152 C 
HETATM   19  O1  UNL     1      17.139  -0.255  14.602  1.00  0.00    -0.273 OA
ENDBRANCH  14  15
ENDBRANCH  13  14
BRANCH  13  20
HETATM   20  O2  UNL     1      15.871   2.257  16.117  1.00  0.00    -0.395 OA
ATOM     21  H2  UNL     1      15.356   3.053  16.056  1.00  0.00     0.210 HD
ENDBRANCH  13  20
ENDBRANCH   1  13
TORSDOF 4
ENDMDL
