MODEL 1
REMARK VINA RESULT: -6.221306811      0.000      0.000
REMARK  4 active torsions:
REMARK  status: ('A' for Active; 'I' for Inactive)
REMARK    1  A    between atoms: C1_4  and  C2_5 
REMARK    2  A    between atoms: C1_4  and  N2_8 
REMARK    3  A    between atoms: C2_5  and  C3_6 
REMARK    4  A    between atoms: N2_8  and  N3_10 
ROOT
HETATM    1  N3  UNL     1      17.720   2.303  14.079  1.00  0.00    -0.192 NA
HETATM    2  C4  UNL     1      18.074   3.381  15.017  1.00  0.00     0.091 C 
HETATM    3  C5  UNL     1      19.238   4.002  14.230  1.00  0.00     0.103 C 
HETATM    4  C6  UNL     1      18.686   3.926  12.852  1.00  0.00     0.169 C 
HETATM    5  O1  UNL     1      19.169   4.381  11.852  1.00  0.00    -0.294 OA
HETATM    6  C7  UNL     1      17.408   3.175  12.935  1.00  0.00     0.185 C 
HETATM    7 CL2  UNL     1      16.931   2.343  11.510  1.00  0.00    -0.090 Cl
HETATM    8  C8  UNL     1      16.388   4.105  13.533  1.00  0.00     0.131 C 
HETATM    9 CL3  UNL     1      16.421   5.613  12.601  1.00  0.00    -0.121 Cl
HETATM   10  C9  UNL     1      16.941   4.347  14.942  1.00  0.00     0.046 C 
ENDROOT
BRANCH   1  11
HETATM   11  N2  UNL     1      16.668   1.543  14.496  1.00  0.00    -0.306 N 
ATOM     12  H2  UNL     1      15.795   1.617  13.974  1.00  0.00     0.182 HD
BRANCH  11  13
HETATM   13  C1  UNL     1      16.698   0.653  15.608  1.00  0.00     0.086 C 
HETATM   14  N1  UNL     1      17.175  -0.528  15.419  1.00  0.00    -0.388 N 
ATOM     15  H12 UNL     1      17.197  -1.166  16.215  1.00  0.00     0.157 HD
ATOM     16  H11 UNL     1      17.516  -0.802  14.498  1.00  0.00     0.157 HD
BRANCH  13  17
HETATM   17  C2  UNL     1      16.201   1.054  16.955  1.00  0.00     0.092 C 
BRANCH  17  18
HETATM   18  C3  UNL     1      15.172   0.065  17.476  1.00  0.00     0.122 C 
HETATM   19 CL1  UNL     1      13.532   0.516  16.988  1.00  0.00    -0.130 Cl
ENDBRANCH  17  18
ENDBRANCH  13  17
ENDBRANCH  11  13
ENDBRANCH   1  11
TORSDOF 4
ENDMDL
MODEL 2
REMARK VINA RESULT: -6.158905064      1.943      2.334
REMARK  4 active torsions:
REMARK  status: ('A' for Active; 'I' for Inactive)
REMARK    1  A    between atoms: C1_4  and  C2_5 
REMARK    2  A    between atoms: C1_4  and  N2_8 
REMARK    3  A    between atoms: C2_5  and  C3_6 
REMARK    4  A    between atoms: N2_8  and  N3_10 
ROOT
HETATM    1  N3  UNL     1      16.814   2.664  14.162  1.00  0.00    -0.192 NA
HETATM    2  C4  UNL     1      17.915   2.961  13.231  1.00  0.00     0.091 C 
HETATM    3  C5  UNL     1      17.125   3.764  12.186  1.00  0.00     0.103 C 
HETATM    4  C6  UNL     1      16.246   4.558  13.083  1.00  0.00     0.169 C 
HETATM    5  O1  UNL     1      15.491   5.435  12.766  1.00  0.00    -0.294 OA
HETATM    6  C7  UNL     1      16.473   4.064  14.464  1.00  0.00     0.185 C 
HETATM    7 CL2  UNL     1      15.162   4.261  15.558  1.00  0.00    -0.090 Cl
HETATM    8  C8  UNL     1      17.800   4.609  14.915  1.00  0.00     0.131 C 
HETATM    9 CL3  UNL     1      17.788   6.360  14.637  1.00  0.00    -0.121 Cl
HETATM   10  C9  UNL     1      18.783   3.933  13.954  1.00  0.00     0.046 C 
ENDROOT
BRANCH   1  11
HETATM   11  N2  UNL     1      17.203   1.945  15.253  1.00  0.00    -0.306 N 
ATOM     12  H2  UNL     1      18.012   2.279  15.776  1.00  0.00     0.182 HD
BRANCH  11  13
HETATM   13  C1  UNL     1      16.563   0.759  15.715  1.00  0.00     0.086 C 
HETATM   14  N1  UNL     1      17.238  -0.338  15.689  1.00  0.00    -0.388 N 
ATOM     15  H12 UNL     1      16.780  -1.186  16.020  1.00  0.00     0.157 HD
ATOM     16  H11 UNL     1      18.198  -0.340  15.346  1.00  0.00     0.157 HD
BRANCH  13  17
HETATM   17  C2  UNL     1      15.159   0.763  16.217  1.00  0.00     0.092 C 
BRANCH  17  18
HETATM   18  C3  UNL     1      15.092   0.295  17.660  1.00  0.00     0.122 C 
HETATM   19 CL1  UNL     1      15.033   1.660  18.784  1.00  0.00    -0.130 Cl
ENDBRANCH  17  18
ENDBRANCH  13  17
ENDBRANCH  11  13
ENDBRANCH   1  11
TORSDOF 4
ENDMDL
MODEL 3
REMARK VINA RESULT: -5.990798252      1.630      2.186
REMARK  4 active torsions:
REMARK  status: ('A' for Active; 'I' for Inactive)
REMARK    1  A    between atoms: C1_4  and  C2_5 
REMARK    2  A    between atoms: C1_4  and  N2_8 
REMARK    3  A    between atoms: C2_5  and  C3_6 
REMARK    4  A    between atoms: N2_8  and  N3_10 
ROOT
HETATM    1  N3  UNL     1      17.227   3.182  15.313  1.00  0.00    -0.192 NA
HETATM    2  C4  UNL     1      15.925   3.111  14.629  1.00  0.00     0.091 C 
HETATM    3  C5  UNL     1      15.704   4.613  14.395  1.00  0.00     0.103 C 
HETATM    4  C6  UNL     1      17.083   5.021  14.021  1.00  0.00     0.169 C 
HETATM    5  O1  UNL     1      17.439   6.100  13.635  1.00  0.00    -0.294 OA
HETATM    6  C7  UNL     1      17.955   3.835  14.214  1.00  0.00     0.185 C 
HETATM    7 CL2  UNL     1      19.608   4.165  14.546  1.00  0.00    -0.090 Cl
HETATM    8  C8  UNL     1      17.683   2.897  13.070  1.00  0.00     0.131 C 
HETATM    9 CL3  UNL     1      17.837   3.822  11.564  1.00  0.00    -0.121 Cl
HETATM   10  C9  UNL     1      16.219   2.507  13.298  1.00  0.00     0.046 C 
ENDROOT
BRANCH   1  11
HETATM   11  N2  UNL     1      17.728   1.961  15.656  1.00  0.00    -0.306 N 
ATOM     12  H2  UNL     1      18.719   1.790  15.484  1.00  0.00     0.182 HD
BRANCH  11  13
HETATM   13  C1  UNL     1      16.969   0.905  16.238  1.00  0.00     0.086 C 
HETATM   14  N1  UNL     1      17.105  -0.276  15.743  1.00  0.00    -0.388 N 
ATOM     15  H12 UNL     1      16.561  -1.032  16.160  1.00  0.00     0.157 HD
ATOM     16  H11 UNL     1      17.739  -0.434  14.961  1.00  0.00     0.157 HD
BRANCH  13  17
HETATM   17  C2  UNL     1      16.042   1.137  17.383  1.00  0.00     0.092 C 
BRANCH  17  18
HETATM   18  C3  UNL     1      14.997   0.039  17.472  1.00  0.00     0.122 C 
HETATM   19 CL1  UNL     1      13.428   0.585  16.860  1.00  0.00    -0.130 Cl
ENDBRANCH  17  18
ENDBRANCH  13  17
ENDBRANCH  11  13
ENDBRANCH   1  11
TORSDOF 4
ENDMDL
MODEL 4
REMARK VINA RESULT: -5.688172068      1.333      1.534
REMARK  4 active torsions:
REMARK  status: ('A' for Active; 'I' for Inactive)
REMARK    1  A    between atoms: C1_4  and  C2_5 
REMARK    2  A    between atoms: C1_4  and  N2_8 
REMARK    3  A    between atoms: C2_5  and  C3_6 
REMARK    4  A    between atoms: N2_8  and  N3_10 
ROOT
HETATM    1  N3  UNL     1      17.742   2.480  14.223  1.00  0.00    -0.192 NA
HETATM    2  C4  UNL     1      18.720   3.501  13.815  1.00  0.00     0.091 C 
HETATM    3  C5  UNL     1      18.517   3.424  12.294  1.00  0.00     0.103 C 
HETATM    4  C6  UNL     1      17.038   3.282  12.240  1.00  0.00     0.169 C 
HETATM    5  O1  UNL     1      16.347   3.282  11.259  1.00  0.00    -0.294 OA
HETATM    6  C7  UNL     1      16.563   3.138  13.638  1.00  0.00     0.185 C 
HETATM    7 CL2  UNL     1      15.088   2.282  13.846  1.00  0.00    -0.090 Cl
HETATM    8  C8  UNL     1      16.632   4.502  14.270  1.00  0.00     0.131 C 
HETATM    9 CL3  UNL     1      15.784   5.636  13.203  1.00  0.00    -0.121 Cl
HETATM   10  C9  UNL     1      18.136   4.798  14.261  1.00  0.00     0.046 C 
ENDROOT
BRANCH   1  11
HETATM   11  N2  UNL     1      17.665   2.310  15.574  1.00  0.00    -0.306 N 
ATOM     12  H2  UNL     1      18.119   3.007  16.165  1.00  0.00     0.182 HD
BRANCH  11  13
HETATM   13  C1  UNL     1      16.996   1.231  16.220  1.00  0.00     0.086 C 
HETATM   14  N1  UNL     1      17.298   0.033  15.857  1.00  0.00    -0.388 N 
ATOM     15  H12 UNL     1      16.820  -0.740  16.320  1.00  0.00     0.157 HD
ATOM     16  H11 UNL     1      17.995  -0.121  15.129  1.00  0.00     0.157 HD
BRANCH  13  17
HETATM   17  C2  UNL     1      15.978   1.457  17.285  1.00  0.00     0.092 C 
BRANCH  17  18
HETATM   18  C3  UNL     1      15.116   0.223  17.489  1.00  0.00     0.122 C 
HETATM   19 CL1  UNL     1      13.453   0.495  16.946  1.00  0.00    -0.130 Cl
ENDBRANCH  17  18
ENDBRANCH  13  17
ENDBRANCH  11  13
ENDBRANCH   1  11
TORSDOF 4
ENDMDL
MODEL 5
REMARK VINA RESULT: -5.608874323      2.005      2.539
REMARK  4 active torsions:
REMARK  status: ('A' for Active; 'I' for Inactive)
REMARK    1  A    between atoms: C1_4  and  C2_5 
REMARK    2  A    between atoms: C1_4  and  N2_8 
REMARK    3  A    between atoms: C2_5  and  C3_6 
REMARK    4  A    between atoms: N2_8  and  N3_10 
ROOT
HETATM    1  N3  UNL     1      17.436   3.457  13.887  1.00  0.00    -0.192 NA
HETATM    2  C4  UNL     1      18.329   3.185  12.748  1.00  0.00     0.091 C 
HETATM    3  C5  UNL     1      17.705   4.149  11.728  1.00  0.00     0.103 C 
HETATM    4  C6  UNL     1      17.427   5.312  12.610  1.00  0.00     0.169 C 
HETATM    5  O1  UNL     1      17.022   6.392  12.278  1.00  0.00    -0.294 OA
HETATM    6  C7  UNL     1      17.743   4.892  13.998  1.00  0.00     0.185 C 
HETATM    7 CL2  UNL     1      16.890   5.712  15.244  1.00  0.00    -0.090 Cl
HETATM    8  C8  UNL     1      19.242   4.873  14.122  1.00  0.00     0.131 C 
HETATM    9 CL3  UNL     1      19.851   6.439  13.555  1.00  0.00    -0.121 Cl
HETATM   10  C9  UNL     1      19.645   3.768  13.140  1.00  0.00     0.046 C 
ENDROOT
BRANCH   1  11
HETATM   11  N2  UNL     1      17.746   2.740  15.004  1.00  0.00    -0.306 N 
ATOM     12  H2  UNL     1      18.702   2.799  15.355  1.00  0.00     0.182 HD
BRANCH  11  13
HETATM   13  C1  UNL     1      16.832   1.912  15.718  1.00  0.00     0.086 C 
HETATM   14  N1  UNL     1      17.239   0.748  16.088  1.00  0.00    -0.388 N 
ATOM     15  H12 UNL     1      16.585   0.155  16.600  1.00  0.00     0.157 HD
ATOM     16  H11 UNL     1      18.187   0.443  15.870  1.00  0.00     0.157 HD
BRANCH  13  17
HETATM   17  C2  UNL     1      15.446   2.359  16.038  1.00  0.00     0.092 C 
BRANCH  17  18
HETATM   18  C3  UNL     1      14.957   1.741  17.336  1.00  0.00     0.122 C 
HETATM   19 CL1  UNL     1      13.772   0.461  17.040  1.00  0.00    -0.130 Cl
ENDBRANCH  17  18
ENDBRANCH  13  17
ENDBRANCH  11  13
ENDBRANCH   1  11
TORSDOF 4
ENDMDL
