MODEL 1
REMARK VINA RESULT: -6.883941345      0.000      0.000
REMARK  4 active torsions:
REMARK  status: ('A' for Active; 'I' for Inactive)
REMARK    1  A    between atoms: C7_10  and  O1_11 
REMARK    2  A    between atoms: N2_14  and  C9_15 
REMARK    3  A    between atoms: C9_15  and  C10_16 
REMARK    4  A    between atoms: C10_16  and  C11_17 
ROOT
HETATM    1  C1  UNL     1      16.572  -0.067  11.759  1.00  0.00     0.014 C 
HETATM    2  C2  UNL     1      16.700   0.944  12.395  1.00  0.00    -0.079 C 
HETATM    3  C3  UNL     1      16.863   2.178  13.148  1.00  0.00     0.334 C 
HETATM    4  C4  UNL     1      18.169   2.872  12.823  1.00  0.00     0.266 C 
HETATM    5  N1  UNL     1      17.982   3.976  11.906  1.00  0.00    -0.065 N 
ATOM      6  H11 UNL     1      17.037   4.360  11.884  1.00  0.00     0.277 HD
ATOM      7  H12 UNL     1      18.009   3.721  10.918  1.00  0.00     0.277 HD
HETATM    8  C5  UNL     1      19.005   4.907  12.318  1.00  0.00     0.236 C 
HETATM    9  C6  UNL     1      18.808   4.935  13.826  1.00  0.00     0.069 C 
HETATM   10  C7  UNL     1      18.611   3.493  14.140  1.00  0.00     0.117 C 
HETATM   11  C8  UNL     1      17.389   3.251  15.036  1.00  0.00     0.314 C 
HETATM   12  N2  UNL     1      16.970   1.978  14.559  1.00  0.00     0.109 N 
ENDROOT
BRANCH  12  13
HETATM   13  C9  UNL     1      15.817   1.422  15.176  1.00  0.00     0.275 C 
BRANCH  13  14
HETATM   14  C10 UNL     1      14.898   2.399  15.817  1.00  0.00     0.035 C 
BRANCH  14  15
HETATM   15  C11 UNL     1      14.181   1.817  17.009  1.00  0.00    -0.013 A 
HETATM   16  C12 UNL     1      13.808   0.394  17.048  1.00  0.00     0.005 A 
HETATM   17  C13 UNL     1      14.923   0.901  17.950  1.00  0.00     0.005 A 
ENDBRANCH  14  15
ENDBRANCH  13  14
ENDBRANCH  12  13
BRANCH  10  18
HETATM   18  O1  UNL     1      19.710   2.862  14.672  1.00  0.00    -0.386 OA
ATOM     19  H1  UNL     1      20.385   3.476  14.939  1.00  0.00     0.210 HD
ENDBRANCH  10  18
TORSDOF 4
ENDMDL
MODEL 2
REMARK VINA RESULT: -6.809473112      0.550      1.030
REMARK  4 active torsions:
REMARK  status: ('A' for Active; 'I' for Inactive)
REMARK    1  A    between atoms: C7_10  and  O1_11 
REMARK    2  A    between atoms: N2_14  and  C9_15 
REMARK    3  A    between atoms: C9_15  and  C10_16 
REMARK    4  A    between atoms: C10_16  and  C11_17 
ROOT
HETATM    1  C1  UNL     1      16.600  -0.273  11.939  1.00  0.00     0.014 C 
HETATM    2  C2  UNL     1      16.712   0.765  12.532  1.00  0.00    -0.079 C 
HETATM    3  C3  UNL     1      16.854   2.033  13.233  1.00  0.00     0.334 C 
HETATM    4  C4  UNL     1      18.123   2.759  12.839  1.00  0.00     0.266 C 
HETATM    5  N1  UNL     1      17.866   3.820  11.888  1.00  0.00    -0.065 N 
ATOM      6  H11 UNL     1      16.908   4.169  11.885  1.00  0.00     0.277 HD
ATOM      7  H12 UNL     1      17.869   3.529  10.911  1.00  0.00     0.277 HD
HETATM    8  C5  UNL     1      18.867   4.802  12.231  1.00  0.00     0.236 C 
HETATM    9  C6  UNL     1      18.719   4.880  13.743  1.00  0.00     0.069 C 
HETATM   10  C7  UNL     1      18.585   3.445  14.116  1.00  0.00     0.117 C 
HETATM   11  C8  UNL     1      17.402   3.194  15.061  1.00  0.00     0.314 C 
HETATM   12  N2  UNL     1      17.015   1.890  14.647  1.00  0.00     0.109 N 
ENDROOT
BRANCH  12  13
HETATM   13  C9  UNL     1      15.904   1.317  15.323  1.00  0.00     0.275 C 
BRANCH  13  14
HETATM   14  C10 UNL     1      16.193   0.083  16.099  1.00  0.00     0.035 C 
BRANCH  14  15
HETATM   15  C11 UNL     1      15.217  -0.127  17.229  1.00  0.00    -0.013 A 
HETATM   16  C12 UNL     1      14.734   1.007  18.033  1.00  0.00     0.005 A 
HETATM   17  C13 UNL     1      13.784   0.313  17.068  1.00  0.00     0.005 A 
ENDBRANCH  14  15
ENDBRANCH  13  14
ENDBRANCH  12  13
BRANCH  10  18
HETATM   18  O1  UNL     1      19.724   2.874  14.633  1.00  0.00    -0.386 OA
ATOM     19  H1  UNL     1      20.168   3.448  15.247  1.00  0.00     0.210 HD
ENDBRANCH  10  18
TORSDOF 4
ENDMDL
MODEL 3
REMARK VINA RESULT: -6.508328910      1.289      1.655
REMARK  4 active torsions:
REMARK  status: ('A' for Active; 'I' for Inactive)
REMARK    1  A    between atoms: C7_10  and  O1_11 
REMARK    2  A    between atoms: N2_14  and  C9_15 
REMARK    3  A    between atoms: C9_15  and  C10_16 
REMARK    4  A    between atoms: C10_16  and  C11_17 
ROOT
HETATM    1  C1  UNL     1      16.985  -1.499  12.281  1.00  0.00     0.014 C 
HETATM    2  C2  UNL     1      16.772  -0.342  12.521  1.00  0.00    -0.079 C 
HETATM    3  C3  UNL     1      16.517   1.066  12.791  1.00  0.00     0.334 C 
HETATM    4  C4  UNL     1      17.512   1.967  12.090  1.00  0.00     0.266 C 
HETATM    5  N1  UNL     1      16.957   2.553  10.888  1.00  0.00    -0.065 N 
ATOM      6  H11 UNL     1      15.938   2.590  10.860  1.00  0.00     0.277 HD
ATOM      7  H12 UNL     1      17.059   1.984  10.047  1.00  0.00     0.277 HD
HETATM    8  C5  UNL     1      17.611   3.838  10.832  1.00  0.00     0.236 C 
HETATM    9  C6  UNL     1      17.429   4.340  12.256  1.00  0.00     0.069 C 
HETATM   10  C7  UNL     1      17.730   3.121  13.055  1.00  0.00     0.117 C 
HETATM   11  C8  UNL     1      16.668   2.848  14.129  1.00  0.00     0.314 C 
HETATM   12  N2  UNL     1      16.697   1.427  14.162  1.00  0.00     0.109 N 
ENDROOT
BRANCH  12  13
HETATM   13  C9  UNL     1      15.803   0.798  15.071  1.00  0.00     0.275 C 
BRANCH  13  14
HETATM   14  C10 UNL     1      16.405   0.348  16.354  1.00  0.00     0.035 C 
BRANCH  14  15
HETATM   15  C11 UNL     1      15.363   0.035  17.398  1.00  0.00    -0.013 A 
HETATM   16  C12 UNL     1      14.668   1.112  18.121  1.00  0.00     0.005 A 
HETATM   17  C13 UNL     1      13.907   0.284  17.097  1.00  0.00     0.005 A 
ENDBRANCH  14  15
ENDBRANCH  13  14
ENDBRANCH  12  13
BRANCH  10  18
HETATM   18  O1  UNL     1      18.982   3.098  13.623  1.00  0.00    -0.386 OA
ATOM     19  H1  UNL     1      19.673   3.200  12.979  1.00  0.00     0.210 HD
ENDBRANCH  10  18
TORSDOF 4
ENDMDL
MODEL 4
REMARK VINA RESULT: -6.177893817      1.729      5.439
REMARK  4 active torsions:
REMARK  status: ('A' for Active; 'I' for Inactive)
REMARK    1  A    between atoms: C7_10  and  O1_11 
REMARK    2  A    between atoms: N2_14  and  C9_15 
REMARK    3  A    between atoms: C9_15  and  C10_16 
REMARK    4  A    between atoms: C10_16  and  C11_17 
ROOT
HETATM    1  C1  UNL     1      16.323   5.139  14.938  1.00  0.00     0.014 C 
HETATM    2  C2  UNL     1      16.055   3.969  14.900  1.00  0.00    -0.079 C 
HETATM    3  C3  UNL     1      15.719   2.553  14.873  1.00  0.00     0.334 C 
HETATM    4  C4  UNL     1      15.809   1.922  16.247  1.00  0.00     0.266 C 
HETATM    5  N1  UNL     1      14.506   1.767  16.857  1.00  0.00    -0.065 N 
ATOM      6  H11 UNL     1      13.725   1.750  16.201  1.00  0.00     0.277 HD
ATOM      7  H12 UNL     1      14.178   2.578  17.381  1.00  0.00     0.277 HD
HETATM    8  C5  UNL     1      14.665   0.565  17.640  1.00  0.00     0.236 C 
HETATM    9  C6  UNL     1      15.317  -0.374  16.637  1.00  0.00     0.069 C 
HETATM   10  C7  UNL     1      16.321   0.513  15.989  1.00  0.00     0.117 C 
HETATM   11  C8  UNL     1      16.274   0.429  14.457  1.00  0.00     0.314 C 
HETATM   12  N2  UNL     1      16.638   1.761  14.117  1.00  0.00     0.109 N 
ENDROOT
BRANCH  12  13
HETATM   13  C9  UNL     1      16.692   2.065  12.729  1.00  0.00     0.275 C 
BRANCH  13  14
HETATM   14  C10 UNL     1      18.057   2.209  12.158  1.00  0.00     0.035 C 
BRANCH  14  15
HETATM   15  C11 UNL     1      18.660   3.562  12.443  1.00  0.00    -0.013 A 
HETATM   16  C12 UNL     1      19.591   3.753  13.567  1.00  0.00     0.005 A 
HETATM   17  C13 UNL     1      20.116   3.807  12.140  1.00  0.00     0.005 A 
ENDBRANCH  14  15
ENDBRANCH  13  14
ENDBRANCH  12  13
BRANCH  10  18
HETATM   18  O1  UNL     1      17.613   0.339  16.425  1.00  0.00    -0.386 OA
ATOM     19  H1  UNL     1      17.652  -0.044  17.294  1.00  0.00     0.210 HD
ENDBRANCH  10  18
TORSDOF 4
ENDMDL
MODEL 5
REMARK VINA RESULT: -6.076900198      1.992      5.500
REMARK  4 active torsions:
REMARK  status: ('A' for Active; 'I' for Inactive)
REMARK    1  A    between atoms: C7_10  and  O1_11 
REMARK    2  A    between atoms: N2_14  and  C9_15 
REMARK    3  A    between atoms: C9_15  and  C10_16 
REMARK    4  A    between atoms: C10_16  and  C11_17 
ROOT
HETATM    1  C1  UNL     1      15.825   4.860  14.392  1.00  0.00     0.014 C 
HETATM    2  C2  UNL     1      15.680   3.675  14.531  1.00  0.00    -0.079 C 
HETATM    3  C3  UNL     1      15.494   2.244  14.717  1.00  0.00     0.334 C 
HETATM    4  C4  UNL     1      15.703   1.829  16.159  1.00  0.00     0.266 C 
HETATM    5  N1  UNL     1      14.447   1.634  16.853  1.00  0.00    -0.065 N 
ATOM      6  H11 UNL     1      13.648   1.447  16.247  1.00  0.00     0.277 HD
ATOM      7  H12 UNL     1      14.057   2.476  17.276  1.00  0.00     0.277 HD
HETATM    8  C5  UNL     1      14.762   0.578  17.785  1.00  0.00     0.236 C 
HETATM    9  C6  UNL     1      15.470  -0.425  16.889  1.00  0.00     0.069 C 
HETATM   10  C7  UNL     1      16.350   0.455  16.072  1.00  0.00     0.117 C 
HETATM   11  C8  UNL     1      16.253   0.148  14.571  1.00  0.00     0.314 C 
HETATM   12  N2  UNL     1      16.462   1.447  14.031  1.00  0.00     0.109 N 
ENDROOT
BRANCH  12  13
HETATM   13  C9  UNL     1      16.431   1.553  12.614  1.00  0.00     0.275 C 
BRANCH  13  14
HETATM   14  C10 UNL     1      17.733   1.856  11.965  1.00  0.00     0.035 C 
BRANCH  14  15
HETATM   15  C11 UNL     1      17.856   3.308  11.575  1.00  0.00    -0.013 A 
HETATM   16  C12 UNL     1      18.068   3.700  10.172  1.00  0.00     0.005 A 
HETATM   17  C13 UNL     1      16.727   3.979  10.834  1.00  0.00     0.005 A 
ENDBRANCH  14  15
ENDBRANCH  13  14
ENDBRANCH  12  13
BRANCH  10  18
HETATM   18  O1  UNL     1      17.669   0.473  16.459  1.00  0.00    -0.386 OA
ATOM     19  H1  UNL     1      18.230   0.006  15.851  1.00  0.00     0.210 HD
ENDBRANCH  10  18
TORSDOF 4
ENDMDL
