MODEL 1
REMARK VINA RESULT: -5.759123884      0.000      0.000
REMARK  7 active torsions:
REMARK  status: ('A' for Active; 'I' for Inactive)
REMARK    1  A    between atoms: N1_2  and  C3_4 
REMARK    2  A    between atoms: C3_4  and  O1_5 
REMARK    3  A    between atoms: N2_9  and  C6_10 
REMARK    4  A    between atoms: C6_10  and  C7_11 
REMARK    5  A    between atoms: C8_12  and  C9_13 
REMARK    6  A    between atoms: C9_13  and  C10_14 
REMARK    7  A    between atoms: C10_14  and  O2_15 
ROOT
HETATM    1  C3  UNL     1      18.889   3.885  13.016  1.00  0.00     0.261 C 
HETATM    2  C4  UNL     1      18.240   5.161  13.487  1.00  0.00     0.102 C 
HETATM    3  C5  UNL     1      17.333   5.032  14.627  1.00  0.00     0.278 C 
HETATM    4  N2  UNL     1      16.760   3.783  14.939  1.00  0.00     0.099 N 
HETATM    5  C11 UNL     1      17.316   2.631  14.325  1.00  0.00     0.278 C 
HETATM    6  C12 UNL     1      17.793   2.855  12.917  1.00  0.00     0.102 C 
ENDROOT
BRANCH   4   7
HETATM    7  C6  UNL     1      15.327   3.846  14.931  1.00  0.00     0.365 C 
BRANCH   7   8
HETATM    8  C7  UNL     1      14.789   2.707  15.656  1.00  0.00    -0.076 C 
HETATM    9  C8  UNL     1      14.360   1.745  16.263  1.00  0.00    -0.103 C 
BRANCH   9  10
HETATM   10  C9  UNL     1      13.869   0.575  16.990  1.00  0.00     0.119 C 
BRANCH  10  11
HETATM   11  C10 UNL     1      15.064  -0.165  17.565  1.00  0.00     0.176 C 
BRANCH  11  12
HETATM   12  O2  UNL     1      15.344  -1.316  16.824  1.00  0.00    -0.400 OA
ATOM     13  H2  UNL     1      16.273  -1.381  16.632  1.00  0.00     0.209 HD
ENDBRANCH  11  12
ENDBRANCH  10  11
ENDBRANCH   9  10
ENDBRANCH   7   8
ENDBRANCH   4   7
BRANCH   1  14
HETATM   14  N1  UNL     1      19.442   4.123  11.697  1.00  0.00     0.115 N 
HETATM   15  C1  UNL     1      20.652   3.333  11.490  1.00  0.00     0.313 C 
HETATM   16  C2  UNL     1      18.478   3.705  10.709  1.00  0.00     0.313 C 
ENDBRANCH   1  14
BRANCH   1  17
HETATM   17  O1  UNL     1      19.863   3.546  13.954  1.00  0.00    -0.363 OA
ATOM     18  H1  UNL     1      19.913   4.166  14.671  1.00  0.00     0.212 HD
ENDBRANCH   1  17
TORSDOF 7
ENDMDL
MODEL 2
REMARK VINA RESULT: -5.724595714      1.206      1.467
REMARK  7 active torsions:
REMARK  status: ('A' for Active; 'I' for Inactive)
REMARK    1  A    between atoms: N1_2  and  C3_4 
REMARK    2  A    between atoms: C3_4  and  O1_5 
REMARK    3  A    between atoms: N2_9  and  C6_10 
REMARK    4  A    between atoms: C6_10  and  C7_11 
REMARK    5  A    between atoms: C8_12  and  C9_13 
REMARK    6  A    between atoms: C9_13  and  C10_14 
REMARK    7  A    between atoms: C10_14  and  O2_15 
ROOT
HETATM    1  C3  UNL     1      19.734   3.474  12.643  1.00  0.00     0.261 C 
HETATM    2  C4  UNL     1      19.428   3.959  14.036  1.00  0.00     0.102 C 
HETATM    3  C5  UNL     1      18.289   3.323  14.698  1.00  0.00     0.278 C 
HETATM    4  N2  UNL     1      17.298   2.676  13.934  1.00  0.00     0.099 N 
HETATM    5  C11 UNL     1      17.590   2.399  12.573  1.00  0.00     0.278 C 
HETATM    6  C12 UNL     1      18.425   3.451  11.897  1.00  0.00     0.102 C 
ENDROOT
BRANCH   4   7
HETATM    7  C6  UNL     1      16.000   3.236  14.176  1.00  0.00     0.365 C 
BRANCH   7   8
HETATM    8  C7  UNL     1      15.281   2.400  15.124  1.00  0.00    -0.076 C 
HETATM    9  C8  UNL     1      14.701   1.694  15.925  1.00  0.00    -0.103 C 
BRANCH   9  10
HETATM   10  C9  UNL     1      14.027   0.831  16.895  1.00  0.00     0.119 C 
BRANCH  10  11
HETATM   11  C10 UNL     1      15.084   0.036  17.640  1.00  0.00     0.176 C 
BRANCH  11  12
HETATM   12  O2  UNL     1      15.139  -1.282  17.179  1.00  0.00    -0.400 OA
ATOM     13  H2  UNL     1      14.730  -1.877  17.798  1.00  0.00     0.209 HD
ENDBRANCH  11  12
ENDBRANCH  10  11
ENDBRANCH   9  10
ENDBRANCH   7   8
ENDBRANCH   4   7
BRANCH   1  14
HETATM   14  N1  UNL     1      20.622   4.435  12.018  1.00  0.00     0.115 N 
HETATM   15  C1  UNL     1      20.619   4.278  10.567  1.00  0.00     0.313 C 
HETATM   16  C2  UNL     1      20.146   5.764  12.312  1.00  0.00     0.313 C 
ENDBRANCH   1  14
BRANCH   1  17
HETATM   17  O1  UNL     1      20.308   2.209  12.762  1.00  0.00    -0.363 OA
ATOM     18  H1  UNL     1      19.676   1.540  12.998  1.00  0.00     0.212 HD
ENDBRANCH   1  17
TORSDOF 7
ENDMDL
MODEL 3
REMARK VINA RESULT: -5.618804153      1.537      1.837
REMARK  7 active torsions:
REMARK  status: ('A' for Active; 'I' for Inactive)
REMARK    1  A    between atoms: N1_2  and  C3_4 
REMARK    2  A    between atoms: C3_4  and  O1_5 
REMARK    3  A    between atoms: N2_9  and  C6_10 
REMARK    4  A    between atoms: C6_10  and  C7_11 
REMARK    5  A    between atoms: C8_12  and  C9_13 
REMARK    6  A    between atoms: C9_13  and  C10_14 
REMARK    7  A    between atoms: C10_14  and  O2_15 
ROOT
HETATM    1  C3  UNL     1      17.433   2.585  12.581  1.00  0.00     0.261 C 
HETATM    2  C4  UNL     1      16.805   3.953  12.508  1.00  0.00     0.102 C 
HETATM    3  C5  UNL     1      16.462   4.567  13.791  1.00  0.00     0.278 C 
HETATM    4  N2  UNL     1      16.294   3.766  14.937  1.00  0.00     0.099 N 
HETATM    5  C11 UNL     1      16.759   2.426  14.879  1.00  0.00     0.278 C 
HETATM    6  C12 UNL     1      16.592   1.775  13.534  1.00  0.00     0.102 C 
ENDROOT
BRANCH   4   7
HETATM    7  C6  UNL     1      14.989   3.932  15.508  1.00  0.00     0.365 C 
BRANCH   7   8
HETATM    8  C7  UNL     1      14.557   2.678  16.103  1.00  0.00    -0.076 C 
HETATM    9  C8  UNL     1      14.217   1.621  16.597  1.00  0.00    -0.103 C 
BRANCH   9  10
HETATM   10  C9  UNL     1      13.833   0.338  17.184  1.00  0.00     0.119 C 
BRANCH  10  11
HETATM   11  C10 UNL     1      15.098  -0.400  17.585  1.00  0.00     0.176 C 
BRANCH  11  12
HETATM   12  O2  UNL     1      15.561  -1.204  16.539  1.00  0.00    -0.400 OA
ATOM     13  H2  UNL     1      16.511  -1.243  16.534  1.00  0.00     0.209 HD
ENDBRANCH  11  12
ENDBRANCH  10  11
ENDBRANCH   9  10
ENDBRANCH   7   8
ENDBRANCH   4   7
BRANCH   1  14
HETATM   14  N1  UNL     1      17.367   1.990  11.261  1.00  0.00     0.115 N 
HETATM   15  C1  UNL     1      16.227   1.084  11.157  1.00  0.00     0.313 C 
HETATM   16  C2  UNL     1      17.176   3.039  10.290  1.00  0.00     0.313 C 
ENDBRANCH   1  14
BRANCH   1  17
HETATM   17  O1  UNL     1      18.742   2.755  13.029  1.00  0.00    -0.363 OA
ATOM     18  H1  UNL     1      18.926   3.648  13.295  1.00  0.00     0.212 HD
ENDBRANCH   1  17
TORSDOF 7
ENDMDL
MODEL 4
REMARK VINA RESULT: -5.604165297      1.421      1.954
REMARK  7 active torsions:
REMARK  status: ('A' for Active; 'I' for Inactive)
REMARK    1  A    between atoms: N1_2  and  C3_4 
REMARK    2  A    between atoms: C3_4  and  O1_5 
REMARK    3  A    between atoms: N2_9  and  C6_10 
REMARK    4  A    between atoms: C6_10  and  C7_11 
REMARK    5  A    between atoms: C8_12  and  C9_13 
REMARK    6  A    between atoms: C9_13  and  C10_14 
REMARK    7  A    between atoms: C10_14  and  O2_15 
ROOT
HETATM    1  C3  UNL     1      18.573   4.605  13.348  1.00  0.00     0.261 C 
HETATM    2  C4  UNL     1      18.498   3.647  14.508  1.00  0.00     0.102 C 
HETATM    3  C5  UNL     1      17.198   3.014  14.730  1.00  0.00     0.278 C 
HETATM    4  N2  UNL     1      16.026   3.603  14.214  1.00  0.00     0.099 N 
HETATM    5  C11 UNL     1      16.175   4.625  13.242  1.00  0.00     0.278 C 
HETATM    6  C12 UNL     1      17.372   5.510  13.457  1.00  0.00     0.102 C 
ENDROOT
BRANCH   4   7
HETATM    7  C6  UNL     1      15.080   3.886  15.254  1.00  0.00     0.365 C 
BRANCH   7   8
HETATM    8  C7  UNL     1      14.681   2.644  15.897  1.00  0.00    -0.076 C 
HETATM    9  C8  UNL     1      14.328   1.607  16.422  1.00  0.00    -0.103 C 
BRANCH   9  10
HETATM   10  C9  UNL     1      13.876   0.362  17.045  1.00  0.00     0.119 C 
BRANCH  10  11
HETATM   11  C10 UNL     1      15.100  -0.464  17.398  1.00  0.00     0.176 C 
BRANCH  11  12
HETATM   12  O2  UNL     1      15.530  -1.218  16.302  1.00  0.00    -0.400 OA
ATOM     13  H2  UNL     1      14.791  -1.580  15.826  1.00  0.00     0.209 HD
ENDBRANCH  11  12
ENDBRANCH  10  11
ENDBRANCH   9  10
ENDBRANCH   7   8
ENDBRANCH   4   7
BRANCH   1  14
HETATM   14  N1  UNL     1      19.780   5.395  13.496  1.00  0.00     0.115 N 
HETATM   15  C1  UNL     1      20.379   5.676  12.195  1.00  0.00     0.313 C 
HETATM   16  C2  UNL     1      19.435   6.660  14.096  1.00  0.00     0.313 C 
ENDBRANCH   1  14
BRANCH   1  17
HETATM   17  O1  UNL     1      18.568   3.843  12.180  1.00  0.00    -0.363 OA
ATOM     18  H1  UNL     1      17.876   4.096  11.580  1.00  0.00     0.212 HD
ENDBRANCH   1  17
TORSDOF 7
ENDMDL
MODEL 5
REMARK VINA RESULT: -5.353535512      2.849      6.423
REMARK  7 active torsions:
REMARK  status: ('A' for Active; 'I' for Inactive)
REMARK    1  A    between atoms: N1_2  and  C3_4 
REMARK    2  A    between atoms: C3_4  and  O1_5 
REMARK    3  A    between atoms: N2_9  and  C6_10 
REMARK    4  A    between atoms: C6_10  and  C7_11 
REMARK    5  A    between atoms: C8_12  and  C9_13 
REMARK    6  A    between atoms: C9_13  and  C10_14 
REMARK    7  A    between atoms: C10_14  and  O2_15 
ROOT
HETATM    1  C3  UNL     1      16.480   0.909  15.994  1.00  0.00     0.261 C 
HETATM    2  C4  UNL     1      16.277  -0.390  15.257  1.00  0.00     0.102 C 
HETATM    3  C5  UNL     1      16.773  -0.427  13.881  1.00  0.00     0.278 C 
HETATM    4  N2  UNL     1      16.979   0.772  13.170  1.00  0.00     0.099 N 
HETATM    5  C11 UNL     1      16.990   1.983  13.909  1.00  0.00     0.278 C 
HETATM    6  C12 UNL     1      16.029   2.007  15.065  1.00  0.00     0.102 C 
ENDROOT
BRANCH   4   7
HETATM    7  C6  UNL     1      16.209   0.804  11.960  1.00  0.00     0.365 C 
BRANCH   7   8
HETATM    8  C7  UNL     1      16.607   1.954  11.164  1.00  0.00    -0.076 C 
HETATM    9  C8  UNL     1      16.941   2.927  10.518  1.00  0.00    -0.103 C 
BRANCH   9  10
HETATM   10  C9  UNL     1      17.339   4.115   9.762  1.00  0.00     0.119 C 
BRANCH  10  11
HETATM   11  C10 UNL     1      16.422   5.259  10.157  1.00  0.00     0.176 C 
BRANCH  11  12
HETATM   12  O2  UNL     1      15.080   4.900  10.007  1.00  0.00    -0.400 OA
ATOM     13  H2  UNL     1      14.995   3.977   9.795  1.00  0.00     0.209 HD
ENDBRANCH  11  12
ENDBRANCH  10  11
ENDBRANCH   9  10
ENDBRANCH   7   8
ENDBRANCH   4   7
BRANCH   1  14
HETATM   14  N1  UNL     1      15.630   0.896  17.168  1.00  0.00     0.115 N 
HETATM   15  C1  UNL     1      14.473   1.766  16.980  1.00  0.00     0.313 C 
HETATM   16  C2  UNL     1      15.136  -0.444  17.366  1.00  0.00     0.313 C 
ENDBRANCH   1  14
BRANCH   1  17
HETATM   17  O1  UNL     1      17.835   0.996  16.312  1.00  0.00    -0.363 OA
ATOM     18  H1  UNL     1      18.396   0.919  15.549  1.00  0.00     0.212 HD
ENDBRANCH   1  17
TORSDOF 7
ENDMDL
