MODEL 1
REMARK VINA RESULT: -7.109398267      0.000      0.000
REMARK  3 active torsions:
REMARK  status: ('A' for Active; 'I' for Inactive)
REMARK    1  A    between atoms: C3_5  and  C4_6 
REMARK    2  A    between atoms: C4_6  and  S1_7 
REMARK    3  A    between atoms: S1_7  and  C5_9 
ROOT
HETATM    1  C4  UNL     1      16.554   3.185  13.196  1.00  0.00     0.162 C 
ENDROOT
BRANCH   1   2
HETATM    2  C3  UNL     1      16.761   1.985  12.337  1.00  0.00     0.235 C 
HETATM    3  O2  UNL     1      15.534   1.395  11.956  1.00  0.00    -0.357 OA
HETATM    4  C2  UNL     1      16.023   0.300  11.214  1.00  0.00     0.273 C 
HETATM    5  C1  UNL     1      17.025  -0.259  12.159  1.00  0.00     0.243 C 
HETATM    6  O1  UNL     1      17.505  -1.409  12.255  1.00  0.00    -0.271 OA
HETATM    7  N1  UNL     1      17.371   0.856  13.011  1.00  0.00    -0.332 N 
ATOM      8  H1  UNL     1      17.912   0.850  13.876  1.00  0.00     0.165 HD
ENDBRANCH   1   2
BRANCH   1   9
HETATM    9  S1  UNL     1      16.815   2.740  14.882  1.00  0.00     0.023 S 
HETATM   10  O3  UNL     1      18.377   2.382  15.270  1.00  0.00    -0.258 OA
BRANCH   9  11
HETATM   11  C5  UNL     1      15.652   1.547  15.461  1.00  0.00     0.079 C 
HETATM   12  C6  UNL     1      16.265   0.433  16.236  1.00  0.00     0.017 C 
HETATM   13  C7  UNL     1      15.385  -0.296  17.158  1.00  0.00     0.001 C 
HETATM   14  C8  UNL     1      14.065   0.267  17.476  1.00  0.00     0.000 C 
HETATM   15  C9  UNL     1      13.517   1.270  16.523  1.00  0.00     0.001 C 
HETATM   16  C10 UNL     1      14.604   2.311  16.277  1.00  0.00     0.017 C 
ENDBRANCH   9  11
ENDBRANCH   1   9
TORSDOF 3
ENDMDL
MODEL 2
REMARK VINA RESULT: -7.100665304      1.143      1.314
REMARK  3 active torsions:
REMARK  status: ('A' for Active; 'I' for Inactive)
REMARK    1  A    between atoms: C3_5  and  C4_6 
REMARK    2  A    between atoms: C4_6  and  S1_7 
REMARK    3  A    between atoms: S1_7  and  C5_9 
ROOT
HETATM    1  C4  UNL     1      16.734   2.559  12.870  1.00  0.00     0.162 C 
ENDROOT
BRANCH   1   2
HETATM    2  C3  UNL     1      16.364   1.186  12.423  1.00  0.00     0.235 C 
HETATM    3  O2  UNL     1      17.401   0.256  12.667  1.00  0.00    -0.357 OA
HETATM    4  C2  UNL     1      16.808  -0.901  12.125  1.00  0.00     0.273 C 
HETATM    5  C1  UNL     1      16.357  -0.397  10.801  1.00  0.00     0.243 C 
HETATM    6  O1  UNL     1      16.117  -1.003   9.735  1.00  0.00    -0.271 OA
HETATM    7  N1  UNL     1      16.236   1.031  10.987  1.00  0.00    -0.332 N 
ATOM      8  H1  UNL     1      16.095   1.754  10.281  1.00  0.00     0.165 HD
ENDBRANCH   1   2
BRANCH   1   9
HETATM    9  S1  UNL     1      16.750   2.608  14.632  1.00  0.00     0.023 S 
HETATM   10  O3  UNL     1      18.251   2.573  15.313  1.00  0.00    -0.258 OA
BRANCH   9  11
HETATM   11  C5  UNL     1      15.619   1.465  15.357  1.00  0.00     0.079 C 
HETATM   12  C6  UNL     1      16.276   0.359  16.108  1.00  0.00     0.017 C 
HETATM   13  C7  UNL     1      15.471  -0.318  17.132  1.00  0.00     0.001 C 
HETATM   14  C8  UNL     1      14.200   0.290  17.554  1.00  0.00     0.000 C 
HETATM   15  C9  UNL     1      13.588   1.277  16.624  1.00  0.00     0.001 C 
HETATM   16  C10 UNL     1      14.671   2.281  16.243  1.00  0.00     0.017 C 
ENDBRANCH   9  11
ENDBRANCH   1   9
TORSDOF 3
ENDMDL
MODEL 3
REMARK VINA RESULT: -6.576020995      1.795      2.281
REMARK  3 active torsions:
REMARK  status: ('A' for Active; 'I' for Inactive)
REMARK    1  A    between atoms: C3_5  and  C4_6 
REMARK    2  A    between atoms: C4_6  and  S1_7 
REMARK    3  A    between atoms: S1_7  and  C5_9 
ROOT
HETATM    1  C4  UNL     1      16.537   1.226  13.413  1.00  0.00     0.162 C 
ENDROOT
BRANCH   1   2
HETATM    2  C3  UNL     1      16.854   0.296  12.293  1.00  0.00     0.235 C 
HETATM    3  O2  UNL     1      15.689  -0.114  11.605  1.00  0.00    -0.357 OA
HETATM    4  C2  UNL     1      16.270  -0.988  10.664  1.00  0.00     0.273 C 
HETATM    5  C1  UNL     1      17.126  -1.826  11.543  1.00  0.00     0.243 C 
HETATM    6  O1  UNL     1      17.580  -2.979  11.383  1.00  0.00    -0.271 OA
HETATM    7  N1  UNL     1      17.357  -1.000  12.707  1.00  0.00    -0.332 N 
ATOM      8  H1  UNL     1      17.772  -1.264  13.601  1.00  0.00     0.165 HD
ENDBRANCH   1   2
BRANCH   1   9
HETATM    9  S1  UNL     1      16.633   0.348  14.939  1.00  0.00     0.023 S 
HETATM   10  O3  UNL     1      16.078  -1.204  14.881  1.00  0.00    -0.258 OA
BRANCH   9  11
HETATM   11  C5  UNL     1      16.001   1.274  16.300  1.00  0.00     0.079 C 
HETATM   12  C6  UNL     1      15.118   2.405  15.903  1.00  0.00     0.017 C 
HETATM   13  C7  UNL     1      14.171   2.894  16.913  1.00  0.00     0.001 C 
HETATM   14  C8  UNL     1      13.946   2.091  18.124  1.00  0.00     0.000 C 
HETATM   15  C9  UNL     1      14.995   1.095  18.473  1.00  0.00     0.001 C 
HETATM   16  C10 UNL     1      15.286   0.278  17.219  1.00  0.00     0.017 C 
ENDBRANCH   9  11
ENDBRANCH   1   9
TORSDOF 3
ENDMDL
MODEL 4
REMARK VINA RESULT: -6.511313685      3.032      5.447
REMARK  3 active torsions:
REMARK  status: ('A' for Active; 'I' for Inactive)
REMARK    1  A    between atoms: C3_5  and  C4_6 
REMARK    2  A    between atoms: C4_6  and  S1_7 
REMARK    3  A    between atoms: S1_7  and  C5_9 
ROOT
HETATM    1  C4  UNL     1      15.559   3.068  15.426  1.00  0.00     0.162 C 
ENDROOT
BRANCH   1   2
HETATM    2  C3  UNL     1      14.925   1.752  15.727  1.00  0.00     0.235 C 
HETATM    3  O2  UNL     1      14.036   1.836  16.823  1.00  0.00    -0.357 OA
HETATM    4  C2  UNL     1      13.634   0.487  16.900  1.00  0.00     0.273 C 
HETATM    5  C1  UNL     1      14.950  -0.204  16.871  1.00  0.00     0.243 C 
HETATM    6  O1  UNL     1      15.287  -1.335  17.281  1.00  0.00    -0.271 OA
HETATM    7  N1  UNL     1      15.835   0.744  16.233  1.00  0.00    -0.332 N 
ATOM      8  H1  UNL     1      16.852   0.711  16.157  1.00  0.00     0.165 HD
ENDBRANCH   1   2
BRANCH   1   9
HETATM    9  S1  UNL     1      17.160   2.794  14.740  1.00  0.00     0.023 S 
HETATM   10  O3  UNL     1      18.226   2.042  15.749  1.00  0.00    -0.258 OA
BRANCH   9  11
HETATM   11  C5  UNL     1      17.821   4.229  13.957  1.00  0.00     0.079 C 
HETATM   12  C6  UNL     1      17.436   5.508  14.615  1.00  0.00     0.017 C 
HETATM   13  C7  UNL     1      18.305   6.667  14.374  1.00  0.00     0.001 C 
HETATM   14  C8  UNL     1      19.620   6.452  13.752  1.00  0.00     0.000 C 
HETATM   15  C9  UNL     1      19.807   5.182  13.001  1.00  0.00     0.001 C 
HETATM   16  C10 UNL     1      19.341   4.043  13.902  1.00  0.00     0.017 C 
ENDBRANCH   9  11
ENDBRANCH   1   9
TORSDOF 3
ENDMDL
MODEL 5
REMARK VINA RESULT: -6.344727634      2.398      2.643
REMARK  3 active torsions:
REMARK  status: ('A' for Active; 'I' for Inactive)
REMARK    1  A    between atoms: C3_5  and  C4_6 
REMARK    2  A    between atoms: C4_6  and  S1_7 
REMARK    3  A    between atoms: S1_7  and  C5_9 
ROOT
HETATM    1  C4  UNL     1      17.133   3.749  14.357  1.00  0.00     0.162 C 
ENDROOT
BRANCH   1   2
HETATM    2  C3  UNL     1      17.252   3.976  12.889  1.00  0.00     0.235 C 
HETATM    3  O2  UNL     1      16.114   4.631  12.365  1.00  0.00    -0.357 OA
HETATM    4  C2  UNL     1      16.476   4.672  11.003  1.00  0.00     0.273 C 
HETATM    5  C1  UNL     1      16.875   3.259  10.772  1.00  0.00     0.243 C 
HETATM    6  O1  UNL     1      16.923   2.585   9.721  1.00  0.00    -0.271 OA
HETATM    7  N1  UNL     1      17.224   2.768  12.086  1.00  0.00    -0.332 N 
ATOM      8  H1  UNL     1      17.407   1.808  12.378  1.00  0.00     0.165 HD
ENDBRANCH   1   2
BRANCH   1   9
HETATM    9  S1  UNL     1      15.432   3.560  14.777  1.00  0.00     0.023 S 
HETATM   10  O3  UNL     1      14.829   4.730  15.769  1.00  0.00    -0.258 OA
BRANCH   9  11
HETATM   11  C5  UNL     1      15.035   1.921  15.296  1.00  0.00     0.079 C 
HETATM   12  C6  UNL     1      16.201   0.995  15.316  1.00  0.00     0.017 C 
HETATM   13  C7  UNL     1      16.096  -0.186  16.182  1.00  0.00     0.001 C 
HETATM   14  C8  UNL     1      15.008  -0.250  17.168  1.00  0.00     0.000 C 
HETATM   15  C9  UNL     1      13.837   0.637  16.933  1.00  0.00     0.001 C 
HETATM   16  C10 UNL     1      14.370   2.041  16.671  1.00  0.00     0.017 C 
ENDBRANCH   9  11
ENDBRANCH   1   9
TORSDOF 3
ENDMDL
