MODEL 1
REMARK VINA RESULT: -6.102092722      0.000      0.000
REMARK  3 active torsions:
REMARK  status: ('A' for Active; 'I' for Inactive)
REMARK       I    between atoms: C1_4  and  N3_6 
REMARK    1  A    between atoms: C4_9  and  C5_10 
REMARK    2  A    between atoms: C5_10  and  C6_11 
REMARK    3  A    between atoms: C6_11  and  N4_12 
ROOT
HETATM    1  N1  UNL     1      15.074   0.682  18.398  1.00  0.00    -0.374 N 
ATOM      2  H11 UNL     1      15.654   1.392  18.843  1.00  0.00     0.158 HD
ATOM      3  H12 UNL     1      14.652  -0.041  18.980  1.00  0.00     0.158 HD
HETATM    4  C1  UNL     1      14.880   0.699  17.144  1.00  0.00     0.183 C 
HETATM    5  N2  UNL     1      14.080  -0.279  16.531  1.00  0.00    -0.064 NA
HETATM    6  N3  UNL     1      15.464   1.700  16.339  1.00  0.00    -0.356 N 
HETATM    7  C2  UNL     1      14.652   2.851  16.013  1.00  0.00     0.126 C 
HETATM    8  C3  UNL     1      15.172   3.345  14.656  1.00  0.00     0.024 C 
HETATM    9  C4  UNL     1      16.590   3.820  14.925  1.00  0.00    -0.010 C 
HETATM   10  C10 UNL     1      17.482   2.663  15.278  1.00  0.00     0.024 C 
HETATM   11  C11 UNL     1      16.813   1.505  15.904  1.00  0.00     0.126 C 
ENDROOT
BRANCH   9  12
HETATM   12  C5  UNL     1      17.140   4.698  13.849  1.00  0.00     0.035 C 
BRANCH  12  13
HETATM   13  C6  UNL     1      16.473   4.597  12.525  1.00  0.00     0.275 C 
BRANCH  13  14
HETATM   14  N4  UNL     1      17.376   3.925  11.621  1.00  0.00     0.113 N 
HETATM   15  C7  UNL     1      17.932   4.786  10.631  1.00  0.00     0.301 C 
HETATM   16  C8  UNL     1      17.345   4.237   9.339  1.00  0.00     0.200 C 
HETATM   17  O1  UNL     1      17.231   2.884   9.614  1.00  0.00    -0.361 OA
HETATM   18  C9  UNL     1      16.847   2.786  10.954  1.00  0.00     0.440 C 
ENDBRANCH  13  14
ENDBRANCH  12  13
ENDBRANCH   9  12
TORSDOF 3
ENDMDL
MODEL 2
REMARK VINA RESULT: -6.056730987      3.017      6.302
REMARK  3 active torsions:
REMARK  status: ('A' for Active; 'I' for Inactive)
REMARK       I    between atoms: C1_4  and  N3_6 
REMARK    1  A    between atoms: C4_9  and  C5_10 
REMARK    2  A    between atoms: C5_10  and  C6_11 
REMARK    3  A    between atoms: C6_11  and  N4_12 
ROOT
HETATM    1  N1  UNL     1      19.849   5.181  12.786  1.00  0.00    -0.374 N 
ATOM      2  H11 UNL     1      19.637   4.367  12.210  1.00  0.00     0.158 HD
ATOM      3  H12 UNL     1      20.647   5.764  12.535  1.00  0.00     0.158 HD
HETATM    4  C1  UNL     1      19.135   5.462  13.797  1.00  0.00     0.183 C 
HETATM    5  N2  UNL     1      19.428   6.583  14.590  1.00  0.00    -0.064 NA
HETATM    6  N3  UNL     1      18.031   4.654  14.145  1.00  0.00    -0.356 N 
HETATM    7  C2  UNL     1      16.727   5.075  13.685  1.00  0.00     0.126 C 
HETATM    8  C3  UNL     1      15.735   4.537  14.725  1.00  0.00     0.024 C 
HETATM    9  C4  UNL     1      15.819   3.024  14.608  1.00  0.00    -0.010 C 
HETATM   10  C10 UNL     1      17.162   2.529  15.068  1.00  0.00     0.024 C 
HETATM   11  C11 UNL     1      18.281   3.482  14.926  1.00  0.00     0.126 C 
ENDROOT
BRANCH   9  12
HETATM   12  C5  UNL     1      14.667   2.311  15.236  1.00  0.00     0.035 C 
BRANCH  12  13
HETATM   13  C6  UNL     1      14.349   2.699  16.635  1.00  0.00     0.275 C 
BRANCH  13  14
HETATM   14  N4  UNL     1      14.022   1.499  17.367  1.00  0.00     0.113 N 
HETATM   15  C7  UNL     1      15.102   0.999  18.149  1.00  0.00     0.301 C 
HETATM   16  C8  UNL     1      15.415  -0.332  17.482  1.00  0.00     0.200 C 
HETATM   17  O1  UNL     1      14.172  -0.736  17.025  1.00  0.00    -0.361 OA
HETATM   18  C9  UNL     1      13.518   0.419  16.589  1.00  0.00     0.440 C 
ENDBRANCH  13  14
ENDBRANCH  12  13
ENDBRANCH   9  12
TORSDOF 3
ENDMDL
MODEL 3
REMARK VINA RESULT: -6.032733449      2.798      6.194
REMARK  3 active torsions:
REMARK  status: ('A' for Active; 'I' for Inactive)
REMARK       I    between atoms: C1_4  and  N3_6 
REMARK    1  A    between atoms: C4_9  and  C5_10 
REMARK    2  A    between atoms: C5_10  and  C6_11 
REMARK    3  A    between atoms: C6_11  and  N4_12 
ROOT
HETATM    1  N1  UNL     1      20.420   2.595  12.564  1.00  0.00    -0.374 N 
ATOM      2  H11 UNL     1      20.124   1.624  12.658  1.00  0.00     0.158 HD
ATOM      3  H12 UNL     1      21.334   2.791  12.155  1.00  0.00     0.158 HD
HETATM    4  C1  UNL     1      19.667   3.541  12.950  1.00  0.00     0.183 C 
HETATM    5  N2  UNL     1      20.076   4.878  12.820  1.00  0.00    -0.064 NA
HETATM    6  N3  UNL     1      18.403   3.270  13.517  1.00  0.00    -0.356 N 
HETATM    7  C2  UNL     1      17.254   3.330  12.642  1.00  0.00     0.126 C 
HETATM    8  C3  UNL     1      16.077   3.726  13.543  1.00  0.00     0.024 C 
HETATM    9  C4  UNL     1      15.894   2.555  14.494  1.00  0.00    -0.010 C 
HETATM   10  C10 UNL     1      17.067   2.438  15.426  1.00  0.00     0.024 C 
HETATM   11  C11 UNL     1      18.351   2.956  14.911  1.00  0.00     0.126 C 
ENDROOT
BRANCH   9  12
HETATM   12  C5  UNL     1      14.571   2.549  15.187  1.00  0.00     0.035 C 
BRANCH  12  13
HETATM   13  C6  UNL     1      14.607   2.771  16.655  1.00  0.00     0.275 C 
BRANCH  13  14
HETATM   14  N4  UNL     1      14.107   1.580  17.299  1.00  0.00     0.113 N 
HETATM   15  C7  UNL     1      15.081   0.913  18.096  1.00  0.00     0.301 C 
HETATM   16  C8  UNL     1      15.271  -0.408  17.365  1.00  0.00     0.200 C 
HETATM   17  O1  UNL     1      14.014  -0.636  16.830  1.00  0.00    -0.361 OA
HETATM   18  C9  UNL     1      13.522   0.611  16.436  1.00  0.00     0.440 C 
ENDBRANCH  13  14
ENDBRANCH  12  13
ENDBRANCH   9  12
TORSDOF 3
ENDMDL
MODEL 4
REMARK VINA RESULT: -5.950476154      1.551      1.841
REMARK  3 active torsions:
REMARK  status: ('A' for Active; 'I' for Inactive)
REMARK       I    between atoms: C1_4  and  N3_6 
REMARK    1  A    between atoms: C4_9  and  C5_10 
REMARK    2  A    between atoms: C5_10  and  C6_11 
REMARK    3  A    between atoms: C6_11  and  N4_12 
ROOT
HETATM    1  N1  UNL     1      15.231   0.500  18.331  1.00  0.00    -0.374 N 
ATOM      2  H11 UNL     1      15.855   1.178  18.768  1.00  0.00     0.158 HD
ATOM      3  H12 UNL     1      14.877  -0.273  18.894  1.00  0.00     0.158 HD
HETATM    4  C1  UNL     1      14.903   0.615  17.111  1.00  0.00     0.183 C 
HETATM    5  N2  UNL     1      14.044  -0.318  16.510  1.00  0.00    -0.064 NA
HETATM    6  N3  UNL     1      15.395   1.685  16.332  1.00  0.00    -0.356 N 
HETATM    7  C2  UNL     1      14.549   2.849  16.190  1.00  0.00     0.126 C 
HETATM    8  C3  UNL     1      14.919   3.457  14.830  1.00  0.00     0.024 C 
HETATM    9  C4  UNL     1      16.356   3.925  14.983  1.00  0.00    -0.010 C 
HETATM   10  C10 UNL     1      17.284   2.753  15.142  1.00  0.00     0.024 C 
HETATM   11  C11 UNL     1      16.689   1.540  15.740  1.00  0.00     0.126 C 
ENDROOT
BRANCH   9  12
HETATM   12  C5  UNL     1      16.785   4.893  13.929  1.00  0.00     0.035 C 
BRANCH  12  13
HETATM   13  C6  UNL     1      16.687   4.411  12.527  1.00  0.00     0.275 C 
BRANCH  13  14
HETATM   14  N4  UNL     1      17.982   4.565  11.911  1.00  0.00     0.113 N 
HETATM   15  C7  UNL     1      18.549   3.336  11.466  1.00  0.00     0.301 C 
HETATM   16  C8  UNL     1      19.770   3.183  12.360  1.00  0.00     0.200 C 
HETATM   17  O1  UNL     1      20.147   4.498  12.578  1.00  0.00    -0.361 OA
HETATM   18  C9  UNL     1      18.964   5.232  12.696  1.00  0.00     0.440 C 
ENDBRANCH  13  14
ENDBRANCH  12  13
ENDBRANCH   9  12
TORSDOF 3
ENDMDL
MODEL 5
REMARK VINA RESULT: -5.886772447      1.269      1.309
REMARK  3 active torsions:
REMARK  status: ('A' for Active; 'I' for Inactive)
REMARK       I    between atoms: C1_4  and  N3_6 
REMARK    1  A    between atoms: C4_9  and  C5_10 
REMARK    2  A    between atoms: C5_10  and  C6_11 
REMARK    3  A    between atoms: C6_11  and  N4_12 
ROOT
HETATM    1  N1  UNL     1      15.080   0.669  18.566  1.00  0.00    -0.374 N 
ATOM      2  H11 UNL     1      15.665   1.407  18.956  1.00  0.00     0.158 HD
ATOM      3  H12 UNL     1      14.682  -0.026  19.197  1.00  0.00     0.158 HD
HETATM    4  C1  UNL     1      14.852   0.616  17.319  1.00  0.00     0.183 C 
HETATM    5  N2  UNL     1      14.046  -0.400  16.782  1.00  0.00    -0.064 NA
HETATM    6  N3  UNL     1      15.402   1.578  16.445  1.00  0.00    -0.356 N 
HETATM    7  C2  UNL     1      14.569   2.702  16.081  1.00  0.00     0.126 C 
HETATM    8  C3  UNL     1      15.046   3.128  14.686  1.00  0.00     0.024 C 
HETATM    9  C4  UNL     1      16.466   3.630  14.889  1.00  0.00    -0.010 C 
HETATM   10  C10 UNL     1      17.379   2.502  15.278  1.00  0.00     0.024 C 
HETATM   11  C11 UNL     1      16.740   1.373  15.984  1.00  0.00     0.126 C 
ENDROOT
BRANCH   9  12
HETATM   12  C5  UNL     1      16.976   4.454  13.753  1.00  0.00     0.035 C 
BRANCH  12  13
HETATM   13  C6  UNL     1      15.952   5.213  12.990  1.00  0.00     0.275 C 
BRANCH  13  14
HETATM   14  N4  UNL     1      16.483   5.483  11.676  1.00  0.00     0.113 N 
HETATM   15  C7  UNL     1      15.803   6.533  10.993  1.00  0.00     0.301 C 
HETATM   16  C8  UNL     1      15.159   5.811   9.818  1.00  0.00     0.200 C 
HETATM   17  O1  UNL     1      16.069   4.800   9.555  1.00  0.00    -0.361 OA
HETATM   18  C9  UNL     1      16.546   4.368  10.795  1.00  0.00     0.440 C 
ENDBRANCH  13  14
ENDBRANCH  12  13
ENDBRANCH   9  12
TORSDOF 3
ENDMDL
