MODEL 1
REMARK VINA RESULT: -6.880365515      0.000      0.000
REMARK  5 active torsions:
REMARK  status: ('A' for Active; 'I' for Inactive)
REMARK    1  A    between atoms: C2_2  and  C3_5 
REMARK    2  A    between atoms: C3_5  and  N1_6 
REMARK    3  A    between atoms: C5_8  and  C6_9 
REMARK    4  A    between atoms: C6_9  and  C7_10 
REMARK    5  A    between atoms: C7_10  and  C8_13 
ROOT
HETATM    1  N1  UNL     1      16.908   4.078  14.017  1.00  0.00    -0.380 N 
HETATM    2  C4  UNL     1      16.499   3.509  15.242  1.00  0.00     0.155 C 
HETATM    3  C5  UNL     1      16.930   2.076  15.302  1.00  0.00     0.210 C 
HETATM    4  N2  UNL     1      16.464   1.324  14.125  1.00  0.00    -0.061 N 
ATOM      5  H21 UNL     1      15.449   1.285  14.034  1.00  0.00     0.278 HD
ATOM      6  H22 UNL     1      16.614   0.317  14.191  1.00  0.00     0.278 HD
HETATM    7  C9  UNL     1      17.124   1.938  13.013  1.00  0.00     0.236 C 
HETATM    8  C10 UNL     1      16.737   1.411  11.666  1.00  0.00     0.267 C 
HETATM    9  N3  UNL     1      17.088   2.489  10.782  1.00  0.00    -0.071 N 
ATOM     10  H31 UNL     1      16.471   2.554   9.973  1.00  0.00     0.277 HD
ATOM     11  H32 UNL     1      17.957   2.320  10.276  1.00  0.00     0.277 HD
HETATM   12  C11 UNL     1      17.120   3.728  11.576  1.00  0.00     0.259 C 
HETATM   13  C12 UNL     1      16.514   3.350  12.896  1.00  0.00     0.141 C 
ENDROOT
BRANCH   3  14
HETATM   14  C6  UNL     1      16.650   1.371  16.572  1.00  0.00     0.119 C 
BRANCH  14  15
HETATM   15  C7  UNL     1      15.252   1.378  17.058  1.00  0.00     0.303 C 
HETATM   16  F1  UNL     1      14.381   2.059  16.225  1.00  0.00    -0.200 F 
HETATM   17  F2  UNL     1      15.085   1.775  18.357  1.00  0.00    -0.200 F 
BRANCH  15  18
HETATM   18  C8  UNL     1      14.759  -0.079  17.012  1.00  0.00     0.424 C 
HETATM   19  F3  UNL     1      13.411  -0.140  17.291  1.00  0.00    -0.208 F 
HETATM   20  F4  UNL     1      15.456  -0.871  17.892  1.00  0.00    -0.208 F 
ENDBRANCH  15  18
ENDBRANCH  14  15
ENDBRANCH   3  14
BRANCH   1  21
HETATM   21  C3  UNL     1      17.169   5.446  13.945  1.00  0.00     0.100 C 
BRANCH  21  22
HETATM   22  C2  UNL     1      18.600   5.875  13.933  1.00  0.00     0.141 C 
HETATM   23  C1  UNL     1      18.769   6.939  15.019  1.00  0.00     0.056 C 
HETATM   24 CL1  UNL     1      18.998   6.675  12.393  1.00  0.00    -0.096 Cl
HETATM   25 CL2  UNL     1      19.771   4.610  14.233  1.00  0.00    -0.096 Cl
ENDBRANCH  21  22
ENDBRANCH   1  21
TORSDOF 5
ENDMDL
MODEL 2
REMARK VINA RESULT: -6.870827757      0.709      1.031
REMARK  5 active torsions:
REMARK  status: ('A' for Active; 'I' for Inactive)
REMARK    1  A    between atoms: C2_2  and  C3_5 
REMARK    2  A    between atoms: C3_5  and  N1_6 
REMARK    3  A    between atoms: C5_8  and  C6_9 
REMARK    4  A    between atoms: C6_9  and  C7_10 
REMARK    5  A    between atoms: C7_10  and  C8_13 
ROOT
HETATM    1  N1  UNL     1      16.873   4.098  13.973  1.00  0.00    -0.380 N 
HETATM    2  C4  UNL     1      16.469   3.543  15.206  1.00  0.00     0.155 C 
HETATM    3  C5  UNL     1      16.925   2.118  15.290  1.00  0.00     0.210 C 
HETATM    4  N2  UNL     1      16.476   1.340  14.124  1.00  0.00    -0.061 N 
ATOM      5  H21 UNL     1      15.463   1.281  14.031  1.00  0.00     0.278 HD
ATOM      6  H22 UNL     1      16.643   0.337  14.207  1.00  0.00     0.278 HD
HETATM    7  C9  UNL     1      17.129   1.947  13.005  1.00  0.00     0.236 C 
HETATM    8  C10 UNL     1      16.757   1.391  11.665  1.00  0.00     0.267 C 
HETATM    9  N3  UNL     1      17.091   2.461  10.765  1.00  0.00    -0.071 N 
ATOM     10  H31 UNL     1      16.477   2.502   9.953  1.00  0.00     0.277 HD
ATOM     11  H32 UNL     1      17.965   2.299  10.265  1.00  0.00     0.277 HD
HETATM   12  C11 UNL     1      17.099   3.713  11.539  1.00  0.00     0.259 C 
HETATM   13  C12 UNL     1      16.495   3.346  12.863  1.00  0.00     0.141 C 
ENDROOT
BRANCH   3  14
HETATM   14  C6  UNL     1      16.653   1.430  16.571  1.00  0.00     0.119 C 
BRANCH  14  15
HETATM   15  C7  UNL     1      15.249   1.399  17.040  1.00  0.00     0.303 C 
HETATM   16  F1  UNL     1      14.367   2.035  16.185  1.00  0.00    -0.200 F 
HETATM   17  F2  UNL     1      15.053   1.813  18.330  1.00  0.00    -0.200 F 
BRANCH  15  18
HETATM   18  C8  UNL     1      14.806  -0.074  17.015  1.00  0.00     0.424 C 
HETATM   19  F3  UNL     1      13.452  -0.173  17.249  1.00  0.00    -0.208 F 
HETATM   20  F4  UNL     1      15.496  -0.821  17.939  1.00  0.00    -0.208 F 
ENDBRANCH  15  18
ENDBRANCH  14  15
ENDBRANCH   3  14
BRANCH   1  21
HETATM   21  C3  UNL     1      17.110   5.470  13.880  1.00  0.00     0.100 C 
BRANCH  21  22
HETATM   22  C2  UNL     1      18.521   5.937  14.034  1.00  0.00     0.141 C 
HETATM   23  C1  UNL     1      18.938   6.581  12.710  1.00  0.00     0.056 C 
HETATM   24 CL1  UNL     1      19.614   4.552  14.274  1.00  0.00    -0.096 Cl
HETATM   25 CL2  UNL     1      18.797   7.104  15.308  1.00  0.00    -0.096 Cl
ENDBRANCH  21  22
ENDBRANCH   1  21
TORSDOF 5
ENDMDL
MODEL 3
REMARK VINA RESULT: -6.721074956      1.133      1.538
REMARK  5 active torsions:
REMARK  status: ('A' for Active; 'I' for Inactive)
REMARK    1  A    between atoms: C2_2  and  C3_5 
REMARK    2  A    between atoms: C3_5  and  N1_6 
REMARK    3  A    between atoms: C5_8  and  C6_9 
REMARK    4  A    between atoms: C6_9  and  C7_10 
REMARK    5  A    between atoms: C7_10  and  C8_13 
ROOT
HETATM    1  N1  UNL     1      17.769   3.209  14.182  1.00  0.00    -0.380 N 
HETATM    2  C4  UNL     1      17.232   2.908  15.452  1.00  0.00     0.155 C 
HETATM    3  C5  UNL     1      16.939   1.442  15.542  1.00  0.00     0.210 C 
HETATM    4  N2  UNL     1      16.088   0.993  14.427  1.00  0.00    -0.061 N 
ATOM      5  H21 UNL     1      15.171   1.439  14.401  1.00  0.00     0.278 HD
ATOM      6  H22 UNL     1      15.750   0.036  14.523  1.00  0.00     0.278 HD
HETATM    7  C9  UNL     1      16.875   1.216  13.253  1.00  0.00     0.236 C 
HETATM    8  C10 UNL     1      16.187   0.928  11.954  1.00  0.00     0.267 C 
HETATM    9  N3  UNL     1      16.938   1.707  11.008  1.00  0.00    -0.071 N 
ATOM     10  H31 UNL     1      16.367   2.051  10.237  1.00  0.00     0.277 HD
ATOM     11  H32 UNL     1      17.585   1.144  10.456  1.00  0.00     0.277 HD
HETATM   12  C11 UNL     1      17.609   2.787  11.748  1.00  0.00     0.259 C 
HETATM   13  C12 UNL     1      16.996   2.749  13.117  1.00  0.00     0.141 C 
ENDROOT
BRANCH   3  14
HETATM   14  C6  UNL     1      16.455   0.960  16.854  1.00  0.00     0.119 C 
BRANCH  14  15
HETATM   15  C7  UNL     1      15.126   1.435  17.303  1.00  0.00     0.303 C 
HETATM   16  F1  UNL     1      14.459   2.188  16.353  1.00  0.00    -0.200 F 
HETATM   17  F2  UNL     1      15.110   2.067  18.516  1.00  0.00    -0.200 F 
BRANCH  15  18
HETATM   18  C8  UNL     1      14.247   0.186  17.483  1.00  0.00     0.424 C 
HETATM   19  F3  UNL     1      15.002  -0.958  17.345  1.00  0.00    -0.208 F 
HETATM   20  F4  UNL     1      13.206   0.172  16.586  1.00  0.00    -0.208 F 
ENDBRANCH  15  18
ENDBRANCH  14  15
ENDBRANCH   3  14
BRANCH   1  21
HETATM   21  C3  UNL     1      18.638   4.290  14.040  1.00  0.00     0.100 C 
BRANCH  21  22
HETATM   22  C2  UNL     1      18.050   5.661  14.121  1.00  0.00     0.141 C 
HETATM   23  C1  UNL     1      19.186   6.628  14.462  1.00  0.00     0.056 C 
HETATM   24 CL1  UNL     1      16.894   5.764  15.472  1.00  0.00    -0.096 Cl
HETATM   25 CL2  UNL     1      17.272   6.239  12.664  1.00  0.00    -0.096 Cl
ENDBRANCH  21  22
ENDBRANCH   1  21
TORSDOF 5
ENDMDL
MODEL 4
REMARK VINA RESULT: -6.594502909      3.844      5.884
REMARK  5 active torsions:
REMARK  status: ('A' for Active; 'I' for Inactive)
REMARK    1  A    between atoms: C2_2  and  C3_5 
REMARK    2  A    between atoms: C3_5  and  N1_6 
REMARK    3  A    between atoms: C5_8  and  C6_9 
REMARK    4  A    between atoms: C6_9  and  C7_10 
REMARK    5  A    between atoms: C7_10  and  C8_13 
ROOT
HETATM    1  N1  UNL     1      16.606   1.543  15.655  1.00  0.00    -0.380 N 
HETATM    2  C4  UNL     1      16.842   2.917  15.438  1.00  0.00     0.155 C 
HETATM    3  C5  UNL     1      16.442   3.283  14.042  1.00  0.00     0.210 C 
HETATM    4  N2  UNL     1      17.097   2.415  13.049  1.00  0.00    -0.061 N 
ATOM      5  H21 UNL     1      18.114   2.478  13.051  1.00  0.00     0.278 HD
ATOM      6  H22 UNL     1      16.964   2.716  12.084  1.00  0.00     0.278 HD
HETATM    7  C9  UNL     1      16.596   1.103  13.323  1.00  0.00     0.236 C 
HETATM    8  C10 UNL     1      17.192   0.003  12.500  1.00  0.00     0.267 C 
HETATM    9  N3  UNL     1      16.951  -1.168  13.298  1.00  0.00    -0.071 N 
ATOM     10  H31 UNL     1      17.680  -1.873  13.196  1.00  0.00     0.277 HD
ATOM     11  H32 UNL     1      16.172  -1.728  12.955  1.00  0.00     0.277 HD
HETATM   12  C11 UNL     1      16.771  -0.731  14.692  1.00  0.00     0.259 C 
HETATM   13  C12 UNL     1      17.182   0.712  14.696  1.00  0.00     0.141 C 
ENDROOT
BRANCH   3  14
HETATM   14  C6  UNL     1      16.546   4.718  13.697  1.00  0.00     0.119 C 
BRANCH  14  15
HETATM   15  C7  UNL     1      17.733   5.451  14.192  1.00  0.00     0.303 C 
HETATM   16  F1  UNL     1      18.849   4.649  14.353  1.00  0.00    -0.200 F 
HETATM   17  F2  UNL     1      17.526   6.216  15.307  1.00  0.00    -0.200 F 
BRANCH  15  18
HETATM   18  C8  UNL     1      18.135   6.443  13.087  1.00  0.00     0.424 C 
HETATM   19  F3  UNL     1      18.606   7.614  13.641  1.00  0.00    -0.208 F 
HETATM   20  F4  UNL     1      17.081   6.712  12.248  1.00  0.00    -0.208 F 
ENDBRANCH  15  18
ENDBRANCH  14  15
ENDBRANCH   3  14
BRANCH   1  21
HETATM   21  C3  UNL     1      16.326   1.086  16.943  1.00  0.00     0.100 C 
BRANCH  21  22
HETATM   22  C2  UNL     1      14.959   1.348  17.484  1.00  0.00     0.141 C 
HETATM   23  C1  UNL     1      15.047   1.274  19.010  1.00  0.00     0.056 C 
HETATM   24 CL1  UNL     1      13.835   0.057  16.993  1.00  0.00    -0.096 Cl
HETATM   25 CL2  UNL     1      14.261   2.897  17.061  1.00  0.00    -0.096 Cl
ENDBRANCH  21  22
ENDBRANCH   1  21
TORSDOF 5
ENDMDL
MODEL 5
REMARK VINA RESULT: -6.557422672      1.368      1.797
REMARK  5 active torsions:
REMARK  status: ('A' for Active; 'I' for Inactive)
REMARK    1  A    between atoms: C2_2  and  C3_5 
REMARK    2  A    between atoms: C3_5  and  N1_6 
REMARK    3  A    between atoms: C5_8  and  C6_9 
REMARK    4  A    between atoms: C6_9  and  C7_10 
REMARK    5  A    between atoms: C7_10  and  C8_13 
ROOT
HETATM    1  N1  UNL     1      16.967   4.694  13.459  1.00  0.00    -0.380 N 
HETATM    2  C4  UNL     1      16.182   4.257  14.548  1.00  0.00     0.155 C 
HETATM    3  C5  UNL     1      16.353   2.780  14.731  1.00  0.00     0.210 C 
HETATM    4  N2  UNL     1      16.080   2.048  13.483  1.00  0.00    -0.061 N 
ATOM      5  H21 UNL     1      15.127   2.157  13.139  1.00  0.00     0.278 HD
ATOM      6  H22 UNL     1      16.047   1.035  13.596  1.00  0.00     0.278 HD
HETATM    7  C9  UNL     1      17.083   2.498  12.567  1.00  0.00     0.236 C 
HETATM    8  C10 UNL     1      16.964   1.968  11.172  1.00  0.00     0.267 C 
HETATM    9  N3  UNL     1      17.687   2.935  10.393  1.00  0.00    -0.071 N 
ATOM     10  H31 UNL     1      17.309   3.050   9.453  1.00  0.00     0.277 HD
ATOM     11  H32 UNL     1      18.617   2.612  10.125  1.00  0.00     0.277 HD
HETATM   12  C11 UNL     1      17.718   4.193  11.155  1.00  0.00     0.259 C 
HETATM   13  C12 UNL     1      16.752   3.979  12.283  1.00  0.00     0.141 C 
ENDROOT
BRANCH   3  14
HETATM   14  C6  UNL     1      15.660   2.191  15.897  1.00  0.00     0.119 C 
BRANCH  14  15
HETATM   15  C7  UNL     1      16.174   0.901  16.412  1.00  0.00     0.303 C 
HETATM   16  F1  UNL     1      17.507   0.946  16.780  1.00  0.00    -0.200 F 
HETATM   17  F2  UNL     1      15.931  -0.185  15.616  1.00  0.00    -0.200 F 
BRANCH  15  18
HETATM   18  C8  UNL     1      15.426   0.617  17.726  1.00  0.00     0.424 C 
HETATM   19  F3  UNL     1      14.354  -0.217  17.498  1.00  0.00    -0.208 F 
HETATM   20  F4  UNL     1      14.997   1.780  18.319  1.00  0.00    -0.208 F 
ENDBRANCH  15  18
ENDBRANCH  14  15
ENDBRANCH   3  14
BRANCH   1  21
HETATM   21  C3  UNL     1      17.450   6.003  13.440  1.00  0.00     0.100 C 
BRANCH  21  22
HETATM   22  C2  UNL     1      18.834   6.233  13.954  1.00  0.00     0.141 C 
HETATM   23  C1  UNL     1      19.643   6.869  12.821  1.00  0.00     0.056 C 
HETATM   24 CL1  UNL     1      19.631   4.683  14.317  1.00  0.00    -0.096 Cl
HETATM   25 CL2  UNL     1      18.958   7.276  15.353  1.00  0.00    -0.096 Cl
ENDBRANCH  21  22
ENDBRANCH   1  21
TORSDOF 5
ENDMDL
