MODEL 1
REMARK VINA RESULT: -6.642856029      0.000      0.000
REMARK  4 active torsions:
REMARK  status: ('A' for Active; 'I' for Inactive)
REMARK    1  A    between atoms: C3_8  and  N2_9 
REMARK    2  A    between atoms: N2_9  and  C4_12 
REMARK    3  A    between atoms: C4_12  and  C5_13 
REMARK    4  A    between atoms: C5_13  and  S1_14 
ROOT
HETATM    1  O1  UNL     1      17.637  -0.611  16.082  1.00  0.00    -0.238 OA
HETATM    2  C1  UNL     1      16.509  -0.136  16.292  1.00  0.00     0.367 C 
HETATM    3  N1  UNL     1      15.687  -0.389  17.425  1.00  0.00    -0.270 N 
ATOM      4  H1  UNL     1      15.829  -1.110  18.132  1.00  0.00     0.170 HD
HETATM    5  C2  UNL     1      14.615   0.573  17.379  1.00  0.00     0.377 C 
HETATM    6  F1  UNL     1      13.432  -0.186  17.270  1.00  0.00    -0.177 F 
HETATM    7  F2  UNL     1      14.469   1.257  18.569  1.00  0.00    -0.177 F 
HETATM    8  C3  UNL     1      14.803   1.422  16.176  1.00  0.00     0.426 C 
HETATM    9  O2  UNL     1      15.830   0.746  15.453  1.00  0.00    -0.262 OA
ENDROOT
BRANCH   8  10
HETATM   10  N2  UNL     1      15.217   2.785  16.428  1.00  0.00    -0.040 N 
ATOM     11  H22 UNL     1      14.679   3.217  17.181  1.00  0.00     0.280 HD
ATOM     12  H21 UNL     1      16.140   2.832  16.861  1.00  0.00     0.280 HD
BRANCH  10  13
HETATM   13  C4  UNL     1      15.152   3.554  15.203  1.00  0.00     0.248 C 
BRANCH  13  14
HETATM   14  C5  UNL     1      16.362   4.441  15.010  1.00  0.00     0.140 C 
BRANCH  14  15
HETATM   15  S1  UNL     1      17.824   3.613  14.464  1.00  0.00     0.045 SA
HETATM   16  F3  UNL     1      18.368   2.616  15.754  1.00  0.00    -0.162 F 
HETATM   17 CL1  UNL     1      19.349   5.058  14.205  1.00  0.00    -0.023 Cl
HETATM   18 BR1  UNL     1      17.578   2.416  12.614  1.00  0.00     0.015 Br
ENDBRANCH  14  15
ENDBRANCH  13  14
ENDBRANCH  10  13
ENDBRANCH   8  10
TORSDOF 4
ENDMDL
MODEL 2
REMARK VINA RESULT: -6.383620558      1.774      1.774
REMARK  4 active torsions:
REMARK  status: ('A' for Active; 'I' for Inactive)
REMARK    1  A    between atoms: C3_8  and  N2_9 
REMARK    2  A    between atoms: N2_9  and  C4_12 
REMARK    3  A    between atoms: C4_12  and  C5_13 
REMARK    4  A    between atoms: C5_13  and  S1_14 
ROOT
HETATM    1  O1  UNL     1      17.676  -0.523  16.099  1.00  0.00    -0.238 OA
HETATM    2  C1  UNL     1      16.534  -0.084  16.311  1.00  0.00     0.367 C 
HETATM    3  N1  UNL     1      15.726  -0.355  17.449  1.00  0.00    -0.270 N 
ATOM      4  H1  UNL     1      15.894  -1.065  18.162  1.00  0.00     0.170 HD
HETATM    5  C2  UNL     1      14.622   0.570  17.400  1.00  0.00     0.377 C 
HETATM    6  F1  UNL     1      13.464  -0.228  17.302  1.00  0.00    -0.177 F 
HETATM    7  F2  UNL     1      14.458   1.259  18.585  1.00  0.00    -0.177 F 
HETATM    8  C3  UNL     1      14.776   1.416  16.190  1.00  0.00     0.426 C 
HETATM    9  O2  UNL     1      15.823   0.768  15.468  1.00  0.00    -0.262 OA
ENDROOT
BRANCH   8  10
HETATM   10  N2  UNL     1      15.146   2.794  16.429  1.00  0.00    -0.040 N 
ATOM     11  H22 UNL     1      14.590   3.216  17.175  1.00  0.00     0.280 HD
ATOM     12  H21 UNL     1      16.064   2.875  16.865  1.00  0.00     0.280 HD
BRANCH  10  13
HETATM   13  C4  UNL     1      15.061   3.548  15.195  1.00  0.00     0.248 C 
BRANCH  13  14
HETATM   14  C5  UNL     1      15.806   4.862  15.267  1.00  0.00     0.140 C 
BRANCH  14  15
HETATM   15  S1  UNL     1      17.332   4.913  14.379  1.00  0.00     0.045 SA
HETATM   16  F3  UNL     1      16.965   4.757  12.706  1.00  0.00    -0.162 F 
HETATM   17 CL1  UNL     1      18.442   3.177  14.863  1.00  0.00    -0.023 Cl
HETATM   18 BR1  UNL     1      18.553   6.729  14.734  1.00  0.00     0.015 Br
ENDBRANCH  14  15
ENDBRANCH  13  14
ENDBRANCH  10  13
ENDBRANCH   8  10
TORSDOF 4
ENDMDL
MODEL 3
REMARK VINA RESULT: -6.378095837      1.579      1.579
REMARK  4 active torsions:
REMARK  status: ('A' for Active; 'I' for Inactive)
REMARK    1  A    between atoms: C3_8  and  N2_9 
REMARK    2  A    between atoms: N2_9  and  C4_12 
REMARK    3  A    between atoms: C4_12  and  C5_13 
REMARK    4  A    between atoms: C5_13  and  S1_14 
ROOT
HETATM    1  O1  UNL     1      17.601  -0.808  16.046  1.00  0.00    -0.238 OA
HETATM    2  C1  UNL     1      16.489  -0.295  16.251  1.00  0.00     0.367 C 
HETATM    3  N1  UNL     1      15.688  -0.457  17.415  1.00  0.00    -0.270 N 
ATOM      4  H1  UNL     1      15.831  -1.135  18.163  1.00  0.00     0.170 HD
HETATM    5  C2  UNL     1      14.636   0.524  17.332  1.00  0.00     0.377 C 
HETATM    6  F1  UNL     1      13.435  -0.212  17.297  1.00  0.00    -0.177 F 
HETATM    7  F2  UNL     1      14.533   1.285  18.479  1.00  0.00    -0.177 F 
HETATM    8  C3  UNL     1      14.815   1.292  16.074  1.00  0.00     0.426 C 
HETATM    9  O2  UNL     1      15.810   0.548  15.373  1.00  0.00    -0.262 OA
ENDROOT
BRANCH   8  10
HETATM   10  N2  UNL     1      15.264   2.658  16.230  1.00  0.00    -0.040 N 
ATOM     11  H22 UNL     1      14.518   3.272  16.558  1.00  0.00     0.280 HD
ATOM     12  H21 UNL     1      15.901   2.765  17.019  1.00  0.00     0.280 HD
BRANCH  10  13
HETATM   13  C4  UNL     1      15.850   3.129  14.991  1.00  0.00     0.248 C 
BRANCH  13  14
HETATM   14  C5  UNL     1      15.895   4.638  14.908  1.00  0.00     0.140 C 
BRANCH  14  15
HETATM   15  S1  UNL     1      17.424   5.317  14.342  1.00  0.00     0.045 SA
HETATM   16  F3  UNL     1      17.824   6.631  15.376  1.00  0.00    -0.162 F 
HETATM   17 CL1  UNL     1      17.102   6.191  12.442  1.00  0.00    -0.023 Cl
HETATM   18 BR1  UNL     1      19.103   3.871  14.248  1.00  0.00     0.015 Br
ENDBRANCH  14  15
ENDBRANCH  13  14
ENDBRANCH  10  13
ENDBRANCH   8  10
TORSDOF 4
ENDMDL
MODEL 4
REMARK VINA RESULT: -6.146672493      1.744      1.744
REMARK  4 active torsions:
REMARK  status: ('A' for Active; 'I' for Inactive)
REMARK    1  A    between atoms: C3_8  and  N2_9 
REMARK    2  A    between atoms: N2_9  and  C4_12 
REMARK    3  A    between atoms: C4_12  and  C5_13 
REMARK    4  A    between atoms: C5_13  and  S1_14 
ROOT
HETATM    1  O1  UNL     1      17.637  -0.519  16.155  1.00  0.00    -0.238 OA
HETATM    2  C1  UNL     1      16.494  -0.075  16.354  1.00  0.00     0.367 C 
HETATM    3  N1  UNL     1      15.677  -0.333  17.490  1.00  0.00    -0.270 N 
ATOM      4  H1  UNL     1      15.840  -1.035  18.211  1.00  0.00     0.170 HD
HETATM    5  C2  UNL     1      14.575   0.594  17.423  1.00  0.00     0.377 C 
HETATM    6  F1  UNL     1      13.418  -0.204  17.326  1.00  0.00    -0.177 F 
HETATM    7  F2  UNL     1      14.405   1.296  18.600  1.00  0.00    -0.177 F 
HETATM    8  C3  UNL     1      14.740   1.426  16.205  1.00  0.00     0.426 C 
HETATM    9  O2  UNL     1      15.789   0.768  15.497  1.00  0.00    -0.262 OA
ENDROOT
BRANCH   8  10
HETATM   10  N2  UNL     1      15.110   2.806  16.432  1.00  0.00    -0.040 N 
ATOM     11  H22 UNL     1      14.446   3.286  17.041  1.00  0.00     0.280 HD
ATOM     12  H21 UNL     1      15.938   2.889  17.022  1.00  0.00     0.280 HD
BRANCH  10  13
HETATM   13  C4  UNL     1      15.275   3.486  15.164  1.00  0.00     0.248 C 
BRANCH  13  14
HETATM   14  C5  UNL     1      16.555   4.289  15.100  1.00  0.00     0.140 C 
BRANCH  14  15
HETATM   15  S1  UNL     1      17.505   4.077  13.626  1.00  0.00     0.045 SA
HETATM   16  F3  UNL     1      17.066   5.334  12.539  1.00  0.00    -0.162 F 
HETATM   17 CL1  UNL     1      16.879   2.289  12.682  1.00  0.00    -0.023 Cl
HETATM   18 BR1  UNL     1      19.701   4.055  13.932  1.00  0.00     0.015 Br
ENDBRANCH  14  15
ENDBRANCH  13  14
ENDBRANCH  10  13
ENDBRANCH   8  10
TORSDOF 4
ENDMDL
MODEL 5
REMARK VINA RESULT: -6.040738181      1.875      1.875
REMARK  4 active torsions:
REMARK  status: ('A' for Active; 'I' for Inactive)
REMARK    1  A    between atoms: C3_8  and  N2_9 
REMARK    2  A    between atoms: N2_9  and  C4_12 
REMARK    3  A    between atoms: C4_12  and  C5_13 
REMARK    4  A    between atoms: C5_13  and  S1_14 
ROOT
HETATM    1  O1  UNL     1      17.634  -0.752  16.115  1.00  0.00    -0.238 OA
HETATM    2  C1  UNL     1      16.526  -0.219  16.298  1.00  0.00     0.367 C 
HETATM    3  N1  UNL     1      15.708  -0.354  17.453  1.00  0.00    -0.270 N 
ATOM      4  H1  UNL     1      15.830  -1.023  18.212  1.00  0.00     0.170 HD
HETATM    5  C2  UNL     1      14.672   0.642  17.341  1.00  0.00     0.377 C 
HETATM    6  F1  UNL     1      13.460  -0.077  17.299  1.00  0.00    -0.177 F 
HETATM    7  F2  UNL     1      14.564   1.420  18.476  1.00  0.00    -0.177 F 
HETATM    8  C3  UNL     1      14.878   1.389  16.075  1.00  0.00     0.426 C 
HETATM    9  O2  UNL     1      15.872   0.621  15.399  1.00  0.00    -0.262 OA
ENDROOT
BRANCH   8  10
HETATM   10  N2  UNL     1      15.346   2.751  16.219  1.00  0.00    -0.040 N 
ATOM     11  H22 UNL     1      14.588   3.393  16.452  1.00  0.00     0.280 HD
ATOM     12  H21 UNL     1      15.909   2.876  17.059  1.00  0.00     0.280 HD
BRANCH  10  13
HETATM   13  C4  UNL     1      16.054   3.157  15.023  1.00  0.00     0.248 C 
BRANCH  13  14
HETATM   14  C5  UNL     1      15.543   4.465  14.462  1.00  0.00     0.140 C 
BRANCH  14  15
HETATM   15  S1  UNL     1      16.465   5.114  13.102  1.00  0.00     0.045 SA
HETATM   16  F3  UNL     1      17.558   6.285  13.727  1.00  0.00    -0.162 F 
HETATM   17 CL1  UNL     1      15.142   6.203  11.860  1.00  0.00    -0.023 Cl
HETATM   18 BR1  UNL     1      17.559   3.595  11.913  1.00  0.00     0.015 Br
ENDBRANCH  14  15
ENDBRANCH  13  14
ENDBRANCH  10  13
ENDBRANCH   8  10
TORSDOF 4
ENDMDL
