MODEL 1
REMARK VINA RESULT: -6.647320544      0.000      0.000
REMARK  7 active torsions:
REMARK  status: ('A' for Active; 'I' for Inactive)
REMARK    1  A    between atoms: N1_2  and  C2_3 
REMARK       I    between atoms: N1_2  and  C4_7 
REMARK    2  A    between atoms: C2_3  and  C3_4 
REMARK    3  A    between atoms: C3_4  and  O1_5 
REMARK    4  A    between atoms: C4_7  and  C5_9 
REMARK    5  A    between atoms: C9_13  and  O3_14 
REMARK    6  A    between atoms: C9_13  and  C10_16 
REMARK    7  A    between atoms: C10_16  and  N2_18 
ROOT
HETATM    1  C5  UNL     1      16.470   1.892  13.511  1.00  0.00     0.081 C 
HETATM    2  C6  UNL     1      16.189   0.664  12.653  1.00  0.00     0.014 C 
HETATM    3  C7  UNL     1      17.233  -0.411  12.959  1.00  0.00     0.004 C 
HETATM    4  C8  UNL     1      16.906  -0.888  14.362  1.00  0.00     0.043 C 
HETATM    5  C9  UNL     1      16.932   0.289  15.353  1.00  0.00     0.118 C 
HETATM    6  C13 UNL     1      17.352   1.554  14.678  1.00  0.00     0.057 C 
ENDROOT
BRANCH   5   7
HETATM    7  O3  UNL     1      17.922  -0.097  16.300  1.00  0.00    -0.385 OA
ATOM      8  H3  UNL     1      17.636   0.323  17.103  1.00  0.00     0.210 HD
ENDBRANCH   5   7
BRANCH   5   9
HETATM    9  C10 UNL     1      15.621   0.284  16.052  1.00  0.00     0.450 C 
HETATM   10  F1  UNL     1      15.624  -0.894  16.847  1.00  0.00    -0.212 F 
BRANCH   9  11
HETATM   11  N2  UNL     1      15.264   1.334  16.885  1.00  0.00     0.244 N 
HETATM   12  C11 UNL     1      14.160   2.207  16.827  1.00  0.00     0.521 A 
HETATM   13  F2  UNL     1      14.265   3.480  17.381  1.00  0.00    -0.207 F 
HETATM   14  C12 UNL     1      14.247   1.124  17.883  1.00  0.00     0.506 A 
HETATM   15  F3  UNL     1      14.636   1.453  19.159  1.00  0.00    -0.168 F 
HETATM   16  F4  UNL     1      13.377   0.083  17.782  1.00  0.00    -0.168 F 
ENDBRANCH   9  11
ENDBRANCH   5   9
BRANCH   1  17
HETATM   17  C4  UNL     1      17.074   2.929  12.636  1.00  0.00     0.223 C 
HETATM   18  N1  UNL     1      16.937   4.315  12.748  1.00  0.00    -0.354 N 
HETATM   19  C1  UNL     1      16.126   4.896  13.784  1.00  0.00     0.152 C 
HETATM   20  O2  UNL     1      17.803   2.496  11.674  1.00  0.00    -0.273 OA
BRANCH  18  21
HETATM   21  C2  UNL     1      17.605   5.200  11.827  1.00  0.00     0.151 C 
BRANCH  21  22
HETATM   22  C3  UNL     1      16.619   5.710  10.772  1.00  0.00     0.183 C 
BRANCH  22  23
HETATM   23  O1  UNL     1      15.864   4.661  10.257  1.00  0.00    -0.399 OA
ATOM     24  H1  UNL     1      15.730   4.771   9.323  1.00  0.00     0.209 HD
ENDBRANCH  22  23
ENDBRANCH  21  22
ENDBRANCH  18  21
ENDBRANCH   1  17
TORSDOF 7
ENDMDL
MODEL 2
REMARK VINA RESULT: -6.611106717      3.899      6.808
REMARK  7 active torsions:
REMARK  status: ('A' for Active; 'I' for Inactive)
REMARK    1  A    between atoms: N1_2  and  C2_3 
REMARK       I    between atoms: N1_2  and  C4_7 
REMARK    2  A    between atoms: C2_3  and  C3_4 
REMARK    3  A    between atoms: C3_4  and  O1_5 
REMARK    4  A    between atoms: C4_7  and  C5_9 
REMARK    5  A    between atoms: C9_13  and  O3_14 
REMARK    6  A    between atoms: C9_13  and  C10_16 
REMARK    7  A    between atoms: C10_16  and  N2_18 
ROOT
HETATM    1  C5  UNL     1      17.100   4.112  13.844  1.00  0.00     0.081 C 
HETATM    2  C6  UNL     1      16.976   5.454  14.554  1.00  0.00     0.014 C 
HETATM    3  C7  UNL     1      18.266   6.251  14.350  1.00  0.00     0.004 C 
HETATM    4  C8  UNL     1      18.261   6.636  12.882  1.00  0.00     0.043 C 
HETATM    5  C9  UNL     1      18.171   5.381  11.995  1.00  0.00     0.118 C 
HETATM    6  C13 UNL     1      18.195   4.135  12.818  1.00  0.00     0.057 C 
ENDROOT
BRANCH   5   7
HETATM    7  O3  UNL     1      19.349   5.451  11.200  1.00  0.00    -0.385 OA
ATOM      8  H3  UNL     1      19.049   5.192  10.337  1.00  0.00     0.210 HD
ENDBRANCH   5   7
BRANCH   5   9
HETATM    9  C10 UNL     1      17.009   5.585  11.090  1.00  0.00     0.450 C 
HETATM   10  F1  UNL     1      16.291   4.359  11.120  1.00  0.00    -0.212 F 
BRANCH   9  11
HETATM   11  N2  UNL     1      16.094   6.597  11.338  1.00  0.00     0.244 N 
HETATM   12  C11 UNL     1      15.607   7.611  10.489  1.00  0.00     0.521 A 
HETATM   13  F2  UNL     1      15.155   8.806  11.042  1.00  0.00    -0.207 F 
HETATM   14  C12 UNL     1      14.735   6.439  10.889  1.00  0.00     0.506 A 
HETATM   15  F3  UNL     1      13.795   6.602  11.879  1.00  0.00    -0.168 F 
HETATM   16  F4  UNL     1      14.420   5.536   9.922  1.00  0.00    -0.168 F 
ENDBRANCH   9  11
ENDBRANCH   5   9
BRANCH   1  17
HETATM   17  C4  UNL     1      17.324   3.070  14.878  1.00  0.00     0.223 C 
HETATM   18  N1  UNL     1      16.352   2.332  15.560  1.00  0.00    -0.354 N 
HETATM   19  C1  UNL     1      14.953   2.548  15.314  1.00  0.00     0.152 C 
HETATM   20  O2  UNL     1      18.548   2.824  15.171  1.00  0.00    -0.273 OA
BRANCH  18  21
HETATM   21  C2  UNL     1      16.729   1.334  16.530  1.00  0.00     0.151 C 
BRANCH  21  22
HETATM   22  C3  UNL     1      16.468  -0.070  15.975  1.00  0.00     0.183 C 
BRANCH  22  23
HETATM   23  O1  UNL     1      17.615  -0.853  16.061  1.00  0.00    -0.399 OA
ATOM     24  H1  UNL     1      17.450  -1.725  15.722  1.00  0.00     0.209 HD
ENDBRANCH  22  23
ENDBRANCH  21  22
ENDBRANCH  18  21
ENDBRANCH   1  17
TORSDOF 7
ENDMDL
MODEL 3
REMARK VINA RESULT: -6.558291070      3.952      6.834
REMARK  7 active torsions:
REMARK  status: ('A' for Active; 'I' for Inactive)
REMARK    1  A    between atoms: N1_2  and  C2_3 
REMARK       I    between atoms: N1_2  and  C4_7 
REMARK    2  A    between atoms: C2_3  and  C3_4 
REMARK    3  A    between atoms: C3_4  and  O1_5 
REMARK    4  A    between atoms: C4_7  and  C5_9 
REMARK    5  A    between atoms: C9_13  and  O3_14 
REMARK    6  A    between atoms: C9_13  and  C10_16 
REMARK    7  A    between atoms: C10_16  and  N2_18 
ROOT
HETATM    1  C5  UNL     1      17.175   3.920  14.289  1.00  0.00     0.081 C 
HETATM    2  C6  UNL     1      18.561   4.553  14.245  1.00  0.00     0.014 C 
HETATM    3  C7  UNL     1      19.268   4.124  12.958  1.00  0.00     0.004 C 
HETATM    4  C8  UNL     1      18.526   4.839  11.844  1.00  0.00     0.043 C 
HETATM    5  C9  UNL     1      17.031   4.475  11.871  1.00  0.00     0.118 C 
HETATM    6  C13 UNL     1      16.741   3.460  12.929  1.00  0.00     0.057 C 
ENDROOT
BRANCH   5   7
HETATM    7  O3  UNL     1      16.805   3.903  10.587  1.00  0.00    -0.385 OA
ATOM      8  H3  UNL     1      16.231   4.531  10.164  1.00  0.00     0.210 HD
ENDBRANCH   5   7
BRANCH   5   9
HETATM    9  C10 UNL     1      16.283   5.758  11.925  1.00  0.00     0.450 C 
HETATM   10  F1  UNL     1      17.212   6.712  12.422  1.00  0.00    -0.212 F 
BRANCH   9  11
HETATM   11  N2  UNL     1      15.725   6.296  10.775  1.00  0.00     0.244 N 
HETATM   12  C11 UNL     1      14.620   5.868  10.013  1.00  0.00     0.521 A 
HETATM   13  F2  UNL     1      14.561   6.181   8.658  1.00  0.00    -0.207 F 
HETATM   14  C12 UNL     1      14.539   7.106  10.883  1.00  0.00     0.506 A 
HETATM   15  F3  UNL     1      14.653   8.347  10.304  1.00  0.00    -0.168 F 
HETATM   16  F4  UNL     1      13.750   7.042  11.988  1.00  0.00    -0.168 F 
ENDBRANCH   9  11
ENDBRANCH   5   9
BRANCH   1  17
HETATM   17  C4  UNL     1      17.217   2.806  15.270  1.00  0.00     0.223 C 
HETATM   18  N1  UNL     1      16.138   2.242  15.957  1.00  0.00    -0.354 N 
HETATM   19  C1  UNL     1      14.803   2.743  15.774  1.00  0.00     0.152 C 
HETATM   20  O2  UNL     1      18.375   2.308  15.505  1.00  0.00    -0.273 OA
BRANCH  18  21
HETATM   21  C2  UNL     1      16.337   1.144  16.869  1.00  0.00     0.151 C 
BRANCH  21  22
HETATM   22  C3  UNL     1      16.340  -0.185  16.106  1.00  0.00     0.183 C 
BRANCH  22  23
HETATM   23  O1  UNL     1      17.625  -0.715  16.049  1.00  0.00    -0.399 OA
ATOM     24  H1  UNL     1      17.645  -1.587  16.426  1.00  0.00     0.209 HD
ENDBRANCH  22  23
ENDBRANCH  21  22
ENDBRANCH  18  21
ENDBRANCH   1  17
TORSDOF 7
ENDMDL
MODEL 4
REMARK VINA RESULT: -6.532272342      1.119      1.594
REMARK  7 active torsions:
REMARK  status: ('A' for Active; 'I' for Inactive)
REMARK    1  A    between atoms: N1_2  and  C2_3 
REMARK       I    between atoms: N1_2  and  C4_7 
REMARK    2  A    between atoms: C2_3  and  C3_4 
REMARK    3  A    between atoms: C3_4  and  O1_5 
REMARK    4  A    between atoms: C4_7  and  C5_9 
REMARK    5  A    between atoms: C9_13  and  O3_14 
REMARK    6  A    between atoms: C9_13  and  C10_16 
REMARK    7  A    between atoms: C10_16  and  N2_18 
ROOT
HETATM    1  C5  UNL     1      16.799   2.058  13.759  1.00  0.00     0.081 C 
HETATM    2  C6  UNL     1      16.367   1.025  12.726  1.00  0.00     0.014 C 
HETATM    3  C7  UNL     1      17.223  -0.232  12.884  1.00  0.00     0.004 C 
HETATM    4  C8  UNL     1      16.778  -0.849  14.197  1.00  0.00     0.043 C 
HETATM    5  C9  UNL     1      16.947   0.156  15.350  1.00  0.00     0.118 C 
HETATM    6  C13 UNL     1      17.577   1.423  14.874  1.00  0.00     0.057 C 
ENDROOT
BRANCH   5   7
HETATM    7  O3  UNL     1      17.833  -0.511  16.243  1.00  0.00    -0.385 OA
ATOM      8  H3  UNL     1      18.349   0.197  16.612  1.00  0.00     0.210 HD
ENDBRANCH   5   7
BRANCH   5   9
HETATM    9  C10 UNL     1      15.626   0.254  16.024  1.00  0.00     0.450 C 
HETATM   10  F1  UNL     1      15.542  -0.896  16.854  1.00  0.00    -0.212 F 
BRANCH   9  11
HETATM   11  N2  UNL     1      15.321   1.350  16.817  1.00  0.00     0.244 N 
HETATM   12  C11 UNL     1      14.237   2.247  16.753  1.00  0.00     0.521 A 
HETATM   13  F2  UNL     1      14.390   3.541  17.243  1.00  0.00    -0.207 F 
HETATM   14  C12 UNL     1      14.333   1.212  17.855  1.00  0.00     0.506 A 
HETATM   15  F3  UNL     1      14.771   1.590  19.102  1.00  0.00    -0.168 F 
HETATM   16  F4  UNL     1      13.436   0.190  17.832  1.00  0.00    -0.168 F 
ENDBRANCH   9  11
ENDBRANCH   5   9
BRANCH   1  17
HETATM   17  C4  UNL     1      17.584   3.104  13.053  1.00  0.00     0.223 C 
HETATM   18  N1  UNL     1      17.781   4.428  13.454  1.00  0.00    -0.354 N 
HETATM   19  C1  UNL     1      17.180   4.932  14.659  1.00  0.00     0.152 C 
HETATM   20  O2  UNL     1      18.143   2.742  11.958  1.00  0.00    -0.273 OA
BRANCH  18  21
HETATM   21  C2  UNL     1      18.591   5.325  12.667  1.00  0.00     0.151 C 
BRANCH  21  22
HETATM   22  C3  UNL     1      19.999   5.426  13.260  1.00  0.00     0.183 C 
BRANCH  22  23
HETATM   23  O1  UNL     1      20.635   4.189  13.228  1.00  0.00    -0.399 OA
ATOM     24  H1  UNL     1      20.709   3.873  12.335  1.00  0.00     0.209 HD
ENDBRANCH  22  23
ENDBRANCH  21  22
ENDBRANCH  18  21
ENDBRANCH   1  17
TORSDOF 7
ENDMDL
MODEL 5
REMARK VINA RESULT: -6.464051119      2.208      3.668
REMARK  7 active torsions:
REMARK  status: ('A' for Active; 'I' for Inactive)
REMARK    1  A    between atoms: N1_2  and  C2_3 
REMARK       I    between atoms: N1_2  and  C4_7 
REMARK    2  A    between atoms: C2_3  and  C3_4 
REMARK    3  A    between atoms: C3_4  and  O1_5 
REMARK    4  A    between atoms: C4_7  and  C5_9 
REMARK    5  A    between atoms: C9_13  and  O3_14 
REMARK    6  A    between atoms: C9_13  and  C10_16 
REMARK    7  A    between atoms: C10_16  and  N2_18 
ROOT
HETATM    1  C5  UNL     1      18.175   3.182  13.939  1.00  0.00     0.081 C 
HETATM    2  C6  UNL     1      18.563   4.423  14.735  1.00  0.00     0.014 C 
HETATM    3  C7  UNL     1      17.476   5.487  14.567  1.00  0.00     0.004 C 
HETATM    4  C8  UNL     1      16.279   4.948  15.328  1.00  0.00     0.043 C 
HETATM    5  C9  UNL     1      15.871   3.567  14.786  1.00  0.00     0.118 C 
HETATM    6  C13 UNL     1      16.711   3.178  13.613  1.00  0.00     0.057 C 
ENDROOT
BRANCH   5   7
HETATM    7  O3  UNL     1      14.525   3.760  14.365  1.00  0.00    -0.385 OA
ATOM      8  H3  UNL     1      14.466   4.700  14.240  1.00  0.00     0.210 HD
ENDBRANCH   5   7
BRANCH   5   9
HETATM    9  C10 UNL     1      15.847   2.644  15.951  1.00  0.00     0.450 C 
HETATM   10  F1  UNL     1      14.726   3.050  16.726  1.00  0.00    -0.212 F 
BRANCH   9  11
HETATM   11  N2  UNL     1      15.735   1.275  15.762  1.00  0.00     0.244 N 
HETATM   12  C11 UNL     1      16.677   0.248  15.970  1.00  0.00     0.521 A 
HETATM   13  F2  UNL     1      16.580  -0.928  15.230  1.00  0.00    -0.207 F 
HETATM   14  C12 UNL     1      15.495   0.427  16.901  1.00  0.00     0.506 A 
HETATM   15  F3  UNL     1      14.399  -0.393  16.769  1.00  0.00    -0.168 F 
HETATM   16  F4  UNL     1      15.754   0.864  18.162  1.00  0.00    -0.168 F 
ENDBRANCH   9  11
ENDBRANCH   5   9
BRANCH   1  17
HETATM   17  C4  UNL     1      19.020   3.145  12.717  1.00  0.00     0.223 C 
HETATM   18  N1  UNL     1      18.745   3.733  11.480  1.00  0.00    -0.354 N 
HETATM   19  C1  UNL     1      17.524   4.460  11.263  1.00  0.00     0.152 C 
HETATM   20  O2  UNL     1      20.125   2.502  12.820  1.00  0.00    -0.273 OA
BRANCH  18  21
HETATM   21  C2  UNL     1      19.680   3.625  10.388  1.00  0.00     0.151 C 
BRANCH  21  22
HETATM   22  C3  UNL     1      18.980   3.929   9.059  1.00  0.00     0.183 C 
BRANCH  22  23
HETATM   23  O1  UNL     1      19.530   3.171   8.030  1.00  0.00    -0.399 OA
ATOM     24  H1  UNL     1      18.879   2.587   7.660  1.00  0.00     0.209 HD
ENDBRANCH  22  23
ENDBRANCH  21  22
ENDBRANCH  18  21
ENDBRANCH   1  17
TORSDOF 7
ENDMDL
