MODEL 1
REMARK VINA RESULT: -6.763957811      0.000      0.000
REMARK  4 active torsions:
REMARK  status: ('A' for Active; 'I' for Inactive)
REMARK    1  A    between atoms: C3_9  and  S1_10 
REMARK    2  A    between atoms: S1_10  and  C4_11 
REMARK    3  A    between atoms: C4_11  and  C5_12 
REMARK    4  A    between atoms: C5_12  and  N3_13 
ROOT
HETATM    1  O1  UNL     1      17.531  -0.837  16.120  1.00  0.00    -0.265 OA
HETATM    2  C1  UNL     1      17.083  -0.025  15.255  1.00  0.00     0.289 A 
HETATM    3  N1  UNL     1      17.019  -0.418  13.965  1.00  0.00    -0.297 N 
ATOM      4  H1  UNL     1      17.322  -1.349  13.682  1.00  0.00     0.171 HD
HETATM    5  C2  UNL     1      16.537   0.470  13.057  1.00  0.00     0.182 A 
HETATM    6 CL1  UNL     1      16.423   0.026  11.349  1.00  0.00    -0.045 Cl
HETATM    7  N2  UNL     1      16.151   1.672  13.444  1.00  0.00    -0.324 N 
ATOM      8  H2  UNL     1      15.795   2.311  12.734  1.00  0.00     0.169 HD
HETATM    9  C3  UNL     1      16.198   2.117  14.749  1.00  0.00     0.117 A 
HETATM   10  C9  UNL     1      16.679   1.235  15.671  1.00  0.00     0.217 A 
HETATM   11  F3  UNL     1      16.748   1.506  16.983  1.00  0.00    -0.197 F 
ENDROOT
BRANCH   9  12
HETATM   12  S1  UNL     1      15.611   3.715  15.101  1.00  0.00    -0.107 SA
BRANCH  12  13
HETATM   13  C4  UNL     1      16.735   5.082  15.013  1.00  0.00     0.101 C 
BRANCH  13  14
HETATM   14  C5  UNL     1      17.339   5.231  13.669  1.00  0.00     0.142 C 
BRANCH  14  15
HETATM   15  N3  UNL     1      18.502   4.372  13.485  1.00  0.00    -0.315 N 
HETATM   16  C6  UNL     1      19.427   4.100  14.428  1.00  0.00     0.187 A 
HETATM   17  N4  UNL     1      20.362   3.279  13.917  1.00  0.00    -0.325 N 
HETATM   18  C7  UNL     1      20.057   3.012  12.639  1.00  0.00     0.246 A 
ATOM     19  H4  UNL     1      21.173   2.918  14.421  1.00  0.00     0.169 HD
HETATM   20  F1  UNL     1      20.763   2.216  11.787  1.00  0.00    -0.181 F 
HETATM   21  C8  UNL     1      18.881   3.711  12.391  1.00  0.00     0.248 A 
HETATM   22  F2  UNL     1      18.281   3.667  11.191  1.00  0.00    -0.181 F 
ENDBRANCH  14  15
ENDBRANCH  13  14
ENDBRANCH  12  13
ENDBRANCH   9  12
TORSDOF 4
ENDMDL
MODEL 2
REMARK VINA RESULT: -6.702818498      1.022      1.035
REMARK  4 active torsions:
REMARK  status: ('A' for Active; 'I' for Inactive)
REMARK    1  A    between atoms: C3_9  and  S1_10 
REMARK    2  A    between atoms: S1_10  and  C4_11 
REMARK    3  A    between atoms: C4_11  and  C5_12 
REMARK    4  A    between atoms: C5_12  and  N3_13 
ROOT
HETATM    1  O1  UNL     1      16.064  -0.766  17.533  1.00  0.00    -0.265 OA
HETATM    2  C1  UNL     1      16.167  -0.088  16.467  1.00  0.00     0.289 A 
HETATM    3  N1  UNL     1      16.682  -0.677  15.367  1.00  0.00    -0.297 N 
ATOM      4  H1  UNL     1      16.984  -1.651  15.384  1.00  0.00     0.171 HD
HETATM    5  C2  UNL     1      16.783   0.070  14.238  1.00  0.00     0.182 A 
HETATM    6 CL1  UNL     1      17.447  -0.635  12.758  1.00  0.00    -0.045 Cl
HETATM    7  N2  UNL     1      16.386   1.330  14.238  1.00  0.00    -0.324 N 
ATOM      8  H2  UNL     1      16.479   1.859  13.371  1.00  0.00     0.169 HD
HETATM    9  C3  UNL     1      15.856   1.975  15.336  1.00  0.00     0.117 A 
HETATM   10  C9  UNL     1      15.747   1.234  16.477  1.00  0.00     0.217 A 
HETATM   11  F3  UNL     1      15.215   1.708  17.613  1.00  0.00    -0.197 F 
ENDROOT
BRANCH   9  12
HETATM   12  S1  UNL     1      15.342   3.626  15.160  1.00  0.00    -0.107 SA
BRANCH  12  13
HETATM   13  C4  UNL     1      16.555   4.872  14.821  1.00  0.00     0.101 C 
BRANCH  13  14
HETATM   14  C5  UNL     1      17.050   4.813  13.427  1.00  0.00     0.142 C 
BRANCH  14  15
HETATM   15  N3  UNL     1      18.323   4.111  13.319  1.00  0.00    -0.315 N 
HETATM   16  C6  UNL     1      19.259   4.041  14.288  1.00  0.00     0.187 A 
HETATM   17  N4  UNL     1      20.307   3.321  13.849  1.00  0.00    -0.325 N 
HETATM   18  C7  UNL     1      20.064   2.918  12.593  1.00  0.00     0.246 A 
ATOM     19  H4  UNL     1      21.150   3.114  14.385  1.00  0.00     0.169 HD
HETATM   20  F1  UNL     1      20.888   2.165  11.810  1.00  0.00    -0.181 F 
HETATM   21  C8  UNL     1      18.808   3.428  12.283  1.00  0.00     0.248 A 
HETATM   22  F2  UNL     1      18.242   3.211  11.085  1.00  0.00    -0.181 F 
ENDBRANCH  14  15
ENDBRANCH  13  14
ENDBRANCH  12  13
ENDBRANCH   9  12
TORSDOF 4
ENDMDL
MODEL 3
REMARK VINA RESULT: -6.570604884      1.474      1.734
REMARK  4 active torsions:
REMARK  status: ('A' for Active; 'I' for Inactive)
REMARK    1  A    between atoms: C3_9  and  S1_10 
REMARK    2  A    between atoms: S1_10  and  C4_11 
REMARK    3  A    between atoms: C4_11  and  C5_12 
REMARK    4  A    between atoms: C5_12  and  N3_13 
ROOT
HETATM    1  O1  UNL     1      16.077  -0.797  17.583  1.00  0.00    -0.265 OA
HETATM    2  C1  UNL     1      16.155  -0.075  16.543  1.00  0.00     0.289 A 
HETATM    3  N1  UNL     1      16.672  -0.609  15.417  1.00  0.00    -0.297 N 
ATOM      4  H1  UNL     1      16.996  -1.576  15.393  1.00  0.00     0.171 HD
HETATM    5  C2  UNL     1      16.746   0.184  14.317  1.00  0.00     0.182 A 
HETATM    6 CL1  UNL     1      17.412  -0.448  12.805  1.00  0.00    -0.045 Cl
HETATM    7  N2  UNL     1      16.322   1.434  14.370  1.00  0.00    -0.324 N 
ATOM      8  H2  UNL     1      16.395   1.998  13.524  1.00  0.00     0.169 HD
HETATM    9  C3  UNL     1      15.788   2.023  15.496  1.00  0.00     0.117 A 
HETATM   10  C9  UNL     1      15.706   1.236  16.608  1.00  0.00     0.217 A 
HETATM   11  F3  UNL     1      15.174   1.653  17.766  1.00  0.00    -0.197 F 
ENDROOT
BRANCH   9  12
HETATM   12  S1  UNL     1      15.236   3.668  15.389  1.00  0.00    -0.107 SA
BRANCH  12  13
HETATM   13  C4  UNL     1      15.915   4.723  14.138  1.00  0.00     0.101 C 
BRANCH  13  14
HETATM   14  C5  UNL     1      17.371   4.935  14.309  1.00  0.00     0.142 C 
BRANCH  14  15
HETATM   15  N3  UNL     1      18.161   4.143  13.373  1.00  0.00    -0.315 N 
HETATM   16  C6  UNL     1      17.840   3.911  12.084  1.00  0.00     0.187 A 
HETATM   17  N4  UNL     1      18.785   3.140  11.517  1.00  0.00    -0.325 N 
HETATM   18  C7  UNL     1      19.726   2.861  12.431  1.00  0.00     0.246 A 
ATOM     19  H4  UNL     1      18.786   2.819  10.549  1.00  0.00     0.169 HD
HETATM   20  F1  UNL     1      20.846   2.109  12.237  1.00  0.00    -0.181 F 
HETATM   21  C8  UNL     1      19.310   3.505  13.591  1.00  0.00     0.248 A 
HETATM   22  F2  UNL     1      20.029   3.441  14.723  1.00  0.00    -0.181 F 
ENDBRANCH  14  15
ENDBRANCH  13  14
ENDBRANCH  12  13
ENDBRANCH   9  12
TORSDOF 4
ENDMDL
MODEL 4
REMARK VINA RESULT: -6.476166651      3.367      3.761
REMARK  4 active torsions:
REMARK  status: ('A' for Active; 'I' for Inactive)
REMARK    1  A    between atoms: C3_9  and  S1_10 
REMARK    2  A    between atoms: S1_10  and  C4_11 
REMARK    3  A    between atoms: C4_11  and  C5_12 
REMARK    4  A    between atoms: C5_12  and  N3_13 
ROOT
HETATM    1  O1  UNL     1      16.771  -1.567  15.221  1.00  0.00    -0.265 OA
HETATM    2  C1  UNL     1      16.434  -0.410  15.615  1.00  0.00     0.289 A 
HETATM    3  N1  UNL     1      16.005  -0.255  16.886  1.00  0.00    -0.297 N 
ATOM      4  H1  UNL     1      15.950  -1.049  17.524  1.00  0.00     0.171 HD
HETATM    5  C2  UNL     1      15.649   0.993  17.285  1.00  0.00     0.182 A 
HETATM    6 CL1  UNL     1      15.078   1.273  18.935  1.00  0.00    -0.045 Cl
HETATM    7  N2  UNL     1      15.726   2.007  16.443  1.00  0.00    -0.324 N 
ATOM      8  H2  UNL     1      15.450   2.929  16.779  1.00  0.00     0.169 HD
HETATM    9  C3  UNL     1      16.157   1.897  15.137  1.00  0.00     0.117 A 
HETATM   10  C9  UNL     1      16.519   0.649  14.723  1.00  0.00     0.217 A 
HETATM   11  F3  UNL     1      16.996   0.389  13.497  1.00  0.00    -0.197 F 
ENDROOT
BRANCH   9  12
HETATM   12  S1  UNL     1      16.241   3.338  14.167  1.00  0.00    -0.107 SA
BRANCH  12  13
HETATM   13  C4  UNL     1      17.758   3.731  13.341  1.00  0.00     0.101 C 
BRANCH  13  14
HETATM   14  C5  UNL     1      17.752   5.098  12.771  1.00  0.00     0.142 C 
BRANCH  14  15
HETATM   15  N3  UNL     1      18.661   5.996  13.472  1.00  0.00    -0.315 N 
HETATM   16  C6  UNL     1      19.847   6.431  12.998  1.00  0.00     0.187 A 
HETATM   17  N4  UNL     1      20.424   7.239  13.905  1.00  0.00    -0.325 N 
HETATM   18  C7  UNL     1      19.624   7.335  14.976  1.00  0.00     0.246 A 
ATOM     19  H4  UNL     1      21.326   7.704  13.796  1.00  0.00     0.169 HD
HETATM   20  F1  UNL     1      19.862   8.064  16.103  1.00  0.00    -0.181 F 
HETATM   21  C8  UNL     1      18.520   6.543  14.678  1.00  0.00     0.248 A 
HETATM   22  F2  UNL     1      17.501   6.410  15.543  1.00  0.00    -0.181 F 
ENDBRANCH  14  15
ENDBRANCH  13  14
ENDBRANCH  12  13
ENDBRANCH   9  12
TORSDOF 4
ENDMDL
MODEL 5
REMARK VINA RESULT: -6.465536272      2.391      2.562
REMARK  4 active torsions:
REMARK  status: ('A' for Active; 'I' for Inactive)
REMARK    1  A    between atoms: C3_9  and  S1_10 
REMARK    2  A    between atoms: S1_10  and  C4_11 
REMARK    3  A    between atoms: C4_11  and  C5_12 
REMARK    4  A    between atoms: C5_12  and  N3_13 
ROOT
HETATM    1  O1  UNL     1      16.821  -1.364  15.168  1.00  0.00    -0.265 OA
HETATM    2  C1  UNL     1      16.409  -0.272  15.663  1.00  0.00     0.289 A 
HETATM    3  N1  UNL     1      16.034  -0.246  16.960  1.00  0.00    -0.297 N 
ATOM      4  H1  UNL     1      16.078  -1.085  17.538  1.00  0.00     0.171 HD
HETATM    5  C2  UNL     1      15.594   0.934  17.468  1.00  0.00     0.182 A 
HETATM    6 CL1  UNL     1      15.087   1.043  19.158  1.00  0.00    -0.045 Cl
HETATM    7  N2  UNL     1      15.543   2.008  16.702  1.00  0.00    -0.324 N 
ATOM      8  H2  UNL     1      15.207   2.876  17.119  1.00  0.00     0.169 HD
HETATM    9  C3  UNL     1      15.914   2.031  15.374  1.00  0.00     0.117 A 
HETATM   10  C9  UNL     1      16.359   0.851  14.851  1.00  0.00     0.217 A 
HETATM   11  F3  UNL     1      16.793   0.723  13.589  1.00  0.00    -0.197 F 
ENDROOT
BRANCH   9  12
HETATM   12  S1  UNL     1      15.826   3.538  14.513  1.00  0.00    -0.107 SA
BRANCH  12  13
HETATM   13  C4  UNL     1      16.934   4.848  14.958  1.00  0.00     0.101 C 
BRANCH  13  14
HETATM   14  C5  UNL     1      17.723   5.336  13.804  1.00  0.00     0.142 C 
BRANCH  14  15
HETATM   15  N3  UNL     1      18.795   4.420  13.436  1.00  0.00    -0.315 N 
HETATM   16  C6  UNL     1      19.534   3.698  14.303  1.00  0.00     0.187 A 
HETATM   17  N4  UNL     1      20.435   2.965  13.624  1.00  0.00    -0.325 N 
HETATM   18  C7  UNL     1      20.292   3.204  12.313  1.00  0.00     0.246 A 
ATOM     19  H4  UNL     1      21.116   2.329  14.039  1.00  0.00     0.169 HD
HETATM   20  F1  UNL     1      21.021   2.648  11.303  1.00  0.00    -0.181 F 
HETATM   21  C8  UNL     1      19.252   4.123  12.220  1.00  0.00     0.248 A 
HETATM   22  F2  UNL     1      18.834   4.589  11.033  1.00  0.00    -0.181 F 
ENDBRANCH  14  15
ENDBRANCH  13  14
ENDBRANCH  12  13
ENDBRANCH   9  12
TORSDOF 4
ENDMDL
