MODEL 1
REMARK VINA RESULT: -6.318533987      0.000      0.000
REMARK  4 active torsions:
REMARK  status: ('A' for Active; 'I' for Inactive)
REMARK    1  A    between atoms: C2_2  and  N1_3 
REMARK    2  A    between atoms: C2_2  and  C11_18 
REMARK       I    between atoms: N1_3  and  C3_5 
REMARK    3  A    between atoms: C3_5  and  C4_7 
REMARK    4  A    between atoms: C7_10  and  C8_11 
ROOT
HETATM    1  C4  UNL     1      16.981   3.500  14.949  1.00  0.00     0.277 C 
HETATM    2  C5  UNL     1      17.499   2.425  15.875  1.00  0.00     0.043 C 
HETATM    3  C6  UNL     1      16.508   1.296  15.925  1.00  0.00     0.011 C 
HETATM    4  C7  UNL     1      15.087   1.702  15.987  1.00  0.00     0.042 C 
HETATM    5  C10 UNL     1      14.763   3.056  15.449  1.00  0.00     0.240 C 
HETATM    6  N2  UNL     1      15.800   4.029  15.606  1.00  0.00    -0.062 N 
ATOM      7  H21 UNL     1      15.535   4.955  15.270  1.00  0.00     0.278 HD
ATOM      8  H22 UNL     1      15.964   4.286  16.578  1.00  0.00     0.278 HD
ENDROOT
BRANCH   1   9
HETATM    9  C3  UNL     1      17.976   4.557  14.686  1.00  0.00     0.248 C 
HETATM   10  N1  UNL     1      17.614   5.913  14.504  1.00  0.00    -0.355 N 
ATOM     11  H1  UNL     1      16.633   6.187  14.552  1.00  0.00     0.162 HD
HETATM   12  O1  UNL     1      19.194   4.208  14.628  1.00  0.00    -0.271 OA
BRANCH  10  13
HETATM   13  C2  UNL     1      18.627   6.907  14.249  1.00  0.00     0.084 C 
HETATM   14  C1  UNL     1      18.670   7.273  12.760  1.00  0.00     0.032 C 
BRANCH  13  15
HETATM   15  C11 UNL     1      18.410   8.157  15.077  1.00  0.00     0.008 A 
HETATM   16  C12 UNL     1      19.632   8.687  15.798  1.00  0.00     0.007 A 
HETATM   17  C13 UNL     1      19.107   9.415  14.609  1.00  0.00     0.007 A 
ENDBRANCH  13  15
ENDBRANCH  10  13
ENDBRANCH   1   9
BRANCH   4  18
HETATM   18  C8  UNL     1      14.549   1.496  17.398  1.00  0.00     0.151 A 
HETATM   19  C9  UNL     1      14.829   2.373  18.491  1.00  0.00     0.200 A 
HETATM   20  O2  UNL     1      15.385   1.041  18.387  1.00  0.00    -0.381 OA
ENDBRANCH   4  18
TORSDOF 4
ENDMDL
MODEL 2
REMARK VINA RESULT: -6.289091445      2.024      6.617
REMARK  4 active torsions:
REMARK  status: ('A' for Active; 'I' for Inactive)
REMARK    1  A    between atoms: C2_2  and  N1_3 
REMARK    2  A    between atoms: C2_2  and  C11_18 
REMARK       I    between atoms: N1_3  and  C3_5 
REMARK    3  A    between atoms: C3_5  and  C4_7 
REMARK    4  A    between atoms: C7_10  and  C8_11 
ROOT
HETATM    1  C4  UNL     1      17.201   4.654  13.617  1.00  0.00     0.277 C 
HETATM    2  C5  UNL     1      16.388   5.909  13.394  1.00  0.00     0.043 C 
HETATM    3  C6  UNL     1      17.238   6.929  12.689  1.00  0.00     0.011 C 
HETATM    4  C7  UNL     1      18.635   7.028  13.164  1.00  0.00     0.042 C 
HETATM    5  C10 UNL     1      19.193   5.816  13.834  1.00  0.00     0.240 C 
HETATM    6  N2  UNL     1      18.237   5.036  14.557  1.00  0.00    -0.062 N 
ATOM      7  H21 UNL     1      18.654   4.240  15.040  1.00  0.00     0.278 HD
ATOM      8  H22 UNL     1      17.874   5.513  15.382  1.00  0.00     0.278 HD
ENDROOT
BRANCH   1   9
HETATM    9  C3  UNL     1      16.391   3.531  14.126  1.00  0.00     0.248 C 
HETATM   10  N1  UNL     1      16.938   2.504  14.931  1.00  0.00    -0.355 N 
ATOM     11  H1  UNL     1      17.928   2.524  15.177  1.00  0.00     0.162 HD
HETATM   12  O1  UNL     1      15.161   3.513  13.816  1.00  0.00    -0.271 OA
BRANCH  10  13
HETATM   13  C2  UNL     1      16.102   1.428  15.402  1.00  0.00     0.084 C 
HETATM   14  C1  UNL     1      16.795   0.073  15.210  1.00  0.00     0.032 C 
BRANCH  13  15
HETATM   15  C11 UNL     1      15.723   1.607  16.858  1.00  0.00     0.008 A 
HETATM   16  C12 UNL     1      14.239   1.709  17.143  1.00  0.00     0.007 A 
HETATM   17  C13 UNL     1      14.973   0.467  17.513  1.00  0.00     0.007 A 
ENDBRANCH  13  15
ENDBRANCH  10  13
ENDBRANCH   1   9
BRANCH   4  18
HETATM   18  C8  UNL     1      18.809   8.287  14.006  1.00  0.00     0.151 A 
HETATM   19  C9  UNL     1      19.835   8.449  14.988  1.00  0.00     0.200 A 
HETATM   20  O2  UNL     1      18.437   8.279  15.328  1.00  0.00    -0.381 OA
ENDBRANCH   4  18
TORSDOF 4
ENDMDL
MODEL 3
REMARK VINA RESULT: -6.098473508      2.574      6.870
REMARK  4 active torsions:
REMARK  status: ('A' for Active; 'I' for Inactive)
REMARK    1  A    between atoms: C2_2  and  N1_3 
REMARK    2  A    between atoms: C2_2  and  C11_18 
REMARK       I    between atoms: N1_3  and  C3_5 
REMARK    3  A    between atoms: C3_5  and  C4_7 
REMARK    4  A    between atoms: C7_10  and  C8_11 
ROOT
HETATM    1  C4  UNL     1      17.998   4.127  13.967  1.00  0.00     0.277 C 
HETATM    2  C5  UNL     1      19.384   4.626  14.306  1.00  0.00     0.043 C 
HETATM    3  C6  UNL     1      19.932   5.395  13.137  1.00  0.00     0.011 C 
HETATM    4  C7  UNL     1      19.665   4.804  11.808  1.00  0.00     0.042 C 
HETATM    5  C10 UNL     1      18.482   3.898  11.714  1.00  0.00     0.240 C 
HETATM    6  N2  UNL     1      18.195   3.160  12.904  1.00  0.00    -0.062 N 
ATOM      7  H21 UNL     1      17.410   2.517  12.796  1.00  0.00     0.278 HD
ATOM      8  H22 UNL     1      18.904   2.462  13.123  1.00  0.00     0.278 HD
ENDROOT
BRANCH   1   9
HETATM    9  C3  UNL     1      17.306   3.530  15.125  1.00  0.00     0.248 C 
HETATM   10  N1  UNL     1      15.912   3.666  15.329  1.00  0.00    -0.355 N 
ATOM     11  H1  UNL     1      15.350   4.192  14.660  1.00  0.00     0.162 HD
HETATM   12  O1  UNL     1      18.012   2.877  15.952  1.00  0.00    -0.271 OA
BRANCH  10  13
HETATM   13  C2  UNL     1      15.285   3.062  16.479  1.00  0.00     0.084 C 
HETATM   14  C1  UNL     1      14.107   3.915  16.967  1.00  0.00     0.032 C 
BRANCH  13  15
HETATM   15  C11 UNL     1      14.811   1.654  16.186  1.00  0.00     0.008 A 
HETATM   16  C12 UNL     1      15.194   0.606  17.211  1.00  0.00     0.007 A 
HETATM   17  C13 UNL     1      13.781   1.071  17.130  1.00  0.00     0.007 A 
ENDBRANCH  13  15
ENDBRANCH  10  13
ENDBRANCH   1   9
BRANCH   4  18
HETATM   18  C8  UNL     1      20.934   4.159  11.262  1.00  0.00     0.151 A 
HETATM   19  C9  UNL     1      22.089   4.896  10.859  1.00  0.00     0.200 A 
HETATM   20  O2  UNL     1      21.212   4.230   9.920  1.00  0.00    -0.381 OA
ENDBRANCH   4  18
TORSDOF 4
ENDMDL
MODEL 4
REMARK VINA RESULT: -6.034094074      2.712      3.550
REMARK  4 active torsions:
REMARK  status: ('A' for Active; 'I' for Inactive)
REMARK    1  A    between atoms: C2_2  and  N1_3 
REMARK    2  A    between atoms: C2_2  and  C11_18 
REMARK       I    between atoms: N1_3  and  C3_5 
REMARK    3  A    between atoms: C3_5  and  C4_7 
REMARK    4  A    between atoms: C7_10  and  C8_11 
ROOT
HETATM    1  C4  UNL     1      16.284   4.651  14.877  1.00  0.00     0.277 C 
HETATM    2  C5  UNL     1      14.826   4.451  15.223  1.00  0.00     0.043 C 
HETATM    3  C6  UNL     1      14.725   3.648  16.490  1.00  0.00     0.011 C 
HETATM    4  C7  UNL     1      15.672   2.518  16.602  1.00  0.00     0.042 C 
HETATM    5  C10 UNL     1      16.922   2.621  15.793  1.00  0.00     0.240 C 
HETATM    6  N2  UNL     1      16.781   3.326  14.556  1.00  0.00    -0.062 N 
ATOM      7  H21 UNL     1      17.640   3.342  14.005  1.00  0.00     0.278 HD
ATOM      8  H22 UNL     1      16.201   2.833  13.878  1.00  0.00     0.278 HD
ENDROOT
BRANCH   1   9
HETATM    9  C3  UNL     1      16.482   5.591  13.758  1.00  0.00     0.248 C 
HETATM   10  N1  UNL     1      15.463   5.879  12.819  1.00  0.00    -0.355 N 
ATOM     11  H1  UNL     1      14.552   5.429  12.903  1.00  0.00     0.162 HD
HETATM   12  O1  UNL     1      17.618   6.148  13.660  1.00  0.00    -0.271 OA
BRANCH  10  13
HETATM   13  C2  UNL     1      15.709   6.808  11.743  1.00  0.00     0.084 C 
HETATM   14  C1  UNL     1      16.256   6.079  10.508  1.00  0.00     0.032 C 
BRANCH  13  15
HETATM   15  C11 UNL     1      14.461   7.580  11.370  1.00  0.00     0.008 A 
HETATM   16  C12 UNL     1      14.692   8.950  10.766  1.00  0.00     0.007 A 
HETATM   17  C13 UNL     1      14.230   7.833   9.895  1.00  0.00     0.007 A 
ENDBRANCH  13  15
ENDBRANCH  10  13
ENDBRANCH   1   9
BRANCH   4  18
HETATM   18  C8  UNL     1      14.939   1.202  16.370  1.00  0.00     0.151 A 
HETATM   19  C9  UNL     1      13.815   0.773  17.141  1.00  0.00     0.200 A 
HETATM   20  O2  UNL     1      15.121   0.157  17.242  1.00  0.00    -0.381 OA
ENDBRANCH   4  18
TORSDOF 4
ENDMDL
MODEL 5
REMARK VINA RESULT: -5.979385938      2.873      3.387
REMARK  4 active torsions:
REMARK  status: ('A' for Active; 'I' for Inactive)
REMARK    1  A    between atoms: C2_2  and  N1_3 
REMARK    2  A    between atoms: C2_2  and  C11_18 
REMARK       I    between atoms: N1_3  and  C3_5 
REMARK    3  A    between atoms: C3_5  and  C4_7 
REMARK    4  A    between atoms: C7_10  and  C8_11 
ROOT
HETATM    1  C4  UNL     1      16.592   3.385  14.526  1.00  0.00     0.277 C 
HETATM    2  C5  UNL     1      15.087   3.509  14.602  1.00  0.00     0.043 C 
HETATM    3  C6  UNL     1      14.668   3.556  16.045  1.00  0.00     0.011 C 
HETATM    4  C7  UNL     1      15.378   2.620  16.943  1.00  0.00     0.042 C 
HETATM    5  C10 UNL     1      16.730   2.173  16.495  1.00  0.00     0.240 C 
HETATM    6  N2  UNL     1      16.892   2.077  15.077  1.00  0.00    -0.062 N 
ATOM      7  H21 UNL     1      17.810   1.727  14.802  1.00  0.00     0.278 HD
ATOM      8  H22 UNL     1      16.338   1.330  14.660  1.00  0.00     0.278 HD
ENDROOT
BRANCH   1   9
HETATM    9  C3  UNL     1      17.109   3.528  13.152  1.00  0.00     0.248 C 
HETATM   10  N1  UNL     1      17.004   4.737  12.424  1.00  0.00    -0.355 N 
ATOM     11  H1  UNL     1      16.558   5.549  12.849  1.00  0.00     0.162 HD
HETATM   12  O1  UNL     1      17.663   2.513  12.629  1.00  0.00    -0.271 OA
BRANCH  10  13
HETATM   13  C2  UNL     1      17.526   4.824  11.082  1.00  0.00     0.084 C 
HETATM   14  C1  UNL     1      16.556   5.583  10.167  1.00  0.00     0.032 C 
BRANCH  13  15
HETATM   15  C11 UNL     1      18.887   5.488  11.050  1.00  0.00     0.008 A 
HETATM   16  C12 UNL     1      20.074   4.550  10.986  1.00  0.00     0.007 A 
HETATM   17  C13 UNL     1      19.692   5.333   9.778  1.00  0.00     0.007 A 
ENDBRANCH  13  15
ENDBRANCH  10  13
ENDBRANCH   1   9
BRANCH   4  18
HETATM   18  C8  UNL     1      14.468   1.449  17.297  1.00  0.00     0.151 A 
HETATM   19  C9  UNL     1      14.948   0.151  17.650  1.00  0.00     0.200 A 
HETATM   20  O2  UNL     1      14.285   0.432  16.394  1.00  0.00    -0.381 OA
ENDBRANCH   4  18
TORSDOF 4
ENDMDL
