MODEL 1
REMARK VINA RESULT: -6.220505214      0.000      0.000
REMARK  3 active torsions:
REMARK  status: ('A' for Active; 'I' for Inactive)
REMARK    1  A    between atoms: N1_1  and  C1_5 
REMARK    2  A    between atoms: C1_5  and  C2_6 
REMARK    3  A    between atoms: C10_18  and  C11_19 
ROOT
HETATM    1  C2  UNL     1      17.673   6.526  14.150  1.00  0.00     0.017 C 
HETATM    2  C3  UNL     1      17.316   6.716  12.687  1.00  0.00     0.007 C 
HETATM    3  C4  UNL     1      16.278   5.600  12.401  1.00  0.00     0.012 C 
HETATM    4  C5  UNL     1      16.886   4.529  13.176  1.00  0.00    -0.011 C 
HETATM    5  C6  UNL     1      18.122   3.979  12.600  1.00  0.00     0.039 C 
HETATM    6  C7  UNL     1      17.700   3.189  11.349  1.00  0.00     0.233 C 
HETATM    7  N2  UNL     1      16.413   2.595  11.502  1.00  0.00    -0.073 N 
ATOM      8  H21 UNL     1      16.300   1.805  10.867  1.00  0.00     0.277 HD
ATOM      9  H22 UNL     1      15.684   3.207  11.137  1.00  0.00     0.277 HD
HETATM   10  C8  UNL     1      16.124   2.207  12.864  1.00  0.00     0.258 C 
HETATM   11  C9  UNL     1      16.055   3.426  13.760  1.00  0.00     0.118 C 
HETATM   12  N3  UNL     1      16.750   3.160  14.948  1.00  0.00    -0.386 N 
HETATM   13  C10 UNL     1      16.499   2.149  15.811  1.00  0.00     0.063 C 
HETATM   14  C14 UNL     1      17.646   4.222  15.295  1.00  0.00     0.128 C 
HETATM   15  C15 UNL     1      17.075   5.293  14.501  1.00  0.00     0.020 C 
ENDROOT
BRANCH   1  16
HETATM   16  C1  UNL     1      19.124   6.772  14.443  1.00  0.00     0.234 C 
BRANCH  16  17
HETATM   17  N1  UNL     1      19.344   8.136  14.919  1.00  0.00    -0.079 N 
ATOM     18  H13 UNL     1      20.277   8.472  14.678  1.00  0.00     0.274 HD
ATOM     19  H12 UNL     1      18.793   8.812  14.390  1.00  0.00     0.274 HD
ATOM     20  H11 UNL     1      19.167   8.211  15.921  1.00  0.00     0.274 HD
ENDBRANCH  16  17
ENDBRANCH   1  16
BRANCH  13  21
HETATM   21  C11 UNL     1      15.187   2.319  16.542  1.00  0.00     0.024 A 
HETATM   22  C12 UNL     1      14.259   1.218  16.795  1.00  0.00     0.010 A 
HETATM   23  C13 UNL     1      14.999   1.968  17.952  1.00  0.00     0.010 A 
ENDBRANCH  13  21
TORSDOF 3
ENDMDL
MODEL 2
REMARK VINA RESULT: -6.066983316      1.336      3.815
REMARK  3 active torsions:
REMARK  status: ('A' for Active; 'I' for Inactive)
REMARK    1  A    between atoms: N1_1  and  C1_5 
REMARK    2  A    between atoms: C1_5  and  C2_6 
REMARK    3  A    between atoms: C10_18  and  C11_19 
ROOT
HETATM    1  C2  UNL     1      17.338   2.395  12.085  1.00  0.00     0.017 C 
HETATM    2  C3  UNL     1      18.417   3.436  11.847  1.00  0.00     0.007 C 
HETATM    3  C4  UNL     1      18.587   4.129  13.223  1.00  0.00     0.012 C 
HETATM    4  C5  UNL     1      17.188   4.177  13.622  1.00  0.00    -0.011 C 
HETATM    5  C6  UNL     1      16.369   5.140  12.872  1.00  0.00     0.039 C 
HETATM    6  C7  UNL     1      16.819   6.537  13.331  1.00  0.00     0.233 C 
HETATM    7  N2  UNL     1      17.228   6.545  14.698  1.00  0.00    -0.073 N 
ATOM      8  H21 UNL     1      17.166   7.484  15.090  1.00  0.00     0.277 HD
ATOM      9  H22 UNL     1      18.233   6.395  14.777  1.00  0.00     0.277 HD
HETATM   10  C8  UNL     1      16.501   5.598  15.513  1.00  0.00     0.258 C 
HETATM   11  C9  UNL     1      16.793   4.180  15.068  1.00  0.00     0.118 C 
HETATM   12  N3  UNL     1      15.593   3.458  15.025  1.00  0.00    -0.386 N 
HETATM   13  C10 UNL     1      14.736   3.269  16.054  1.00  0.00     0.063 C 
HETATM   14  C14 UNL     1      15.452   2.724  13.803  1.00  0.00     0.128 C 
HETATM   15  C15 UNL     1      16.836   2.698  13.372  1.00  0.00     0.020 C 
ENDROOT
BRANCH   1  16
HETATM   16  C1  UNL     1      16.398   2.240  10.925  1.00  0.00     0.234 C 
BRANCH  16  17
HETATM   17  N1  UNL     1      15.995   0.846  10.753  1.00  0.00    -0.079 N 
ATOM     18  H13 UNL     1      16.417   0.244  11.460  1.00  0.00     0.274 HD
ATOM     19  H12 UNL     1      15.014   0.707  10.995  1.00  0.00     0.274 HD
ATOM     20  H11 UNL     1      16.199   0.515   9.810  1.00  0.00     0.274 HD
ENDBRANCH  16  17
ENDBRANCH   1  16
BRANCH  13  21
HETATM   21  C11 UNL     1      15.308   2.378  17.132  1.00  0.00     0.024 A 
HETATM   22  C12 UNL     1      14.731   2.262  18.470  1.00  0.00     0.010 A 
HETATM   23  C13 UNL     1      14.756   1.062  17.466  1.00  0.00     0.010 A 
ENDBRANCH  13  21
TORSDOF 3
ENDMDL
MODEL 3
REMARK VINA RESULT: -5.808736445      1.574      5.098
REMARK  3 active torsions:
REMARK  status: ('A' for Active; 'I' for Inactive)
REMARK    1  A    between atoms: N1_1  and  C1_5 
REMARK    2  A    between atoms: C1_5  and  C2_6 
REMARK    3  A    between atoms: C10_18  and  C11_19 
ROOT
HETATM    1  C2  UNL     1      15.372   2.640  16.779  1.00  0.00     0.017 C 
HETATM    2  C3  UNL     1      16.029   1.311  16.458  1.00  0.00     0.007 C 
HETATM    3  C4  UNL     1      17.294   1.696  15.649  1.00  0.00     0.012 C 
HETATM    4  C5  UNL     1      16.727   2.777  14.856  1.00  0.00    -0.011 C 
HETATM    5  C6  UNL     1      15.791   2.344  13.808  1.00  0.00     0.039 C 
HETATM    6  C7  UNL     1      16.641   1.647  12.732  1.00  0.00     0.233 C 
HETATM    7  N2  UNL     1      17.941   2.224  12.622  1.00  0.00    -0.073 N 
ATOM      8  H21 UNL     1      18.348   2.031  11.708  1.00  0.00     0.277 HD
ATOM      9  H22 UNL     1      18.610   1.728  13.211  1.00  0.00     0.277 HD
HETATM   10  C8  UNL     1      17.960   3.641  12.905  1.00  0.00     0.258 C 
HETATM   11  C9  UNL     1      17.583   3.900  14.349  1.00  0.00     0.118 C 
HETATM   12  N3  UNL     1      16.685   4.973  14.402  1.00  0.00    -0.386 N 
HETATM   13  C10 UNL     1      16.903   6.222  13.931  1.00  0.00     0.063 C 
HETATM   14  C14 UNL     1      15.550   4.684  15.227  1.00  0.00     0.128 C 
HETATM   15  C15 UNL     1      16.086   3.582  16.002  1.00  0.00     0.020 C 
ENDROOT
BRANCH   1  16
HETATM   16  C1  UNL     1      13.874   2.591  16.717  1.00  0.00     0.234 C 
BRANCH  16  17
HETATM   17  N1  UNL     1      13.382   1.222  16.868  1.00  0.00    -0.079 N 
ATOM     18  H13 UNL     1      13.239   0.981  17.848  1.00  0.00     0.274 HD
ATOM     19  H12 UNL     1      12.420   1.131  16.542  1.00  0.00     0.274 HD
ATOM     20  H11 UNL     1      13.999   0.555  16.404  1.00  0.00     0.274 HD
ENDBRANCH  16  17
ENDBRANCH   1  16
BRANCH  13  21
HETATM   21  C11 UNL     1      17.945   6.972  14.727  1.00  0.00     0.024 A 
HETATM   22  C12 UNL     1      19.341   7.096  14.311  1.00  0.00     0.010 A 
HETATM   23  C13 UNL     1      18.384   8.332  14.402  1.00  0.00     0.010 A 
ENDBRANCH  13  21
TORSDOF 3
ENDMDL
MODEL 4
REMARK VINA RESULT: -5.771329183      2.071      4.755
REMARK  3 active torsions:
REMARK  status: ('A' for Active; 'I' for Inactive)
REMARK    1  A    between atoms: N1_1  and  C1_5 
REMARK    2  A    between atoms: C1_5  and  C2_6 
REMARK    3  A    between atoms: C10_18  and  C11_19 
ROOT
HETATM    1  C2  UNL     1      14.771   2.432  16.482  1.00  0.00     0.017 C 
HETATM    2  C3  UNL     1      14.575   3.936  16.416  1.00  0.00     0.007 C 
HETATM    3  C4  UNL     1      14.845   4.291  14.931  1.00  0.00     0.012 C 
HETATM    4  C5  UNL     1      15.965   3.392  14.690  1.00  0.00    -0.011 C 
HETATM    5  C6  UNL     1      17.219   3.782  15.350  1.00  0.00     0.039 C 
HETATM    6  C7  UNL     1      17.724   5.033  14.612  1.00  0.00     0.233 C 
HETATM    7  N2  UNL     1      17.382   5.010  13.227  1.00  0.00    -0.073 N 
ATOM      8  H21 UNL     1      18.005   5.612  12.690  1.00  0.00     0.277 HD
ATOM      9  H22 UNL     1      16.500   5.493  13.062  1.00  0.00     0.277 HD
HETATM   10  C8  UNL     1      17.350   3.676  12.672  1.00  0.00     0.258 C 
HETATM   11  C9  UNL     1      16.250   2.859  13.317  1.00  0.00     0.118 C 
HETATM   12  N3  UNL     1      16.744   1.583  13.618  1.00  0.00    -0.386 N 
HETATM   13  C10 UNL     1      17.280   0.706  12.738  1.00  0.00     0.063 C 
HETATM   14  C14 UNL     1      16.422   1.183  14.955  1.00  0.00     0.128 C 
HETATM   15  C15 UNL     1      15.328   2.096  15.226  1.00  0.00     0.020 C 
ENDROOT
BRANCH   1  16
HETATM   16  C1  UNL     1      15.433   1.976  17.749  1.00  0.00     0.234 C 
BRANCH  16  17
HETATM   17  N1  UNL     1      14.644   2.346  18.922  1.00  0.00    -0.079 N 
ATOM     18  H13 UNL     1      15.072   2.007  19.784  1.00  0.00     0.274 HD
ATOM     19  H12 UNL     1      14.693   3.348  19.106  1.00  0.00     0.274 HD
ATOM     20  H11 UNL     1      13.678   2.028  18.833  1.00  0.00     0.274 HD
ENDBRANCH  16  17
ENDBRANCH   1  16
BRANCH  13  21
HETATM   21  C11 UNL     1      16.258   0.153  11.771  1.00  0.00     0.024 A 
HETATM   22  C12 UNL     1      16.148   0.588  10.380  1.00  0.00     0.010 A 
HETATM   23  C13 UNL     1      16.569  -0.869  10.767  1.00  0.00     0.010 A 
ENDBRANCH  13  21
TORSDOF 3
ENDMDL
MODEL 5
REMARK VINA RESULT: -5.741034051      1.250      1.563
REMARK  3 active torsions:
REMARK  status: ('A' for Active; 'I' for Inactive)
REMARK    1  A    between atoms: N1_1  and  C1_5 
REMARK    2  A    between atoms: C1_5  and  C2_6 
REMARK    3  A    between atoms: C10_18  and  C11_19 
ROOT
HETATM    1  C2  UNL     1      18.134   7.485  14.044  1.00  0.00     0.017 C 
HETATM    2  C3  UNL     1      18.126   7.895  12.583  1.00  0.00     0.007 C 
HETATM    3  C4  UNL     1      17.170   6.879  11.907  1.00  0.00     0.012 C 
HETATM    4  C5  UNL     1      17.570   5.683  12.633  1.00  0.00    -0.011 C 
HETATM    5  C6  UNL     1      18.899   5.164  12.277  1.00  0.00     0.039 C 
HETATM    6  C7  UNL     1      18.769   4.579  10.861  1.00  0.00     0.233 C 
HETATM    7  N2  UNL     1      17.474   4.028  10.628  1.00  0.00    -0.073 N 
ATOM      8  H21 UNL     1      17.502   3.341   9.875  1.00  0.00     0.277 HD
ATOM      9  H22 UNL     1      16.856   4.718  10.202  1.00  0.00     0.277 HD
HETATM   10  C8  UNL     1      16.874   3.465  11.817  1.00  0.00     0.258 C 
HETATM   11  C9  UNL     1      16.614   4.547  12.844  1.00  0.00     0.118 C 
HETATM   12  N3  UNL     1      17.013   4.085  14.105  1.00  0.00    -0.386 N 
HETATM   13  C10 UNL     1      16.558   2.975  14.730  1.00  0.00     0.063 C 
HETATM   14  C14 UNL     1      17.816   5.047  14.799  1.00  0.00     0.128 C 
HETATM   15  C15 UNL     1      17.457   6.243  14.064  1.00  0.00     0.020 C 
ENDROOT
BRANCH   1  16
HETATM   16  C1  UNL     1      19.481   7.621  14.691  1.00  0.00     0.234 C 
BRANCH  16  17
HETATM   17  N1  UNL     1      19.496   8.718  15.658  1.00  0.00    -0.079 N 
ATOM     18  H13 UNL     1      18.780   8.596  16.374  1.00  0.00     0.274 HD
ATOM     19  H12 UNL     1      20.322   8.681  16.255  1.00  0.00     0.274 HD
ATOM     20  H11 UNL     1      19.409   9.622  15.193  1.00  0.00     0.274 HD
ENDBRANCH  16  17
ENDBRANCH   1  16
BRANCH  13  21
HETATM   21  C11 UNL     1      15.114   3.099  15.161  1.00  0.00     0.024 A 
HETATM   22  C12 UNL     1      14.624   2.658  16.466  1.00  0.00     0.010 A 
HETATM   23  C13 UNL     1      14.624   4.164  16.040  1.00  0.00     0.010 A 
ENDBRANCH  13  21
TORSDOF 3
ENDMDL
