MODEL 1
REMARK VINA RESULT: -6.449611818      0.000      0.000
REMARK  5 active torsions:
REMARK  status: ('A' for Active; 'I' for Inactive)
REMARK    1  A    between atoms: C1_4  and  C2_5 
REMARK    2  A    between atoms: C1_4  and  N4_17 
REMARK    3  A    between atoms: C2_5  and  N2_6 
REMARK    4  A    between atoms: C6_10  and  N3_11 
REMARK    5  A    between atoms: N4_17  and  C12_19 
ROOT
HETATM    1  N2  UNL     1      16.335   3.259  15.258  1.00  0.00     0.097 N 
HETATM    2  C3  UNL     1      15.267   4.108  14.858  1.00  0.00     0.273 C 
HETATM    3  C4  UNL     1      15.649   5.548  15.217  1.00  0.00     0.032 C 
HETATM    4  C5  UNL     1      16.743   5.956  14.274  1.00  0.00     0.039 C 
HETATM    5  C6  UNL     1      17.732   4.848  14.076  1.00  0.00     0.251 C 
HETATM    6  C11 UNL     1      17.643   3.883  15.199  1.00  0.00     0.308 C 
ENDROOT
BRANCH   1   7
HETATM    7  C2  UNL     1      16.274   2.026  14.544  1.00  0.00     0.347 C 
BRANCH   7   8
HETATM    8  C1  UNL     1      16.566   0.899  15.448  1.00  0.00     0.099 C 
HETATM    9  N1  UNL     1      16.889  -0.246  14.976  1.00  0.00    -0.388 N 
ATOM     10  H12 UNL     1      16.956  -0.316  13.960  1.00  0.00     0.157 HD
ATOM     11  H11 UNL     1      17.091  -1.026  15.601  1.00  0.00     0.157 HD
BRANCH   8  12
HETATM   12  N4  UNL     1      16.471   0.997  16.867  1.00  0.00    -0.374 N 
ATOM     13  H4  UNL     1      17.277   1.259  17.434  1.00  0.00     0.161 HD
BRANCH  12  14
HETATM   14  C12 UNL     1      15.185   0.711  17.473  1.00  0.00     0.083 A 
HETATM   15  C13 UNL     1      14.448   1.829  18.109  1.00  0.00     0.027 A 
HETATM   16  C14 UNL     1      13.918   1.193  16.876  1.00  0.00     0.027 A 
ENDBRANCH  12  14
ENDBRANCH   8  12
ENDBRANCH   7   8
ENDBRANCH   1   7
BRANCH   5  17
HETATM   17  N3  UNL     1      19.007   5.410  13.813  1.00  0.00     0.094 N 
HETATM   18  C7  UNL     1      19.512   5.215  12.489  1.00  0.00     0.273 C 
HETATM   19  C8  UNL     1      20.648   6.246  12.422  1.00  0.00     0.032 C 
HETATM   20  C9  UNL     1      20.078   7.442  13.155  1.00  0.00     0.032 C 
HETATM   21  C10 UNL     1      19.174   6.783  14.163  1.00  0.00     0.273 C 
ENDBRANCH   5  17
TORSDOF 5
ENDMDL
MODEL 2
REMARK VINA RESULT: -6.399461153      0.743      1.214
REMARK  5 active torsions:
REMARK  status: ('A' for Active; 'I' for Inactive)
REMARK    1  A    between atoms: C1_4  and  C2_5 
REMARK    2  A    between atoms: C1_4  and  N4_17 
REMARK    3  A    between atoms: C2_5  and  N2_6 
REMARK    4  A    between atoms: C6_10  and  N3_11 
REMARK    5  A    between atoms: N4_17  and  C12_19 
ROOT
HETATM    1  N2  UNL     1      16.363   3.230  15.055  1.00  0.00     0.097 N 
HETATM    2  C3  UNL     1      15.176   4.002  14.927  1.00  0.00     0.273 C 
HETATM    3  C4  UNL     1      15.559   5.481  15.040  1.00  0.00     0.032 C 
HETATM    4  C5  UNL     1      16.299   5.837  13.784  1.00  0.00     0.039 C 
HETATM    5  C6  UNL     1      17.251   4.749  13.387  1.00  0.00     0.251 C 
HETATM    6  C11 UNL     1      17.555   3.891  14.557  1.00  0.00     0.308 C 
ENDROOT
BRANCH   1   7
HETATM    7  C2  UNL     1      16.169   1.936  14.492  1.00  0.00     0.347 C 
BRANCH   7   8
HETATM    8  C1  UNL     1      16.550   0.895  15.464  1.00  0.00     0.099 C 
HETATM    9  N1  UNL     1      16.913  -0.266  15.066  1.00  0.00    -0.388 N 
ATOM     10  H12 UNL     1      16.947  -0.409  14.056  1.00  0.00     0.157 HD
ATOM     11  H11 UNL     1      17.176  -0.986  15.739  1.00  0.00     0.157 HD
BRANCH   8  12
HETATM   12  N4  UNL     1      16.501   1.096  16.875  1.00  0.00    -0.374 N 
ATOM     13  H4  UNL     1      17.313   1.439  17.389  1.00  0.00     0.161 HD
BRANCH  12  14
HETATM   14  C12 UNL     1      15.255   0.793  17.551  1.00  0.00     0.083 A 
HETATM   15  C13 UNL     1      14.494   1.916  18.149  1.00  0.00     0.027 A 
HETATM   16  C14 UNL     1      13.945   1.182  16.981  1.00  0.00     0.027 A 
ENDBRANCH  12  14
ENDBRANCH   8  12
ENDBRANCH   7   8
ENDBRANCH   1   7
BRANCH   5  17
HETATM   17  N3  UNL     1      18.354   5.327  12.711  1.00  0.00     0.094 N 
HETATM   18  C7  UNL     1      19.490   5.638  13.524  1.00  0.00     0.273 C 
HETATM   19  C8  UNL     1      20.591   5.844  12.475  1.00  0.00     0.032 C 
HETATM   20  C9  UNL     1      20.306   4.766  11.452  1.00  0.00     0.032 C 
HETATM   21  C10 UNL     1      18.808   4.642  11.545  1.00  0.00     0.273 C 
ENDBRANCH   5  17
TORSDOF 5
ENDMDL
MODEL 3
REMARK VINA RESULT: -6.161612540      1.519      1.973
REMARK  5 active torsions:
REMARK  status: ('A' for Active; 'I' for Inactive)
REMARK    1  A    between atoms: C1_4  and  C2_5 
REMARK    2  A    between atoms: C1_4  and  N4_17 
REMARK    3  A    between atoms: C2_5  and  N2_6 
REMARK    4  A    between atoms: C6_10  and  N3_11 
REMARK    5  A    between atoms: N4_17  and  C12_19 
ROOT
HETATM    1  N2  UNL     1      16.514   3.292  14.677  1.00  0.00     0.097 N 
HETATM    2  C3  UNL     1      15.344   4.081  14.855  1.00  0.00     0.273 C 
HETATM    3  C4  UNL     1      15.740   5.553  14.704  1.00  0.00     0.032 C 
HETATM    4  C5  UNL     1      16.048   5.775  13.252  1.00  0.00     0.039 C 
HETATM    5  C6  UNL     1      16.830   4.631  12.681  1.00  0.00     0.251 C 
HETATM    6  C11 UNL     1      17.488   3.873  13.773  1.00  0.00     0.308 C 
ENDROOT
BRANCH   1   7
HETATM    7  C2  UNL     1      16.156   1.958  14.327  1.00  0.00     0.347 C 
BRANCH   7   8
HETATM    8  C1  UNL     1      16.537   1.028  15.405  1.00  0.00     0.099 C 
HETATM    9  N1  UNL     1      16.900  -0.169  15.134  1.00  0.00    -0.388 N 
ATOM     10  H12 UNL     1      16.933  -0.421  14.145  1.00  0.00     0.157 HD
ATOM     11  H11 UNL     1      17.163  -0.813  15.880  1.00  0.00     0.157 HD
BRANCH   8  12
HETATM   12  N4  UNL     1      16.490   1.379  16.786  1.00  0.00    -0.374 N 
ATOM     13  H4  UNL     1      17.265   1.868  17.234  1.00  0.00     0.161 HD
BRANCH  12  14
HETATM   14  C12 UNL     1      15.300   1.015  17.528  1.00  0.00     0.083 A 
HETATM   15  C13 UNL     1      14.519   2.098  18.172  1.00  0.00     0.027 A 
HETATM   16  C14 UNL     1      13.943   1.340  17.033  1.00  0.00     0.027 A 
ENDBRANCH  12  14
ENDBRANCH   8  12
ENDBRANCH   7   8
ENDBRANCH   1   7
BRANCH   5  17
HETATM   17  N3  UNL     1      17.665   5.117  11.643  1.00  0.00     0.094 N 
HETATM   18  C7  UNL     1      19.013   4.639  11.654  1.00  0.00     0.273 C 
HETATM   19  C8  UNL     1      19.496   5.004  10.243  1.00  0.00     0.032 C 
HETATM   20  C9  UNL     1      18.292   4.708   9.374  1.00  0.00     0.032 C 
HETATM   21  C10 UNL     1      17.154   4.997  10.317  1.00  0.00     0.273 C 
ENDBRANCH   5  17
TORSDOF 5
ENDMDL
MODEL 4
REMARK VINA RESULT: -5.944284127      2.455      3.112
REMARK  5 active torsions:
REMARK  status: ('A' for Active; 'I' for Inactive)
REMARK    1  A    between atoms: C1_4  and  C2_5 
REMARK    2  A    between atoms: C1_4  and  N4_17 
REMARK    3  A    between atoms: C2_5  and  N2_6 
REMARK    4  A    between atoms: C6_10  and  N3_11 
REMARK    5  A    between atoms: N4_17  and  C12_19 
ROOT
HETATM    1  N2  UNL     1      17.071   3.852  13.664  1.00  0.00     0.097 N 
HETATM    2  C3  UNL     1      17.552   4.651  14.738  1.00  0.00     0.273 C 
HETATM    3  C4  UNL     1      18.395   5.784  14.143  1.00  0.00     0.032 C 
HETATM    4  C5  UNL     1      17.444   6.721  13.458  1.00  0.00     0.039 C 
HETATM    5  C6  UNL     1      16.391   5.971  12.701  1.00  0.00     0.251 C 
HETATM    6  C11 UNL     1      16.850   4.587  12.432  1.00  0.00     0.308 C 
ENDROOT
BRANCH   1   7
HETATM    7  C2  UNL     1      15.930   3.108  14.080  1.00  0.00     0.347 C 
BRANCH   7   8
HETATM    8  C1  UNL     1      16.347   1.838  14.700  1.00  0.00     0.099 C 
HETATM    9  N1  UNL     1      16.836   0.895  13.986  1.00  0.00    -0.388 N 
ATOM     10  H12 UNL     1      16.940   1.087  12.989  1.00  0.00     0.157 HD
ATOM     11  H11 UNL     1      17.125   0.015  14.415  1.00  0.00     0.157 HD
BRANCH   8  12
HETATM   12  N4  UNL     1      16.201   1.569  16.093  1.00  0.00    -0.374 N 
ATOM     13  H4  UNL     1      16.880   0.998  16.595  1.00  0.00     0.161 HD
BRANCH  12  14
HETATM   14  C12 UNL     1      15.051   2.139  16.767  1.00  0.00     0.083 A 
HETATM   15  C13 UNL     1      13.979   1.220  17.218  1.00  0.00     0.027 A 
HETATM   16  C14 UNL     1      14.815   1.934  18.214  1.00  0.00     0.027 A 
ENDBRANCH  12  14
ENDBRANCH   8  12
ENDBRANCH   7   8
ENDBRANCH   1   7
BRANCH   5  17
HETATM   17  N3  UNL     1      15.990   6.743  11.583  1.00  0.00     0.094 N 
HETATM   18  C7  UNL     1      14.647   7.235  11.615  1.00  0.00     0.273 C 
HETATM   19  C8  UNL     1      14.672   8.315  10.523  1.00  0.00     0.032 C 
HETATM   20  C9  UNL     1      16.026   8.966  10.708  1.00  0.00     0.032 C 
HETATM   21  C10 UNL     1      16.855   7.816  11.215  1.00  0.00     0.273 C 
ENDBRANCH   5  17
TORSDOF 5
ENDMDL
MODEL 5
REMARK VINA RESULT: -5.900837534      1.758      6.240
REMARK  5 active torsions:
REMARK  status: ('A' for Active; 'I' for Inactive)
REMARK    1  A    between atoms: C1_4  and  C2_5 
REMARK    2  A    between atoms: C1_4  and  N4_17 
REMARK    3  A    between atoms: C2_5  and  N2_6 
REMARK    4  A    between atoms: C6_10  and  N3_11 
REMARK    5  A    between atoms: N4_17  and  C12_19 
ROOT
HETATM    1  N2  UNL     1      17.305   4.762  13.613  1.00  0.00     0.097 N 
HETATM    2  C3  UNL     1      16.722   5.913  14.211  1.00  0.00     0.273 C 
HETATM    3  C4  UNL     1      15.209   5.685  14.297  1.00  0.00     0.032 C 
HETATM    4  C5  UNL     1      14.986   4.640  15.351  1.00  0.00     0.039 C 
HETATM    5  C6  UNL     1      15.997   3.539  15.248  1.00  0.00     0.251 C 
HETATM    6  C11 UNL     1      16.596   3.527  13.891  1.00  0.00     0.308 C 
ENDROOT
BRANCH   1   7
HETATM    7  C2  UNL     1      18.691   4.692  13.935  1.00  0.00     0.347 C 
BRANCH   7   8
HETATM    8  C1  UNL     1      19.485   4.434  12.721  1.00  0.00     0.099 C 
HETATM    9  N1  UNL     1      20.302   3.450  12.674  1.00  0.00    -0.388 N 
ATOM     10  H12 UNL     1      20.345   2.855  13.502  1.00  0.00     0.157 HD
ATOM     11  H11 UNL     1      20.851   3.272  11.833  1.00  0.00     0.157 HD
BRANCH   8  12
HETATM   12  N4  UNL     1      19.425   5.265  11.563  1.00  0.00    -0.374 N 
ATOM     13  H4  UNL     1      19.627   6.263  11.618  1.00  0.00     0.161 HD
BRANCH  12  14
HETATM   14  C12 UNL     1      19.065   4.637  10.307  1.00  0.00     0.083 A 
HETATM   15  C13 UNL     1      17.641   4.295  10.079  1.00  0.00     0.027 A 
HETATM   16  C14 UNL     1      18.291   5.357   9.270  1.00  0.00     0.027 A 
ENDBRANCH  12  14
ENDBRANCH   8  12
ENDBRANCH   7   8
ENDBRANCH   1   7
BRANCH   5  17
HETATM   17  N3  UNL     1      15.411   2.331  15.701  1.00  0.00     0.094 N 
HETATM   18  C7  UNL     1      16.281   1.443  16.409  1.00  0.00     0.273 C 
HETATM   19  C8  UNL     1      15.287   0.486  17.083  1.00  0.00     0.032 C 
HETATM   20  C9  UNL     1      14.158   1.399  17.510  1.00  0.00     0.032 C 
HETATM   21  C10 UNL     1      14.197   2.459  16.440  1.00  0.00     0.273 C 
ENDBRANCH   5  17
TORSDOF 5
ENDMDL
