MODEL 1
REMARK VINA RESULT: -6.144985581      0.000      0.000
REMARK  4 active torsions:
REMARK  status: ('A' for Active; 'I' for Inactive)
REMARK    1  A    between atoms: C2_2  and  C3_3 
REMARK    2  A    between atoms: C3_3  and  C4_4 
REMARK    3  A    between atoms: C4_4  and  C6_6 
REMARK    4  A    between atoms: C6_6  and  N1_7 
ROOT
HETATM    1  N1  UNL     1      18.520   4.567  13.435  1.00  0.00     0.088 N 
HETATM    2  C7  UNL     1      17.734   4.842  14.621  1.00  0.00     0.275 C 
HETATM    3  C8  UNL     1      17.459   3.522  15.303  1.00  0.00     0.062 C 
HETATM    4  C9  UNL     1      16.461   2.750  14.488  1.00  0.00     0.045 C 
HETATM    5  C10 UNL     1      16.536   3.163  13.027  1.00  0.00     0.062 C 
HETATM    6  C11 UNL     1      17.926   3.538  12.614  1.00  0.00     0.275 C 
HETATM    7  C12 UNL     1      15.020   3.063  14.914  1.00  0.00     0.153 C 
HETATM    8  N2  UNL     1      14.892   2.717  16.311  1.00  0.00    -0.357 N 
ATOM      9  H2  UNL     1      14.328   3.269  16.957  1.00  0.00     0.162 HD
HETATM   10  C13 UNL     1      15.609   1.549  16.734  1.00  0.00     0.234 C 
HETATM   11  O1  UNL     1      15.664   1.356  17.982  1.00  0.00    -0.272 OA
HETATM   12  C14 UNL     1      16.212   0.678  15.718  1.00  0.00     0.218 C 
HETATM   13  N3  UNL     1      16.755   1.360  14.581  1.00  0.00    -0.403 N 
ATOM     14  H3  UNL     1      17.319   0.879  13.881  1.00  0.00     0.154 HD
ENDROOT
BRANCH   1  15
HETATM   15  C6  UNL     1      18.796   5.775  12.686  1.00  0.00     0.277 C 
BRANCH  15  16
HETATM   16  C4  UNL     1      17.910   6.891  13.126  1.00  0.00     0.013 C 
HETATM   17  C5  UNL     1      18.672   8.109  13.599  1.00  0.00     0.012 C 
BRANCH  16  18
HETATM   18  C3  UNL     1      17.107   7.328  11.894  1.00  0.00     0.032 C 
BRANCH  18  19
HETATM   19  C2  UNL     1      15.740   6.745  12.015  1.00  0.00    -0.037 C 
HETATM   20  C1  UNL     1      14.716   7.345  11.457  1.00  0.00     0.007 C 
ENDBRANCH  18  19
ENDBRANCH  16  18
ENDBRANCH  15  16
ENDBRANCH   1  15
TORSDOF 4
ENDMDL
MODEL 2
REMARK VINA RESULT: -6.089261003      1.386      2.177
REMARK  4 active torsions:
REMARK  status: ('A' for Active; 'I' for Inactive)
REMARK    1  A    between atoms: C2_2  and  C3_3 
REMARK    2  A    between atoms: C3_3  and  C4_4 
REMARK    3  A    between atoms: C4_4  and  C6_6 
REMARK    4  A    between atoms: C6_6  and  N1_7 
ROOT
HETATM    1  N1  UNL     1      18.365   4.664  13.472  1.00  0.00     0.088 N 
HETATM    2  C7  UNL     1      17.559   4.885  14.656  1.00  0.00     0.275 C 
HETATM    3  C8  UNL     1      17.363   3.547  15.331  1.00  0.00     0.062 C 
HETATM    4  C9  UNL     1      16.417   2.719  14.509  1.00  0.00     0.045 C 
HETATM    5  C10 UNL     1      16.472   3.142  13.050  1.00  0.00     0.062 C 
HETATM    6  C11 UNL     1      17.838   3.604  12.644  1.00  0.00     0.275 C 
HETATM    7  C12 UNL     1      14.958   2.941  14.930  1.00  0.00     0.153 C 
HETATM    8  N2  UNL     1      14.847   2.582  16.326  1.00  0.00    -0.357 N 
ATOM      9  H2  UNL     1      14.247   3.095  16.971  1.00  0.00     0.162 HD
HETATM   10  C13 UNL     1      15.632   1.458  16.746  1.00  0.00     0.234 C 
HETATM   11  O1  UNL     1      15.695   1.264  17.994  1.00  0.00    -0.272 OA
HETATM   12  C14 UNL     1      16.291   0.630  15.730  1.00  0.00     0.218 C 
HETATM   13  N3  UNL     1      16.796   1.349  14.598  1.00  0.00    -0.403 N 
ATOM     14  H3  UNL     1      17.391   0.907  13.898  1.00  0.00     0.154 HD
ENDROOT
BRANCH   1  15
HETATM   15  C6  UNL     1      18.569   5.890  12.728  1.00  0.00     0.277 C 
BRANCH  15  16
HETATM   16  C4  UNL     1      19.549   6.777  13.419  1.00  0.00     0.013 C 
HETATM   17  C5  UNL     1      20.777   7.073  12.588  1.00  0.00     0.012 C 
BRANCH  16  18
HETATM   18  C3  UNL     1      18.841   8.119  13.650  1.00  0.00     0.032 C 
BRANCH  18  19
HETATM   19  C2  UNL     1      18.870   8.399  15.114  1.00  0.00    -0.037 C 
HETATM   20  C1  UNL     1      19.857   9.092  15.632  1.00  0.00     0.007 C 
ENDBRANCH  18  19
ENDBRANCH  16  18
ENDBRANCH  15  16
ENDBRANCH   1  15
TORSDOF 4
ENDMDL
MODEL 3
REMARK VINA RESULT: -6.071991357      1.385      2.159
REMARK  4 active torsions:
REMARK  status: ('A' for Active; 'I' for Inactive)
REMARK    1  A    between atoms: C2_2  and  C3_3 
REMARK    2  A    between atoms: C3_3  and  C4_4 
REMARK    3  A    between atoms: C4_4  and  C6_6 
REMARK    4  A    between atoms: C6_6  and  N1_7 
ROOT
HETATM    1  N1  UNL     1      16.498   4.940  12.458  1.00  0.00     0.088 N 
HETATM    2  C7  UNL     1      17.194   3.704  12.751  1.00  0.00     0.275 C 
HETATM    3  C8  UNL     1      16.317   2.894  13.677  1.00  0.00     0.062 C 
HETATM    4  C9  UNL     1      16.319   3.535  15.036  1.00  0.00     0.045 C 
HETATM    5  C10 UNL     1      16.603   5.024  14.920  1.00  0.00     0.062 C 
HETATM    6  C11 UNL     1      16.050   5.610  13.657  1.00  0.00     0.275 C 
HETATM    7  C12 UNL     1      17.448   2.986  15.919  1.00  0.00     0.153 C 
HETATM    8  N2  UNL     1      17.249   1.559  16.045  1.00  0.00    -0.357 N 
ATOM      9  H2  UNL     1      18.030   0.903  16.067  1.00  0.00     0.162 HD
HETATM   10  C13 UNL     1      15.886   1.124  16.136  1.00  0.00     0.234 C 
HETATM   11  O1  UNL     1      15.696  -0.123  16.044  1.00  0.00    -0.272 OA
HETATM   12  C14 UNL     1      14.830   2.125  16.326  1.00  0.00     0.218 C 
HETATM   13  N3  UNL     1      15.039   3.363  15.636  1.00  0.00    -0.403 N 
ATOM     14  H3  UNL     1      14.315   4.079  15.579  1.00  0.00     0.154 HD
ENDROOT
BRANCH   1  15
HETATM   15  C6  UNL     1      17.286   5.808  11.608  1.00  0.00     0.277 C 
BRANCH  15  16
HETATM   16  C4  UNL     1      16.810   7.219  11.697  1.00  0.00     0.013 C 
HETATM   17  C5  UNL     1      17.936   8.228  11.743  1.00  0.00     0.012 C 
BRANCH  16  18
HETATM   18  C3  UNL     1      16.022   7.500  10.411  1.00  0.00     0.032 C 
BRANCH  18  19
HETATM   19  C2  UNL     1      14.764   8.202  10.797  1.00  0.00    -0.037 C 
HETATM   20  C1  UNL     1      13.874   7.593  11.544  1.00  0.00     0.007 C 
ENDBRANCH  18  19
ENDBRANCH  16  18
ENDBRANCH  15  16
ENDBRANCH   1  15
TORSDOF 4
ENDMDL
MODEL 4
REMARK VINA RESULT: -5.962429649      1.454      2.756
REMARK  4 active torsions:
REMARK  status: ('A' for Active; 'I' for Inactive)
REMARK    1  A    between atoms: C2_2  and  C3_3 
REMARK    2  A    between atoms: C3_3  and  C4_4 
REMARK    3  A    between atoms: C4_4  and  C6_6 
REMARK    4  A    between atoms: C6_6  and  N1_7 
ROOT
HETATM    1  N1  UNL     1      16.489   5.201  12.613  1.00  0.00     0.088 N 
HETATM    2  C7  UNL     1      17.346   4.066  12.889  1.00  0.00     0.275 C 
HETATM    3  C8  UNL     1      16.511   3.026  13.601  1.00  0.00     0.062 C 
HETATM    4  C9  UNL     1      16.229   3.500  14.999  1.00  0.00     0.045 C 
HETATM    5  C10 UNL     1      16.263   5.018  15.061  1.00  0.00     0.062 C 
HETATM    6  C11 UNL     1      15.782   5.649  13.791  1.00  0.00     0.275 C 
HETATM    7  C12 UNL     1      17.314   3.040  15.982  1.00  0.00     0.153 C 
HETATM    8  N2  UNL     1      17.351   1.595  15.947  1.00  0.00    -0.357 N 
ATOM      9  H2  UNL     1      18.225   1.074  16.022  1.00  0.00     0.162 HD
HETATM   10  C13 UNL     1      16.084   0.941  15.799  1.00  0.00     0.234 C 
HETATM   11  O1  UNL     1      16.127  -0.302  15.568  1.00  0.00    -0.272 OA
HETATM   12  C14 UNL     1      14.855   1.733  15.925  1.00  0.00     0.218 C 
HETATM   13  N3  UNL     1      14.933   3.059  15.389  1.00  0.00    -0.403 N 
ATOM     14  H3  UNL     1      14.109   3.652  15.293  1.00  0.00     0.154 HD
ENDROOT
BRANCH   1  15
HETATM   15  C6  UNL     1      17.216   6.275  11.969  1.00  0.00     0.277 C 
BRANCH  15  16
HETATM   16  C4  UNL     1      18.526   6.511  12.642  1.00  0.00     0.013 C 
HETATM   17  C5  UNL     1      19.703   6.467  11.692  1.00  0.00     0.012 C 
BRANCH  16  18
HETATM   18  C3  UNL     1      18.478   7.935  13.213  1.00  0.00     0.032 C 
BRANCH  18  19
HETATM   19  C2  UNL     1      18.669   7.836  14.688  1.00  0.00    -0.037 C 
HETATM   20  C1  UNL     1      19.362   8.751  15.324  1.00  0.00     0.007 C 
ENDBRANCH  18  19
ENDBRANCH  16  18
ENDBRANCH  15  16
ENDBRANCH   1  15
TORSDOF 4
ENDMDL
MODEL 5
REMARK VINA RESULT: -5.920004765      3.143      5.865
REMARK  4 active torsions:
REMARK  status: ('A' for Active; 'I' for Inactive)
REMARK    1  A    between atoms: C2_2  and  C3_3 
REMARK    2  A    between atoms: C3_3  and  C4_4 
REMARK    3  A    between atoms: C4_4  and  C6_6 
REMARK    4  A    between atoms: C6_6  and  N1_7 
ROOT
HETATM    1  N1  UNL     1      16.529   3.005  13.940  1.00  0.00     0.088 N 
HETATM    2  C7  UNL     1      16.544   3.648  12.641  1.00  0.00     0.275 C 
HETATM    3  C8  UNL     1      17.943   3.520  12.085  1.00  0.00     0.062 C 
HETATM    4  C9  UNL     1      18.858   4.432  12.850  1.00  0.00     0.045 C 
HETATM    5  C10 UNL     1      18.322   4.668  14.253  1.00  0.00     0.062 C 
HETATM    6  C11 UNL     1      17.598   3.472  14.791  1.00  0.00     0.275 C 
HETATM    7  C12 UNL     1      18.928   5.827  12.215  1.00  0.00     0.153 C 
HETATM    8  N2  UNL     1      19.408   5.667  10.860  1.00  0.00    -0.357 N 
ATOM      9  H2  UNL     1      19.058   6.238  10.091  1.00  0.00     0.162 HD
HETATM   10  C13 UNL     1      20.406   4.655  10.667  1.00  0.00     0.234 C 
HETATM   11  O1  UNL     1      20.682   4.374   9.465  1.00  0.00    -0.272 OA
HETATM   12  C14 UNL     1      21.025   4.032  11.842  1.00  0.00     0.218 C 
HETATM   13  N3  UNL     1      20.144   3.827  12.953  1.00  0.00    -0.403 N 
ATOM     14  H3  UNL     1      20.420   3.281  13.769  1.00  0.00     0.154 HD
ENDROOT
BRANCH   1  15
HETATM   15  C6  UNL     1      15.233   3.117  14.576  1.00  0.00     0.277 C 
BRANCH  15  16
HETATM   16  C4  UNL     1      15.292   4.034  15.751  1.00  0.00     0.013 C 
HETATM   17  C5  UNL     1      14.863   5.449  15.428  1.00  0.00     0.012 C 
BRANCH  16  18
HETATM   18  C3  UNL     1      14.290   3.496  16.781  1.00  0.00     0.032 C 
BRANCH  18  19
HETATM   19  C2  UNL     1      14.704   2.108  17.131  1.00  0.00    -0.037 C 
HETATM   20  C1  UNL     1      13.815   1.142  17.155  1.00  0.00     0.007 C 
ENDBRANCH  18  19
ENDBRANCH  16  18
ENDBRANCH  15  16
ENDBRANCH   1  15
TORSDOF 4
ENDMDL
