MODEL 1
REMARK VINA RESULT: -5.968604354      0.000      0.000
REMARK  5 active torsions:
REMARK  status: ('A' for Active; 'I' for Inactive)
REMARK    1  A    between atoms: C2_2  and  C4_4 
REMARK    2  A    between atoms: C5_5  and  C6_6 
REMARK    3  A    between atoms: C6_6  and  O1_7 
REMARK    4  A    between atoms: C8_10  and  C9_11 
REMARK    5  A    between atoms: C9_11  and  N1_12 
ROOT
HETATM    1  C4  UNL     1      15.043   2.757  15.417  1.00  0.00     0.001 C 
HETATM    2  C5  UNL     1      15.455   2.036  16.692  1.00  0.00     0.014 C 
HETATM    3  C7  UNL     1      16.773   1.740  16.065  1.00  0.00     0.013 C 
HETATM    4  C8  UNL     1      16.464   2.697  14.911  1.00  0.00     0.019 C 
ENDROOT
BRANCH   4   5
HETATM    5  C9  UNL     1      16.732   2.019  13.629  1.00  0.00     0.277 C 
BRANCH   5   6
HETATM    6  N1  UNL     1      17.409   2.697  12.597  1.00  0.00     0.092 N 
HETATM    7  C10 UNL     1      16.571   3.024  11.462  1.00  0.00     0.302 C 
HETATM    8  C11 UNL     1      17.299   3.809  10.427  1.00  0.00     0.302 C 
HETATM    9  N2  UNL     1      18.076   4.902  10.961  1.00  0.00     0.087 N 
HETATM   10  C12 UNL     1      19.468   4.807  10.677  1.00  0.00     0.310 C 
HETATM   11  C13 UNL     1      17.789   5.113  12.342  1.00  0.00     0.302 C 
HETATM   12  C14 UNL     1      18.059   3.869  13.149  1.00  0.00     0.302 C 
ENDBRANCH   5   6
ENDBRANCH   4   5
BRANCH   1  13
HETATM   13  C2  UNL     1      14.468   4.092  15.738  1.00  0.00    -0.018 C 
HETATM   14  C1  UNL     1      15.352   5.245  15.314  1.00  0.00     0.010 C 
HETATM   15  C3  UNL     1      14.174   4.289  17.209  1.00  0.00     0.010 C 
ENDBRANCH   1  13
BRANCH   2  16
HETATM   16  C6  UNL     1      14.545   0.853  16.946  1.00  0.00     0.169 C 
BRANCH  16  17
HETATM   17  O1  UNL     1      15.266  -0.317  17.147  1.00  0.00    -0.400 OA
ATOM     18  H1  UNL     1      15.615  -0.368  18.030  1.00  0.00     0.209 HD
ENDBRANCH  16  17
ENDBRANCH   2  16
TORSDOF 5
ENDMDL
MODEL 2
REMARK VINA RESULT: -5.958286769      2.047      2.519
REMARK  5 active torsions:
REMARK  status: ('A' for Active; 'I' for Inactive)
REMARK    1  A    between atoms: C2_2  and  C4_4 
REMARK    2  A    between atoms: C5_5  and  C6_6 
REMARK    3  A    between atoms: C6_6  and  O1_7 
REMARK    4  A    between atoms: C8_10  and  C9_11 
REMARK    5  A    between atoms: C9_11  and  N1_12 
ROOT
HETATM    1  C4  UNL     1      15.966   3.265  14.932  1.00  0.00     0.001 C 
HETATM    2  C5  UNL     1      16.495   2.358  16.033  1.00  0.00     0.014 C 
HETATM    3  C7  UNL     1      17.854   2.922  15.805  1.00  0.00     0.013 C 
HETATM    4  C8  UNL     1      17.274   4.019  14.909  1.00  0.00     0.019 C 
ENDROOT
BRANCH   4   5
HETATM    5  C9  UNL     1      18.038   4.075  13.649  1.00  0.00     0.277 C 
BRANCH   5   6
HETATM    6  N1  UNL     1      18.384   5.318  13.085  1.00  0.00     0.092 N 
HETATM    7  C10 UNL     1      17.259   6.043  12.529  1.00  0.00     0.302 C 
HETATM    8  C11 UNL     1      17.648   7.385  12.014  1.00  0.00     0.302 C 
HETATM    9  N2  UNL     1      18.487   8.136  12.916  1.00  0.00     0.087 N 
HETATM   10  C12 UNL     1      19.757   8.476  12.369  1.00  0.00     0.310 C 
HETATM   11  C13 UNL     1      18.568   7.506  14.193  1.00  0.00     0.302 C 
HETATM   12  C14 UNL     1      19.101   6.100  14.071  1.00  0.00     0.302 C 
ENDBRANCH   5   6
ENDBRANCH   4   5
BRANCH   1  13
HETATM   13  C2  UNL     1      14.748   3.987  15.393  1.00  0.00    -0.018 C 
HETATM   14  C1  UNL     1      14.919   5.490  15.431  1.00  0.00     0.010 C 
HETATM   15  C3  UNL     1      14.279   3.569  16.769  1.00  0.00     0.010 C 
ENDBRANCH   1  13
BRANCH   2  16
HETATM   16  C6  UNL     1      16.293   0.905  15.661  1.00  0.00     0.169 C 
BRANCH  16  17
HETATM   17  O1  UNL     1      17.414   0.138  15.953  1.00  0.00    -0.400 OA
ATOM     18  H1  UNL     1      17.210  -0.790  15.975  1.00  0.00     0.209 HD
ENDBRANCH  16  17
ENDBRANCH   2  16
TORSDOF 5
ENDMDL
MODEL 3
REMARK VINA RESULT: -5.827589941      1.923      2.626
REMARK  5 active torsions:
REMARK  status: ('A' for Active; 'I' for Inactive)
REMARK    1  A    between atoms: C2_2  and  C4_4 
REMARK    2  A    between atoms: C5_5  and  C6_6 
REMARK    3  A    between atoms: C6_6  and  O1_7 
REMARK    4  A    between atoms: C8_10  and  C9_11 
REMARK    5  A    between atoms: C9_11  and  N1_12 
ROOT
HETATM    1  C4  UNL     1      15.951   3.239  14.935  1.00  0.00     0.001 C 
HETATM    2  C5  UNL     1      16.495   2.375  16.062  1.00  0.00     0.014 C 
HETATM    3  C7  UNL     1      17.854   2.915  15.782  1.00  0.00     0.013 C 
HETATM    4  C8  UNL     1      17.265   3.979  14.853  1.00  0.00     0.019 C 
ENDROOT
BRANCH   4   5
HETATM    5  C9  UNL     1      18.002   3.975  13.576  1.00  0.00     0.277 C 
BRANCH   5   6
HETATM    6  N1  UNL     1      18.529   5.174  13.059  1.00  0.00     0.092 N 
HETATM    7  C10 UNL     1      19.026   6.082  14.072  1.00  0.00     0.302 C 
HETATM    8  C11 UNL     1      19.647   7.302  13.486  1.00  0.00     0.302 C 
HETATM    9  N2  UNL     1      20.554   7.030  12.398  1.00  0.00     0.087 N 
HETATM   10  C12 UNL     1      20.175   7.643  11.169  1.00  0.00     0.310 C 
HETATM   11  C13 UNL     1      20.816   5.633  12.280  1.00  0.00     0.302 C 
HETATM   12  C14 UNL     1      19.540   4.857  12.071  1.00  0.00     0.302 C 
ENDBRANCH   5   6
ENDBRANCH   4   5
BRANCH   1  13
HETATM   13  C2  UNL     1      14.750   3.991  15.390  1.00  0.00    -0.018 C 
HETATM   14  C1  UNL     1      14.948   5.491  15.402  1.00  0.00     0.010 C 
HETATM   15  C3  UNL     1      14.280   3.604  16.775  1.00  0.00     0.010 C 
ENDBRANCH   1  13
BRANCH   2  16
HETATM   16  C6  UNL     1      16.273   0.909  15.756  1.00  0.00     0.169 C 
BRANCH  16  17
HETATM   17  O1  UNL     1      17.428   0.162  15.951  1.00  0.00    -0.400 OA
ATOM     18  H1  UNL     1      17.872  -0.022  15.130  1.00  0.00     0.209 HD
ENDBRANCH  16  17
ENDBRANCH   2  16
TORSDOF 5
ENDMDL
MODEL 4
REMARK VINA RESULT: -5.775528445      1.431      2.120
REMARK  5 active torsions:
REMARK  status: ('A' for Active; 'I' for Inactive)
REMARK    1  A    between atoms: C2_2  and  C4_4 
REMARK    2  A    between atoms: C5_5  and  C6_6 
REMARK    3  A    between atoms: C6_6  and  O1_7 
REMARK    4  A    between atoms: C8_10  and  C9_11 
REMARK    5  A    between atoms: C9_11  and  N1_12 
ROOT
HETATM    1  C4  UNL     1      15.901   3.215  14.912  1.00  0.00     0.001 C 
HETATM    2  C5  UNL     1      16.510   2.416  16.054  1.00  0.00     0.014 C 
HETATM    3  C7  UNL     1      17.849   2.943  15.671  1.00  0.00     0.013 C 
HETATM    4  C8  UNL     1      17.204   3.952  14.719  1.00  0.00     0.019 C 
ENDROOT
BRANCH   4   5
HETATM    5  C9  UNL     1      17.871   3.880  13.405  1.00  0.00     0.277 C 
BRANCH   5   6
HETATM    6  N1  UNL     1      17.529   4.788  12.385  1.00  0.00     0.092 N 
HETATM    7  C10 UNL     1      18.602   5.690  12.019  1.00  0.00     0.302 C 
HETATM    8  C11 UNL     1      18.231   6.581  10.885  1.00  0.00     0.302 C 
HETATM    9  N2  UNL     1      17.594   5.895   9.787  1.00  0.00     0.087 N 
HETATM   10  C12 UNL     1      16.282   6.368   9.500  1.00  0.00     0.310 C 
HETATM   11  C13 UNL     1      17.667   4.480   9.949  1.00  0.00     0.302 C 
HETATM   12  C14 UNL     1      17.027   4.049  11.245  1.00  0.00     0.302 C 
ENDBRANCH   5   6
ENDBRANCH   4   5
BRANCH   1  13
HETATM   13  C2  UNL     1      14.722   3.988  15.390  1.00  0.00    -0.018 C 
HETATM   14  C1  UNL     1      14.942   5.485  15.384  1.00  0.00     0.010 C 
HETATM   15  C3  UNL     1      14.281   3.619  16.789  1.00  0.00     0.010 C 
ENDBRANCH   1  13
BRANCH   2  16
HETATM   16  C6  UNL     1      16.280   0.934  15.842  1.00  0.00     0.169 C 
BRANCH  16  17
HETATM   17  O1  UNL     1      17.448   0.202  16.015  1.00  0.00    -0.400 OA
ATOM     18  H1  UNL     1      17.285  -0.618  16.467  1.00  0.00     0.209 HD
ENDBRANCH  16  17
ENDBRANCH   2  16
TORSDOF 5
ENDMDL
MODEL 5
REMARK VINA RESULT: -5.728584023      2.020      3.019
REMARK  5 active torsions:
REMARK  status: ('A' for Active; 'I' for Inactive)
REMARK    1  A    between atoms: C2_2  and  C4_4 
REMARK    2  A    between atoms: C5_5  and  C6_6 
REMARK    3  A    between atoms: C6_6  and  O1_7 
REMARK    4  A    between atoms: C8_10  and  C9_11 
REMARK    5  A    between atoms: C9_11  and  N1_12 
ROOT
HETATM    1  C4  UNL     1      15.171   2.571  15.713  1.00  0.00     0.001 C 
HETATM    2  C5  UNL     1      16.507   1.886  15.961  1.00  0.00     0.014 C 
HETATM    3  C7  UNL     1      17.194   3.106  15.456  1.00  0.00     0.013 C 
HETATM    4  C8  UNL     1      15.877   3.884  15.476  1.00  0.00     0.019 C 
ENDROOT
BRANCH   4   5
HETATM    5  C9  UNL     1      15.692   4.565  14.180  1.00  0.00     0.277 C 
BRANCH   5   6
HETATM    6  N1  UNL     1      16.418   5.734  13.884  1.00  0.00     0.092 N 
HETATM    7  C10 UNL     1      17.205   6.233  14.993  1.00  0.00     0.302 C 
HETATM    8  C11 UNL     1      18.020   7.422  14.622  1.00  0.00     0.302 C 
HETATM    9  N2  UNL     1      18.728   7.278  13.373  1.00  0.00     0.087 N 
HETATM   10  C12 UNL     1      18.372   8.253  12.397  1.00  0.00     0.310 C 
HETATM   11  C13 UNL     1      18.658   5.938  12.890  1.00  0.00     0.302 C 
HETATM   12  C14 UNL     1      17.226   5.502  12.705  1.00  0.00     0.302 C 
ENDBRANCH   5   6
ENDBRANCH   4   5
BRANCH   1  13
HETATM   13  C2  UNL     1      14.295   2.451  16.910  1.00  0.00    -0.018 C 
HETATM   14  C1  UNL     1      15.064   2.358  18.210  1.00  0.00     0.010 C 
HETATM   15  C3  UNL     1      13.369   1.256  16.868  1.00  0.00     0.010 C 
ENDBRANCH   1  13
BRANCH   2  16
HETATM   16  C6  UNL     1      16.626   0.639  15.110  1.00  0.00     0.169 C 
BRANCH  16  17
HETATM   17  O1  UNL     1      16.206  -0.494  15.795  1.00  0.00    -0.400 OA
ATOM     18  H1  UNL     1      15.450  -0.895  15.382  1.00  0.00     0.209 HD
ENDBRANCH  16  17
ENDBRANCH   2  16
TORSDOF 5
ENDMDL
