MODEL 1
REMARK VINA RESULT: -6.336852583      0.000      0.000
REMARK  6 active torsions:
REMARK  status: ('A' for Active; 'I' for Inactive)
REMARK    1  A    between atoms: C2_3  and  C3_4 
REMARK    2  A    between atoms: C5_9  and  C6_10 
REMARK    3  A    between atoms: C6_10  and  C7_11 
REMARK    4  A    between atoms: C7_11  and  N3_12 
REMARK    5  A    between atoms: N3_12  and  C8_15 
REMARK    6  A    between atoms: C8_15  and  C9_16 
ROOT
HETATM    1  C3  UNL     1      17.202   4.816  13.393  1.00  0.00     0.294 C 
HETATM    2  N2  UNL     1      18.052   4.099  14.381  1.00  0.00    -0.061 N 
ATOM      3  H21 UNL     1      18.667   4.739  14.884  1.00  0.00     0.278 HD
ATOM      4  H22 UNL     1      18.764   3.529  13.925  1.00  0.00     0.278 HD
HETATM    5  C4  UNL     1      17.249   3.329  15.270  1.00  0.00     0.238 C 
HETATM    6  C5  UNL     1      16.291   2.467  14.478  1.00  0.00     0.020 C 
HETATM    7  C10 UNL     1      16.655   2.394  13.015  1.00  0.00     0.087 C 
HETATM    8  C11 UNL     1      16.754   3.788  12.484  1.00  0.00     0.160 C 
HETATM    9  O1  UNL     1      16.457   3.973  11.345  1.00  0.00    -0.296 OA
ENDROOT
BRANCH   1  10
HETATM   10  C2  UNL     1      17.973   5.966  12.930  1.00  0.00     0.346 C 
HETATM   11  N1  UNL     1      17.748   7.251  13.469  1.00  0.00     0.176 N 
HETATM   12  C1  UNL     1      18.117   7.543  14.793  1.00  0.00     0.319 C 
HETATM   13  C14 UNL     1      18.526   8.061  12.504  1.00  0.00     0.512 C 
HETATM   14  C13 UNL     1      19.788   7.231  12.240  1.00  0.00     0.404 C 
HETATM   15  F6  UNL     1      18.826   9.288  13.019  1.00  0.00    -0.167 F 
HETATM   16  F7  UNL     1      17.731   8.130  11.372  1.00  0.00    -0.167 F 
HETATM   17  C12 UNL     1      19.445   5.811  12.713  1.00  0.00     0.349 C 
HETATM   18  F4  UNL     1      19.994   7.243  10.878  1.00  0.00    -0.190 F 
HETATM   19  F5  UNL     1      20.863   7.737  12.898  1.00  0.00    -0.190 F 
HETATM   20  F2  UNL     1      19.747   4.960  11.671  1.00  0.00    -0.197 F 
HETATM   21  F3  UNL     1      20.208   5.487  13.769  1.00  0.00    -0.197 F 
ENDBRANCH   1  10
BRANCH   6  22
HETATM   22  C6  UNL     1      16.259   1.075  15.046  1.00  0.00     0.034 C 
BRANCH  22  23
HETATM   23  C7  UNL     1      16.494   1.055  16.513  1.00  0.00     0.232 C 
BRANCH  23  24
HETATM   24  N3  UNL     1      15.439   0.329  17.213  1.00  0.00    -0.073 N 
ATOM     25  H32 UNL     1      15.295  -0.606  16.831  1.00  0.00     0.277 HD
ATOM     26  H31 UNL     1      15.717   0.058  18.156  1.00  0.00     0.277 HD
BRANCH  24  27
HETATM   27  C8  UNL     1      14.242   1.109  17.203  1.00  0.00     0.263 C 
BRANCH  27  28
HETATM   28  C9  UNL     1      14.545   2.380  17.994  1.00  0.00     0.249 C 
HETATM   29  F1  UNL     1      14.224   3.462  17.216  1.00  0.00    -0.254 F 
ENDBRANCH  27  28
ENDBRANCH  24  27
ENDBRANCH  23  24
ENDBRANCH  22  23
ENDBRANCH   6  22
TORSDOF 6
ENDMDL
MODEL 2
REMARK VINA RESULT: -6.306494250      1.410      1.885
REMARK  6 active torsions:
REMARK  status: ('A' for Active; 'I' for Inactive)
REMARK    1  A    between atoms: C2_3  and  C3_4 
REMARK    2  A    between atoms: C5_9  and  C6_10 
REMARK    3  A    between atoms: C6_10  and  C7_11 
REMARK    4  A    between atoms: C7_11  and  N3_12 
REMARK    5  A    between atoms: N3_12  and  C8_15 
REMARK    6  A    between atoms: C8_15  and  C9_16 
ROOT
HETATM    1  C3  UNL     1      16.805   4.352  12.734  1.00  0.00     0.294 C 
HETATM    2  N2  UNL     1      17.733   3.965  13.832  1.00  0.00    -0.061 N 
ATOM      3  H21 UNL     1      18.209   4.775  14.227  1.00  0.00     0.278 HD
ATOM      4  H22 UNL     1      18.549   3.465  13.479  1.00  0.00     0.278 HD
HETATM    5  C4  UNL     1      17.046   3.216  14.830  1.00  0.00     0.238 C 
HETATM    6  C5  UNL     1      16.281   2.082  14.183  1.00  0.00     0.020 C 
HETATM    7  C10 UNL     1      16.703   1.842  12.754  1.00  0.00     0.087 C 
HETATM    8  C11 UNL     1      16.576   3.129  12.003  1.00  0.00     0.160 C 
HETATM    9  O1  UNL     1      16.291   3.074  10.847  1.00  0.00    -0.296 OA
ENDROOT
BRANCH   1  10
HETATM   10  C2  UNL     1      17.380   5.532  12.095  1.00  0.00     0.346 C 
HETATM   11  N1  UNL     1      16.656   6.247  11.117  1.00  0.00     0.176 N 
HETATM   12  C1  UNL     1      15.525   7.000  11.476  1.00  0.00     0.319 C 
HETATM   13  C14 UNL     1      17.738   7.118  10.601  1.00  0.00     0.512 C 
HETATM   14  C13 UNL     1      18.522   7.533  11.850  1.00  0.00     0.404 C 
HETATM   15  F6  UNL     1      17.228   8.198   9.941  1.00  0.00    -0.167 F 
HETATM   16  F7  UNL     1      18.499   6.297   9.786  1.00  0.00    -0.167 F 
HETATM   17  C12 UNL     1      18.120   6.523  12.936  1.00  0.00     0.349 C 
HETATM   18  F4  UNL     1      19.858   7.397  11.544  1.00  0.00    -0.190 F 
HETATM   19  F5  UNL     1      18.235   8.809  12.217  1.00  0.00    -0.190 F 
HETATM   20  F2  UNL     1      19.289   6.014  13.460  1.00  0.00    -0.197 F 
HETATM   21  F3  UNL     1      17.446   7.150  13.912  1.00  0.00    -0.197 F 
ENDBRANCH   1  10
BRANCH   6  22
HETATM   22  C6  UNL     1      16.474   0.816  14.971  1.00  0.00     0.034 C 
BRANCH  22  23
HETATM   23  C7  UNL     1      16.463   1.052  16.437  1.00  0.00     0.232 C 
BRANCH  23  24
HETATM   24  N3  UNL     1      15.401   0.295  17.093  1.00  0.00    -0.073 N 
ATOM     25  H32 UNL     1      15.213  -0.591  16.625  1.00  0.00     0.277 HD
ATOM     26  H31 UNL     1      15.693  -0.077  17.996  1.00  0.00     0.277 HD
BRANCH  24  27
HETATM   27  C8  UNL     1      14.233   1.112  17.196  1.00  0.00     0.263 C 
BRANCH  27  28
HETATM   28  C9  UNL     1      14.700   2.474  17.707  1.00  0.00     0.249 C 
HETATM   29  F1  UNL     1      14.774   2.423  19.074  1.00  0.00    -0.254 F 
ENDBRANCH  27  28
ENDBRANCH  24  27
ENDBRANCH  23  24
ENDBRANCH  22  23
ENDBRANCH   6  22
TORSDOF 6
ENDMDL
MODEL 3
REMARK VINA RESULT: -6.263585146      1.856      2.180
REMARK  6 active torsions:
REMARK  status: ('A' for Active; 'I' for Inactive)
REMARK    1  A    between atoms: C2_3  and  C3_4 
REMARK    2  A    between atoms: C5_9  and  C6_10 
REMARK    3  A    between atoms: C6_10  and  C7_11 
REMARK    4  A    between atoms: C7_11  and  N3_12 
REMARK    5  A    between atoms: N3_12  and  C8_15 
REMARK    6  A    between atoms: C8_15  and  C9_16 
ROOT
HETATM    1  C3  UNL     1      16.628   3.719  12.018  1.00  0.00     0.294 C 
HETATM    2  N2  UNL     1      17.567   3.641  13.170  1.00  0.00    -0.061 N 
ATOM      3  H21 UNL     1      17.956   4.555  13.402  1.00  0.00     0.278 HD
ATOM      4  H22 UNL     1      18.434   3.165  12.920  1.00  0.00     0.278 HD
HETATM    5  C4  UNL     1      16.936   3.034  14.293  1.00  0.00     0.238 C 
HETATM    6  C5  UNL     1      16.295   1.729  13.876  1.00  0.00     0.020 C 
HETATM    7  C10 UNL     1      16.766   1.262  12.520  1.00  0.00     0.087 C 
HETATM    8  C11 UNL     1      16.530   2.362  11.535  1.00  0.00     0.160 C 
HETATM    9  O1  UNL     1      16.274   2.060  10.412  1.00  0.00    -0.296 OA
ENDROOT
BRANCH   1  10
HETATM   10  C2  UNL     1      17.099   4.805  11.164  1.00  0.00     0.346 C 
HETATM   11  N1  UNL     1      16.305   5.952  10.950  1.00  0.00     0.176 N 
HETATM   12  C1  UNL     1      16.088   6.872  11.989  1.00  0.00     0.319 C 
HETATM   13  C14 UNL     1      17.063   6.569   9.837  1.00  0.00     0.512 C 
HETATM   14  C13 UNL     1      18.534   6.356  10.212  1.00  0.00     0.404 C 
HETATM   15  F6  UNL     1      16.760   7.893   9.709  1.00  0.00    -0.167 F 
HETATM   16  F7  UNL     1      16.724   5.827   8.718  1.00  0.00    -0.167 F 
HETATM   17  C12 UNL     1      18.525   5.247  11.275  1.00  0.00     0.349 C 
HETATM   18  F4  UNL     1      19.176   5.921   9.074  1.00  0.00    -0.190 F 
HETATM   19  F5  UNL     1      19.099   7.499  10.682  1.00  0.00    -0.190 F 
HETATM   20  F2  UNL     1      19.418   4.285  10.854  1.00  0.00    -0.197 F 
HETATM   21  F3  UNL     1      18.943   5.740  12.450  1.00  0.00    -0.197 F 
ENDBRANCH   1  10
BRANCH   6  22
HETATM   22  C6  UNL     1      16.592   0.661  14.893  1.00  0.00     0.034 C 
BRANCH  22  23
HETATM   23  C7  UNL     1      16.439   1.147  16.288  1.00  0.00     0.232 C 
BRANCH  23  24
HETATM   24  N3  UNL     1      15.468   0.348  17.029  1.00  0.00    -0.073 N 
ATOM     25  H32 UNL     1      15.329  -0.573  16.614  1.00  0.00     0.277 HD
ATOM     26  H31 UNL     1      15.826   0.047  17.935  1.00  0.00     0.277 HD
BRANCH  24  27
HETATM   27  C8  UNL     1      14.246   1.080  17.145  1.00  0.00     0.263 C 
BRANCH  27  28
HETATM   28  C9  UNL     1      14.631   2.514  17.504  1.00  0.00     0.249 C 
HETATM   29  F1  UNL     1      14.771   2.598  18.865  1.00  0.00    -0.254 F 
ENDBRANCH  27  28
ENDBRANCH  24  27
ENDBRANCH  23  24
ENDBRANCH  22  23
ENDBRANCH   6  22
TORSDOF 6
ENDMDL
MODEL 4
REMARK VINA RESULT: -6.252052197      1.643      2.709
REMARK  6 active torsions:
REMARK  status: ('A' for Active; 'I' for Inactive)
REMARK    1  A    between atoms: C2_3  and  C3_4 
REMARK    2  A    between atoms: C5_9  and  C6_10 
REMARK    3  A    between atoms: C6_10  and  C7_11 
REMARK    4  A    between atoms: C7_11  and  N3_12 
REMARK    5  A    between atoms: N3_12  and  C8_15 
REMARK    6  A    between atoms: C8_15  and  C9_16 
ROOT
HETATM    1  C3  UNL     1      16.687   4.414  12.657  1.00  0.00     0.294 C 
HETATM    2  N2  UNL     1      17.645   4.076  13.744  1.00  0.00    -0.061 N 
ATOM      3  H21 UNL     1      18.104   4.908  14.115  1.00  0.00     0.278 HD
ATOM      4  H22 UNL     1      18.469   3.594  13.386  1.00  0.00     0.278 HD
HETATM    5  C4  UNL     1      16.999   3.327  14.769  1.00  0.00     0.238 C 
HETATM    6  C5  UNL     1      16.257   2.159  14.158  1.00  0.00     0.020 C 
HETATM    7  C10 UNL     1      16.660   1.903  12.726  1.00  0.00     0.087 C 
HETATM    8  C11 UNL     1      16.481   3.170  11.953  1.00  0.00     0.160 C 
HETATM    9  O1  UNL     1      16.178   3.084  10.805  1.00  0.00    -0.296 OA
ENDROOT
BRANCH   1  10
HETATM   10  C2  UNL     1      17.215   5.597  11.984  1.00  0.00     0.346 C 
HETATM   11  N1  UNL     1      18.477   5.567  11.353  1.00  0.00     0.176 N 
HETATM   12  C1  UNL     1      18.668   4.821  10.177  1.00  0.00     0.319 C 
HETATM   13  C14 UNL     1      18.661   7.016  11.105  1.00  0.00     0.512 C 
HETATM   14  C13 UNL     1      17.274   7.508  10.674  1.00  0.00     0.404 C 
HETATM   15  F6  UNL     1      19.598   7.235  10.139  1.00  0.00    -0.167 F 
HETATM   16  F7  UNL     1      19.017   7.547  12.333  1.00  0.00    -0.167 F 
HETATM   17  C12 UNL     1      16.296   6.417  11.134  1.00  0.00     0.349 C 
HETATM   18  F4  UNL     1      17.038   8.680  11.358  1.00  0.00    -0.190 F 
HETATM   19  F5  UNL     1      17.212   7.708   9.332  1.00  0.00    -0.190 F 
HETATM   20  F2  UNL     1      15.311   7.048  11.865  1.00  0.00    -0.197 F 
HETATM   21  F3  UNL     1      15.733   5.832  10.066  1.00  0.00    -0.197 F 
ENDBRANCH   1  10
BRANCH   6  22
HETATM   22  C6  UNL     1      16.500   0.914  14.966  1.00  0.00     0.034 C 
BRANCH  22  23
HETATM   23  C7  UNL     1      16.453   1.169  16.429  1.00  0.00     0.232 C 
BRANCH  23  24
HETATM   24  N3  UNL     1      15.431   0.356  17.080  1.00  0.00    -0.073 N 
ATOM     25  H32 UNL     1      15.270  -0.526  16.593  1.00  0.00     0.277 HD
ATOM     26  H31 UNL     1      15.751  -0.027  17.970  1.00  0.00     0.277 HD
BRANCH  24  27
HETATM   27  C8  UNL     1      14.234   1.124  17.219  1.00  0.00     0.263 C 
BRANCH  27  28
HETATM   28  C9  UNL     1      14.661   2.509  17.701  1.00  0.00     0.249 C 
HETATM   29  F1  UNL     1      14.759   2.483  19.068  1.00  0.00    -0.254 F 
ENDBRANCH  27  28
ENDBRANCH  24  27
ENDBRANCH  23  24
ENDBRANCH  22  23
ENDBRANCH   6  22
TORSDOF 6
ENDMDL
MODEL 5
REMARK VINA RESULT: -6.213770927      2.081      2.635
REMARK  6 active torsions:
REMARK  status: ('A' for Active; 'I' for Inactive)
REMARK    1  A    between atoms: C2_3  and  C3_4 
REMARK    2  A    between atoms: C5_9  and  C6_10 
REMARK    3  A    between atoms: C6_10  and  C7_11 
REMARK    4  A    between atoms: C7_11  and  N3_12 
REMARK    5  A    between atoms: N3_12  and  C8_15 
REMARK    6  A    between atoms: C8_15  and  C9_16 
ROOT
HETATM    1  C3  UNL     1      16.713   5.769  13.364  1.00  0.00     0.294 C 
HETATM    2  N2  UNL     1      17.600   4.596  13.133  1.00  0.00    -0.061 N 
ATOM      3  H21 UNL     1      18.359   4.817  12.489  1.00  0.00     0.278 HD
ATOM      4  H22 UNL     1      17.136   3.874  12.581  1.00  0.00     0.278 HD
HETATM    5  C4  UNL     1      18.087   4.084  14.370  1.00  0.00     0.238 C 
HETATM    6  C5  UNL     1      16.934   3.860  15.322  1.00  0.00     0.020 C 
HETATM    7  C10 UNL     1      15.594   3.909  14.627  1.00  0.00     0.087 C 
HETATM    8  C11 UNL     1      15.493   5.205  13.890  1.00  0.00     0.160 C 
HETATM    9  O1  UNL     1      14.415   5.701  13.779  1.00  0.00    -0.296 OA
ENDROOT
BRANCH   1  10
HETATM   10  C2  UNL     1      16.727   6.555  12.134  1.00  0.00     0.346 C 
HETATM   11  N1  UNL     1      17.333   7.829  12.098  1.00  0.00     0.176 N 
HETATM   12  C1  UNL     1      18.730   7.958  12.189  1.00  0.00     0.319 C 
HETATM   13  C14 UNL     1      16.835   8.299  10.784  1.00  0.00     0.512 C 
HETATM   14  C13 UNL     1      16.918   7.064   9.881  1.00  0.00     0.404 C 
HETATM   15  F6  UNL     1      17.597   9.326  10.308  1.00  0.00    -0.167 F 
HETATM   16  F7  UNL     1      15.519   8.663  11.010  1.00  0.00    -0.167 F 
HETATM   17  C12 UNL     1      17.026   5.868  10.839  1.00  0.00     0.349 C 
HETATM   18  F4  UNL     1      15.735   7.006   9.178  1.00  0.00    -0.190 F 
HETATM   19  F5  UNL     1      17.981   7.133   9.038  1.00  0.00    -0.190 F 
HETATM   20  F2  UNL     1      16.046   4.971  10.469  1.00  0.00    -0.197 F 
HETATM   21  F3  UNL     1      18.224   5.280  10.698  1.00  0.00    -0.197 F 
ENDBRANCH   1  10
BRANCH   6  22
HETATM   22  C6  UNL     1      17.083   2.530  16.009  1.00  0.00     0.034 C 
BRANCH  22  23
HETATM   23  C7  UNL     1      16.270   1.466  15.367  1.00  0.00     0.232 C 
BRANCH  23  24
HETATM   24  N3  UNL     1      15.966   0.388  16.302  1.00  0.00    -0.073 N 
ATOM     25  H32 UNL     1      15.472  -0.384  15.854  1.00  0.00     0.277 HD
ATOM     26  H31 UNL     1      16.801  -0.123  16.589  1.00  0.00     0.277 HD
BRANCH  24  27
HETATM   27  C8  UNL     1      15.246   0.919  17.417  1.00  0.00     0.263 C 
BRANCH  27  28
HETATM   28  C9  UNL     1      13.819   1.168  16.932  1.00  0.00     0.249 C 
HETATM   29  F1  UNL     1      13.582   2.517  16.955  1.00  0.00    -0.254 F 
ENDBRANCH  27  28
ENDBRANCH  24  27
ENDBRANCH  23  24
ENDBRANCH  22  23
ENDBRANCH   6  22
TORSDOF 6
ENDMDL
