MODEL 1
REMARK VINA RESULT: -7.519384841      0.000      0.000
REMARK  6 active torsions:
REMARK  status: ('A' for Active; 'I' for Inactive)
REMARK    1  A    between atoms: C1_2  and  C2_7 
REMARK    2  A    between atoms: N2_3  and  O1_5 
REMARK    3  A    between atoms: N3_9  and  C4_10 
REMARK    4  A    between atoms: C4_10  and  C5_11 
REMARK    5  A    between atoms: N4_24  and  C13_25 
REMARK    6  A    between atoms: C13_25  and  C14_26 
ROOT
HETATM    1  C2  UNL     1      15.968   2.702  14.845  1.00  0.00     0.178 C 
HETATM    2  C3  UNL     1      17.001   3.837  14.706  1.00  0.00     0.305 C 
HETATM    3  N3  UNL     1      16.390   5.073  14.322  1.00  0.00     0.096 N 
HETATM    4  C11 UNL     1      14.974   5.138  14.611  1.00  0.00     0.292 C 
HETATM    5  C12 UNL     1      14.725   4.454  15.969  1.00  0.00     0.153 C 
HETATM    6  N4  UNL     1      15.011   3.097  15.808  1.00  0.00    -0.374 N 
ENDROOT
BRANCH   3   7
HETATM    7  C4  UNL     1      17.034   6.228  14.838  1.00  0.00     0.317 C 
BRANCH   7   8
HETATM    8  C5  UNL     1      17.764   7.097  13.935  1.00  0.00     0.054 A 
HETATM    9  C6  UNL     1      18.518   8.115  14.539  1.00  0.00     0.169 A 
HETATM   10  F1  UNL     1      18.577   8.204  15.889  1.00  0.00    -0.202 F 
HETATM   11  C7  UNL     1      19.215   9.037  13.818  1.00  0.00     0.197 A 
HETATM   12  F2  UNL     1      19.956  10.040  14.389  1.00  0.00    -0.199 F 
HETATM   13  C8  UNL     1      19.204   9.001  12.440  1.00  0.00     0.199 A 
HETATM   14  F3  UNL     1      19.902   9.920  11.695  1.00  0.00    -0.199 F 
HETATM   15  C9  UNL     1      18.472   8.016  11.819  1.00  0.00     0.197 A 
HETATM   16  F4  UNL     1      18.436   7.951  10.458  1.00  0.00    -0.199 F 
HETATM   17  C10 UNL     1      17.759   7.073  12.567  1.00  0.00     0.169 A 
HETATM   18  F5  UNL     1      17.025   6.179  11.859  1.00  0.00    -0.202 F 
ENDBRANCH   7   8
ENDBRANCH   3   7
BRANCH   1  19
HETATM   19  C1  UNL     1      16.731   1.519  15.295  1.00  0.00     0.137 C 
HETATM   20  N1  UNL     1      17.644   1.630  16.362  1.00  0.00    -0.083 NA
HETATM   21  N2  UNL     1      16.578   0.391  14.712  1.00  0.00    -0.257 N 
ATOM     22  H2  UNL     1      15.916   0.316  13.940  1.00  0.00     0.195 HD
BRANCH  21  23
HETATM   23  O1  UNL     1      17.283  -0.722  15.103  1.00  0.00    -0.289 OA
ATOM     24  H1  UNL     1      16.956  -1.307  15.776  1.00  0.00     0.244 HD
ENDBRANCH  21  23
ENDBRANCH   1  19
BRANCH   6  25
HETATM   25  C13 UNL     1      14.076   2.141  16.238  1.00  0.00     0.129 C 
BRANCH  25  26
HETATM   26  C14 UNL     1      14.253   1.655  17.652  1.00  0.00     0.391 C 
HETATM   27  F6  UNL     1      14.714   0.355  17.580  1.00  0.00    -0.208 F 
HETATM   28  F7  UNL     1      15.203   2.388  18.328  1.00  0.00    -0.208 F 
ENDBRANCH  25  26
ENDBRANCH   6  25
TORSDOF 6
ENDMDL
MODEL 2
REMARK VINA RESULT: -7.408510117      3.781      7.815
REMARK  6 active torsions:
REMARK  status: ('A' for Active; 'I' for Inactive)
REMARK    1  A    between atoms: C1_2  and  C2_7 
REMARK    2  A    between atoms: N2_3  and  O1_5 
REMARK    3  A    between atoms: N3_9  and  C4_10 
REMARK    4  A    between atoms: C4_10  and  C5_11 
REMARK    5  A    between atoms: N4_24  and  C13_25 
REMARK    6  A    between atoms: C13_25  and  C14_26 
ROOT
HETATM    1  C2  UNL     1      19.293   5.063  11.843  1.00  0.00     0.178 C 
HETATM    2  C3  UNL     1      18.663   4.079  12.847  1.00  0.00     0.305 C 
HETATM    3  N3  UNL     1      17.248   4.259  12.957  1.00  0.00     0.096 N 
HETATM    4  C11 UNL     1      16.655   4.931  11.821  1.00  0.00     0.292 C 
HETATM    5  C12 UNL     1      17.349   4.425  10.542  1.00  0.00     0.153 C 
HETATM    6  N4  UNL     1      18.673   4.866  10.588  1.00  0.00    -0.374 N 
ENDROOT
BRANCH   3   7
HETATM    7  C4  UNL     1      16.527   3.067  13.231  1.00  0.00     0.317 C 
BRANCH   7   8
HETATM    8  C5  UNL     1      15.899   2.900  14.528  1.00  0.00     0.054 A 
HETATM    9  C6  UNL     1      16.068   1.646  15.135  1.00  0.00     0.169 A 
HETATM   10  F1  UNL     1      16.830   0.700  14.534  1.00  0.00    -0.202 F 
HETATM   11  C7  UNL     1      15.495   1.326  16.329  1.00  0.00     0.197 A 
HETATM   12  F2  UNL     1      15.647   0.105  16.937  1.00  0.00    -0.199 F 
HETATM   13  C8  UNL     1      14.714   2.243  16.997  1.00  0.00     0.199 A 
HETATM   14  F3  UNL     1      14.129   1.941  18.204  1.00  0.00    -0.199 F 
HETATM   15  C9  UNL     1      14.527   3.481  16.427  1.00  0.00     0.197 A 
HETATM   16  F4  UNL     1      13.757   4.412  17.058  1.00  0.00    -0.199 F 
HETATM   17  C10 UNL     1      15.119   3.800  15.200  1.00  0.00     0.169 A 
HETATM   18  F5  UNL     1      14.827   5.026  14.698  1.00  0.00    -0.202 F 
ENDBRANCH   7   8
ENDBRANCH   3   7
BRANCH   1  19
HETATM   19  C1  UNL     1      20.730   4.723  11.796  1.00  0.00     0.137 C 
HETATM   20  N1  UNL     1      21.139   3.425  11.433  1.00  0.00    -0.083 NA
HETATM   21  N2  UNL     1      21.612   5.600  12.096  1.00  0.00    -0.257 N 
ATOM     22  H2  UNL     1      21.312   6.538  12.359  1.00  0.00     0.195 HD
BRANCH  21  23
HETATM   23  O1  UNL     1      22.954   5.307  12.073  1.00  0.00    -0.289 OA
ATOM     24  H1  UNL     1      23.331   4.653  12.649  1.00  0.00     0.244 HD
ENDBRANCH  21  23
ENDBRANCH   1  19
BRANCH   6  25
HETATM   25  C13 UNL     1      19.219   5.525   9.474  1.00  0.00     0.129 C 
BRANCH  25  26
HETATM   26  C14 UNL     1      18.767   5.010   8.133  1.00  0.00     0.391 C 
HETATM   27  F6  UNL     1      18.499   6.112   7.344  1.00  0.00    -0.208 F 
HETATM   28  F7  UNL     1      19.757   4.289   7.503  1.00  0.00    -0.208 F 
ENDBRANCH  25  26
ENDBRANCH   6  25
TORSDOF 6
ENDMDL
MODEL 3
REMARK VINA RESULT: -7.350801917      3.050      7.355
REMARK  6 active torsions:
REMARK  status: ('A' for Active; 'I' for Inactive)
REMARK    1  A    between atoms: C1_2  and  C2_7 
REMARK    2  A    between atoms: N2_3  and  O1_5 
REMARK    3  A    between atoms: N3_9  and  C4_10 
REMARK    4  A    between atoms: C4_10  and  C5_11 
REMARK    5  A    between atoms: N4_24  and  C13_25 
REMARK    6  A    between atoms: C13_25  and  C14_26 
ROOT
HETATM    1  C2  UNL     1      18.518   4.417  11.660  1.00  0.00     0.178 C 
HETATM    2  C3  UNL     1      17.451   3.332  11.896  1.00  0.00     0.305 C 
HETATM    3  N3  UNL     1      17.213   3.109  13.289  1.00  0.00     0.096 N 
HETATM    4  C11 UNL     1      17.616   4.213  14.134  1.00  0.00     0.292 C 
HETATM    5  C12 UNL     1      17.265   5.528  13.412  1.00  0.00     0.153 C 
HETATM    6  N4  UNL     1      18.077   5.609  12.280  1.00  0.00    -0.374 N 
ENDROOT
BRANCH   3   7
HETATM    7  C4  UNL     1      15.880   2.735  13.602  1.00  0.00     0.317 C 
BRANCH   7   8
HETATM    8  C5  UNL     1      15.509   2.521  14.988  1.00  0.00     0.054 A 
HETATM    9  C6  UNL     1      14.802   3.566  15.603  1.00  0.00     0.169 A 
HETATM   10  F1  UNL     1      14.457   4.664  14.887  1.00  0.00    -0.202 F 
HETATM   11  C7  UNL     1      14.431   3.529  16.913  1.00  0.00     0.197 A 
HETATM   12  F2  UNL     1      13.742   4.541  17.532  1.00  0.00    -0.199 F 
HETATM   13  C8  UNL     1      14.744   2.440  17.698  1.00  0.00     0.199 A 
HETATM   14  F3  UNL     1      14.377   2.382  19.021  1.00  0.00    -0.199 F 
HETATM   15  C9  UNL     1      15.438   1.400  17.124  1.00  0.00     0.197 A 
HETATM   16  F4  UNL     1      15.768   0.308  17.871  1.00  0.00    -0.199 F 
HETATM   17  C10 UNL     1      15.816   1.447  15.778  1.00  0.00     0.169 A 
HETATM   18  F5  UNL     1      16.545   0.397  15.325  1.00  0.00    -0.202 F 
ENDBRANCH   7   8
ENDBRANCH   3   7
BRANCH   1  19
HETATM   19  C1  UNL     1      18.613   4.573  10.193  1.00  0.00     0.137 C 
HETATM   20  N1  UNL     1      19.875   4.658   9.571  1.00  0.00    -0.083 NA
HETATM   21  N2  UNL     1      17.554   4.645   9.481  1.00  0.00    -0.257 N 
ATOM     22  H2  UNL     1      16.643   4.583   9.936  1.00  0.00     0.195 HD
BRANCH  21  23
HETATM   23  O1  UNL     1      17.614   4.801   8.117  1.00  0.00    -0.289 OA
ATOM     24  H1  UNL     1      16.877   5.141   7.623  1.00  0.00     0.244 HD
ENDBRANCH  21  23
ENDBRANCH   1  19
BRANCH   6  25
HETATM   25  C13 UNL     1      18.802   6.786  12.034  1.00  0.00     0.129 C 
BRANCH  25  26
HETATM   26  C14 UNL     1      18.848   7.767  13.176  1.00  0.00     0.391 C 
HETATM   27  F6  UNL     1      20.016   7.524  13.874  1.00  0.00    -0.208 F 
HETATM   28  F7  UNL     1      18.904   9.068  12.729  1.00  0.00    -0.208 F 
ENDBRANCH  25  26
ENDBRANCH   6  25
TORSDOF 6
ENDMDL
MODEL 4
REMARK VINA RESULT: -7.326341312      3.075      7.690
REMARK  6 active torsions:
REMARK  status: ('A' for Active; 'I' for Inactive)
REMARK    1  A    between atoms: C1_2  and  C2_7 
REMARK    2  A    between atoms: N2_3  and  O1_5 
REMARK    3  A    between atoms: N3_9  and  C4_10 
REMARK    4  A    between atoms: C4_10  and  C5_11 
REMARK    5  A    between atoms: N4_24  and  C13_25 
REMARK    6  A    between atoms: C13_25  and  C14_26 
ROOT
HETATM    1  C2  UNL     1      17.682   6.609  12.306  1.00  0.00     0.178 C 
HETATM    2  C3  UNL     1      16.490   5.662  12.544  1.00  0.00     0.305 C 
HETATM    3  N3  UNL     1      16.721   4.776  13.643  1.00  0.00     0.096 N 
HETATM    4  C11 UNL     1      17.732   5.244  14.567  1.00  0.00     0.292 C 
HETATM    5  C12 UNL     1      17.578   6.769  14.723  1.00  0.00     0.153 C 
HETATM    6  N4  UNL     1      17.899   7.345  13.493  1.00  0.00    -0.374 N 
ENDROOT
BRANCH   3   7
HETATM    7  C4  UNL     1      15.550   4.420  14.363  1.00  0.00     0.317 C 
BRANCH   7   8
HETATM    8  C5  UNL     1      15.522   3.171  15.100  1.00  0.00     0.054 A 
HETATM    9  C6  UNL     1      14.832   3.194  16.321  1.00  0.00     0.169 A 
HETATM   10  F1  UNL     1      14.195   4.323  16.718  1.00  0.00    -0.202 F 
HETATM   11  C7  UNL     1      14.764   2.112  17.146  1.00  0.00     0.197 A 
HETATM   12  F2  UNL     1      14.096   2.116  18.345  1.00  0.00    -0.199 F 
HETATM   13  C8  UNL     1      15.383   0.930  16.801  1.00  0.00     0.199 A 
HETATM   14  F3  UNL     1      15.324  -0.173  17.618  1.00  0.00    -0.199 F 
HETATM   15  C9  UNL     1      16.070   0.877  15.611  1.00  0.00     0.197 A 
HETATM   16  F4  UNL     1      16.698  -0.274  15.238  1.00  0.00    -0.199 F 
HETATM   17  C10 UNL     1      16.136   1.994  14.770  1.00  0.00     0.169 A 
HETATM   18  F5  UNL     1      16.883   1.853  13.648  1.00  0.00    -0.202 F 
ENDBRANCH   7   8
ENDBRANCH   3   7
BRANCH   1  19
HETATM   19  C1  UNL     1      17.278   7.489  11.190  1.00  0.00     0.137 C 
HETATM   20  N1  UNL     1      18.189   7.786  10.158  1.00  0.00    -0.083 NA
HETATM   21  N2  UNL     1      16.105   7.997  11.159  1.00  0.00    -0.257 N 
ATOM     22  H2  UNL     1      15.448   7.780  11.909  1.00  0.00     0.195 HD
BRANCH  21  23
HETATM   23  O1  UNL     1      15.707   8.827  10.139  1.00  0.00    -0.289 OA
ATOM     24  H1  UNL     1      15.954   9.745  10.120  1.00  0.00     0.244 HD
ENDBRANCH  21  23
ENDBRANCH   1  19
BRANCH   6  25
HETATM   25  C13 UNL     1      18.818   8.408  13.450  1.00  0.00     0.129 C 
BRANCH  25  26
HETATM   26  C14 UNL     1      19.014   9.146  14.748  1.00  0.00     0.391 C 
HETATM   27  F6  UNL     1      20.281   8.835  15.203  1.00  0.00    -0.208 F 
HETATM   28  F7  UNL     1      18.968  10.511  14.570  1.00  0.00    -0.208 F 
ENDBRANCH  25  26
ENDBRANCH   6  25
TORSDOF 6
ENDMDL
MODEL 5
REMARK VINA RESULT: -7.318879856      1.523      1.978
REMARK  6 active torsions:
REMARK  status: ('A' for Active; 'I' for Inactive)
REMARK    1  A    between atoms: C1_2  and  C2_7 
REMARK    2  A    between atoms: N2_3  and  O1_5 
REMARK    3  A    between atoms: N3_9  and  C4_10 
REMARK    4  A    between atoms: C4_10  and  C5_11 
REMARK    5  A    between atoms: N4_24  and  C13_25 
REMARK    6  A    between atoms: C13_25  and  C14_26 
ROOT
HETATM    1  C2  UNL     1      16.621   3.394  13.920  1.00  0.00     0.178 C 
HETATM    2  C3  UNL     1      18.018   4.040  13.866  1.00  0.00     0.305 C 
HETATM    3  N3  UNL     1      17.961   5.404  13.437  1.00  0.00     0.096 N 
HETATM    4  C11 UNL     1      16.662   6.017  13.613  1.00  0.00     0.292 C 
HETATM    5  C12 UNL     1      16.068   5.520  14.945  1.00  0.00     0.153 C 
HETATM    6  N4  UNL     1      15.821   4.154  14.804  1.00  0.00    -0.374 N 
ENDROOT
BRANCH   3   7
HETATM    7  C4  UNL     1      18.959   6.238  14.005  1.00  0.00     0.317 C 
BRANCH   7   8
HETATM    8  C5  UNL     1      19.256   7.514  13.383  1.00  0.00     0.054 A 
HETATM    9  C6  UNL     1      18.994   8.652  14.160  1.00  0.00     0.169 A 
HETATM   10  F1  UNL     1      18.545   8.515  15.432  1.00  0.00    -0.202 F 
HETATM   11  C7  UNL     1      19.176   9.918  13.692  1.00  0.00     0.197 A 
HETATM   12  F2  UNL     1      18.922  11.043  14.435  1.00  0.00    -0.199 F 
HETATM   13  C8  UNL     1      19.635  10.130  12.410  1.00  0.00     0.199 A 
HETATM   14  F3  UNL     1      19.828  11.399  11.919  1.00  0.00    -0.199 F 
HETATM   15  C9  UNL     1      19.900   9.034  11.622  1.00  0.00     0.197 A 
HETATM   16  F4  UNL     1      20.353   9.205  10.348  1.00  0.00    -0.199 F 
HETATM   17  C10 UNL     1      19.709   7.737  12.112  1.00  0.00     0.169 A 
HETATM   18  F5  UNL     1      19.947   6.728  11.237  1.00  0.00    -0.202 F 
ENDBRANCH   7   8
ENDBRANCH   3   7
BRANCH   1  19
HETATM   19  C1  UNL     1      16.833   2.022  14.427  1.00  0.00     0.137 C 
HETATM   20  N1  UNL     1      16.590   0.914  13.592  1.00  0.00    -0.083 NA
HETATM   21  N2  UNL     1      17.228   1.830  15.628  1.00  0.00    -0.257 N 
ATOM     22  H2  UNL     1      17.402   2.635  16.229  1.00  0.00     0.195 HD
BRANCH  21  23
HETATM   23  O1  UNL     1      17.422   0.565  16.128  1.00  0.00    -0.289 OA
ATOM     24  H1  UNL     1      18.159   0.031  15.856  1.00  0.00     0.244 HD
ENDBRANCH  21  23
ENDBRANCH   1  19
BRANCH   6  25
HETATM   25  C13 UNL     1      14.561   3.642  15.156  1.00  0.00     0.129 C 
BRANCH  25  26
HETATM   26  C14 UNL     1      14.371   3.341  16.619  1.00  0.00     0.391 C 
HETATM   27  F6  UNL     1      13.734   4.432  17.179  1.00  0.00    -0.208 F 
HETATM   28  F7  UNL     1      13.555   2.249  16.813  1.00  0.00    -0.208 F 
ENDBRANCH  25  26
ENDBRANCH   6  25
TORSDOF 6
ENDMDL
