MODEL 1
REMARK VINA RESULT: -7.567087793      0.000      0.000
REMARK  7 active torsions:
REMARK  status: ('A' for Active; 'I' for Inactive)
REMARK    1  A    between atoms: C1_2  and  C2_3 
REMARK       I    between atoms: C1_2  and  N1_18 
REMARK    2  A    between atoms: C2_3  and  C3_4 
REMARK    3  A    between atoms: C3_4  and  O2_5 
REMARK    4  A    between atoms: C3_4  and  C4_7 
REMARK    5  A    between atoms: C13_24  and  C14_25 
REMARK    6  A    between atoms: C14_25  and  C15_26 
REMARK    7  A    between atoms: C15_26  and  O3_27 
ROOT
HETATM    1  C2  UNL     1      17.242   3.928  13.210  1.00  0.00     0.139 C 
ENDROOT
BRANCH   1   2
HETATM    2  C1  UNL     1      17.240   4.337  11.755  1.00  0.00     0.223 C 
HETATM    3  O1  UNL     1      17.619   3.498  10.931  1.00  0.00    -0.273 OA
HETATM    4  N1  UNL     1      16.825   5.608  11.382  1.00  0.00    -0.334 N 
HETATM    5  C10 UNL     1      16.340   6.713  12.244  1.00  0.00     0.199 C 
HETATM    6  C13 UNL     1      16.723   6.260  10.081  1.00  0.00     0.154 C 
HETATM    7  C11 UNL     1      15.083   7.022  11.464  1.00  0.00     0.148 C 
HETATM    8  F6  UNL     1      13.908   7.490  11.929  1.00  0.00    -0.206 F 
HETATM    9  C12 UNL     1      15.326   6.744  10.173  1.00  0.00     0.152 C 
HETATM   10  F7  UNL     1      14.442   6.894   9.178  1.00  0.00    -0.206 F 
BRANCH   6  11
HETATM   11  C14 UNL     1      17.042   5.396   8.928  1.00  0.00     0.058 C 
BRANCH  11  12
HETATM   12  C15 UNL     1      18.466   5.519   8.437  1.00  0.00     0.166 C 
BRANCH  12  13
HETATM   13  O3  UNL     1      19.099   4.284   8.346  1.00  0.00    -0.401 OA
ATOM     14  H3  UNL     1      19.113   3.953   7.456  1.00  0.00     0.209 HD
ENDBRANCH  12  13
ENDBRANCH  11  12
ENDBRANCH   6  11
ENDBRANCH   1   2
BRANCH   1  15
HETATM   15  C3  UNL     1      16.404   2.729  13.433  1.00  0.00     0.166 C 
BRANCH  15  16
HETATM   16  O2  UNL     1      15.484   2.515  12.398  1.00  0.00    -0.390 OA
ATOM     17  H2  UNL     1      14.629   2.254  12.718  1.00  0.00     0.210 HD
ENDBRANCH  15  16
BRANCH  15  18
HETATM   18  C4  UNL     1      15.788   2.626  14.747  1.00  0.00     0.054 A 
HETATM   19  C5  UNL     1      15.939   1.411  15.474  1.00  0.00     0.170 A 
HETATM   20  F1  UNL     1      16.670   0.429  14.881  1.00  0.00    -0.202 F 
HETATM   21  C6  UNL     1      15.389   1.211  16.708  1.00  0.00     0.197 A 
HETATM   22  F2  UNL     1      15.578   0.017  17.343  1.00  0.00    -0.199 F 
HETATM   23  C7  UNL     1      14.660   2.241  17.256  1.00  0.00     0.199 A 
HETATM   24  F3  UNL     1      14.108   2.046  18.491  1.00  0.00    -0.199 F 
HETATM   25  C8  UNL     1      14.481   3.438  16.599  1.00  0.00     0.197 A 
HETATM   26  F4  UNL     1      13.763   4.451  17.141  1.00  0.00    -0.199 F 
HETATM   27  C9  UNL     1      15.060   3.618  15.325  1.00  0.00     0.170 A 
HETATM   28  F5  UNL     1      14.825   4.804  14.755  1.00  0.00    -0.202 F 
ENDBRANCH  15  18
ENDBRANCH   1  15
TORSDOF 7
ENDMDL
MODEL 2
REMARK VINA RESULT: -7.547713585      2.193      2.781
REMARK  7 active torsions:
REMARK  status: ('A' for Active; 'I' for Inactive)
REMARK    1  A    between atoms: C1_2  and  C2_3 
REMARK       I    between atoms: C1_2  and  N1_18 
REMARK    2  A    between atoms: C2_3  and  C3_4 
REMARK    3  A    between atoms: C3_4  and  O2_5 
REMARK    4  A    between atoms: C3_4  and  C4_7 
REMARK    5  A    between atoms: C13_24  and  C14_25 
REMARK    6  A    between atoms: C14_25  and  C15_26 
REMARK    7  A    between atoms: C15_26  and  O3_27 
ROOT
HETATM    1  C2  UNL     1      16.857   5.262  14.752  1.00  0.00     0.139 C 
ENDROOT
BRANCH   1   2
HETATM    2  C1  UNL     1      18.084   4.980  13.917  1.00  0.00     0.223 C 
HETATM    3  O1  UNL     1      18.931   4.217  14.393  1.00  0.00    -0.273 OA
HETATM    4  N1  UNL     1      18.233   5.565  12.667  1.00  0.00    -0.334 N 
HETATM    5  C10 UNL     1      17.311   6.488  11.961  1.00  0.00     0.199 C 
HETATM    6  C13 UNL     1      19.291   5.475  11.665  1.00  0.00     0.154 C 
HETATM    7  C11 UNL     1      17.274   5.745  10.644  1.00  0.00     0.148 C 
HETATM    8  F6  UNL     1      16.260   5.668   9.760  1.00  0.00    -0.206 F 
HETATM    9  C12 UNL     1      18.463   5.142  10.482  1.00  0.00     0.152 C 
HETATM   10  F7  UNL     1      18.802   4.390   9.429  1.00  0.00    -0.206 F 
BRANCH   6  11
HETATM   11  C14 UNL     1      20.375   4.528  11.992  1.00  0.00     0.058 C 
BRANCH  11  12
HETATM   12  C15 UNL     1      21.645   4.746  11.204  1.00  0.00     0.166 C 
BRANCH  12  13
HETATM   13  O3  UNL     1      21.859   3.742  10.266  1.00  0.00    -0.401 OA
ATOM     14  H3  UNL     1      22.262   4.073   9.472  1.00  0.00     0.209 HD
ENDBRANCH  12  13
ENDBRANCH  11  12
ENDBRANCH   6  11
ENDBRANCH   1   2
BRANCH   1  15
HETATM   15  C3  UNL     1      15.748   4.347  14.405  1.00  0.00     0.166 C 
BRANCH  15  16
HETATM   16  O2  UNL     1      14.541   5.024  14.180  1.00  0.00    -0.390 OA
ATOM     17  H2  UNL     1      14.148   5.345  14.983  1.00  0.00     0.210 HD
ENDBRANCH  15  16
BRANCH  15  18
HETATM   18  C4  UNL     1      15.580   3.199  15.281  1.00  0.00     0.054 A 
HETATM   19  C5  UNL     1      16.183   1.964  14.907  1.00  0.00     0.170 A 
HETATM   20  F1  UNL     1      16.893   1.956  13.747  1.00  0.00    -0.202 F 
HETATM   21  C6  UNL     1      16.072   0.827  15.654  1.00  0.00     0.197 A 
HETATM   22  F2  UNL     1      16.680  -0.319  15.230  1.00  0.00    -0.199 F 
HETATM   23  C7  UNL     1      15.341   0.897  16.819  1.00  0.00     0.199 A 
HETATM   24  F3  UNL     1      15.227  -0.239  17.571  1.00  0.00    -0.199 F 
HETATM   25  C8  UNL     1      14.735   2.063  17.230  1.00  0.00     0.197 A 
HETATM   26  F4  UNL     1      14.016   2.130  18.377  1.00  0.00    -0.199 F 
HETATM   27  C9  UNL     1      14.866   3.223  16.438  1.00  0.00     0.170 A 
HETATM   28  F5  UNL     1      14.236   4.306  16.906  1.00  0.00    -0.202 F 
ENDBRANCH  15  18
ENDBRANCH   1  15
TORSDOF 7
ENDMDL
MODEL 3
REMARK VINA RESULT: -7.452794288      1.821      2.201
REMARK  7 active torsions:
REMARK  status: ('A' for Active; 'I' for Inactive)
REMARK    1  A    between atoms: C1_2  and  C2_3 
REMARK       I    between atoms: C1_2  and  N1_18 
REMARK    2  A    between atoms: C2_3  and  C3_4 
REMARK    3  A    between atoms: C3_4  and  O2_5 
REMARK    4  A    between atoms: C3_4  and  C4_7 
REMARK    5  A    between atoms: C13_24  and  C14_25 
REMARK    6  A    between atoms: C14_25  and  C15_26 
REMARK    7  A    between atoms: C15_26  and  O3_27 
ROOT
HETATM    1  C2  UNL     1      17.434   4.187  11.542  1.00  0.00     0.139 C 
ENDROOT
BRANCH   1   2
HETATM    2  C1  UNL     1      16.983   4.909  10.294  1.00  0.00     0.223 C 
HETATM    3  O1  UNL     1      17.185   4.350   9.211  1.00  0.00    -0.273 OA
HETATM    4  N1  UNL     1      16.367   6.151  10.383  1.00  0.00    -0.334 N 
HETATM    5  C10 UNL     1      16.051   6.941  11.598  1.00  0.00     0.199 C 
HETATM    6  C13 UNL     1      15.842   7.057   9.367  1.00  0.00     0.154 C 
HETATM    7  C11 UNL     1      14.601   7.218  11.270  1.00  0.00     0.148 C 
HETATM    8  F6  UNL     1      13.570   7.378  12.122  1.00  0.00    -0.206 F 
HETATM    9  C12 UNL     1      14.491   7.282   9.932  1.00  0.00     0.152 C 
HETATM   10  F7  UNL     1      13.352   7.512   9.268  1.00  0.00    -0.206 F 
BRANCH   6  11
HETATM   11  C14 UNL     1      15.897   6.537   7.987  1.00  0.00     0.058 C 
BRANCH  11  12
HETATM   12  C15 UNL     1      15.712   7.592   6.921  1.00  0.00     0.166 C 
BRANCH  12  13
HETATM   13  O3  UNL     1      14.449   7.538   6.342  1.00  0.00    -0.401 OA
ATOM     14  H3  UNL     1      13.923   8.300   6.554  1.00  0.00     0.209 HD
ENDBRANCH  12  13
ENDBRANCH  11  12
ENDBRANCH   6  11
ENDBRANCH   1   2
BRANCH   1  15
HETATM   15  C3  UNL     1      16.744   2.887  11.690  1.00  0.00     0.166 C 
BRANCH  15  16
HETATM   16  O2  UNL     1      15.617   2.777  10.864  1.00  0.00    -0.390 OA
ATOM     17  H2  UNL     1      15.562   1.933  10.432  1.00  0.00     0.210 HD
ENDBRANCH  15  16
BRANCH  15  18
HETATM   18  C4  UNL     1      16.467   2.472  13.057  1.00  0.00     0.054 A 
HETATM   19  C5  UNL     1      16.827   1.152  13.453  1.00  0.00     0.170 A 
HETATM   20  F1  UNL     1      17.425   0.372  12.512  1.00  0.00    -0.202 F 
HETATM   21  C6  UNL     1      16.598   0.664  14.707  1.00  0.00     0.197 A 
HETATM   22  F2  UNL     1      16.972  -0.612  15.012  1.00  0.00    -0.199 F 
HETATM   23  C7  UNL     1      15.990   1.501  15.616  1.00  0.00     0.199 A 
HETATM   24  F3  UNL     1      15.757   1.018  16.873  1.00  0.00    -0.199 F 
HETATM   25  C8  UNL     1      15.619   2.787  15.288  1.00  0.00     0.197 A 
HETATM   26  F4  UNL     1      15.020   3.608  16.185  1.00  0.00    -0.199 F 
HETATM   27  C9  UNL     1      15.868   3.264  13.985  1.00  0.00     0.170 A 
HETATM   28  F5  UNL     1      15.464   4.518  13.751  1.00  0.00    -0.202 F 
ENDBRANCH  15  18
ENDBRANCH   1  15
TORSDOF 7
ENDMDL
MODEL 4
REMARK VINA RESULT: -7.428145148      2.792      3.464
REMARK  7 active torsions:
REMARK  status: ('A' for Active; 'I' for Inactive)
REMARK    1  A    between atoms: C1_2  and  C2_3 
REMARK       I    between atoms: C1_2  and  N1_18 
REMARK    2  A    between atoms: C2_3  and  C3_4 
REMARK    3  A    between atoms: C3_4  and  O2_5 
REMARK    4  A    between atoms: C3_4  and  C4_7 
REMARK    5  A    between atoms: C13_24  and  C14_25 
REMARK    6  A    between atoms: C14_25  and  C15_26 
REMARK    7  A    between atoms: C15_26  and  O3_27 
ROOT
HETATM    1  C2  UNL     1      16.695   5.402  14.709  1.00  0.00     0.139 C 
ENDROOT
BRANCH   1   2
HETATM    2  C1  UNL     1      16.982   6.335  13.555  1.00  0.00     0.223 C 
HETATM    3  O1  UNL     1      16.133   6.409  12.661  1.00  0.00    -0.273 OA
HETATM    4  N1  UNL     1      18.159   7.071  13.522  1.00  0.00    -0.334 N 
HETATM    5  C10 UNL     1      19.262   7.097  14.513  1.00  0.00     0.199 C 
HETATM    6  C13 UNL     1      18.686   8.027  12.554  1.00  0.00     0.154 C 
HETATM    7  C11 UNL     1      19.351   8.600  14.656  1.00  0.00     0.148 C 
HETATM    8  F6  UNL     1      19.707   9.315  15.741  1.00  0.00    -0.206 F 
HETATM    9  C12 UNL     1      19.001   9.143  13.478  1.00  0.00     0.152 C 
HETATM   10  F7  UNL     1      18.961  10.456  13.221  1.00  0.00    -0.206 F 
BRANCH   6  11
HETATM   11  C14 UNL     1      17.778   8.341  11.435  1.00  0.00     0.058 C 
BRANCH  11  12
HETATM   12  C15 UNL     1      18.146   7.669  10.132  1.00  0.00     0.166 C 
BRANCH  12  13
HETATM   13  O3  UNL     1      17.584   6.402  10.018  1.00  0.00    -0.401 OA
ATOM     14  H3  UNL     1      17.707   5.883  10.803  1.00  0.00     0.209 HD
ENDBRANCH  12  13
ENDBRANCH  11  12
ENDBRANCH   6  11
ENDBRANCH   1   2
BRANCH   1  15
HETATM   15  C3  UNL     1      15.610   4.453  14.376  1.00  0.00     0.166 C 
BRANCH  15  16
HETATM   16  O2  UNL     1      14.374   5.090  14.198  1.00  0.00    -0.390 OA
ATOM     17  H2  UNL     1      13.841   4.673  13.531  1.00  0.00     0.210 HD
ENDBRANCH  15  16
BRANCH  15  18
HETATM   18  C4  UNL     1      15.508   3.285  15.236  1.00  0.00     0.054 A 
HETATM   19  C5  UNL     1      16.171   2.088  14.839  1.00  0.00     0.170 A 
HETATM   20  F1  UNL     1      16.871   2.135  13.674  1.00  0.00    -0.202 F 
HETATM   21  C6  UNL     1      16.126   0.936  15.570  1.00  0.00     0.197 A 
HETATM   22  F2  UNL     1      16.789  -0.170  15.123  1.00  0.00    -0.199 F 
HETATM   23  C7  UNL     1      15.401   0.951  16.740  1.00  0.00     0.199 A 
HETATM   24  F3  UNL     1      15.352  -0.200  17.475  1.00  0.00    -0.199 F 
HETATM   25  C8  UNL     1      14.739   2.078  17.173  1.00  0.00     0.197 A 
HETATM   26  F4  UNL     1      14.026   2.090  18.326  1.00  0.00    -0.199 F 
HETATM   27  C9  UNL     1      14.803   3.255  16.398  1.00  0.00     0.170 A 
HETATM   28  F5  UNL     1      14.121   4.296  16.887  1.00  0.00    -0.202 F 
ENDBRANCH  15  18
ENDBRANCH   1  15
TORSDOF 7
ENDMDL
MODEL 5
REMARK VINA RESULT: -7.369422474      0.137      2.097
REMARK  7 active torsions:
REMARK  status: ('A' for Active; 'I' for Inactive)
REMARK    1  A    between atoms: C1_2  and  C2_3 
REMARK       I    between atoms: C1_2  and  N1_18 
REMARK    2  A    between atoms: C2_3  and  C3_4 
REMARK    3  A    between atoms: C3_4  and  O2_5 
REMARK    4  A    between atoms: C3_4  and  C4_7 
REMARK    5  A    between atoms: C13_24  and  C14_25 
REMARK    6  A    between atoms: C14_25  and  C15_26 
REMARK    7  A    between atoms: C15_26  and  O3_27 
ROOT
HETATM    1  C2  UNL     1      17.245   3.844  13.143  1.00  0.00     0.139 C 
ENDROOT
BRANCH   1   2
HETATM    2  C1  UNL     1      17.248   4.290  11.700  1.00  0.00     0.223 C 
HETATM    3  O1  UNL     1      17.619   3.470  10.854  1.00  0.00    -0.273 OA
HETATM    4  N1  UNL     1      16.844   5.574  11.360  1.00  0.00    -0.334 N 
HETATM    5  C10 UNL     1      16.368   6.661  12.251  1.00  0.00     0.199 C 
HETATM    6  C13 UNL     1      16.748   6.261  10.076  1.00  0.00     0.154 C 
HETATM    7  C11 UNL     1      15.114   7.001  11.479  1.00  0.00     0.148 C 
HETATM    8  F6  UNL     1      13.942   7.467  11.956  1.00  0.00    -0.206 F 
HETATM    9  C12 UNL     1      15.355   6.755  10.181  1.00  0.00     0.152 C 
HETATM   10  F7  UNL     1      14.473   6.938   9.190  1.00  0.00    -0.206 F 
BRANCH   6  11
HETATM   11  C14 UNL     1      17.060   5.425   8.902  1.00  0.00     0.058 C 
BRANCH  11  12
HETATM   12  C15 UNL     1      18.487   5.543   8.419  1.00  0.00     0.166 C 
BRANCH  12  13
HETATM   13  O3  UNL     1      19.120   4.307   8.345  1.00  0.00    -0.401 OA
ATOM     14  H3  UNL     1      18.501   3.590   8.285  1.00  0.00     0.209 HD
ENDBRANCH  12  13
ENDBRANCH  11  12
ENDBRANCH   6  11
ENDBRANCH   1   2
BRANCH   1  15
HETATM   15  C3  UNL     1      16.428   2.624  13.328  1.00  0.00     0.166 C 
BRANCH  15  16
HETATM   16  O2  UNL     1      15.464   2.464  12.323  1.00  0.00    -0.390 OA
ATOM     17  H2  UNL     1      15.075   1.598  12.325  1.00  0.00     0.210 HD
ENDBRANCH  15  16
BRANCH  15  18
HETATM   18  C4  UNL     1      15.873   2.432  14.658  1.00  0.00     0.054 A 
HETATM   19  C5  UNL     1      15.108   3.486  15.235  1.00  0.00     0.170 A 
HETATM   20  F1  UNL     1      14.942   4.605  14.479  1.00  0.00    -0.202 F 
HETATM   21  C6  UNL     1      14.557   3.409  16.481  1.00  0.00     0.197 A 
HETATM   22  F2  UNL     1      13.836   4.462  16.965  1.00  0.00    -0.199 F 
HETATM   23  C7  UNL     1      14.761   2.251  17.198  1.00  0.00     0.199 A 
HETATM   24  F3  UNL     1      14.211   2.168  18.447  1.00  0.00    -0.199 F 
HETATM   25  C8  UNL     1      15.492   1.199  16.692  1.00  0.00     0.197 A 
HETATM   26  F4  UNL     1      15.691   0.060  17.399  1.00  0.00    -0.199 F 
HETATM   27  C9  UNL     1      16.050   1.307  15.401  1.00  0.00     0.170 A 
HETATM   28  F5  UNL     1      16.754   0.245  14.994  1.00  0.00    -0.202 F 
ENDBRANCH  15  18
ENDBRANCH   1  15
TORSDOF 7
ENDMDL
