MODEL 1
REMARK VINA RESULT: -7.529388266      0.000      0.000
REMARK  7 active torsions:
REMARK  status: ('A' for Active; 'I' for Inactive)
REMARK    1  A    between atoms: C2_2  and  N1_3 
REMARK    2  A    between atoms: N1_3  and  C4_5 
REMARK    3  A    between atoms: C4_5  and  C5_6 
REMARK    4  A    between atoms: C8_11  and  C9_12 
REMARK    5  A    between atoms: C10_17  and  C11_18 
REMARK    6  A    between atoms: C10_17  and  C13_24 
REMARK    7  A    between atoms: C11_18  and  N2_19 
ROOT
HETATM    1  C5  UNL     1      17.461   5.865  13.196  1.00  0.00     0.061 C 
HETATM    2  C6  UNL     1      15.972   5.895  13.463  1.00  0.00     0.091 C 
HETATM    3  C7  UNL     1      15.731   5.439  14.860  1.00  0.00     0.278 C 
HETATM    4  F1  UNL     1      14.371   5.079  14.900  1.00  0.00    -0.203 F 
HETATM    5  F2  UNL     1      15.783   6.508  15.778  1.00  0.00    -0.203 F 
HETATM    6  C8  UNL     1      16.537   4.284  15.301  1.00  0.00     0.302 C 
HETATM    7  O1  UNL     1      17.614   3.918  14.625  1.00  0.00    -0.352 OA
HETATM    8  C10 UNL     1      18.058   4.518  13.516  1.00  0.00     0.142 C 
ENDROOT
BRANCH   8   9
HETATM    9  C11 UNL     1      17.718   3.605  12.328  1.00  0.00     0.166 C 
BRANCH   9  10
HETATM   10  N2  UNL     1      17.648   2.235  12.705  1.00  0.00    -0.364 N 
HETATM   11  C12 UNL     1      16.708   1.469  12.298  1.00  0.00     0.197 C 
HETATM   12  N3  UNL     1      15.672   1.947  11.439  1.00  0.00    -0.067 NA
HETATM   13  N4  UNL     1      16.697   0.122  12.707  1.00  0.00    -0.067 NA
ATOM     14  H2  UNL     1      18.368   1.852  13.318  1.00  0.00     0.161 HD
ENDBRANCH   9  10
ENDBRANCH   8   9
BRANCH   8  15
HETATM   15  C13 UNL     1      19.560   4.639  13.667  1.00  0.00     0.389 C 
HETATM   16  F6  UNL     1      20.263   3.851  12.816  1.00  0.00    -0.211 F 
HETATM   17  F7  UNL     1      19.861   4.266  14.965  1.00  0.00    -0.211 F 
ENDBRANCH   8  15
BRANCH   1  18
HETATM   18  C4  UNL     1      18.105   6.990  13.919  1.00  0.00     0.279 C 
BRANCH  18  19
HETATM   19  N1  UNL     1      18.925   7.795  13.058  1.00  0.00     0.084 N 
HETATM   20  C3  UNL     1      18.137   8.226  11.897  1.00  0.00     0.309 C 
BRANCH  19  21
HETATM   21  C2  UNL     1      19.474   8.912  13.731  1.00  0.00     0.267 C 
HETATM   22  C1  UNL     1      19.394   8.784  15.251  1.00  0.00     0.037 C 
ENDBRANCH  19  21
ENDBRANCH  18  19
ENDBRANCH   1  18
BRANCH   6  23
HETATM   23  C9  UNL     1      15.630   3.057  15.502  1.00  0.00     0.419 C 
HETATM   24  F3  UNL     1      16.461   1.974  15.737  1.00  0.00    -0.168 F 
HETATM   25  F4  UNL     1      14.761   2.869  14.473  1.00  0.00    -0.168 F 
HETATM   26  F5  UNL     1      14.907   3.235  16.692  1.00  0.00    -0.168 F 
ENDBRANCH   6  23
TORSDOF 7
ENDMDL
MODEL 2
REMARK VINA RESULT: -7.336522903      0.484      1.196
REMARK  7 active torsions:
REMARK  status: ('A' for Active; 'I' for Inactive)
REMARK    1  A    between atoms: C2_2  and  N1_3 
REMARK    2  A    between atoms: N1_3  and  C4_5 
REMARK    3  A    between atoms: C4_5  and  C5_6 
REMARK    4  A    between atoms: C8_11  and  C9_12 
REMARK    5  A    between atoms: C10_17  and  C11_18 
REMARK    6  A    between atoms: C10_17  and  C13_24 
REMARK    7  A    between atoms: C11_18  and  N2_19 
ROOT
HETATM    1  C5  UNL     1      17.508   5.813  13.149  1.00  0.00     0.061 C 
HETATM    2  C6  UNL     1      16.026   5.840  13.450  1.00  0.00     0.091 C 
HETATM    3  C7  UNL     1      15.819   5.387  14.854  1.00  0.00     0.278 C 
HETATM    4  F1  UNL     1      14.461   5.023  14.927  1.00  0.00    -0.203 F 
HETATM    5  F2  UNL     1      15.889   6.457  15.768  1.00  0.00    -0.203 F 
HETATM    6  C8  UNL     1      16.638   4.235  15.278  1.00  0.00     0.302 C 
HETATM    7  O1  UNL     1      17.700   3.870  14.577  1.00  0.00    -0.352 OA
HETATM    8  C10 UNL     1      18.116   4.468  13.457  1.00  0.00     0.142 C 
ENDROOT
BRANCH   8   9
HETATM    9  C11 UNL     1      17.750   3.552  12.279  1.00  0.00     0.166 C 
BRANCH   9  10
HETATM   10  N2  UNL     1      17.669   2.185  12.666  1.00  0.00    -0.364 N 
HETATM   11  C12 UNL     1      16.720   1.426  12.270  1.00  0.00     0.197 C 
HETATM   12  N3  UNL     1      15.683   1.908  11.413  1.00  0.00    -0.067 NA
HETATM   13  N4  UNL     1      16.698   0.082  12.687  1.00  0.00    -0.067 NA
ATOM     14  H2  UNL     1      18.389   1.799  13.277  1.00  0.00     0.161 HD
ENDBRANCH   9  10
ENDBRANCH   8   9
BRANCH   8  15
HETATM   15  C13 UNL     1      19.620   4.593  13.572  1.00  0.00     0.389 C 
HETATM   16  F6  UNL     1      20.305   3.786  12.725  1.00  0.00    -0.211 F 
HETATM   17  F7  UNL     1      19.951   4.251  14.872  1.00  0.00    -0.211 F 
ENDBRANCH   8  15
BRANCH   1  18
HETATM   18  C4  UNL     1      18.166   6.942  13.854  1.00  0.00     0.279 C 
BRANCH  18  19
HETATM   19  N1  UNL     1      18.496   8.022  12.967  1.00  0.00     0.084 N 
HETATM   20  C3  UNL     1      19.863   8.478  13.241  1.00  0.00     0.309 C 
BRANCH  19  21
HETATM   21  C2  UNL     1      18.353   7.660  11.606  1.00  0.00     0.267 C 
HETATM   22  C1  UNL     1      17.574   8.698  10.799  1.00  0.00     0.037 C 
ENDBRANCH  19  21
ENDBRANCH  18  19
ENDBRANCH   1  18
BRANCH   6  23
HETATM   23  C9  UNL     1      15.739   3.006  15.503  1.00  0.00     0.419 C 
HETATM   24  F3  UNL     1      16.577   1.928  15.734  1.00  0.00    -0.168 F 
HETATM   25  F4  UNL     1      14.856   2.806  14.488  1.00  0.00    -0.168 F 
HETATM   26  F5  UNL     1      15.033   3.191  16.702  1.00  0.00    -0.168 F 
ENDBRANCH   6  23
TORSDOF 7
ENDMDL
MODEL 3
REMARK VINA RESULT: -7.117016695      2.144      3.754
REMARK  7 active torsions:
REMARK  status: ('A' for Active; 'I' for Inactive)
REMARK    1  A    between atoms: C2_2  and  N1_3 
REMARK    2  A    between atoms: N1_3  and  C4_5 
REMARK    3  A    between atoms: C4_5  and  C5_6 
REMARK    4  A    between atoms: C8_11  and  C9_12 
REMARK    5  A    between atoms: C10_17  and  C11_18 
REMARK    6  A    between atoms: C10_17  and  C13_24 
REMARK    7  A    between atoms: C11_18  and  N2_19 
ROOT
HETATM    1  C5  UNL     1      17.731   5.373  14.413  1.00  0.00     0.061 C 
HETATM    2  C6  UNL     1      18.717   4.743  13.453  1.00  0.00     0.091 C 
HETATM    3  C7  UNL     1      18.012   4.450  12.174  1.00  0.00     0.278 C 
HETATM    4  F1  UNL     1      18.822   3.506  11.516  1.00  0.00    -0.203 F 
HETATM    5  F2  UNL     1      18.052   5.545  11.289  1.00  0.00    -0.203 F 
HETATM    6  C8  UNL     1      16.653   3.891  12.310  1.00  0.00     0.302 C 
HETATM    7  O1  UNL     1      16.004   3.972  13.461  1.00  0.00    -0.352 OA
HETATM    8  C10 UNL     1      16.492   4.529  14.573  1.00  0.00     0.142 C 
ENDROOT
BRANCH   8   9
HETATM    9  C11 UNL     1      16.867   3.393  15.536  1.00  0.00     0.166 C 
BRANCH   9  10
HETATM   10  N2  UNL     1      15.777   2.511  15.779  1.00  0.00    -0.364 N 
HETATM   11  C12 UNL     1      15.956   1.286  16.097  1.00  0.00     0.197 C 
HETATM   12  N3  UNL     1      17.265   0.730  16.227  1.00  0.00    -0.067 NA
HETATM   13  N4  UNL     1      14.834   0.467  16.326  1.00  0.00    -0.067 NA
ATOM     14  H2  UNL     1      14.824   2.867  15.697  1.00  0.00     0.161 HD
ENDBRANCH   9  10
ENDBRANCH   8   9
BRANCH   8  15
HETATM   15  C13 UNL     1      15.372   5.361  15.161  1.00  0.00     0.389 C 
HETATM   16  F6  UNL     1      14.758   4.784  16.224  1.00  0.00    -0.211 F 
HETATM   17  F7  UNL     1      14.437   5.540  14.156  1.00  0.00    -0.211 F 
ENDBRANCH   8  15
BRANCH   1  18
HETATM   18  C4  UNL     1      17.455   6.765  13.978  1.00  0.00     0.279 C 
BRANCH  18  19
HETATM   19  N1  UNL     1      18.641   7.574  13.953  1.00  0.00     0.084 N 
HETATM   20  C3  UNL     1      18.657   8.379  12.727  1.00  0.00     0.309 C 
BRANCH  19  21
HETATM   21  C2  UNL     1      18.750   8.403  15.095  1.00  0.00     0.267 C 
HETATM   22  C1  UNL     1      20.143   9.012  15.251  1.00  0.00     0.037 C 
ENDBRANCH  19  21
ENDBRANCH  18  19
ENDBRANCH   1  18
BRANCH   6  23
HETATM   23  C9  UNL     1      16.636   2.429  11.827  1.00  0.00     0.419 C 
HETATM   24  F3  UNL     1      17.692   1.785  12.450  1.00  0.00    -0.168 F 
HETATM   25  F4  UNL     1      16.651   2.322  10.471  1.00  0.00    -0.168 F 
HETATM   26  F5  UNL     1      15.479   1.814  12.328  1.00  0.00    -0.168 F 
ENDBRANCH   6  23
TORSDOF 7
ENDMDL
MODEL 4
REMARK VINA RESULT: -6.987074292      1.134      1.647
REMARK  7 active torsions:
REMARK  status: ('A' for Active; 'I' for Inactive)
REMARK    1  A    between atoms: C2_2  and  N1_3 
REMARK    2  A    between atoms: N1_3  and  C4_5 
REMARK    3  A    between atoms: C4_5  and  C5_6 
REMARK    4  A    between atoms: C8_11  and  C9_12 
REMARK    5  A    between atoms: C10_17  and  C11_18 
REMARK    6  A    between atoms: C10_17  and  C13_24 
REMARK    7  A    between atoms: C11_18  and  N2_19 
ROOT
HETATM    1  C5  UNL     1      17.482   5.783  13.212  1.00  0.00     0.061 C 
HETATM    2  C6  UNL     1      15.997   5.596  13.428  1.00  0.00     0.091 C 
HETATM    3  C7  UNL     1      15.773   5.157  14.834  1.00  0.00     0.278 C 
HETATM    4  F1  UNL     1      14.482   4.597  14.843  1.00  0.00    -0.203 F 
HETATM    5  F2  UNL     1      15.629   6.252  15.710  1.00  0.00    -0.203 F 
HETATM    6  C8  UNL     1      16.726   4.153  15.346  1.00  0.00     0.302 C 
HETATM    7  O1  UNL     1      17.871   3.931  14.720  1.00  0.00    -0.352 OA
HETATM    8  C10 UNL     1      18.261   4.553  13.604  1.00  0.00     0.142 C 
ENDROOT
BRANCH   8   9
HETATM    9  C11 UNL     1      18.108   3.559  12.442  1.00  0.00     0.166 C 
BRANCH   9  10
HETATM   10  N2  UNL     1      18.108   4.208  11.176  1.00  0.00    -0.364 N 
HETATM   11  C12 UNL     1      17.274   3.898  10.258  1.00  0.00     0.197 C 
HETATM   12  N3  UNL     1      16.292   2.879  10.451  1.00  0.00    -0.067 NA
HETATM   13  N4  UNL     1      17.326   4.579   9.027  1.00  0.00    -0.067 NA
ATOM     14  H2  UNL     1      18.793   4.942  10.995  1.00  0.00     0.161 HD
ENDBRANCH   9  10
ENDBRANCH   8   9
BRANCH   8  15
HETATM   15  C13 UNL     1      19.721   4.905  13.798  1.00  0.00     0.389 C 
HETATM   16  F6  UNL     1      20.536   4.428  12.825  1.00  0.00    -0.211 F 
HETATM   17  F7  UNL     1      20.107   4.353  15.007  1.00  0.00    -0.211 F 
ENDBRANCH   8  15
BRANCH   1  18
HETATM   18  C4  UNL     1      17.921   7.016  13.910  1.00  0.00     0.279 C 
BRANCH  18  19
HETATM   19  N1  UNL     1      18.754   7.844  13.084  1.00  0.00     0.084 N 
HETATM   20  C3  UNL     1      18.017   8.227  11.875  1.00  0.00     0.309 C 
BRANCH  19  21
HETATM   21  C2  UNL     1      19.218   8.992  13.770  1.00  0.00     0.267 C 
HETATM   22  C1  UNL     1      19.360   8.764  15.274  1.00  0.00     0.037 C 
ENDBRANCH  19  21
ENDBRANCH  18  19
ENDBRANCH   1  18
BRANCH   6  23
HETATM   23  C9  UNL     1      16.006   2.811  15.565  1.00  0.00     0.419 C 
HETATM   24  F3  UNL     1      15.641   2.338  14.315  1.00  0.00    -0.168 F 
HETATM   25  F4  UNL     1      14.969   2.905  16.440  1.00  0.00    -0.168 F 
HETATM   26  F5  UNL     1      16.941   1.885  16.053  1.00  0.00    -0.168 F 
ENDBRANCH   6  23
TORSDOF 7
ENDMDL
MODEL 5
REMARK VINA RESULT: -6.725440613      1.217      1.968
REMARK  7 active torsions:
REMARK  status: ('A' for Active; 'I' for Inactive)
REMARK    1  A    between atoms: C2_2  and  N1_3 
REMARK    2  A    between atoms: N1_3  and  C4_5 
REMARK    3  A    between atoms: C4_5  and  C5_6 
REMARK    4  A    between atoms: C8_11  and  C9_12 
REMARK    5  A    between atoms: C10_17  and  C11_18 
REMARK    6  A    between atoms: C10_17  and  C13_24 
REMARK    7  A    between atoms: C11_18  and  N2_19 
ROOT
HETATM    1  C5  UNL     1      17.512   5.776  13.186  1.00  0.00     0.061 C 
HETATM    2  C6  UNL     1      16.025   5.612  13.411  1.00  0.00     0.091 C 
HETATM    3  C7  UNL     1      15.802   5.185  14.821  1.00  0.00     0.278 C 
HETATM    4  F1  UNL     1      14.504   4.643  14.841  1.00  0.00    -0.203 F 
HETATM    5  F2  UNL     1      15.678   6.287  15.690  1.00  0.00    -0.203 F 
HETATM    6  C8  UNL     1      16.744   4.171  15.335  1.00  0.00     0.302 C 
HETATM    7  O1  UNL     1      17.882   3.929  14.705  1.00  0.00    -0.352 OA
HETATM    8  C10 UNL     1      18.276   4.538  13.582  1.00  0.00     0.142 C 
ENDROOT
BRANCH   8   9
HETATM    9  C11 UNL     1      18.102   3.539  12.428  1.00  0.00     0.166 C 
BRANCH   9  10
HETATM   10  N2  UNL     1      18.121   4.178  11.157  1.00  0.00    -0.364 N 
HETATM   11  C12 UNL     1      17.272   3.891  10.245  1.00  0.00     0.197 C 
HETATM   12  N3  UNL     1      16.254   2.910  10.449  1.00  0.00    -0.067 NA
HETATM   13  N4  UNL     1      17.344   4.561   9.008  1.00  0.00    -0.067 NA
ATOM     14  H2  UNL     1      18.831   4.885  10.967  1.00  0.00     0.161 HD
ENDBRANCH   9  10
ENDBRANCH   8   9
BRANCH   8  15
HETATM   15  C13 UNL     1      19.741   4.871  13.767  1.00  0.00     0.389 C 
HETATM   16  F6  UNL     1      20.549   4.347  12.812  1.00  0.00    -0.211 F 
HETATM   17  F7  UNL     1      20.116   4.353  14.995  1.00  0.00    -0.211 F 
ENDBRANCH   8  15
BRANCH   1  18
HETATM   18  C4  UNL     1      17.971   7.008  13.874  1.00  0.00     0.279 C 
BRANCH  18  19
HETATM   19  N1  UNL     1      18.240   8.078  12.956  1.00  0.00     0.084 N 
HETATM   20  C3  UNL     1      19.373   8.870  13.446  1.00  0.00     0.309 C 
BRANCH  19  21
HETATM   21  C2  UNL     1      18.489   7.609  11.644  1.00  0.00     0.267 C 
HETATM   22  C1  UNL     1      19.963   7.708  11.252  1.00  0.00     0.037 C 
ENDBRANCH  19  21
ENDBRANCH  18  19
ENDBRANCH   1  18
BRANCH   6  23
HETATM   23  C9  UNL     1      16.006   2.840  15.567  1.00  0.00     0.419 C 
HETATM   24  F3  UNL     1      15.622   2.369  14.322  1.00  0.00    -0.168 F 
HETATM   25  F4  UNL     1      14.980   2.953  16.452  1.00  0.00    -0.168 F 
HETATM   26  F5  UNL     1      16.933   1.902  16.048  1.00  0.00    -0.168 F 
ENDBRANCH   6  23
TORSDOF 7
ENDMDL
