MODEL 1
REMARK VINA RESULT: -5.455014927      0.000      0.000
REMARK  7 active torsions:
REMARK  status: ('A' for Active; 'I' for Inactive)
REMARK    1  A    between atoms: C2_2  and  C4_4 
REMARK    2  A    between atoms: C5_5  and  C6_6 
REMARK    3  A    between atoms: C7_7  and  C8_8 
REMARK    4  A    between atoms: C8_8  and  N1_9 
REMARK    5  A    between atoms: N1_9  and  C9_12 
REMARK    6  A    between atoms: C9_12  and  C10_13 
REMARK    7  A    between atoms: C10_13  and  N2_14 
ROOT
HETATM    1  N1  UNL     1      18.785   2.557  12.952  1.00  0.00    -0.070 N 
ATOM      2  H11 UNL     1      18.771   2.266  13.929  1.00  0.00     0.277 HD
ATOM      3  H12 UNL     1      19.486   1.898  12.612  1.00  0.00     0.277 HD
ENDROOT
BRANCH   1   4
HETATM    4  C8  UNL     1      19.209   3.936  12.796  1.00  0.00     0.260 C 
BRANCH   4   5
HETATM    5  C7  UNL     1      19.047   4.726  14.034  1.00  0.00     0.009 C 
HETATM    6  C6  UNL     1      18.151   5.684  14.170  1.00  0.00     0.062 C 
BRANCH   6   7
HETATM    7  C5  UNL     1      17.255   6.028  13.093  1.00  0.00    -0.079 C 
HETATM    8  C4  UNL     1      16.505   6.334  12.199  1.00  0.00    -0.098 C 
BRANCH   8   9
HETATM    9  C2  UNL     1      15.611   6.726  11.109  1.00  0.00     0.057 C 
HETATM   10  C1  UNL     1      14.212   7.011  11.655  1.00  0.00     0.023 C 
HETATM   11  C3  UNL     1      16.112   8.006  10.479  1.00  0.00     0.023 C 
ENDBRANCH   8   9
ENDBRANCH   6   7
ENDBRANCH   4   5
ENDBRANCH   1   4
BRANCH   1  12
HETATM   12  C9  UNL     1      17.518   2.368  12.317  1.00  0.00     0.262 C 
BRANCH  12  13
HETATM   13  C10 UNL     1      16.509   1.679  13.170  1.00  0.00     0.300 C 
BRANCH  13  14
HETATM   14  N2  UNL     1      16.689   1.878  14.589  1.00  0.00     0.093 N 
HETATM   15  C11 UNL     1      16.551   0.667  15.350  1.00  0.00     0.302 C 
HETATM   16  C12 UNL     1      16.442   1.051  16.806  1.00  0.00     0.302 C 
HETATM   17  N3  UNL     1      15.132   1.624  17.006  1.00  0.00     0.087 N 
HETATM   18  C13 UNL     1      14.165   0.532  17.130  1.00  0.00     0.310 C 
HETATM   19  C14 UNL     1      14.756   2.543  15.963  1.00  0.00     0.302 C 
HETATM   20  C15 UNL     1      15.903   2.969  15.097  1.00  0.00     0.302 C 
ENDBRANCH  13  14
ENDBRANCH  12  13
ENDBRANCH   1  12
TORSDOF 7
ENDMDL
MODEL 2
REMARK VINA RESULT: -5.407633279      1.944      6.358
REMARK  7 active torsions:
REMARK  status: ('A' for Active; 'I' for Inactive)
REMARK    1  A    between atoms: C2_2  and  C4_4 
REMARK    2  A    between atoms: C5_5  and  C6_6 
REMARK    3  A    between atoms: C7_7  and  C8_8 
REMARK    4  A    between atoms: C8_8  and  N1_9 
REMARK    5  A    between atoms: N1_9  and  C9_12 
REMARK    6  A    between atoms: C9_12  and  C10_13 
REMARK    7  A    between atoms: C10_13  and  N2_14 
ROOT
HETATM    1  N1  UNL     1      18.448   3.269  14.898  1.00  0.00    -0.070 N 
ATOM      2  H11 UNL     1      18.904   2.385  15.122  1.00  0.00     0.277 HD
ATOM      3  H12 UNL     1      18.284   3.596  15.850  1.00  0.00     0.277 HD
ENDROOT
BRANCH   1   4
HETATM    4  C8  UNL     1      17.209   3.077  14.165  1.00  0.00     0.260 C 
BRANCH   4   5
HETATM    5  C7  UNL     1      16.303   4.240  14.260  1.00  0.00     0.009 C 
HETATM    6  C6  UNL     1      15.287   4.298  15.099  1.00  0.00     0.062 C 
BRANCH   6   7
HETATM    7  C5  UNL     1      14.991   3.207  15.994  1.00  0.00    -0.079 C 
HETATM    8  C4  UNL     1      14.763   2.286  16.740  1.00  0.00    -0.098 C 
BRANCH   8   9
HETATM    9  C2  UNL     1      14.508   1.175  17.657  1.00  0.00     0.057 C 
HETATM   10  C1  UNL     1      15.283  -0.063  17.208  1.00  0.00     0.023 C 
HETATM   11  C3  UNL     1      15.006   1.534  19.038  1.00  0.00     0.023 C 
ENDBRANCH   8   9
ENDBRANCH   6   7
ENDBRANCH   4   5
ENDBRANCH   1   4
BRANCH   1  12
HETATM   12  C9  UNL     1      19.307   4.149  14.168  1.00  0.00     0.262 C 
BRANCH  12  13
HETATM   13  C10 UNL     1      19.745   3.612  12.850  1.00  0.00     0.300 C 
BRANCH  13  14
HETATM   14  N2  UNL     1      19.509   4.499  11.734  1.00  0.00     0.093 N 
HETATM   15  C11 UNL     1      19.070   5.806  12.136  1.00  0.00     0.302 C 
HETATM   16  C12 UNL     1      18.562   6.518  10.906  1.00  0.00     0.302 C 
HETATM   17  N3  UNL     1      17.293   5.924  10.557  1.00  0.00     0.087 N 
HETATM   18  C13 UNL     1      16.261   6.497  11.422  1.00  0.00     0.310 C 
HETATM   19  C14 UNL     1      17.305   4.486  10.635  1.00  0.00     0.302 C 
HETATM   20  C15 UNL     1      18.682   3.902  10.721  1.00  0.00     0.302 C 
ENDBRANCH  13  14
ENDBRANCH  12  13
ENDBRANCH   1  12
TORSDOF 7
ENDMDL
MODEL 3
REMARK VINA RESULT: -5.401676828      3.009      7.076
REMARK  7 active torsions:
REMARK  status: ('A' for Active; 'I' for Inactive)
REMARK    1  A    between atoms: C2_2  and  C4_4 
REMARK    2  A    between atoms: C5_5  and  C6_6 
REMARK    3  A    between atoms: C7_7  and  C8_8 
REMARK    4  A    between atoms: C8_8  and  N1_9 
REMARK    5  A    between atoms: N1_9  and  C9_12 
REMARK    6  A    between atoms: C9_12  and  C10_13 
REMARK    7  A    between atoms: C10_13  and  N2_14 
ROOT
HETATM    1  N1  UNL     1      18.680   3.400  13.904  1.00  0.00    -0.070 N 
ATOM      2  H11 UNL     1      18.481   2.571  13.344  1.00  0.00     0.277 HD
ATOM      3  H12 UNL     1      19.589   3.117  14.269  1.00  0.00     0.277 HD
ENDROOT
BRANCH   1   4
HETATM    4  C8  UNL     1      17.703   3.594  14.961  1.00  0.00     0.260 C 
BRANCH   4   5
HETATM    5  C7  UNL     1      16.553   4.416  14.531  1.00  0.00     0.009 C 
HETATM    6  C6  UNL     1      15.320   4.214  14.956  1.00  0.00     0.062 C 
BRANCH   6   7
HETATM    7  C5  UNL     1      15.014   3.155  15.886  1.00  0.00    -0.079 C 
HETATM    8  C4  UNL     1      14.777   2.264  16.664  1.00  0.00    -0.098 C 
BRANCH   8   9
HETATM    9  C2  UNL     1      14.509   1.192  17.622  1.00  0.00     0.057 C 
HETATM   10  C1  UNL     1      15.282  -0.067  17.229  1.00  0.00     0.023 C 
HETATM   11  C3  UNL     1      14.998   1.603  18.992  1.00  0.00     0.023 C 
ENDBRANCH   8   9
ENDBRANCH   6   7
ENDBRANCH   4   5
ENDBRANCH   1   4
BRANCH   1  12
HETATM   12  C9  UNL     1      18.765   4.582  13.104  1.00  0.00     0.262 C 
BRANCH  12  13
HETATM   13  C10 UNL     1      19.822   5.535  13.543  1.00  0.00     0.300 C 
BRANCH  13  14
HETATM   14  N2  UNL     1      19.394   6.912  13.615  1.00  0.00     0.093 N 
HETATM   15  C11 UNL     1      20.375   7.835  13.115  1.00  0.00     0.302 C 
HETATM   16  C12 UNL     1      19.954   9.224  13.532  1.00  0.00     0.302 C 
HETATM   17  N3  UNL     1      20.197   9.342  14.950  1.00  0.00     0.087 N 
HETATM   18  C13 UNL     1      21.621   9.618  15.153  1.00  0.00     0.310 C 
HETATM   19  C14 UNL     1      19.777   8.181  15.692  1.00  0.00     0.302 C 
HETATM   20  C15 UNL     1      18.884   7.264  14.912  1.00  0.00     0.302 C 
ENDBRANCH  13  14
ENDBRANCH  12  13
ENDBRANCH   1  12
TORSDOF 7
ENDMDL
MODEL 4
REMARK VINA RESULT: -5.376229058      2.296      6.643
REMARK  7 active torsions:
REMARK  status: ('A' for Active; 'I' for Inactive)
REMARK    1  A    between atoms: C2_2  and  C4_4 
REMARK    2  A    between atoms: C5_5  and  C6_6 
REMARK    3  A    between atoms: C7_7  and  C8_8 
REMARK    4  A    between atoms: C8_8  and  N1_9 
REMARK    5  A    between atoms: N1_9  and  C9_12 
REMARK    6  A    between atoms: C9_12  and  C10_13 
REMARK    7  A    between atoms: C10_13  and  N2_14 
ROOT
HETATM    1  N1  UNL     1      18.257   3.082  13.690  1.00  0.00    -0.070 N 
ATOM      2  H11 UNL     1      19.137   2.595  13.859  1.00  0.00     0.277 HD
ATOM      3  H12 UNL     1      18.620   3.851  13.127  1.00  0.00     0.277 HD
ENDROOT
BRANCH   1   4
HETATM    4  C8  UNL     1      17.644   3.548  14.921  1.00  0.00     0.260 C 
BRANCH   4   5
HETATM    5  C7  UNL     1      16.524   4.481  14.683  1.00  0.00     0.009 C 
HETATM    6  C6  UNL     1      15.321   4.313  15.198  1.00  0.00     0.062 C 
BRANCH   6   7
HETATM    7  C5  UNL     1      15.019   3.184  16.042  1.00  0.00    -0.079 C 
HETATM    8  C4  UNL     1      14.785   2.240  16.756  1.00  0.00    -0.098 C 
BRANCH   8   9
HETATM    9  C2  UNL     1      14.510   1.109  17.642  1.00  0.00     0.057 C 
HETATM   10  C1  UNL     1      15.321  -0.110  17.203  1.00  0.00     0.023 C 
HETATM   11  C3  UNL     1      14.947   1.450  19.048  1.00  0.00     0.023 C 
ENDBRANCH   8   9
ENDBRANCH   6   7
ENDBRANCH   4   5
ENDBRANCH   1   4
BRANCH   1  12
HETATM   12  C9  UNL     1      17.326   2.275  12.964  1.00  0.00     0.262 C 
BRANCH  12  13
HETATM   13  C10 UNL     1      17.196   2.644  11.527  1.00  0.00     0.300 C 
BRANCH  13  14
HETATM   14  N2  UNL     1      17.716   3.950  11.195  1.00  0.00     0.093 N 
HETATM   15  C11 UNL     1      16.687   4.924  10.960  1.00  0.00     0.302 C 
HETATM   16  C12 UNL     1      17.333   6.130  10.323  1.00  0.00     0.302 C 
HETATM   17  N3  UNL     1      17.660   5.777   8.961  1.00  0.00     0.087 N 
HETATM   18  C13 UNL     1      16.446   5.890   8.151  1.00  0.00     0.310 C 
HETATM   19  C14 UNL     1      18.249   4.468   8.846  1.00  0.00     0.302 C 
HETATM   20  C15 UNL     1      18.708   3.900  10.155  1.00  0.00     0.302 C 
ENDBRANCH  13  14
ENDBRANCH  12  13
ENDBRANCH   1  12
TORSDOF 7
ENDMDL
MODEL 5
REMARK VINA RESULT: -5.335890555      2.200      6.318
REMARK  7 active torsions:
REMARK  status: ('A' for Active; 'I' for Inactive)
REMARK    1  A    between atoms: C2_2  and  C4_4 
REMARK    2  A    between atoms: C5_5  and  C6_6 
REMARK    3  A    between atoms: C7_7  and  C8_8 
REMARK    4  A    between atoms: C8_8  and  N1_9 
REMARK    5  A    between atoms: N1_9  and  C9_12 
REMARK    6  A    between atoms: C9_12  and  C10_13 
REMARK    7  A    between atoms: C10_13  and  N2_14 
ROOT
HETATM    1  N1  UNL     1      17.934   2.695  13.891  1.00  0.00    -0.070 N 
ATOM      2  H11 UNL     1      17.350   1.859  13.915  1.00  0.00     0.277 HD
ATOM      3  H12 UNL     1      18.836   2.249  14.060  1.00  0.00     0.277 HD
ENDROOT
BRANCH   1   4
HETATM    4  C8  UNL     1      17.585   3.637  14.939  1.00  0.00     0.260 C 
BRANCH   4   5
HETATM    5  C7  UNL     1      16.408   4.462  14.596  1.00  0.00     0.009 C 
HETATM    6  C6  UNL     1      15.200   4.234  15.073  1.00  0.00     0.062 C 
BRANCH   6   7
HETATM    7  C5  UNL     1      14.948   3.140  15.979  1.00  0.00    -0.079 C 
HETATM    8  C4  UNL     1      14.757   2.223  16.740  1.00  0.00    -0.098 C 
BRANCH   8   9
HETATM    9  C2  UNL     1      14.542   1.122  17.679  1.00  0.00     0.057 C 
HETATM   10  C1  UNL     1      15.357  -0.098  17.252  1.00  0.00     0.023 C 
HETATM   11  C3  UNL     1      15.032   1.525  19.051  1.00  0.00     0.023 C 
ENDBRANCH   8   9
ENDBRANCH   6   7
ENDBRANCH   4   5
ENDBRANCH   1   4
BRANCH   1  12
HETATM   12  C9  UNL     1      17.886   3.348  12.621  1.00  0.00     0.262 C 
BRANCH  12  13
HETATM   13  C10 UNL     1      19.216   3.503  11.969  1.00  0.00     0.300 C 
BRANCH  13  14
HETATM   14  N2  UNL     1      19.698   4.863  11.906  1.00  0.00     0.093 N 
HETATM   15  C11 UNL     1      20.333   5.293  13.121  1.00  0.00     0.302 C 
HETATM   16  C12 UNL     1      20.499   6.792  13.046  1.00  0.00     0.302 C 
HETATM   17  N3  UNL     1      19.193   7.381  13.223  1.00  0.00     0.087 N 
HETATM   18  C13 UNL     1      18.884   7.398  14.654  1.00  0.00     0.310 C 
HETATM   19  C14 UNL     1      18.165   6.707  12.472  1.00  0.00     0.302 C 
HETATM   20  C15 UNL     1      18.701   5.779  11.424  1.00  0.00     0.302 C 
ENDBRANCH  13  14
ENDBRANCH  12  13
ENDBRANCH   1  12
TORSDOF 7
ENDMDL
