MODEL 1
REMARK VINA RESULT: -6.499626391      0.000      0.000
REMARK  5 active torsions:
REMARK  status: ('A' for Active; 'I' for Inactive)
REMARK    1  A    between atoms: N1_2  and  C2_5 
REMARK    2  A    between atoms: C2_5  and  C4_7 
REMARK    3  A    between atoms: C4_7  and  C5_8 
REMARK    4  A    between atoms: C4_7  and  N3_15 
REMARK       I    between atoms: C5_8  and  N2_10 
REMARK    5  A    between atoms: N2_10  and  C6_12 
ROOT
HETATM    1  C4  UNL     1      17.556   2.341  14.203  1.00  0.00     0.343 C 
ENDROOT
BRANCH   1   2
HETATM    2  C2  UNL     1      16.752   1.779  13.074  1.00  0.00     0.224 C 
HETATM    3  C3  UNL     1      16.944   2.458  11.756  1.00  0.00     0.043 C 
BRANCH   2   4
HETATM    4  N1  UNL     1      16.901   0.365  12.857  1.00  0.00    -0.072 N 
HETATM    5  C1  UNL     1      16.427   0.073  11.516  1.00  0.00     0.267 C 
ATOM      6  H12 UNL     1      16.440  -0.197  13.572  1.00  0.00     0.277 HD
ATOM      7  H11 UNL     1      17.853   0.037  13.021  1.00  0.00     0.277 HD
ENDBRANCH   2   4
ENDBRANCH   1   2
BRANCH   1   8
HETATM    8  C5  UNL     1      17.100   1.821  15.515  1.00  0.00     0.253 C 
HETATM    9  O1  UNL     1      17.902   1.345  16.375  1.00  0.00    -0.271 OA
HETATM   10  N2  UNL     1      15.741   1.810  15.906  1.00  0.00    -0.355 N 
ATOM     11  H2  UNL     1      15.041   2.173  15.259  1.00  0.00     0.162 HD
BRANCH  10  12
HETATM   12  C6  UNL     1      15.302   1.295  17.212  1.00  0.00     0.084 A 
HETATM   13  C7  UNL     1      13.928   0.627  17.123  1.00  0.00     0.027 A 
HETATM   14  C8  UNL     1      15.156  -0.155  17.405  1.00  0.00     0.027 A 
ENDBRANCH  10  12
ENDBRANCH   1   8
BRANCH   1  15
HETATM   15  N3  UNL     1      17.730   3.750  14.175  1.00  0.00     0.104 N 
HETATM   16  C9  UNL     1      16.874   4.616  14.849  1.00  0.00     0.274 C 
HETATM   17  C10 UNL     1      17.586   5.965  15.078  1.00  0.00     0.034 C 
HETATM   18  C11 UNL     1      18.469   6.294  13.893  1.00  0.00    -0.015 C 
HETATM   19  C12 UNL     1      19.036   7.668  14.115  1.00  0.00     0.010 C 
HETATM   20  C13 UNL     1      19.605   5.307  13.889  1.00  0.00     0.034 C 
HETATM   21  C14 UNL     1      19.102   4.030  14.522  1.00  0.00     0.274 C 
ENDBRANCH   1  15
TORSDOF 5
ENDMDL
MODEL 2
REMARK VINA RESULT: -6.385098882      1.224      1.269
REMARK  5 active torsions:
REMARK  status: ('A' for Active; 'I' for Inactive)
REMARK    1  A    between atoms: N1_2  and  C2_5 
REMARK    2  A    between atoms: C2_5  and  C4_7 
REMARK    3  A    between atoms: C4_7  and  C5_8 
REMARK    4  A    between atoms: C4_7  and  N3_15 
REMARK       I    between atoms: C5_8  and  N2_10 
REMARK    5  A    between atoms: N2_10  and  C6_12 
ROOT
HETATM    1  C4  UNL     1      17.201   2.731  14.075  1.00  0.00     0.343 C 
ENDROOT
BRANCH   1   2
HETATM    2  C2  UNL     1      17.079   2.017  12.766  1.00  0.00     0.224 C 
HETATM    3  C3  UNL     1      17.251   2.876  11.554  1.00  0.00     0.043 C 
BRANCH   2   4
HETATM    4  N1  UNL     1      17.933   0.871  12.609  1.00  0.00    -0.072 N 
HETATM    5  C1  UNL     1      17.101  -0.315  12.696  1.00  0.00     0.267 C 
ATOM      6  H12 UNL     1      18.709   0.861  13.271  1.00  0.00     0.277 HD
ATOM      7  H11 UNL     1      18.488   0.904  11.753  1.00  0.00     0.277 HD
ENDBRANCH   2   4
ENDBRANCH   1   2
BRANCH   1   8
HETATM    8  C5  UNL     1      15.976   2.583  14.898  1.00  0.00     0.253 C 
HETATM    9  O1  UNL     1      14.830   2.926  14.479  1.00  0.00    -0.271 OA
HETATM   10  N2  UNL     1      15.992   2.053  16.209  1.00  0.00    -0.355 N 
ATOM     11  H2  UNL     1      16.883   1.762  16.611  1.00  0.00     0.162 HD
BRANCH  10  12
HETATM   12  C6  UNL     1      14.768   1.908  17.014  1.00  0.00     0.084 A 
HETATM   13  C7  UNL     1      14.501   0.445  17.376  1.00  0.00     0.027 A 
HETATM   14  C8  UNL     1      14.870   1.446  18.406  1.00  0.00     0.027 A 
ENDBRANCH  10  12
ENDBRANCH   1   8
BRANCH   1  15
HETATM   15  N3  UNL     1      17.676   4.067  13.989  1.00  0.00     0.104 N 
HETATM   16  C9  UNL     1      17.010   5.130  14.592  1.00  0.00     0.274 C 
HETATM   17  C10 UNL     1      17.991   6.304  14.786  1.00  0.00     0.034 C 
HETATM   18  C11 UNL     1      18.955   6.374  13.621  1.00  0.00    -0.015 C 
HETATM   19  C12 UNL     1      19.800   7.604  13.800  1.00  0.00     0.010 C 
HETATM   20  C13 UNL     1      19.850   5.167  13.703  1.00  0.00     0.034 C 
HETATM   21  C14 UNL     1      19.067   4.062  14.374  1.00  0.00     0.274 C 
ENDBRANCH   1  15
TORSDOF 5
ENDMDL
MODEL 3
REMARK VINA RESULT: -6.207684195      1.510      4.974
REMARK  5 active torsions:
REMARK  status: ('A' for Active; 'I' for Inactive)
REMARK    1  A    between atoms: N1_2  and  C2_5 
REMARK    2  A    between atoms: C2_5  and  C4_7 
REMARK    3  A    between atoms: C4_7  and  C5_8 
REMARK    4  A    between atoms: C4_7  and  N3_15 
REMARK       I    between atoms: C5_8  and  N2_10 
REMARK    5  A    between atoms: N2_10  and  C6_12 
ROOT
HETATM    1  C4  UNL     1      16.334   2.086  13.440  1.00  0.00     0.343 C 
ENDROOT
BRANCH   1   2
HETATM    2  C2  UNL     1      16.468   0.903  12.534  1.00  0.00     0.224 C 
HETATM    3  C3  UNL     1      16.382   1.207  11.073  1.00  0.00     0.043 C 
BRANCH   2   4
HETATM    4  N1  UNL     1      17.643   0.100  12.740  1.00  0.00    -0.072 N 
HETATM    5  C1  UNL     1      17.271  -1.288  12.531  1.00  0.00     0.267 C 
ATOM      6  H12 UNL     1      18.080   0.261  13.648  1.00  0.00     0.277 HD
ATOM      7  H11 UNL     1      18.429   0.392  12.160  1.00  0.00     0.277 HD
ENDBRANCH   2   4
ENDBRANCH   1   2
BRANCH   1   8
HETATM    8  C5  UNL     1      17.498   2.998  13.327  1.00  0.00     0.253 C 
HETATM    9  O1  UNL     1      18.693   2.596  13.461  1.00  0.00    -0.271 OA
HETATM   10  N2  UNL     1      17.366   4.381  13.068  1.00  0.00    -0.355 N 
ATOM     11  H2  UNL     1      16.431   4.774  12.956  1.00  0.00     0.162 HD
BRANCH  10  12
HETATM   12  C6  UNL     1      18.529   5.275  12.954  1.00  0.00     0.084 A 
HETATM   13  C7  UNL     1      18.130   6.745  13.113  1.00  0.00     0.027 A 
HETATM   14  C8  UNL     1      18.962   6.051  14.126  1.00  0.00     0.027 A 
ENDBRANCH  10  12
ENDBRANCH   1   8
BRANCH   1  15
HETATM   15  N3  UNL     1      15.974   1.779  14.780  1.00  0.00     0.104 N 
HETATM   16  C9  UNL     1      16.744   0.941  15.581  1.00  0.00     0.274 C 
HETATM   17  C10 UNL     1      16.425   1.216  17.065  1.00  0.00     0.034 C 
HETATM   18  C11 UNL     1      14.955   1.538  17.229  1.00  0.00    -0.015 C 
HETATM   19  C12 UNL     1      14.679   1.672  18.700  1.00  0.00     0.010 C 
HETATM   20  C13 UNL     1      14.709   2.871  16.576  1.00  0.00     0.034 C 
HETATM   21  C14 UNL     1      15.716   3.026  15.460  1.00  0.00     0.274 C 
ENDBRANCH   1  15
TORSDOF 5
ENDMDL
MODEL 4
REMARK VINA RESULT: -6.196314861      1.477      1.544
REMARK  5 active torsions:
REMARK  status: ('A' for Active; 'I' for Inactive)
REMARK    1  A    between atoms: N1_2  and  C2_5 
REMARK    2  A    between atoms: C2_5  and  C4_7 
REMARK    3  A    between atoms: C4_7  and  C5_8 
REMARK    4  A    between atoms: C4_7  and  N3_15 
REMARK       I    between atoms: C5_8  and  N2_10 
REMARK    5  A    between atoms: N2_10  and  C6_12 
ROOT
HETATM    1  C4  UNL     1      17.306   2.039  13.665  1.00  0.00     0.343 C 
ENDROOT
BRANCH   1   2
HETATM    2  C2  UNL     1      16.749   0.923  12.840  1.00  0.00     0.224 C 
HETATM    3  C3  UNL     1      16.378   1.289  11.439  1.00  0.00     0.043 C 
BRANCH   2   4
HETATM    4  N1  UNL     1      17.563  -0.260  12.776  1.00  0.00    -0.072 N 
HETATM    5  C1  UNL     1      16.887  -1.215  11.916  1.00  0.00     0.267 C 
ATOM      6  H12 UNL     1      17.783  -0.641  13.697  1.00  0.00     0.277 HD
ATOM      7  H11 UNL     1      18.520  -0.068  12.479  1.00  0.00     0.277 HD
ENDBRANCH   2   4
ENDBRANCH   1   2
BRANCH   1   8
HETATM    8  C5  UNL     1      16.972   1.882  15.101  1.00  0.00     0.253 C 
HETATM    9  O1  UNL     1      17.797   2.153  16.025  1.00  0.00    -0.271 OA
HETATM   10  N2  UNL     1      15.715   1.417  15.549  1.00  0.00    -0.355 N 
ATOM     11  H2  UNL     1      15.005   1.174  14.859  1.00  0.00     0.162 HD
BRANCH  10  12
HETATM   12  C6  UNL     1      15.394   1.269  16.978  1.00  0.00     0.084 A 
HETATM   13  C7  UNL     1      14.049   0.569  17.186  1.00  0.00     0.027 A 
HETATM   14  C8  UNL     1      15.328  -0.075  17.569  1.00  0.00     0.027 A 
ENDBRANCH  10  12
ENDBRANCH   1   8
BRANCH   1  15
HETATM   15  N3  UNL     1      17.058   3.343  13.158  1.00  0.00     0.104 N 
HETATM   16  C9  UNL     1      16.262   4.262  13.834  1.00  0.00     0.274 C 
HETATM   17  C10 UNL     1      16.601   5.687  13.352  1.00  0.00     0.034 C 
HETATM   18  C11 UNL     1      16.920   5.672  11.872  1.00  0.00    -0.015 C 
HETATM   19  C12 UNL     1      17.118   7.096  11.433  1.00  0.00     0.010 C 
HETATM   20  C13 UNL     1      18.221   4.936  11.698  1.00  0.00     0.034 C 
HETATM   21  C14 UNL     1      18.332   3.933  12.824  1.00  0.00     0.274 C 
ENDBRANCH   1  15
TORSDOF 5
ENDMDL
MODEL 5
REMARK VINA RESULT: -6.135923754      1.316      1.440
REMARK  5 active torsions:
REMARK  status: ('A' for Active; 'I' for Inactive)
REMARK    1  A    between atoms: N1_2  and  C2_5 
REMARK    2  A    between atoms: C2_5  and  C4_7 
REMARK    3  A    between atoms: C4_7  and  C5_8 
REMARK    4  A    between atoms: C4_7  and  N3_15 
REMARK       I    between atoms: C5_8  and  N2_10 
REMARK    5  A    between atoms: N2_10  and  C6_12 
ROOT
HETATM    1  C4  UNL     1      17.446   2.604  14.109  1.00  0.00     0.343 C 
ENDROOT
BRANCH   1   2
HETATM    2  C2  UNL     1      17.538   1.745  12.888  1.00  0.00     0.224 C 
HETATM    3  C3  UNL     1      17.189   0.306  13.094  1.00  0.00     0.043 C 
BRANCH   2   4
HETATM    4  N1  UNL     1      16.792   2.212  11.751  1.00  0.00    -0.072 N 
HETATM    5  C1  UNL     1      16.127   1.065  11.159  1.00  0.00     0.267 C 
ATOM      6  H12 UNL     1      17.367   2.726  11.083  1.00  0.00     0.277 HD
ATOM      7  H11 UNL     1      16.148   2.968  11.982  1.00  0.00     0.277 HD
ENDBRANCH   2   4
ENDBRANCH   1   2
BRANCH   1   8
HETATM    8  C5  UNL     1      16.145   2.440  14.800  1.00  0.00     0.253 C 
HETATM    9  O1  UNL     1      15.039   2.716  14.243  1.00  0.00    -0.271 OA
HETATM   10  N2  UNL     1      16.035   1.969  16.128  1.00  0.00    -0.355 N 
ATOM     11  H2  UNL     1      16.886   1.733  16.638  1.00  0.00     0.162 HD
BRANCH  10  12
HETATM   12  C6  UNL     1      14.736   1.806  16.801  1.00  0.00     0.084 A 
HETATM   13  C7  UNL     1      14.499   0.355  17.227  1.00  0.00     0.027 A 
HETATM   14  C8  UNL     1      14.701   1.435  18.223  1.00  0.00     0.027 A 
ENDBRANCH  10  12
ENDBRANCH   1   8
BRANCH   1  15
HETATM   15  N3  UNL     1      17.828   3.959  13.920  1.00  0.00     0.104 N 
HETATM   16  C9  UNL     1      17.166   5.010  14.548  1.00  0.00     0.274 C 
HETATM   17  C10 UNL     1      18.089   6.245  14.590  1.00  0.00     0.034 C 
HETATM   18  C11 UNL     1      18.921   6.315  13.327  1.00  0.00    -0.015 C 
HETATM   19  C12 UNL     1      19.703   7.598  13.367  1.00  0.00     0.010 C 
HETATM   20  C13 UNL     1      19.891   5.166  13.361  1.00  0.00     0.034 C 
HETATM   21  C14 UNL     1      19.249   4.050  14.155  1.00  0.00     0.274 C 
ENDBRANCH   1  15
TORSDOF 5
ENDMDL
