MODEL 1
REMARK VINA RESULT: -6.400833032      0.000      0.000
REMARK  5 active torsions:
REMARK  status: ('A' for Active; 'I' for Inactive)
REMARK    1  A    between atoms: O1_2  and  C2_3 
REMARK    2  A    between atoms: C2_3  and  C3_4 
REMARK    3  A    between atoms: C3_4  and  N1_5 
REMARK    4  A    between atoms: C3_4  and  C12_19 
REMARK       I    between atoms: N1_5  and  C4_7 
REMARK    5  A    between atoms: C4_7  and  C5_9 
ROOT
HETATM    1  N1  UNL     1      16.354   2.300  15.549  1.00  0.00    -0.352 N 
ATOM      2  H1  UNL     1      15.529   2.584  15.022  1.00  0.00     0.163 HD
HETATM    3  C4  UNL     1      17.591   2.892  15.226  1.00  0.00     0.249 C 
HETATM    4  O2  UNL     1      18.620   2.544  15.877  1.00  0.00    -0.271 OA
ENDROOT
BRANCH   3   5
HETATM    5  C5  UNL     1      17.718   3.904  14.151  1.00  0.00     0.281 C 
HETATM    6  N2  UNL     1      17.297   3.341  12.886  1.00  0.00    -0.062 N 
HETATM    7  C6  UNL     1      17.610   4.238  11.817  1.00  0.00     0.238 C 
ATOM      8  H22 UNL     1      17.692   2.413  12.731  1.00  0.00     0.278 HD
ATOM      9  H21 UNL     1      16.310   3.086  12.892  1.00  0.00     0.278 HD
HETATM   10  C7  UNL     1      17.231   5.670  12.190  1.00  0.00     0.012 C 
HETATM   11  C8  UNL     1      18.341   6.349  12.961  1.00  0.00     0.007 C 
HETATM   12  C11 UNL     1      16.116   5.553  13.230  1.00  0.00     0.013 C 
HETATM   13  C9  UNL     1      17.968   6.325  14.407  1.00  0.00     0.007 C 
HETATM   14  C10 UNL     1      16.962   5.166  14.451  1.00  0.00     0.026 C 
ENDBRANCH   3   5
BRANCH   1  15
HETATM   15  C3  UNL     1      16.194   1.297  16.606  1.00  0.00     0.111 C 
BRANCH  15  16
HETATM   16  C2  UNL     1      16.175  -0.087  16.063  1.00  0.00     0.192 C 
BRANCH  16  17
HETATM   17  O1  UNL     1      17.312  -0.371  15.345  1.00  0.00    -0.394 OA
HETATM   18  C1  UNL     1      17.113  -0.757  14.040  1.00  0.00     0.201 C 
ENDBRANCH  16  17
ENDBRANCH  15  16
BRANCH  15  19
HETATM   19  C12 UNL     1      14.994   1.617  17.468  1.00  0.00     0.002 C 
HETATM   20  C13 UNL     1      14.389   2.954  17.102  1.00  0.00     0.011 C 
HETATM   21  C14 UNL     1      13.913   0.575  17.363  1.00  0.00     0.011 C 
ENDBRANCH  15  19
ENDBRANCH   1  15
TORSDOF 5
ENDMDL
MODEL 2
REMARK VINA RESULT: -6.280136081      0.964      1.336
REMARK  5 active torsions:
REMARK  status: ('A' for Active; 'I' for Inactive)
REMARK    1  A    between atoms: O1_2  and  C2_3 
REMARK    2  A    between atoms: C2_3  and  C3_4 
REMARK    3  A    between atoms: C3_4  and  N1_5 
REMARK    4  A    between atoms: C3_4  and  C12_19 
REMARK       I    between atoms: N1_5  and  C4_7 
REMARK    5  A    between atoms: C4_7  and  C5_9 
ROOT
HETATM    1  N1  UNL     1      16.627   2.436  15.285  1.00  0.00    -0.352 N 
ATOM      2  H1  UNL     1      15.772   2.693  14.794  1.00  0.00     0.163 HD
HETATM    3  C4  UNL     1      17.809   3.143  14.985  1.00  0.00     0.249 C 
HETATM    4  O2  UNL     1      18.876   2.829  15.591  1.00  0.00    -0.271 OA
ENDROOT
BRANCH   3   5
HETATM    5  C5  UNL     1      17.834   4.236  13.985  1.00  0.00     0.281 C 
HETATM    6  N2  UNL     1      16.523   4.838  13.871  1.00  0.00    -0.062 N 
HETATM    7  C6  UNL     1      16.490   5.747  12.769  1.00  0.00     0.238 C 
ATOM      8  H22 UNL     1      15.786   4.135  13.808  1.00  0.00     0.278 HD
ATOM      9  H21 UNL     1      16.232   5.284  14.741  1.00  0.00     0.278 HD
HETATM   10  C7  UNL     1      17.743   6.619  12.753  1.00  0.00     0.012 C 
HETATM   11  C8  UNL     1      18.882   5.931  12.032  1.00  0.00     0.007 C 
HETATM   12  C11 UNL     1      18.238   6.670  14.199  1.00  0.00     0.013 C 
HETATM   13  C9  UNL     1      19.800   5.370  13.068  1.00  0.00     0.007 C 
HETATM   14  C10 UNL     1      18.874   5.276  14.289  1.00  0.00     0.026 C 
ENDBRANCH   3   5
BRANCH   1  15
HETATM   15  C3  UNL     1      16.568   1.351  16.268  1.00  0.00     0.111 C 
BRANCH  15  16
HETATM   16  C2  UNL     1      16.629   0.011  15.625  1.00  0.00     0.192 C 
BRANCH  16  17
HETATM   17  O1  UNL     1      16.432   0.086  14.267  1.00  0.00    -0.394 OA
HETATM   18  C1  UNL     1      17.172  -0.789  13.506  1.00  0.00     0.201 C 
ENDBRANCH  16  17
ENDBRANCH  15  16
BRANCH  15  19
HETATM   19  C12 UNL     1      15.374   1.521  17.180  1.00  0.00     0.002 C 
HETATM   20  C13 UNL     1      14.541   2.719  16.783  1.00  0.00     0.011 C 
HETATM   21  C14 UNL     1      14.475   0.314  17.185  1.00  0.00     0.011 C 
ENDBRANCH  15  19
ENDBRANCH   1  15
TORSDOF 5
ENDMDL
MODEL 3
REMARK VINA RESULT: -6.202692816      2.053      5.822
REMARK  5 active torsions:
REMARK  status: ('A' for Active; 'I' for Inactive)
REMARK    1  A    between atoms: O1_2  and  C2_3 
REMARK    2  A    between atoms: C2_3  and  C3_4 
REMARK    3  A    between atoms: C3_4  and  N1_5 
REMARK    4  A    between atoms: C3_4  and  C12_19 
REMARK       I    between atoms: N1_5  and  C4_7 
REMARK    5  A    between atoms: C4_7  and  C5_9 
ROOT
HETATM    1  N1  UNL     1      16.931   3.238  13.863  1.00  0.00    -0.352 N 
ATOM      2  H1  UNL     1      17.596   2.465  13.889  1.00  0.00     0.163 HD
HETATM    3  C4  UNL     1      15.767   3.145  14.652  1.00  0.00     0.249 C 
HETATM    4  O2  UNL     1      14.937   4.101  14.625  1.00  0.00    -0.271 OA
ENDROOT
BRANCH   3   5
HETATM    5  C5  UNL     1      15.492   1.965  15.505  1.00  0.00     0.281 C 
HETATM    6  N2  UNL     1      16.702   1.196  15.696  1.00  0.00    -0.062 N 
HETATM    7  C6  UNL     1      16.403  -0.045  16.341  1.00  0.00     0.238 C 
ATOM      8  H22 UNL     1      17.209   1.058  14.821  1.00  0.00     0.278 HD
ATOM      9  H21 UNL     1      17.414   1.724  16.200  1.00  0.00     0.278 HD
HETATM   10  C7  UNL     1      15.434   0.172  17.501  1.00  0.00     0.012 C 
HETATM   11  C8  UNL     1      13.998   0.165  17.027  1.00  0.00     0.007 C 
HETATM   12  C11 UNL     1      15.637   1.619  17.953  1.00  0.00     0.013 C 
HETATM   13  C9  UNL     1      13.544   1.586  16.939  1.00  0.00     0.007 C 
HETATM   14  C10 UNL     1      14.880   2.334  16.825  1.00  0.00     0.026 C 
ENDBRANCH   3   5
BRANCH   1  15
HETATM   15  C3  UNL     1      17.234   4.389  13.009  1.00  0.00     0.111 C 
BRANCH  15  16
HETATM   16  C2  UNL     1      17.411   3.997  11.586  1.00  0.00     0.192 C 
BRANCH  16  17
HETATM   17  O1  UNL     1      16.286   4.254  10.840  1.00  0.00    -0.394 OA
HETATM   18  C1  UNL     1      16.083   5.571  10.499  1.00  0.00     0.201 C 
ENDBRANCH  16  17
ENDBRANCH  15  16
BRANCH  15  19
HETATM   19  C12 UNL     1      18.403   5.173  13.563  1.00  0.00     0.002 C 
HETATM   20  C13 UNL     1      17.952   6.185  14.592  1.00  0.00     0.011 C 
HETATM   21  C14 UNL     1      19.437   4.289  14.205  1.00  0.00     0.011 C 
ENDBRANCH  15  19
ENDBRANCH   1  15
TORSDOF 5
ENDMDL
MODEL 4
REMARK VINA RESULT: -6.156236998      1.846      5.533
REMARK  5 active torsions:
REMARK  status: ('A' for Active; 'I' for Inactive)
REMARK    1  A    between atoms: O1_2  and  C2_3 
REMARK    2  A    between atoms: C2_3  and  C3_4 
REMARK    3  A    between atoms: C3_4  and  N1_5 
REMARK    4  A    between atoms: C3_4  and  C12_19 
REMARK       I    between atoms: N1_5  and  C4_7 
REMARK    5  A    between atoms: C4_7  and  C5_9 
ROOT
HETATM    1  N1  UNL     1      17.486   3.497  14.967  1.00  0.00    -0.352 N 
ATOM      2  H1  UNL     1      17.714   3.512  15.961  1.00  0.00     0.163 HD
HETATM    3  C4  UNL     1      16.565   2.536  14.506  1.00  0.00     0.249 C 
HETATM    4  O2  UNL     1      16.278   2.512  13.273  1.00  0.00    -0.271 OA
ENDROOT
BRANCH   3   5
HETATM    5  C5  UNL     1      15.928   1.560  15.421  1.00  0.00     0.281 C 
HETATM    6  N2  UNL     1      16.865   0.510  15.758  1.00  0.00    -0.062 N 
HETATM    7  C6  UNL     1      16.199  -0.537  16.469  1.00  0.00     0.238 C 
ATOM      8  H22 UNL     1      17.357   0.159  14.936  1.00  0.00     0.278 HD
ATOM      9  H21 UNL     1      17.669   0.867  16.274  1.00  0.00     0.278 HD
HETATM   10  C7  UNL     1      15.271   0.042  17.535  1.00  0.00     0.012 C 
HETATM   11  C8  UNL     1      13.916   0.385  16.956  1.00  0.00     0.007 C 
HETATM   12  C11 UNL     1      15.846   1.413  17.892  1.00  0.00     0.013 C 
HETATM   13  C9  UNL     1      13.882   1.861  16.730  1.00  0.00     0.007 C 
HETATM   14  C10 UNL     1      15.377   2.202  16.661  1.00  0.00     0.026 C 
ENDBRANCH   3   5
BRANCH   1  15
HETATM   15  C3  UNL     1      18.133   4.476  14.090  1.00  0.00     0.111 C 
BRANCH  15  16
HETATM   16  C2  UNL     1      19.616   4.386  14.151  1.00  0.00     0.192 C 
BRANCH  16  17
HETATM   17  O1  UNL     1      20.092   3.305  13.448  1.00  0.00    -0.394 OA
HETATM   18  C1  UNL     1      19.765   3.270  12.112  1.00  0.00     0.201 C 
ENDBRANCH  16  17
ENDBRANCH  15  16
BRANCH  15  19
HETATM   19  C12 UNL     1      17.608   5.868  14.364  1.00  0.00     0.002 C 
HETATM   20  C13 UNL     1      16.687   5.886  15.562  1.00  0.00     0.011 C 
HETATM   21  C14 UNL     1      18.710   6.862  14.612  1.00  0.00     0.011 C 
ENDBRANCH  15  19
ENDBRANCH   1  15
TORSDOF 5
ENDMDL
MODEL 5
REMARK VINA RESULT: -6.116539810      1.996      6.008
REMARK  5 active torsions:
REMARK  status: ('A' for Active; 'I' for Inactive)
REMARK    1  A    between atoms: O1_2  and  C2_3 
REMARK    2  A    between atoms: C2_3  and  C3_4 
REMARK    3  A    between atoms: C3_4  and  N1_5 
REMARK    4  A    between atoms: C3_4  and  C12_19 
REMARK       I    between atoms: N1_5  and  C4_7 
REMARK    5  A    between atoms: C4_7  and  C5_9 
ROOT
HETATM    1  N1  UNL     1      17.106   3.648  14.504  1.00  0.00    -0.352 N 
ATOM      2  H1  UNL     1      17.867   3.010  14.738  1.00  0.00     0.163 HD
HETATM    3  C4  UNL     1      15.802   3.317  14.926  1.00  0.00     0.249 C 
HETATM    4  O2  UNL     1      14.852   4.103  14.640  1.00  0.00    -0.271 OA
ENDROOT
BRANCH   3   5
HETATM    5  C5  UNL     1      15.518   2.079  15.691  1.00  0.00     0.281 C 
HETATM    6  N2  UNL     1      16.740   1.334  15.904  1.00  0.00    -0.062 N 
HETATM    7  C6  UNL     1      16.446   0.048  16.455  1.00  0.00     0.238 C 
ATOM      8  H22 UNL     1      17.298   1.264  15.052  1.00  0.00     0.278 HD
ATOM      9  H21 UNL     1      17.406   1.850  16.478  1.00  0.00     0.278 HD
HETATM   10  C7  UNL     1      15.408   0.166  17.570  1.00  0.00     0.012 C 
HETATM   11  C8  UNL     1      14.001   0.148  17.015  1.00  0.00     0.007 C 
HETATM   12  C11 UNL     1      15.540   1.587  18.118  1.00  0.00     0.013 C 
HETATM   13  C9  UNL     1      13.508   1.558  16.986  1.00  0.00     0.007 C 
HETATM   14  C10 UNL     1      14.823   2.349  16.994  1.00  0.00     0.026 C 
ENDBRANCH   3   5
BRANCH   1  15
HETATM   15  C3  UNL     1      17.421   4.862  13.748  1.00  0.00     0.111 C 
BRANCH  15  16
HETATM   16  C2  UNL     1      17.462   4.612  12.283  1.00  0.00     0.192 C 
BRANCH  16  17
HETATM   17  O1  UNL     1      16.275   4.944  11.674  1.00  0.00    -0.394 OA
HETATM   18  C1  UNL     1      15.834   6.230  11.884  1.00  0.00     0.201 C 
ENDBRANCH  16  17
ENDBRANCH  15  16
BRANCH  15  19
HETATM   19  C12 UNL     1      18.680   5.510  14.279  1.00  0.00     0.002 C 
HETATM   20  C13 UNL     1      19.780   5.515  13.241  1.00  0.00     0.011 C 
HETATM   21  C14 UNL     1      18.455   6.931  14.722  1.00  0.00     0.011 C 
ENDBRANCH  15  19
ENDBRANCH   1  15
TORSDOF 5
ENDMDL
