MODEL 1
REMARK VINA RESULT: -8.015681170      0.000      0.000
REMARK  8 active torsions:
REMARK  status: ('A' for Active; 'I' for Inactive)
REMARK    1  A    between atoms: C1_2  and  C2_3 
REMARK       I    between atoms: C1_2  and  N2_18 
REMARK    2  A    between atoms: C2_3  and  C3_4 
REMARK    3  A    between atoms: C3_4  and  C4_5 
REMARK    4  A    between atoms: C4_5  and  N1_6 
REMARK    5  A    between atoms: C7_11  and  O2_12 
REMARK    6  A    between atoms: C7_11  and  C8_14 
REMARK    7  A    between atoms: N2_18  and  C10_20 
REMARK    8  A    between atoms: C10_20  and  C11_21 
ROOT
HETATM    1  O1  UNL     1      18.918   3.912  15.032  1.00  0.00    -0.274 OA
HETATM    2  C1  UNL     1      18.544   3.991  13.854  1.00  0.00     0.218 C 
HETATM    3  N2  UNL     1      17.529   3.311  13.218  1.00  0.00    -0.357 N 
ATOM      4  H2  UNL     1      17.462   3.600  12.243  1.00  0.00     0.162 HD
ENDROOT
BRANCH   2   5
HETATM    5  C2  UNL     1      19.285   4.960  12.959  1.00  0.00     0.108 C 
BRANCH   5   6
HETATM    6  C3  UNL     1      19.247   6.365  13.359  1.00  0.00     0.053 C 
BRANCH   6   7
HETATM    7  C4  UNL     1      17.829   6.867  13.500  1.00  0.00     0.059 C 
BRANCH   7   8
HETATM    8  N1  UNL     1      17.126   7.162  12.348  1.00  0.00    -0.384 N 
HETATM    9  C5  UNL     1      17.618   7.443  11.091  1.00  0.00     0.204 C 
HETATM   10  C6  UNL     1      16.343   7.847  10.319  1.00  0.00     0.296 C 
HETATM   11  F1  UNL     1      16.514   7.516   8.966  1.00  0.00    -0.201 F 
HETATM   12  F2  UNL     1      16.284   9.185  10.403  1.00  0.00    -0.201 F 
HETATM   13  C7  UNL     1      15.321   7.027  10.973  1.00  0.00     0.200 C 
HETATM   14  C9  UNL     1      15.974   6.318  12.110  1.00  0.00     0.172 C 
BRANCH  13  15
HETATM   15  O2  UNL     1      14.961   6.000  10.040  1.00  0.00    -0.377 OA
ATOM     16  H2  UNL     1      14.731   5.235  10.554  1.00  0.00     0.211 HD
ENDBRANCH  13  15
BRANCH  13  17
HETATM   17  C8  UNL     1      14.023   7.691  11.300  1.00  0.00     0.395 C 
HETATM   18  F3  UNL     1      13.217   7.717  10.165  1.00  0.00    -0.211 F 
HETATM   19  F4  UNL     1      13.313   7.234  12.340  1.00  0.00    -0.211 F 
ENDBRANCH  13  17
ENDBRANCH   7   8
ENDBRANCH   6   7
ENDBRANCH   5   6
ENDBRANCH   2   5
BRANCH   3  20
HETATM   20  C10 UNL     1      16.553   2.335  13.514  1.00  0.00     0.167 C 
BRANCH  20  21
HETATM   21  C11 UNL     1      15.989   2.328  14.884  1.00  0.00     0.043 A 
HETATM   22  C12 UNL     1      15.981   1.140  15.615  1.00  0.00     0.169 A 
HETATM   23  F5  UNL     1      16.779   0.129  15.119  1.00  0.00    -0.202 F 
HETATM   24  C13 UNL     1      15.293   0.958  16.769  1.00  0.00     0.197 A 
HETATM   25  F6  UNL     1      15.345  -0.218  17.453  1.00  0.00    -0.199 F 
HETATM   26  C14 UNL     1      14.536   2.008  17.283  1.00  0.00     0.199 A 
HETATM   27  F7  UNL     1      13.834   1.868  18.405  1.00  0.00    -0.199 F 
HETATM   28  C15 UNL     1      14.530   3.189  16.575  1.00  0.00     0.197 A 
HETATM   29  F8  UNL     1      13.783   4.241  17.021  1.00  0.00    -0.199 F 
HETATM   30  C16 UNL     1      15.248   3.365  15.386  1.00  0.00     0.169 A 
HETATM   31  F9  UNL     1      15.140   4.559  14.732  1.00  0.00    -0.202 F 
ENDBRANCH  20  21
ENDBRANCH   3  20
TORSDOF 8
ENDMDL
MODEL 2
REMARK VINA RESULT: -8.001613590      0.661      2.074
REMARK  8 active torsions:
REMARK  status: ('A' for Active; 'I' for Inactive)
REMARK    1  A    between atoms: C1_2  and  C2_3 
REMARK       I    between atoms: C1_2  and  N2_18 
REMARK    2  A    between atoms: C2_3  and  C3_4 
REMARK    3  A    between atoms: C3_4  and  C4_5 
REMARK    4  A    between atoms: C4_5  and  N1_6 
REMARK    5  A    between atoms: C7_11  and  O2_12 
REMARK    6  A    between atoms: C7_11  and  C8_14 
REMARK    7  A    between atoms: N2_18  and  C10_20 
REMARK    8  A    between atoms: C10_20  and  C11_21 
ROOT
HETATM    1  O1  UNL     1      18.943   3.860  11.948  1.00  0.00    -0.274 OA
HETATM    2  C1  UNL     1      18.655   4.079  13.132  1.00  0.00     0.218 C 
HETATM    3  N2  UNL     1      17.666   3.509  13.904  1.00  0.00    -0.357 N 
ATOM      4  H2  UNL     1      17.683   3.896  14.848  1.00  0.00     0.162 HD
ENDROOT
BRANCH   2   5
HETATM    5  C2  UNL     1      19.483   5.112  13.864  1.00  0.00     0.108 C 
BRANCH   5   6
HETATM    6  C3  UNL     1      19.366   6.488  13.388  1.00  0.00     0.053 C 
BRANCH   6   7
HETATM    7  C4  UNL     1      17.949   7.001  13.503  1.00  0.00     0.059 C 
BRANCH   7   8
HETATM    8  N1  UNL     1      17.228   7.188  12.340  1.00  0.00    -0.384 N 
HETATM    9  C5  UNL     1      17.700   7.331  11.052  1.00  0.00     0.204 C 
HETATM   10  C6  UNL     1      16.416   7.676  10.265  1.00  0.00     0.296 C 
HETATM   11  F1  UNL     1      16.557   7.205   8.951  1.00  0.00    -0.201 F 
HETATM   12  F2  UNL     1      16.381   9.017  10.213  1.00  0.00    -0.201 F 
HETATM   13  C7  UNL     1      15.395   6.945  11.018  1.00  0.00     0.200 C 
HETATM   14  C9  UNL     1      16.059   6.345  12.210  1.00  0.00     0.172 C 
BRANCH  13  15
HETATM   15  O2  UNL     1      15.001   5.834  10.202  1.00  0.00    -0.377 OA
ATOM     16  H2  UNL     1      14.126   5.590  10.480  1.00  0.00     0.211 HD
ENDBRANCH  13  15
BRANCH  13  17
HETATM   17  C8  UNL     1      14.114   7.661  11.299  1.00  0.00     0.395 C 
HETATM   18  F3  UNL     1      13.331   7.678  10.147  1.00  0.00    -0.211 F 
HETATM   19  F4  UNL     1      13.369   7.261  12.338  1.00  0.00    -0.211 F 
ENDBRANCH  13  17
ENDBRANCH   7   8
ENDBRANCH   6   7
ENDBRANCH   5   6
ENDBRANCH   2   5
BRANCH   3  20
HETATM   20  C10 UNL     1      16.638   2.551  13.780  1.00  0.00     0.167 C 
BRANCH  20  21
HETATM   21  C11 UNL     1      15.802   2.290  14.975  1.00  0.00     0.043 A 
HETATM   22  C12 UNL     1      15.054   3.330  15.528  1.00  0.00     0.169 A 
HETATM   23  F5  UNL     1      14.913   4.451  14.736  1.00  0.00    -0.202 F 
HETATM   24  C13 UNL     1      14.444   3.272  16.738  1.00  0.00     0.197 A 
HETATM   25  F6  UNL     1      13.704   4.311  17.214  1.00  0.00    -0.199 F 
HETATM   26  C14 UNL     1      14.552   2.111  17.500  1.00  0.00     0.199 A 
HETATM   27  F7  UNL     1      13.980   2.017  18.698  1.00  0.00    -0.199 F 
HETATM   28  C15 UNL     1      15.286   1.073  16.970  1.00  0.00     0.197 A 
HETATM   29  F8  UNL     1      15.445  -0.077  17.688  1.00  0.00    -0.199 F 
HETATM   30  C16 UNL     1      15.909   1.144  15.719  1.00  0.00     0.169 A 
HETATM   31  F9  UNL     1      16.656   0.080  15.302  1.00  0.00    -0.202 F 
ENDBRANCH  20  21
ENDBRANCH   3  20
TORSDOF 8
ENDMDL
MODEL 3
REMARK VINA RESULT: -7.790478367      2.110      2.686
REMARK  8 active torsions:
REMARK  status: ('A' for Active; 'I' for Inactive)
REMARK    1  A    between atoms: C1_2  and  C2_3 
REMARK       I    between atoms: C1_2  and  N2_18 
REMARK    2  A    between atoms: C2_3  and  C3_4 
REMARK    3  A    between atoms: C3_4  and  C4_5 
REMARK    4  A    between atoms: C4_5  and  N1_6 
REMARK    5  A    between atoms: C7_11  and  O2_12 
REMARK    6  A    between atoms: C7_11  and  C8_14 
REMARK    7  A    between atoms: N2_18  and  C10_20 
REMARK    8  A    between atoms: C10_20  and  C11_21 
ROOT
HETATM    1  O1  UNL     1      16.085   4.021  10.560  1.00  0.00    -0.274 OA
HETATM    2  C1  UNL     1      16.530   4.447  11.635  1.00  0.00     0.218 C 
HETATM    3  N2  UNL     1      16.665   3.792  12.839  1.00  0.00    -0.357 N 
ATOM      4  H2  UNL     1      17.071   4.412  13.539  1.00  0.00     0.162 HD
ENDROOT
BRANCH   2   5
HETATM    5  C2  UNL     1      17.002   5.884  11.664  1.00  0.00     0.108 C 
BRANCH   5   6
HETATM    6  C3  UNL     1      15.957   6.904  11.718  1.00  0.00     0.053 C 
BRANCH   6   7
HETATM    7  C4  UNL     1      16.109   7.919  10.609  1.00  0.00     0.059 C 
BRANCH   7   8
HETATM    8  N1  UNL     1      15.494   7.657   9.400  1.00  0.00    -0.384 N 
HETATM    9  C5  UNL     1      16.012   7.015   8.295  1.00  0.00     0.204 C 
HETATM   10  C6  UNL     1      14.894   7.207   7.246  1.00  0.00     0.296 C 
HETATM   11  F1  UNL     1      14.921   6.120   6.359  1.00  0.00    -0.201 F 
HETATM   12  F2  UNL     1      15.241   8.303   6.553  1.00  0.00    -0.201 F 
HETATM   13  C7  UNL     1      13.693   7.220   8.083  1.00  0.00     0.200 C 
HETATM   14  C9  UNL     1      14.136   7.166   9.505  1.00  0.00     0.172 C 
BRANCH  13  15
HETATM   15  O2  UNL     1      13.016   5.978   7.848  1.00  0.00    -0.377 OA
ATOM     16  H2  UNL     1      12.778   5.633   8.701  1.00  0.00     0.211 HD
ENDBRANCH  13  15
BRANCH  13  17
HETATM   17  C8  UNL     1      12.662   8.257   7.778  1.00  0.00     0.395 C 
HETATM   18  F3  UNL     1      11.410   7.798   8.180  1.00  0.00    -0.211 F 
HETATM   19  F4  UNL     1      12.848   9.502   8.237  1.00  0.00    -0.211 F 
ENDBRANCH  13  17
ENDBRANCH   7   8
ENDBRANCH   6   7
ENDBRANCH   5   6
ENDBRANCH   2   5
BRANCH   3  20
HETATM   20  C10 UNL     1      16.408   2.520  13.394  1.00  0.00     0.167 C 
BRANCH  20  21
HETATM   21  C11 UNL     1      15.914   2.472  14.790  1.00  0.00     0.043 A 
HETATM   22  C12 UNL     1      15.962   1.268  15.493  1.00  0.00     0.169 A 
HETATM   23  F5  UNL     1      16.750   0.282  14.935  1.00  0.00    -0.202 F 
HETATM   24  C13 UNL     1      15.336   1.048  16.675  1.00  0.00     0.197 A 
HETATM   25  F6  UNL     1      15.442  -0.142  17.328  1.00  0.00    -0.199 F 
HETATM   26  C14 UNL     1      14.589   2.073  17.251  1.00  0.00     0.199 A 
HETATM   27  F7  UNL     1      13.947   1.896  18.403  1.00  0.00    -0.199 F 
HETATM   28  C15 UNL     1      14.529   3.270  16.572  1.00  0.00     0.197 A 
HETATM   29  F8  UNL     1      13.788   4.298  17.079  1.00  0.00    -0.199 F 
HETATM   30  C16 UNL     1      15.182   3.485  15.352  1.00  0.00     0.169 A 
HETATM   31  F9  UNL     1      15.022   4.691  14.733  1.00  0.00    -0.202 F 
ENDBRANCH  20  21
ENDBRANCH   3  20
TORSDOF 8
ENDMDL
MODEL 4
REMARK VINA RESULT: -7.711283147      1.122      1.645
REMARK  8 active torsions:
REMARK  status: ('A' for Active; 'I' for Inactive)
REMARK    1  A    between atoms: C1_2  and  C2_3 
REMARK       I    between atoms: C1_2  and  N2_18 
REMARK    2  A    between atoms: C2_3  and  C3_4 
REMARK    3  A    between atoms: C3_4  and  C4_5 
REMARK    4  A    between atoms: C4_5  and  N1_6 
REMARK    5  A    between atoms: C7_11  and  O2_12 
REMARK    6  A    between atoms: C7_11  and  C8_14 
REMARK    7  A    between atoms: N2_18  and  C10_20 
REMARK    8  A    between atoms: C10_20  and  C11_21 
ROOT
HETATM    1  O1  UNL     1      18.663   4.287  14.259  1.00  0.00    -0.274 OA
HETATM    2  C1  UNL     1      17.875   5.236  14.364  1.00  0.00     0.218 C 
HETATM    3  N2  UNL     1      16.499   5.218  14.429  1.00  0.00    -0.357 N 
ATOM      4  H2  UNL     1      16.134   6.166  14.519  1.00  0.00     0.162 HD
ENDROOT
BRANCH   2   5
HETATM    5  C2  UNL     1      18.473   6.624  14.433  1.00  0.00     0.108 C 
BRANCH   5   6
HETATM    6  C3  UNL     1      17.977   7.589  13.454  1.00  0.00     0.053 C 
BRANCH   6   7
HETATM    7  C4  UNL     1      18.348   7.195  12.044  1.00  0.00     0.059 C 
BRANCH   7   8
HETATM    8  N1  UNL     1      17.374   7.276  11.068  1.00  0.00    -0.384 N 
HETATM    9  C5  UNL     1      17.523   7.204   9.699  1.00  0.00     0.204 C 
HETATM   10  C6  UNL     1      16.102   7.536   9.193  1.00  0.00     0.296 C 
HETATM   11  F1  UNL     1      15.897   6.880   7.969  1.00  0.00    -0.201 F 
HETATM   12  F2  UNL     1      16.110   8.855   8.948  1.00  0.00    -0.201 F 
HETATM   13  C7  UNL     1      15.265   6.996  10.267  1.00  0.00     0.200 C 
HETATM   14  C9  UNL     1      16.174   6.516  11.346  1.00  0.00     0.172 C 
BRANCH  13  15
HETATM   15  O2  UNL     1      14.638   5.817   9.745  1.00  0.00    -0.377 OA
ATOM     16  H2  UNL     1      13.713   6.016   9.659  1.00  0.00     0.211 HD
ENDBRANCH  13  15
BRANCH  13  17
HETATM   17  C8  UNL     1      14.122   7.840  10.729  1.00  0.00     0.395 C 
HETATM   18  F3  UNL     1      13.104   7.801   9.779  1.00  0.00    -0.211 F 
HETATM   19  F4  UNL     1      13.607   7.613  11.944  1.00  0.00    -0.211 F 
ENDBRANCH  13  17
ENDBRANCH   7   8
ENDBRANCH   6   7
ENDBRANCH   5   6
ENDBRANCH   2   5
BRANCH   3  20
HETATM   20  C10 UNL     1      15.444   4.281  14.408  1.00  0.00     0.167 C 
BRANCH  20  21
HETATM   21  C11 UNL     1      15.499   3.171  15.388  1.00  0.00     0.043 A 
HETATM   22  C12 UNL     1      16.097   1.964  15.023  1.00  0.00     0.169 A 
HETATM   23  F5  UNL     1      16.864   2.000  13.877  1.00  0.00    -0.202 F 
HETATM   24  C13 UNL     1      16.002   0.817  15.740  1.00  0.00     0.197 A 
HETATM   25  F6  UNL     1      16.630  -0.325  15.346  1.00  0.00    -0.199 F 
HETATM   26  C14 UNL     1      15.268   0.813  16.923  1.00  0.00     0.199 A 
HETATM   27  F7  UNL     1      15.137  -0.293  17.651  1.00  0.00    -0.199 F 
HETATM   28  C15 UNL     1      14.670   1.995  17.301  1.00  0.00     0.197 A 
HETATM   29  F8  UNL     1      13.916   2.039  18.438  1.00  0.00    -0.199 F 
HETATM   30  C16 UNL     1      14.777   3.173  16.552  1.00  0.00     0.169 A 
HETATM   31  F9  UNL     1      14.108   4.282  16.985  1.00  0.00    -0.202 F 
ENDBRANCH  20  21
ENDBRANCH   3  20
TORSDOF 8
ENDMDL
MODEL 5
REMARK VINA RESULT: -7.648962662      2.466      4.203
REMARK  8 active torsions:
REMARK  status: ('A' for Active; 'I' for Inactive)
REMARK    1  A    between atoms: C1_2  and  C2_3 
REMARK       I    between atoms: C1_2  and  N2_18 
REMARK    2  A    between atoms: C2_3  and  C3_4 
REMARK    3  A    between atoms: C3_4  and  C4_5 
REMARK    4  A    between atoms: C4_5  and  N1_6 
REMARK    5  A    between atoms: C7_11  and  O2_12 
REMARK    6  A    between atoms: C7_11  and  C8_14 
REMARK    7  A    between atoms: N2_18  and  C10_20 
REMARK    8  A    between atoms: C10_20  and  C11_21 
ROOT
HETATM    1  O1  UNL     1      17.480  -0.988  12.422  1.00  0.00    -0.274 OA
HETATM    2  C1  UNL     1      16.865   0.087  12.439  1.00  0.00     0.218 C 
HETATM    3  N2  UNL     1      16.500   0.861  13.518  1.00  0.00    -0.357 N 
ATOM      4  H2  UNL     1      16.005   1.696  13.207  1.00  0.00     0.162 HD
ENDROOT
BRANCH   2   5
HETATM    5  C2  UNL     1      16.441   0.659  11.104  1.00  0.00     0.108 C 
BRANCH   5   6
HETATM    6  C3  UNL     1      15.859   2.000  11.133  1.00  0.00     0.053 C 
BRANCH   6   7
HETATM    7  C4  UNL     1      16.856   3.051  10.703  1.00  0.00     0.059 C 
BRANCH   7   8
HETATM    8  N1  UNL     1      17.503   3.774  11.686  1.00  0.00    -0.384 N 
HETATM    9  C5  UNL     1      18.748   3.552  12.235  1.00  0.00     0.204 C 
HETATM   10  C6  UNL     1      18.796   4.591  13.378  1.00  0.00     0.296 C 
HETATM   11  F1  UNL     1      20.132   4.969  13.584  1.00  0.00    -0.201 F 
HETATM   12  F2  UNL     1      18.389   3.932  14.474  1.00  0.00    -0.201 F 
HETATM   13  C7  UNL     1      17.981   5.678  12.832  1.00  0.00     0.200 C 
HETATM   14  C9  UNL     1      17.422   5.211  11.532  1.00  0.00     0.172 C 
BRANCH  13  15
HETATM   15  O2  UNL     1      18.885   6.740  12.499  1.00  0.00    -0.377 OA
ATOM     16  H2  UNL     1      18.351   7.474  12.220  1.00  0.00     0.211 HD
ENDBRANCH  13  15
BRANCH  13  17
HETATM   17  C8  UNL     1      16.995   6.318  13.754  1.00  0.00     0.395 C 
HETATM   18  F3  UNL     1      17.579   7.429  14.358  1.00  0.00    -0.211 F 
HETATM   19  F4  UNL     1      15.791   6.654  13.273  1.00  0.00    -0.211 F 
ENDBRANCH  13  17
ENDBRANCH   7   8
ENDBRANCH   6   7
ENDBRANCH   5   6
ENDBRANCH   2   5
BRANCH   3  20
HETATM   20  C10 UNL     1      16.605   0.843  14.925  1.00  0.00     0.167 C 
BRANCH  20  21
HETATM   21  C11 UNL     1      15.671   1.702  15.690  1.00  0.00     0.043 A 
HETATM   22  C12 UNL     1      15.323   2.956  15.184  1.00  0.00     0.169 A 
HETATM   23  F5  UNL     1      15.639   3.173  13.858  1.00  0.00    -0.202 F 
HETATM   24  C13 UNL     1      14.672   3.911  15.892  1.00  0.00     0.197 A 
HETATM   25  F6  UNL     1      14.336   5.107  15.335  1.00  0.00    -0.199 F 
HETATM   26  C14 UNL     1      14.313   3.653  17.213  1.00  0.00     0.199 A 
HETATM   27  F7  UNL     1      13.685   4.568  17.948  1.00  0.00    -0.199 F 
HETATM   28  C15 UNL     1      14.647   2.422  17.731  1.00  0.00     0.197 A 
HETATM   29  F8  UNL     1      14.342   2.128  19.028  1.00  0.00    -0.199 F 
HETATM   30  C16 UNL     1      15.318   1.442  16.988  1.00  0.00     0.169 A 
HETATM   31  F9  UNL     1      15.648   0.270  17.605  1.00  0.00    -0.202 F 
ENDBRANCH  20  21
ENDBRANCH   3  20
TORSDOF 8
ENDMDL
