MODEL 1
REMARK VINA RESULT: -7.203664080      0.000      0.000
REMARK  6 active torsions:
REMARK  status: ('A' for Active; 'I' for Inactive)
REMARK    1  A    between atoms: O1_2  and  C2_3 
REMARK    2  A    between atoms: C2_3  and  C3_4 
REMARK       I    between atoms: C3_4  and  N1_6 
REMARK    3  A    between atoms: N1_6  and  C4_8 
REMARK    4  A    between atoms: C4_8  and  C5_9 
REMARK    5  A    between atoms: C5_9  and  N2_10 
REMARK       I    between atoms: N2_10  and  C6_12 
REMARK    6  A    between atoms: C6_12  and  C7_14 
ROOT
HETATM    1  N2  UNL     1      17.611   2.937  13.571  1.00  0.00    -0.359 N 
ATOM      2  H2  UNL     1      17.411   1.937  13.576  1.00  0.00     0.162 HD
HETATM    3  C6  UNL     1      17.141   3.724  14.627  1.00  0.00     0.234 C 
HETATM    4  O3  UNL     1      17.419   4.973  14.578  1.00  0.00    -0.273 OA
ENDROOT
BRANCH   3   5
HETATM    5  C7  UNL     1      16.368   3.250  15.768  1.00  0.00     0.235 C 
HETATM    6  C8  UNL     1      16.446   1.764  16.021  1.00  0.00     0.332 C 
HETATM    7  F1  UNL     1      17.635   1.362  16.555  1.00  0.00    -0.198 F 
HETATM    8  F2  UNL     1      16.019   1.005  14.973  1.00  0.00    -0.198 F 
HETATM    9  C9  UNL     1      15.382   1.619  17.121  1.00  0.00     0.379 C 
HETATM   10  F3  UNL     1      15.047   0.300  17.310  1.00  0.00    -0.192 F 
HETATM   11  F4  UNL     1      15.837   2.230  18.271  1.00  0.00    -0.192 F 
HETATM   12  C10 UNL     1      14.225   2.418  16.517  1.00  0.00     0.379 C 
HETATM   13  F5  UNL     1      13.494   1.553  15.721  1.00  0.00    -0.192 F 
HETATM   14  F6  UNL     1      13.442   2.990  17.499  1.00  0.00    -0.192 F 
HETATM   15  C11 UNL     1      14.881   3.487  15.656  1.00  0.00     0.332 C 
HETATM   16  F7  UNL     1      14.580   4.742  16.191  1.00  0.00    -0.198 F 
HETATM   17  F8  UNL     1      14.442   3.471  14.366  1.00  0.00    -0.198 F 
ENDBRANCH   3   5
BRANCH   1  18
HETATM   18  C5  UNL     1      18.385   3.501  12.453  1.00  0.00     0.142 C 
BRANCH  18  19
HETATM   19  C4  UNL     1      17.424   3.986  11.437  1.00  0.00     0.142 C 
BRANCH  19  20
HETATM   20  N1  UNL     1      17.329   5.438  11.318  1.00  0.00    -0.354 N 
HETATM   21  C3  UNL     1      16.257   6.066  10.654  1.00  0.00     0.277 C 
HETATM   22  O2  UNL     1      15.364   5.262  10.162  1.00  0.00    -0.265 OA
ATOM     23  H1  UNL     1      18.062   6.016  11.728  1.00  0.00     0.162 HD
BRANCH  21  24
HETATM   24  C2  UNL     1      16.063   7.445  10.476  1.00  0.00     0.170 C 
HETATM   25  C12 UNL     1      15.106   8.208  10.828  1.00  0.00     0.142 C 
HETATM   26 CL1  UNL     1      15.180   9.949  10.434  1.00  0.00    -0.068 Cl
HETATM   27 CL2  UNL     1      13.686   7.717  11.681  1.00  0.00    -0.068 Cl
BRANCH  24  28
HETATM   28  O1  UNL     1      17.129   8.110   9.775  1.00  0.00    -0.349 OA
HETATM   29  C1  UNL     1      17.398   7.753   8.436  1.00  0.00     0.210 C 
ENDBRANCH  24  28
ENDBRANCH  21  24
ENDBRANCH  19  20
ENDBRANCH  18  19
ENDBRANCH   1  18
TORSDOF 6
ENDMDL
MODEL 2
REMARK VINA RESULT: -7.190460299      1.418      2.702
REMARK  6 active torsions:
REMARK  status: ('A' for Active; 'I' for Inactive)
REMARK    1  A    between atoms: O1_2  and  C2_3 
REMARK    2  A    between atoms: C2_3  and  C3_4 
REMARK       I    between atoms: C3_4  and  N1_6 
REMARK    3  A    between atoms: N1_6  and  C4_8 
REMARK    4  A    between atoms: C4_8  and  C5_9 
REMARK    5  A    between atoms: C5_9  and  N2_10 
REMARK       I    between atoms: N2_10  and  C6_12 
REMARK    6  A    between atoms: C6_12  and  C7_14 
ROOT
HETATM    1  N2  UNL     1      17.397   3.376  13.455  1.00  0.00    -0.359 N 
ATOM      2  H2  UNL     1      17.155   4.199  14.007  1.00  0.00     0.162 HD
HETATM    3  C6  UNL     1      16.749   2.168  13.728  1.00  0.00     0.234 C 
HETATM    4  O3  UNL     1      17.084   1.162  13.008  1.00  0.00    -0.273 OA
ENDROOT
BRANCH   3   5
HETATM    5  C7  UNL     1      15.732   1.954  14.751  1.00  0.00     0.235 C 
HETATM    6  C8  UNL     1      15.192   3.211  15.388  1.00  0.00     0.332 C 
HETATM    7  F1  UNL     1      14.348   3.915  14.580  1.00  0.00    -0.198 F 
HETATM    8  F2  UNL     1      16.144   3.971  15.997  1.00  0.00    -0.198 F 
HETATM    9  C9  UNL     1      14.341   2.601  16.513  1.00  0.00     0.379 C 
HETATM   10  F3  UNL     1      13.983   3.558  17.432  1.00  0.00    -0.192 F 
HETATM   11  F4  UNL     1      13.257   1.954  15.958  1.00  0.00    -0.192 F 
HETATM   12  C10 UNL     1      15.321   1.585  17.104  1.00  0.00     0.379 C 
HETATM   13  F5  UNL     1      16.077   2.244  18.058  1.00  0.00    -0.192 F 
HETATM   14  F6  UNL     1      14.657   0.500  17.641  1.00  0.00    -0.192 F 
HETATM   15  C11 UNL     1      16.206   1.158  15.944  1.00  0.00     0.332 C 
HETATM   16  F7  UNL     1      15.996  -0.201  15.694  1.00  0.00    -0.198 F 
HETATM   17  F8  UNL     1      17.534   1.332  16.198  1.00  0.00    -0.198 F 
ENDBRANCH   3   5
BRANCH   1  18
HETATM   18  C5  UNL     1      18.417   3.501  12.401  1.00  0.00     0.142 C 
BRANCH  18  19
HETATM   19  C4  UNL     1      18.282   4.847  11.799  1.00  0.00     0.142 C 
BRANCH  19  20
HETATM   20  N1  UNL     1      17.123   5.021  10.928  1.00  0.00    -0.354 N 
HETATM   21  C3  UNL     1      16.637   6.295  10.574  1.00  0.00     0.277 C 
HETATM   22  O2  UNL     1      17.294   7.296  11.075  1.00  0.00    -0.265 OA
ATOM     23  H1  UNL     1      16.651   4.193  10.564  1.00  0.00     0.162 HD
BRANCH  21  24
HETATM   24  C2  UNL     1      15.536   6.582   9.751  1.00  0.00     0.170 C 
HETATM   25  C12 UNL     1      14.396   7.079  10.022  1.00  0.00     0.142 C 
HETATM   26 CL1  UNL     1      13.206   7.315   8.711  1.00  0.00    -0.068 Cl
HETATM   27 CL2  UNL     1      13.855   7.569  11.588  1.00  0.00    -0.068 Cl
BRANCH  24  28
HETATM   28  O1  UNL     1      15.731   6.259   8.362  1.00  0.00    -0.349 OA
HETATM   29  C1  UNL     1      16.760   6.907   7.644  1.00  0.00     0.210 C 
ENDBRANCH  24  28
ENDBRANCH  21  24
ENDBRANCH  19  20
ENDBRANCH  18  19
ENDBRANCH   1  18
TORSDOF 6
ENDMDL
MODEL 3
REMARK VINA RESULT: -7.118926235      5.042      8.394
REMARK  6 active torsions:
REMARK  status: ('A' for Active; 'I' for Inactive)
REMARK    1  A    between atoms: O1_2  and  C2_3 
REMARK    2  A    between atoms: C2_3  and  C3_4 
REMARK       I    between atoms: C3_4  and  N1_6 
REMARK    3  A    between atoms: N1_6  and  C4_8 
REMARK    4  A    between atoms: C4_8  and  C5_9 
REMARK    5  A    between atoms: C5_9  and  N2_10 
REMARK       I    between atoms: N2_10  and  C6_12 
REMARK    6  A    between atoms: C6_12  and  C7_14 
ROOT
HETATM    1  N2  UNL     1      17.242   6.090  11.747  1.00  0.00    -0.359 N 
ATOM      2  H2  UNL     1      17.710   6.965  11.985  1.00  0.00     0.162 HD
HETATM    3  C6  UNL     1      16.218   6.110  10.796  1.00  0.00     0.234 C 
HETATM    4  O3  UNL     1      15.662   4.987  10.529  1.00  0.00    -0.273 OA
ENDROOT
BRANCH   3   5
HETATM    5  C7  UNL     1      15.731   7.288  10.088  1.00  0.00     0.235 C 
HETATM    6  C8  UNL     1      14.231   7.370   9.937  1.00  0.00     0.332 C 
HETATM    7  F1  UNL     1      13.583   7.695  11.092  1.00  0.00    -0.198 F 
HETATM    8  F2  UNL     1      13.687   6.314   9.270  1.00  0.00    -0.198 F 
HETATM    9  C9  UNL     1      14.118   8.580   8.997  1.00  0.00     0.379 C 
HETATM   10  F3  UNL     1      12.855   8.671   8.463  1.00  0.00    -0.192 F 
HETATM   11  F4  UNL     1      14.500   9.717   9.677  1.00  0.00    -0.192 F 
HETATM   12  C10 UNL     1      15.159   8.223   7.933  1.00  0.00     0.379 C 
HETATM   13  F5  UNL     1      14.528   7.445   6.978  1.00  0.00    -0.192 F 
HETATM   14  F6  UNL     1      15.719   9.355   7.377  1.00  0.00    -0.192 F 
HETATM   15  C11 UNL     1      16.211   7.400   8.660  1.00  0.00     0.332 C 
HETATM   16  F7  UNL     1      17.421   8.100   8.643  1.00  0.00    -0.198 F 
HETATM   17  F8  UNL     1      16.428   6.185   8.082  1.00  0.00    -0.198 F 
ENDBRANCH   3   5
BRANCH   1  18
HETATM   18  C5  UNL     1      17.670   4.851  12.417  1.00  0.00     0.142 C 
BRANCH  18  19
HETATM   19  C4  UNL     1      17.453   5.024  13.871  1.00  0.00     0.142 C 
BRANCH  19  20
HETATM   20  N1  UNL     1      16.607   4.011  14.495  1.00  0.00    -0.354 N 
HETATM   21  C3  UNL     1      17.108   3.103  15.448  1.00  0.00     0.277 C 
HETATM   22  O2  UNL     1      18.369   3.235  15.730  1.00  0.00    -0.265 OA
ATOM     23  H1  UNL     1      15.623   3.959  14.233  1.00  0.00     0.162 HD
BRANCH  21  24
HETATM   24  C2  UNL     1      16.394   2.090  16.109  1.00  0.00     0.170 C 
HETATM   25  C12 UNL     1      15.267   2.109  16.699  1.00  0.00     0.142 C 
HETATM   26 CL1  UNL     1      14.641   0.614  17.449  1.00  0.00    -0.068 Cl
HETATM   27 CL2  UNL     1      14.235   3.486  16.858  1.00  0.00    -0.068 Cl
BRANCH  24  28
HETATM   28  O1  UNL     1      17.051   0.809  16.122  1.00  0.00    -0.349 OA
HETATM   29  C1  UNL     1      16.879  -0.061  15.023  1.00  0.00     0.210 C 
ENDBRANCH  24  28
ENDBRANCH  21  24
ENDBRANCH  19  20
ENDBRANCH  18  19
ENDBRANCH   1  18
TORSDOF 6
ENDMDL
MODEL 4
REMARK VINA RESULT: -7.093932675      1.022      1.353
REMARK  6 active torsions:
REMARK  status: ('A' for Active; 'I' for Inactive)
REMARK    1  A    between atoms: O1_2  and  C2_3 
REMARK    2  A    between atoms: C2_3  and  C3_4 
REMARK       I    between atoms: C3_4  and  N1_6 
REMARK    3  A    between atoms: N1_6  and  C4_8 
REMARK    4  A    between atoms: C4_8  and  C5_9 
REMARK    5  A    between atoms: C5_9  and  N2_10 
REMARK       I    between atoms: N2_10  and  C6_12 
REMARK    6  A    between atoms: C6_12  and  C7_14 
ROOT
HETATM    1  N2  UNL     1      17.377   2.735  13.591  1.00  0.00    -0.359 N 
ATOM      2  H2  UNL     1      17.127   1.745  13.596  1.00  0.00     0.162 HD
HETATM    3  C6  UNL     1      17.005   3.530  14.679  1.00  0.00     0.234 C 
HETATM    4  O3  UNL     1      17.342   4.764  14.629  1.00  0.00    -0.273 OA
ENDROOT
BRANCH   3   5
HETATM    5  C7  UNL     1      16.272   3.079  15.856  1.00  0.00     0.235 C 
HETATM    6  C8  UNL     1      16.350   1.597  16.130  1.00  0.00     0.332 C 
HETATM    7  F1  UNL     1      17.556   1.196  16.626  1.00  0.00    -0.198 F 
HETATM    8  F2  UNL     1      15.880   0.824  15.111  1.00  0.00    -0.198 F 
HETATM    9  C9  UNL     1      15.327   1.477  17.271  1.00  0.00     0.379 C 
HETATM   10  F3  UNL     1      14.991   0.163  17.493  1.00  0.00    -0.192 F 
HETATM   11  F4  UNL     1      15.828   2.103  18.393  1.00  0.00    -0.192 F 
HETATM   12  C10 UNL     1      14.153   2.274  16.697  1.00  0.00     0.379 C 
HETATM   13  F5  UNL     1      13.387   1.401  15.943  1.00  0.00    -0.192 F 
HETATM   14  F6  UNL     1      13.410   2.867  17.698  1.00  0.00    -0.192 F 
HETATM   15  C11 UNL     1      14.782   3.324  15.795  1.00  0.00     0.332 C 
HETATM   16  F7  UNL     1      14.509   4.590  16.320  1.00  0.00    -0.198 F 
HETATM   17  F8  UNL     1      14.297   3.290  14.522  1.00  0.00    -0.198 F 
ENDBRANCH   3   5
BRANCH   1  18
HETATM   18  C5  UNL     1      18.116   3.275  12.438  1.00  0.00     0.142 C 
BRANCH  18  19
HETATM   19  C4  UNL     1      17.135   3.583  11.374  1.00  0.00     0.142 C 
BRANCH  19  20
HETATM   20  N1  UNL     1      16.468   4.875  11.503  1.00  0.00    -0.354 N 
HETATM   21  C3  UNL     1      16.283   5.735  10.403  1.00  0.00     0.277 C 
HETATM   22  O2  UNL     1      16.745   5.294   9.272  1.00  0.00    -0.265 OA
ATOM     23  H1  UNL     1      16.125   5.164  12.419  1.00  0.00     0.162 HD
BRANCH  21  24
HETATM   24  C2  UNL     1      15.663   6.995  10.408  1.00  0.00     0.170 C 
HETATM   25  C12 UNL     1      16.143   8.163  10.568  1.00  0.00     0.142 C 
HETATM   26 CL1  UNL     1      15.051   9.577  10.516  1.00  0.00    -0.068 Cl
HETATM   27 CL2  UNL     1      17.806   8.543  10.841  1.00  0.00    -0.068 Cl
BRANCH  24  28
HETATM   28  O1  UNL     1      14.240   6.959  10.197  1.00  0.00    -0.349 OA
HETATM   29  C1  UNL     1      13.743   6.910   8.876  1.00  0.00     0.210 C 
ENDBRANCH  24  28
ENDBRANCH  21  24
ENDBRANCH  19  20
ENDBRANCH  18  19
ENDBRANCH   1  18
TORSDOF 6
ENDMDL
MODEL 5
REMARK VINA RESULT: -7.071649801      2.117      3.448
REMARK  6 active torsions:
REMARK  status: ('A' for Active; 'I' for Inactive)
REMARK    1  A    between atoms: O1_2  and  C2_3 
REMARK    2  A    between atoms: C2_3  and  C3_4 
REMARK       I    between atoms: C3_4  and  N1_6 
REMARK    3  A    between atoms: N1_6  and  C4_8 
REMARK    4  A    between atoms: C4_8  and  C5_9 
REMARK    5  A    between atoms: C5_9  and  N2_10 
REMARK       I    between atoms: N2_10  and  C6_12 
REMARK    6  A    between atoms: C6_12  and  C7_14 
ROOT
HETATM    1  N2  UNL     1      18.280   5.587  11.801  1.00  0.00    -0.359 N 
ATOM      2  H2  UNL     1      18.556   4.639  11.543  1.00  0.00     0.162 HD
HETATM    3  C6  UNL     1      17.226   5.759  12.703  1.00  0.00     0.234 C 
HETATM    4  O3  UNL     1      16.917   6.967  12.999  1.00  0.00    -0.273 OA
ENDROOT
BRANCH   3   5
HETATM    5  C7  UNL     1      16.455   4.693  13.331  1.00  0.00     0.235 C 
HETATM    6  C8  UNL     1      15.661   5.108  14.546  1.00  0.00     0.332 C 
HETATM    7  F1  UNL     1      14.553   5.846  14.249  1.00  0.00    -0.198 F 
HETATM    8  F2  UNL     1      16.423   5.625  15.551  1.00  0.00    -0.198 F 
HETATM    9  C9  UNL     1      15.174   3.735  15.035  1.00  0.00     0.379 C 
HETATM   10  F3  UNL     1      14.676   3.816  16.313  1.00  0.00    -0.192 F 
HETATM   11  F4  UNL     1      14.262   3.232  14.131  1.00  0.00    -0.192 F 
HETATM   12  C10 UNL     1      16.474   2.928  14.983  1.00  0.00     0.379 C 
HETATM   13  F5  UNL     1      17.124   3.108  16.192  1.00  0.00    -0.192 F 
HETATM   14  F6  UNL     1      16.228   1.593  14.732  1.00  0.00    -0.192 F 
HETATM   15  C11 UNL     1      17.288   3.549  13.859  1.00  0.00     0.332 C 
HETATM   16  F7  UNL     1      17.451   2.601  12.844  1.00  0.00    -0.198 F 
HETATM   17  F8  UNL     1      18.530   3.944  14.259  1.00  0.00    -0.198 F 
ENDBRANCH   3   5
BRANCH   1  18
HETATM   18  C5  UNL     1      19.005   6.725  11.211  1.00  0.00     0.142 C 
BRANCH  18  19
HETATM   19  C4  UNL     1      18.712   6.744   9.760  1.00  0.00     0.142 C 
BRANCH  19  20
HETATM   20  N1  UNL     1      17.400   7.273   9.401  1.00  0.00    -0.354 N 
HETATM   21  C3  UNL     1      16.311   6.431   9.101  1.00  0.00     0.277 C 
HETATM   22  O2  UNL     1      16.559   5.159   9.170  1.00  0.00    -0.265 OA
ATOM     23  H1  UNL     1      17.268   8.283   9.365  1.00  0.00     0.162 HD
BRANCH  21  24
HETATM   24  C2  UNL     1      15.011   6.825   8.742  1.00  0.00     0.170 C 
HETATM   25  C12 UNL     1      14.084   7.371   9.421  1.00  0.00     0.142 C 
HETATM   26 CL1  UNL     1      12.522   7.744   8.638  1.00  0.00    -0.068 Cl
HETATM   27 CL2  UNL     1      14.180   7.808  11.090  1.00  0.00    -0.068 Cl
BRANCH  24  28
HETATM   28  O1  UNL     1      14.669   6.565   7.368  1.00  0.00    -0.349 OA
HETATM   29  C1  UNL     1      15.417   7.186   6.344  1.00  0.00     0.210 C 
ENDBRANCH  24  28
ENDBRANCH  21  24
ENDBRANCH  19  20
ENDBRANCH  18  19
ENDBRANCH   1  18
TORSDOF 6
ENDMDL
