MODEL 1
REMARK VINA RESULT: -7.318971215      0.000      0.000
REMARK  8 active torsions:
REMARK  status: ('A' for Active; 'I' for Inactive)
REMARK    1  A    between atoms: N1_4  and  C3_5 
REMARK    2  A    between atoms: C3_5  and  C4_6 
REMARK    3  A    between atoms: C4_6  and  O2_7 
REMARK    4  A    between atoms: O2_7  and  C5_8 
REMARK    5  A    between atoms: C5_8  and  C6_9 
REMARK    6  A    between atoms: C6_9  and  N2_10 
REMARK    7  A    between atoms: C6_9  and  C13_23 
REMARK    8  A    between atoms: N2_10  and  C7_12 
ROOT
HETATM    1  C6  UNL     1      15.016   2.320  15.919  1.00  0.00     0.213 C 
ENDROOT
BRANCH   1   2
HETATM    2  C5  UNL     1      14.796   3.802  16.136  1.00  0.00     0.201 C 
BRANCH   2   3
HETATM    3  O2  UNL     1      14.607   4.535  15.000  1.00  0.00    -0.387 OA
BRANCH   3   4
HETATM    4  C4  UNL     1      15.019   5.839  15.032  1.00  0.00     0.187 C 
BRANCH   4   5
HETATM    5  C3  UNL     1      16.509   5.849  15.304  1.00  0.00     0.143 C 
BRANCH   5   6
HETATM    6  N1  UNL     1      17.315   5.484  14.186  1.00  0.00    -0.401 N 
HETATM    7  C2  UNL     1      18.409   4.631  14.454  1.00  0.00     0.219 C 
HETATM    8  C1  UNL     1      19.354   4.682  13.290  1.00  0.00     0.235 C 
HETATM    9  O1  UNL     1      19.759   3.644  12.705  1.00  0.00    -0.272 OA
HETATM   10  N3  UNL     1      19.770   5.970  12.878  1.00  0.00    -0.358 N 
HETATM   11  C15 UNL     1      18.903   7.083  13.177  1.00  0.00     0.142 C 
ATOM     12  H3  UNL     1      20.653   6.106  12.386  1.00  0.00     0.162 HD
HETATM   13  C14 UNL     1      17.498   6.510  13.217  1.00  0.00     0.137 C 
ENDBRANCH   5   6
ENDBRANCH   4   5
ENDBRANCH   3   4
ENDBRANCH   2   3
ENDBRANCH   1   2
BRANCH   1  14
HETATM   14  N2  UNL     1      16.223   2.060  15.191  1.00  0.00    -0.370 N 
ATOM     15  H2  UNL     1      17.094   2.325  15.650  1.00  0.00     0.160 HD
BRANCH  14  16
HETATM   16  C7  UNL     1      16.341   1.481  13.916  1.00  0.00     0.113 A 
HETATM   17  C8  UNL     1      16.680   0.134  13.809  1.00  0.00     0.187 A 
HETATM   18  F1  UNL     1      16.923  -0.598  14.948  1.00  0.00    -0.200 F 
HETATM   19  C9  UNL     1      16.770  -0.447  12.572  1.00  0.00     0.199 A 
HETATM   20  F2  UNL     1      17.102  -1.768  12.425  1.00  0.00    -0.199 F 
HETATM   21  C10 UNL     1      16.527   0.297  11.443  1.00  0.00     0.199 A 
HETATM   22  F3  UNL     1      16.613  -0.266  10.212  1.00  0.00    -0.199 F 
HETATM   23  C11 UNL     1      16.191   1.624  11.539  1.00  0.00     0.199 A 
HETATM   24  F4  UNL     1      15.940   2.396  10.444  1.00  0.00    -0.199 F 
HETATM   25  C12 UNL     1      16.102   2.203  12.788  1.00  0.00     0.187 A 
HETATM   26  F5  UNL     1      15.732   3.527  12.830  1.00  0.00    -0.200 F 
ENDBRANCH  14  16
ENDBRANCH   1  14
BRANCH   1  27
HETATM   27  C13 UNL     1      14.847   1.569  17.203  1.00  0.00     0.409 C 
HETATM   28  F6  UNL     1      15.748   0.567  17.420  1.00  0.00    -0.169 F 
HETATM   29  F7  UNL     1      13.552   1.031  17.288  1.00  0.00    -0.169 F 
HETATM   30  F8  UNL     1      14.931   2.407  18.306  1.00  0.00    -0.169 F 
ENDBRANCH   1  27
TORSDOF 8
ENDMDL
MODEL 2
REMARK VINA RESULT: -7.231139117      2.444      4.569
REMARK  8 active torsions:
REMARK  status: ('A' for Active; 'I' for Inactive)
REMARK    1  A    between atoms: N1_4  and  C3_5 
REMARK    2  A    between atoms: C3_5  and  C4_6 
REMARK    3  A    between atoms: C4_6  and  O2_7 
REMARK    4  A    between atoms: O2_7  and  C5_8 
REMARK    5  A    between atoms: C5_8  and  C6_9 
REMARK    6  A    between atoms: C6_9  and  N2_10 
REMARK    7  A    between atoms: C6_9  and  C13_23 
REMARK    8  A    between atoms: N2_10  and  C7_12 
ROOT
HETATM    1  C6  UNL     1      15.989   5.654  13.698  1.00  0.00     0.213 C 
ENDROOT
BRANCH   1   2
HETATM    2  C5  UNL     1      15.722   6.382  12.398  1.00  0.00     0.201 C 
BRANCH   2   3
HETATM    3  O2  UNL     1      15.741   5.600  11.278  1.00  0.00    -0.387 OA
BRANCH   3   4
HETATM    4  C4  UNL     1      16.646   5.935  10.309  1.00  0.00     0.187 C 
BRANCH   4   5
HETATM    5  C3  UNL     1      17.786   4.940  10.372  1.00  0.00     0.143 C 
BRANCH   5   6
HETATM    6  N1  UNL     1      18.754   5.214  11.382  1.00  0.00    -0.401 N 
HETATM    7  C2  UNL     1      19.500   6.404  11.229  1.00  0.00     0.219 C 
HETATM    8  C1  UNL     1      20.708   6.330  12.115  1.00  0.00     0.235 C 
HETATM    9  O1  UNL     1      20.998   7.240  12.936  1.00  0.00    -0.272 OA
HETATM   10  N3  UNL     1      21.513   5.175  11.981  1.00  0.00    -0.358 N 
HETATM   11  C15 UNL     1      20.887   3.976  11.481  1.00  0.00     0.142 C 
ATOM     12  H3  UNL     1      22.502   5.190  12.228  1.00  0.00     0.162 HD
HETATM   13  C14 UNL     1      19.429   4.071  11.893  1.00  0.00     0.137 C 
ENDBRANCH   5   6
ENDBRANCH   4   5
ENDBRANCH   3   4
ENDBRANCH   2   3
ENDBRANCH   1   2
BRANCH   1  14
HETATM   14  N2  UNL     1      16.040   4.233  13.515  1.00  0.00    -0.370 N 
ATOM     15  H2  UNL     1      16.244   3.906  12.571  1.00  0.00     0.160 HD
BRANCH  14  16
HETATM   16  C7  UNL     1      15.841   3.241  14.490  1.00  0.00     0.113 A 
HETATM   17  C8  UNL     1      16.414   1.985  14.308  1.00  0.00     0.187 A 
HETATM   18  F1  UNL     1      17.138   1.725  13.168  1.00  0.00    -0.200 F 
HETATM   19  C9  UNL     1      16.249   1.019  15.266  1.00  0.00     0.199 A 
HETATM   20  F2  UNL     1      16.796  -0.229  15.124  1.00  0.00    -0.199 F 
HETATM   21  C10 UNL     1      15.522   1.291  16.400  1.00  0.00     0.199 A 
HETATM   22  F3  UNL     1      15.351   0.344  17.355  1.00  0.00    -0.199 F 
HETATM   23  C11 UNL     1      14.954   2.527  16.587  1.00  0.00     0.199 A 
HETATM   24  F4  UNL     1      14.228   2.837  17.697  1.00  0.00    -0.199 F 
HETATM   25  C12 UNL     1      15.124   3.494  15.618  1.00  0.00     0.187 A 
HETATM   26  F5  UNL     1      14.562   4.724  15.869  1.00  0.00    -0.200 F 
ENDBRANCH  14  16
ENDBRANCH   1  14
BRANCH   1  27
HETATM   27  C13 UNL     1      17.151   6.267  14.414  1.00  0.00     0.409 C 
HETATM   28  F6  UNL     1      18.220   5.441  14.615  1.00  0.00    -0.169 F 
HETATM   29  F7  UNL     1      16.745   6.779  15.658  1.00  0.00    -0.169 F 
HETATM   30  F8  UNL     1      17.645   7.377  13.743  1.00  0.00    -0.169 F 
ENDBRANCH   1  27
TORSDOF 8
ENDMDL
MODEL 3
REMARK VINA RESULT: -7.229282651      4.004      5.668
REMARK  8 active torsions:
REMARK  status: ('A' for Active; 'I' for Inactive)
REMARK    1  A    between atoms: N1_4  and  C3_5 
REMARK    2  A    between atoms: C3_5  and  C4_6 
REMARK    3  A    between atoms: C4_6  and  O2_7 
REMARK    4  A    between atoms: O2_7  and  C5_8 
REMARK    5  A    between atoms: C5_8  and  C6_9 
REMARK    6  A    between atoms: C6_9  and  N2_10 
REMARK    7  A    between atoms: C6_9  and  C13_23 
REMARK    8  A    between atoms: N2_10  and  C7_12 
ROOT
HETATM    1  C6  UNL     1      16.701   5.351  13.856  1.00  0.00     0.213 C 
ENDROOT
BRANCH   1   2
HETATM    2  C5  UNL     1      16.425   6.364  12.766  1.00  0.00     0.201 C 
BRANCH   2   3
HETATM    3  O2  UNL     1      15.293   6.140  12.035  1.00  0.00    -0.387 OA
BRANCH   3   4
HETATM    4  C4  UNL     1      14.441   7.199  11.878  1.00  0.00     0.187 C 
BRANCH   4   5
HETATM    5  C3  UNL     1      14.859   7.950  10.632  1.00  0.00     0.143 C 
BRANCH   5   6
HETATM    6  N1  UNL     1      14.459   7.335   9.409  1.00  0.00    -0.401 N 
HETATM    7  C2  UNL     1      15.472   7.144   8.443  1.00  0.00     0.219 C 
HETATM    8  C1  UNL     1      14.825   6.878   7.116  1.00  0.00     0.235 C 
HETATM    9  O1  UNL     1      15.120   5.878   6.411  1.00  0.00    -0.272 OA
HETATM   10  N3  UNL     1      13.855   7.817   6.693  1.00  0.00    -0.358 N 
HETATM   11  C15 UNL     1      13.174   8.581   7.709  1.00  0.00     0.142 C 
ATOM     12  H3  UNL     1      13.645   7.950   5.704  1.00  0.00     0.162 HD
HETATM   13  C14 UNL     1      13.165   7.703   8.947  1.00  0.00     0.137 C 
ENDBRANCH   5   6
ENDBRANCH   4   5
ENDBRANCH   3   4
ENDBRANCH   2   3
ENDBRANCH   1   2
BRANCH   1  14
HETATM   14  N2  UNL     1      15.822   4.221  13.770  1.00  0.00    -0.370 N 
ATOM     15  H2  UNL     1      15.227   4.172  12.944  1.00  0.00     0.160 HD
BRANCH  14  16
HETATM   16  C7  UNL     1      15.690   3.174  14.698  1.00  0.00     0.113 A 
HETATM   17  C8  UNL     1      16.296   1.949  14.431  1.00  0.00     0.187 A 
HETATM   18  F1  UNL     1      16.987   1.773  13.256  1.00  0.00    -0.200 F 
HETATM   19  C9  UNL     1      16.196   0.930  15.342  1.00  0.00     0.199 A 
HETATM   20  F2  UNL     1      16.778  -0.290  15.116  1.00  0.00    -0.199 F 
HETATM   21  C10 UNL     1      15.501   1.118  16.512  1.00  0.00     0.199 A 
HETATM   22  F3  UNL     1      15.395   0.118  17.422  1.00  0.00    -0.199 F 
HETATM   23  C11 UNL     1      14.901   2.323  16.783  1.00  0.00     0.199 A 
HETATM   24  F4  UNL     1      14.204   2.551  17.932  1.00  0.00    -0.199 F 
HETATM   25  C12 UNL     1      15.006   3.344  15.862  1.00  0.00     0.187 A 
HETATM   26  F5  UNL     1      14.413   4.540  16.196  1.00  0.00    -0.200 F 
ENDBRANCH  14  16
ENDBRANCH   1  14
BRANCH   1  27
HETATM   27  C13 UNL     1      18.164   5.042  13.928  1.00  0.00     0.409 C 
HETATM   28  F6  UNL     1      18.566   4.359  15.040  1.00  0.00    -0.169 F 
HETATM   29  F7  UNL     1      18.918   6.223  13.834  1.00  0.00    -0.169 F 
HETATM   30  F8  UNL     1      18.588   4.290  12.842  1.00  0.00    -0.169 F 
ENDBRANCH   1  27
TORSDOF 8
ENDMDL
MODEL 4
REMARK VINA RESULT: -7.196152725      4.008      5.817
REMARK  8 active torsions:
REMARK  status: ('A' for Active; 'I' for Inactive)
REMARK    1  A    between atoms: N1_4  and  C3_5 
REMARK    2  A    between atoms: C3_5  and  C4_6 
REMARK    3  A    between atoms: C4_6  and  O2_7 
REMARK    4  A    between atoms: O2_7  and  C5_8 
REMARK    5  A    between atoms: C5_8  and  C6_9 
REMARK    6  A    between atoms: C6_9  and  N2_10 
REMARK    7  A    between atoms: C6_9  and  C13_23 
REMARK    8  A    between atoms: N2_10  and  C7_12 
ROOT
HETATM    1  C6  UNL     1      16.689   5.357  13.814  1.00  0.00     0.213 C 
ENDROOT
BRANCH   1   2
HETATM    2  C5  UNL     1      16.396   6.345  12.706  1.00  0.00     0.201 C 
BRANCH   2   3
HETATM    3  O2  UNL     1      15.231   6.129  12.026  1.00  0.00    -0.387 OA
BRANCH   3   4
HETATM    4  C4  UNL     1      14.398   7.203  11.873  1.00  0.00     0.187 C 
BRANCH   4   5
HETATM    5  C3  UNL     1      14.829   7.953  10.630  1.00  0.00     0.143 C 
BRANCH   5   6
HETATM    6  N1  UNL     1      14.440   7.337   9.404  1.00  0.00    -0.401 N 
HETATM    7  C2  UNL     1      15.462   7.147   8.446  1.00  0.00     0.219 C 
HETATM    8  C1  UNL     1      14.826   6.881   7.114  1.00  0.00     0.235 C 
HETATM    9  O1  UNL     1      15.129   5.881   6.411  1.00  0.00    -0.272 OA
HETATM   10  N3  UNL     1      13.859   7.819   6.683  1.00  0.00    -0.358 N 
HETATM   11  C15 UNL     1      13.169   8.582   7.694  1.00  0.00     0.142 C 
ATOM     12  H3  UNL     1      13.657   7.951   5.692  1.00  0.00     0.162 HD
HETATM   13  C14 UNL     1      13.150   7.703   8.931  1.00  0.00     0.137 C 
ENDBRANCH   5   6
ENDBRANCH   4   5
ENDBRANCH   3   4
ENDBRANCH   2   3
ENDBRANCH   1   2
BRANCH   1  14
HETATM   14  N2  UNL     1      15.795   4.237  13.782  1.00  0.00    -0.370 N 
ATOM     15  H2  UNL     1      15.147   4.198  12.996  1.00  0.00     0.160 HD
BRANCH  14  16
HETATM   16  C7  UNL     1      15.712   3.187  14.713  1.00  0.00     0.113 A 
HETATM   17  C8  UNL     1      15.005   3.383  15.897  1.00  0.00     0.187 A 
HETATM   18  F1  UNL     1      14.428   4.605  16.151  1.00  0.00    -0.200 F 
HETATM   19  C9  UNL     1      14.894   2.357  16.798  1.00  0.00     0.199 A 
HETATM   20  F2  UNL     1      14.209   2.510  17.975  1.00  0.00    -0.199 F 
HETATM   21  C10 UNL     1      15.477   1.142  16.533  1.00  0.00     0.199 A 
HETATM   22  F3  UNL     1      15.375   0.118  17.416  1.00  0.00    -0.199 F 
HETATM   23  C11 UNL     1      16.174   0.940  15.368  1.00  0.00     0.199 A 
HETATM   24  F4  UNL     1      16.765  -0.250  15.066  1.00  0.00    -0.199 F 
HETATM   25  C12 UNL     1      16.282   1.977  14.465  1.00  0.00     0.187 A 
HETATM   26  F5  UNL     1      16.964   1.713  13.300  1.00  0.00    -0.200 F 
ENDBRANCH  14  16
ENDBRANCH   1  14
BRANCH   1  27
HETATM   27  C13 UNL     1      18.150   5.032  13.856  1.00  0.00     0.409 C 
HETATM   28  F6  UNL     1      18.578   4.395  14.985  1.00  0.00    -0.169 F 
HETATM   29  F7  UNL     1      18.915   6.197  13.683  1.00  0.00    -0.169 F 
HETATM   30  F8  UNL     1      18.530   4.225  12.793  1.00  0.00    -0.169 F 
ENDBRANCH   1  27
TORSDOF 8
ENDMDL
MODEL 5
REMARK VINA RESULT: -7.190445480      3.858      5.886
REMARK  8 active torsions:
REMARK  status: ('A' for Active; 'I' for Inactive)
REMARK    1  A    between atoms: N1_4  and  C3_5 
REMARK    2  A    between atoms: C3_5  and  C4_6 
REMARK    3  A    between atoms: C4_6  and  O2_7 
REMARK    4  A    between atoms: O2_7  and  C5_8 
REMARK    5  A    between atoms: C5_8  and  C6_9 
REMARK    6  A    between atoms: C6_9  and  N2_10 
REMARK    7  A    between atoms: C6_9  and  C13_23 
REMARK    8  A    between atoms: N2_10  and  C7_12 
ROOT
HETATM    1  C6  UNL     1      16.580   5.200  13.933  1.00  0.00     0.213 C 
ENDROOT
BRANCH   1   2
HETATM    2  C5  UNL     1      16.240   6.186  12.837  1.00  0.00     0.201 C 
BRANCH   2   3
HETATM    3  O2  UNL     1      15.756   5.634  11.686  1.00  0.00    -0.387 OA
BRANCH   3   4
HETATM    4  C4  UNL     1      16.321   6.057  10.514  1.00  0.00     0.187 C 
BRANCH   4   5
HETATM    5  C3  UNL     1      16.044   7.539  10.373  1.00  0.00     0.143 C 
BRANCH   5   6
HETATM    6  N1  UNL     1      15.088   7.868   9.368  1.00  0.00    -0.401 N 
HETATM    7  C2  UNL     1      13.818   7.261   9.487  1.00  0.00     0.219 C 
HETATM    8  C1  UNL     1      13.102   7.384   8.174  1.00  0.00     0.235 C 
HETATM    9  O1  UNL     1      11.941   7.863   8.083  1.00  0.00    -0.272 OA
HETATM   10  N3  UNL     1      13.804   6.931   7.033  1.00  0.00    -0.358 N 
HETATM   11  C15 UNL     1      15.246   6.923   7.093  1.00  0.00     0.142 C 
ATOM     12  H3  UNL     1      13.309   6.621   6.198  1.00  0.00     0.162 HD
HETATM   13  C14 UNL     1      15.624   8.030   8.060  1.00  0.00     0.137 C 
ENDBRANCH   5   6
ENDBRANCH   4   5
ENDBRANCH   3   4
ENDBRANCH   2   3
ENDBRANCH   1   2
BRANCH   1  14
HETATM   14  N2  UNL     1      15.690   4.076  13.936  1.00  0.00    -0.370 N 
ATOM     15  H2  UNL     1      15.017   4.029  13.171  1.00  0.00     0.160 HD
BRANCH  14  16
HETATM   16  C7  UNL     1      15.641   3.031  14.874  1.00  0.00     0.113 A 
HETATM   17  C8  UNL     1      14.954   3.222  16.070  1.00  0.00     0.187 A 
HETATM   18  F1  UNL     1      14.362   4.437  16.328  1.00  0.00    -0.200 F 
HETATM   19  C9  UNL     1      14.877   2.200  16.979  1.00  0.00     0.199 A 
HETATM   20  F2  UNL     1      14.211   2.350  18.168  1.00  0.00    -0.199 F 
HETATM   21  C10 UNL     1      15.473   0.992  16.710  1.00  0.00     0.199 A 
HETATM   22  F3  UNL     1      15.404  -0.027  17.601  1.00  0.00    -0.199 F 
HETATM   23  C11 UNL     1      16.152   0.795  15.533  1.00  0.00     0.199 A 
HETATM   24  F4  UNL     1      16.756  -0.388  15.227  1.00  0.00    -0.199 F 
HETATM   25  C12 UNL     1      16.226   1.828  14.622  1.00  0.00     0.187 A 
HETATM   26  F5  UNL     1      16.889   1.568  13.446  1.00  0.00    -0.200 F 
ENDBRANCH  14  16
ENDBRANCH   1  14
BRANCH   1  27
HETATM   27  C13 UNL     1      18.042   4.881  13.919  1.00  0.00     0.409 C 
HETATM   28  F6  UNL     1      18.523   4.278  15.045  1.00  0.00    -0.169 F 
HETATM   29  F7  UNL     1      18.794   6.043  13.679  1.00  0.00    -0.169 F 
HETATM   30  F8  UNL     1      18.378   4.045  12.863  1.00  0.00    -0.169 F 
ENDBRANCH   1  27
TORSDOF 8
ENDMDL
