MODEL 1
REMARK VINA RESULT: -5.583646157      0.000      0.000
REMARK  10 active torsions:
REMARK  status: ('A' for Active; 'I' for Inactive)
REMARK    1  A    between atoms: C2_2  and  C4_4 
REMARK    2  A    between atoms: C2_2  and  C5_6 
REMARK    3  A    between atoms: C5_6  and  C6_7 
REMARK    4  A    between atoms: C5_6  and  C7_9 
REMARK    5  A    between atoms: C5_6  and  N4_22 
REMARK    6  A    between atoms: C7_9  and  O1_10 
REMARK    7  A    between atoms: O1_10  and  C8_11 
REMARK    8  A    between atoms: C11_18  and  N3_19 
REMARK    9  A    between atoms: N4_22  and  C12_24 
REMARK   10  A    between atoms: C12_24  and  C13_25 
ROOT
HETATM    1  C5  UNL     1      -4.286 -35.343 -28.705  1.00  0.00     0.068 C 
ENDROOT
BRANCH   1   2
HETATM    2  C2  UNL     1      -4.950 -36.716 -28.687  1.00  0.00    -0.011 C 
HETATM    3  C1  UNL     1      -5.609 -37.047 -27.371  1.00  0.00     0.018 C 
HETATM    4  C3  UNL     1      -3.798 -37.777 -28.765  1.00  0.00     0.018 C 
BRANCH   2   5
HETATM    5  C4  UNL     1      -5.858 -37.033 -29.799  1.00  0.00     0.096 C 
HETATM    6 BR1  UNL     1      -4.838 -38.126 -31.083  1.00  0.00    -0.096 Br
ENDBRANCH   2   5
ENDBRANCH   1   2
BRANCH   1   7
HETATM    7  C6  UNL     1      -4.515 -34.545 -29.937  1.00  0.00     0.119 C 
HETATM    8 BR2  UNL     1      -3.057 -34.524 -31.168  1.00  0.00    -0.094 Br
ENDBRANCH   1   7
BRANCH   1   9
HETATM    9  C7  UNL     1      -2.782 -35.554 -28.637  1.00  0.00     0.208 C 
BRANCH   9  10
HETATM   10  O1  UNL     1      -2.323 -35.151 -27.371  1.00  0.00    -0.344 OA
BRANCH  10  11
HETATM   11  C8  UNL     1      -1.106 -35.487 -26.850  1.00  0.00     0.127 A 
HETATM   12  C9  UNL     1       0.012 -35.402 -27.698  1.00  0.00     0.129 A 
HETATM   13  N1  UNL     1       1.207 -35.728 -27.189  1.00  0.00    -0.359 N 
HETATM   14  C10 UNL     1       1.420 -36.133 -25.919  1.00  0.00     0.182 A 
ATOM     15  H1  UNL     1       2.017 -35.664 -27.806  1.00  0.00     0.166 HD
HETATM   16  N2  UNL     1       0.359 -36.222 -25.090  1.00  0.00    -0.337 N 
HETATM   17  C11 UNL     1      -0.856 -35.903 -25.570  1.00  0.00     0.135 A 
ATOM     18  H2  UNL     1       0.476 -36.525 -24.124  1.00  0.00     0.168 HD
BRANCH  17  19
HETATM   19  N3  UNL     1      -1.844 -36.008 -24.746  1.00  0.00    -0.383 N 
ATOM     20  H32 UNL     1      -1.906 -35.296 -24.018  1.00  0.00     0.157 HD
ATOM     21  H31 UNL     1      -2.497 -36.782 -24.859  1.00  0.00     0.157 HD
ENDBRANCH  17  19
ENDBRANCH  10  11
ENDBRANCH   9  10
ENDBRANCH   1   9
BRANCH   1  22
HETATM   22  N4  UNL     1      -4.767 -34.701 -27.512  1.00  0.00    -0.389 N 
ATOM     23  H4  UNL     1      -4.647 -35.128 -26.593  1.00  0.00     0.159 HD
BRANCH  22  24
HETATM   24  C12 UNL     1      -5.409 -33.462 -27.666  1.00  0.00     0.067 C 
BRANCH  24  25
HETATM   25  C13 UNL     1      -5.723 -32.890 -26.298  1.00  0.00     0.130 C 
HETATM   26  S1  UNL     1      -4.862 -33.758 -24.966  1.00  0.00    -0.092 SA
ENDBRANCH  24  25
ENDBRANCH  22  24
ENDBRANCH   1  22
TORSDOF 10
ENDMDL
MODEL 2
REMARK VINA RESULT: -5.577723348      1.117      1.423
REMARK  10 active torsions:
REMARK  status: ('A' for Active; 'I' for Inactive)
REMARK    1  A    between atoms: C2_2  and  C4_4 
REMARK    2  A    between atoms: C2_2  and  C5_6 
REMARK    3  A    between atoms: C5_6  and  C6_7 
REMARK    4  A    between atoms: C5_6  and  C7_9 
REMARK    5  A    between atoms: C5_6  and  N4_22 
REMARK    6  A    between atoms: C7_9  and  O1_10 
REMARK    7  A    between atoms: O1_10  and  C8_11 
REMARK    8  A    between atoms: C11_18  and  N3_19 
REMARK    9  A    between atoms: N4_22  and  C12_24 
REMARK   10  A    between atoms: C12_24  and  C13_25 
ROOT
HETATM    1  C5  UNL     1      -4.282 -35.430 -28.746  1.00  0.00     0.068 C 
ENDROOT
BRANCH   1   2
HETATM    2  C2  UNL     1      -4.823 -36.842 -28.543  1.00  0.00    -0.011 C 
HETATM    3  C1  UNL     1      -3.753 -37.906 -28.579  1.00  0.00     0.018 C 
HETATM    4  C3  UNL     1      -5.682 -37.184 -29.809  1.00  0.00     0.018 C 
BRANCH   2   5
HETATM    5  C4  UNL     1      -5.709 -37.059 -27.391  1.00  0.00     0.096 C 
HETATM    6 BR1  UNL     1      -4.661 -38.025 -26.031  1.00  0.00    -0.096 Br
ENDBRANCH   2   5
ENDBRANCH   1   2
BRANCH   1   7
HETATM    7  C6  UNL     1      -4.593 -34.817 -30.063  1.00  0.00     0.119 C 
HETATM    8 BR2  UNL     1      -3.080 -34.480 -31.175  1.00  0.00    -0.094 Br
ENDBRANCH   1   7
BRANCH   1   9
HETATM    9  C7  UNL     1      -2.765 -35.502 -28.685  1.00  0.00     0.208 C 
BRANCH   9  10
HETATM   10  O1  UNL     1      -2.344 -35.127 -27.397  1.00  0.00    -0.344 OA
BRANCH  10  11
HETATM   11  C8  UNL     1      -1.140 -35.468 -26.850  1.00  0.00     0.127 A 
HETATM   12  C9  UNL     1      -0.009 -35.423 -27.684  1.00  0.00     0.129 A 
HETATM   13  N1  UNL     1       1.173 -35.754 -27.150  1.00  0.00    -0.359 N 
HETATM   14  C10 UNL     1       1.362 -36.130 -25.867  1.00  0.00     0.182 A 
ATOM     15  H1  UNL     1       1.993 -35.719 -27.757  1.00  0.00     0.166 HD
HETATM   16  N2  UNL     1       0.289 -36.182 -25.052  1.00  0.00    -0.337 N 
HETATM   17  C11 UNL     1      -0.914 -35.855 -25.556  1.00  0.00     0.135 A 
ATOM     18  H2  UNL     1       0.388 -36.461 -24.076  1.00  0.00     0.168 HD
BRANCH  17  19
HETATM   19  N3  UNL     1      -1.915 -35.924 -24.744  1.00  0.00    -0.383 N 
ATOM     20  H32 UNL     1      -2.638 -36.607 -24.971  1.00  0.00     0.157 HD
ATOM     21  H31 UNL     1      -1.934 -35.303 -23.935  1.00  0.00     0.157 HD
ENDBRANCH  17  19
ENDBRANCH  10  11
ENDBRANCH   9  10
ENDBRANCH   1   9
BRANCH   1  22
HETATM   22  N4  UNL     1      -4.805 -34.687 -27.632  1.00  0.00    -0.389 N 
ATOM     23  H4  UNL     1      -4.769 -35.056 -26.682  1.00  0.00     0.159 HD
BRANCH  22  24
HETATM   24  C12 UNL     1      -5.368 -33.431 -27.909  1.00  0.00     0.067 C 
BRANCH  24  25
HETATM   25  C13 UNL     1      -5.721 -32.745 -26.605  1.00  0.00     0.130 C 
HETATM   26  S1  UNL     1      -5.056 -33.608 -25.162  1.00  0.00    -0.092 SA
ENDBRANCH  24  25
ENDBRANCH  22  24
ENDBRANCH   1  22
TORSDOF 10
ENDMDL
MODEL 3
REMARK VINA RESULT: -5.532839992      1.507      2.279
REMARK  10 active torsions:
REMARK  status: ('A' for Active; 'I' for Inactive)
REMARK    1  A    between atoms: C2_2  and  C4_4 
REMARK    2  A    between atoms: C2_2  and  C5_6 
REMARK    3  A    between atoms: C5_6  and  C6_7 
REMARK    4  A    between atoms: C5_6  and  C7_9 
REMARK    5  A    between atoms: C5_6  and  N4_22 
REMARK    6  A    between atoms: C7_9  and  O1_10 
REMARK    7  A    between atoms: O1_10  and  C8_11 
REMARK    8  A    between atoms: C11_18  and  N3_19 
REMARK    9  A    between atoms: N4_22  and  C12_24 
REMARK   10  A    between atoms: C12_24  and  C13_25 
ROOT
HETATM    1  C5  UNL     1      -4.128 -35.437 -28.740  1.00  0.00     0.068 C 
ENDROOT
BRANCH   1   2
HETATM    2  C2  UNL     1      -4.234 -35.613 -30.251  1.00  0.00    -0.011 C 
HETATM    3  C1  UNL     1      -3.799 -34.395 -31.030  1.00  0.00     0.018 C 
HETATM    4  C3  UNL     1      -5.762 -35.704 -30.590  1.00  0.00     0.018 C 
BRANCH   2   5
HETATM    5  C4  UNL     1      -3.626 -36.821 -30.827  1.00  0.00     0.096 C 
HETATM    6 BR1  UNL     1      -5.074 -38.136 -31.068  1.00  0.00    -0.096 Br
ENDBRANCH   2   5
ENDBRANCH   1   2
BRANCH   1   7
HETATM    7  C6  UNL     1      -3.970 -34.033 -28.277  1.00  0.00     0.119 C 
HETATM    8 BR2  UNL     1      -5.530 -33.261 -27.497  1.00  0.00    -0.094 Br
ENDBRANCH   1   7
BRANCH   1   9
HETATM    9  C7  UNL     1      -2.872 -36.156 -28.277  1.00  0.00     0.208 C 
BRANCH   9  10
HETATM   10  O1  UNL     1      -2.035 -35.235 -27.623  1.00  0.00    -0.344 OA
BRANCH  10  11
HETATM   11  C8  UNL     1      -0.827 -35.548 -27.070  1.00  0.00     0.127 A 
HETATM   12  C9  UNL     1       0.313 -35.431 -27.885  1.00  0.00     0.129 A 
HETATM   13  N1  UNL     1       1.500 -35.734 -27.345  1.00  0.00    -0.359 N 
HETATM   14  C10 UNL     1       1.686 -36.148 -26.074  1.00  0.00     0.182 A 
ATOM     15  H1  UNL     1       2.325 -35.647 -27.939  1.00  0.00     0.166 HD
HETATM   16  N2  UNL     1       0.605 -36.269 -25.277  1.00  0.00    -0.337 N 
HETATM   17  C11 UNL     1      -0.603 -35.972 -25.787  1.00  0.00     0.135 A 
ATOM     18  H2  UNL     1       0.702 -36.578 -24.310  1.00  0.00     0.168 HD
BRANCH  17  19
HETATM   19  N3  UNL     1      -1.611 -36.107 -24.992  1.00  0.00    -0.383 N 
ATOM     20  H32 UNL     1      -1.724 -35.389 -24.276  1.00  0.00     0.157 HD
ATOM     21  H31 UNL     1      -2.229 -36.908 -25.115  1.00  0.00     0.157 HD
ENDBRANCH  17  19
ENDBRANCH  10  11
ENDBRANCH   9  10
ENDBRANCH   1   9
BRANCH   1  22
HETATM   22  N4  UNL     1      -5.305 -36.079 -28.225  1.00  0.00    -0.389 N 
ATOM     23  H4  UNL     1      -6.238 -35.812 -28.539  1.00  0.00     0.159 HD
BRANCH  22  24
HETATM   24  C12 UNL     1      -5.116 -37.091 -27.270  1.00  0.00     0.067 C 
BRANCH  24  25
HETATM   25  C13 UNL     1      -6.086 -36.882 -26.124  1.00  0.00     0.130 C 
HETATM   26  S1  UNL     1      -5.334 -36.020 -24.724  1.00  0.00    -0.092 SA
ENDBRANCH  24  25
ENDBRANCH  22  24
ENDBRANCH   1  22
TORSDOF 10
ENDMDL
MODEL 4
REMARK VINA RESULT: -5.501744764      0.905      1.626
REMARK  10 active torsions:
REMARK  status: ('A' for Active; 'I' for Inactive)
REMARK    1  A    between atoms: C2_2  and  C4_4 
REMARK    2  A    between atoms: C2_2  and  C5_6 
REMARK    3  A    between atoms: C5_6  and  C6_7 
REMARK    4  A    between atoms: C5_6  and  C7_9 
REMARK    5  A    between atoms: C5_6  and  N4_22 
REMARK    6  A    between atoms: C7_9  and  O1_10 
REMARK    7  A    between atoms: O1_10  and  C8_11 
REMARK    8  A    between atoms: C11_18  and  N3_19 
REMARK    9  A    between atoms: N4_22  and  C12_24 
REMARK   10  A    between atoms: C12_24  and  C13_25 
ROOT
HETATM    1  C5  UNL     1      -4.008 -35.411 -28.620  1.00  0.00     0.068 C 
ENDROOT
BRANCH   1   2
HETATM    2  C2  UNL     1      -4.774 -36.729 -28.596  1.00  0.00    -0.011 C 
HETATM    3  C1  UNL     1      -5.355 -37.062 -27.244  1.00  0.00     0.018 C 
HETATM    4  C3  UNL     1      -3.718 -37.870 -28.800  1.00  0.00     0.018 C 
BRANCH   2   5
HETATM    5  C4  UNL     1      -5.786 -36.933 -29.643  1.00  0.00     0.096 C 
HETATM    6 BR1  UNL     1      -4.968 -38.082 -31.020  1.00  0.00    -0.096 Br
ENDBRANCH   2   5
ENDBRANCH   1   2
BRANCH   1   7
HETATM    7  C6  UNL     1      -2.936 -35.320 -29.645  1.00  0.00     0.119 C 
HETATM    8 BR2  UNL     1      -3.416 -34.380 -31.234  1.00  0.00    -0.094 Br
ENDBRANCH   1   7
BRANCH   1   9
HETATM    9  C7  UNL     1      -3.299 -35.262 -27.284  1.00  0.00     0.208 C 
BRANCH   9  10
HETATM   10  O1  UNL     1      -1.911 -35.313 -27.497  1.00  0.00    -0.344 OA
BRANCH  10  11
HETATM   11  C8  UNL     1      -0.989 -35.559 -26.521  1.00  0.00     0.127 A 
HETATM   12  C9  UNL     1      -1.459 -35.713 -25.204  1.00  0.00     0.129 A 
HETATM   13  N1  UNL     1      -0.558 -35.958 -24.245  1.00  0.00    -0.359 N 
HETATM   14  C10 UNL     1       0.772 -36.068 -24.446  1.00  0.00     0.182 A 
ATOM     15  H1  UNL     1      -0.902 -36.069 -23.291  1.00  0.00     0.166 HD
HETATM   16  N2  UNL     1       1.243 -35.922 -25.701  1.00  0.00    -0.337 N 
HETATM   17  C11 UNL     1       0.365 -35.675 -26.690  1.00  0.00     0.135 A 
ATOM     18  H2  UNL     1       2.241 -35.997 -25.896  1.00  0.00     0.168 HD
BRANCH  17  19
HETATM   19  N3  UNL     1       0.858 -35.537 -27.874  1.00  0.00    -0.383 N 
ATOM     20  H32 UNL     1       0.792 -36.346 -28.491  1.00  0.00     0.157 HD
ATOM     21  H31 UNL     1       1.283 -34.645 -28.128  1.00  0.00     0.157 HD
ENDBRANCH  17  19
ENDBRANCH  10  11
ENDBRANCH   9  10
ENDBRANCH   1   9
BRANCH   1  22
HETATM   22  N4  UNL     1      -5.029 -34.410 -28.771  1.00  0.00    -0.389 N 
ATOM     23  H4  UNL     1      -5.722 -34.466 -29.518  1.00  0.00     0.159 HD
BRANCH  22  24
HETATM   24  C12 UNL     1      -5.031 -33.353 -27.848  1.00  0.00     0.067 C 
BRANCH  24  25
HETATM   25  C13 UNL     1      -6.362 -33.328 -27.123  1.00  0.00     0.130 C 
HETATM   26  S1  UNL     1      -6.199 -33.674 -25.356  1.00  0.00    -0.092 SA
ENDBRANCH  24  25
ENDBRANCH  22  24
ENDBRANCH   1  22
TORSDOF 10
ENDMDL
MODEL 5
REMARK VINA RESULT: -5.499319319      1.614      2.680
REMARK  10 active torsions:
REMARK  status: ('A' for Active; 'I' for Inactive)
REMARK    1  A    between atoms: C2_2  and  C4_4 
REMARK    2  A    between atoms: C2_2  and  C5_6 
REMARK    3  A    between atoms: C5_6  and  C6_7 
REMARK    4  A    between atoms: C5_6  and  C7_9 
REMARK    5  A    between atoms: C5_6  and  N4_22 
REMARK    6  A    between atoms: C7_9  and  O1_10 
REMARK    7  A    between atoms: O1_10  and  C8_11 
REMARK    8  A    between atoms: C11_18  and  N3_19 
REMARK    9  A    between atoms: N4_22  and  C12_24 
REMARK   10  A    between atoms: C12_24  and  C13_25 
ROOT
HETATM    1  C5  UNL     1      -4.098 -35.494 -28.723  1.00  0.00     0.068 C 
ENDROOT
BRANCH   1   2
HETATM    2  C2  UNL     1      -4.227 -35.636 -30.235  1.00  0.00    -0.011 C 
HETATM    3  C1  UNL     1      -3.804 -34.401 -30.993  1.00  0.00     0.018 C 
HETATM    4  C3  UNL     1      -5.760 -35.718 -30.553  1.00  0.00     0.018 C 
BRANCH   2   5
HETATM    5  C4  UNL     1      -3.630 -36.831 -30.848  1.00  0.00     0.096 C 
HETATM    6 BR1  UNL     1      -5.080 -38.145 -31.082  1.00  0.00    -0.096 Br
ENDBRANCH   2   5
ENDBRANCH   1   2
BRANCH   1   7
HETATM    7  C6  UNL     1      -3.903 -34.105 -28.232  1.00  0.00     0.119 C 
HETATM    8 BR2  UNL     1      -5.468 -33.271 -27.527  1.00  0.00    -0.094 Br
ENDBRANCH   1   7
BRANCH   1   9
HETATM    9  C7  UNL     1      -2.851 -36.250 -28.291  1.00  0.00     0.208 C 
BRANCH   9  10
HETATM   10  O1  UNL     1      -1.899 -35.328 -27.824  1.00  0.00    -0.344 OA
BRANCH  10  11
HETATM   11  C8  UNL     1      -1.033 -35.569 -26.797  1.00  0.00     0.127 A 
HETATM   12  C9  UNL     1      -1.576 -35.733 -25.510  1.00  0.00     0.129 A 
HETATM   13  N1  UNL     1      -0.728 -35.972 -24.501  1.00  0.00    -0.359 N 
HETATM   14  C10 UNL     1       0.612 -36.068 -24.626  1.00  0.00     0.182 A 
ATOM     15  H1  UNL     1      -1.126 -36.092 -23.569  1.00  0.00     0.166 HD
HETATM   16  N2  UNL     1       1.153 -35.912 -25.852  1.00  0.00    -0.337 N 
HETATM   17  C11 UNL     1       0.330 -35.670 -26.888  1.00  0.00     0.135 A 
ATOM     18  H2  UNL     1       2.161 -35.976 -25.989  1.00  0.00     0.168 HD
BRANCH  17  19
HETATM   19  N3  UNL     1       0.889 -35.521 -28.042  1.00  0.00    -0.383 N 
ATOM     20  H32 UNL     1       0.464 -36.025 -28.821  1.00  0.00     0.157 HD
ATOM     21  H31 UNL     1       1.712 -34.924 -28.116  1.00  0.00     0.157 HD
ENDBRANCH  17  19
ENDBRANCH  10  11
ENDBRANCH   9  10
ENDBRANCH   1   9
BRANCH   1  22
HETATM   22  N4  UNL     1      -5.282 -36.122 -28.205  1.00  0.00    -0.389 N 
ATOM     23  H4  UNL     1      -6.209 -35.879 -28.554  1.00  0.00     0.159 HD
BRANCH  22  24
HETATM   24  C12 UNL     1      -5.108 -37.084 -27.197  1.00  0.00     0.067 C 
BRANCH  24  25
HETATM   25  C13 UNL     1      -6.074 -36.799 -26.064  1.00  0.00     0.130 C 
HETATM   26  S1  UNL     1      -5.278 -35.988 -24.658  1.00  0.00    -0.092 SA
ENDBRANCH  24  25
ENDBRANCH  22  24
ENDBRANCH   1  22
TORSDOF 10
ENDMDL
