MODEL 1
REMARK VINA RESULT: -8.505391527      0.000      0.000
REMARK  10 active torsions:
REMARK  status: ('A' for Active; 'I' for Inactive)
REMARK    1  A    between atoms: C2_2  and  C3_3 
REMARK    2  A    between atoms: C3_3  and  C4_4 
REMARK    3  A    between atoms: C4_4  and  O1_5 
REMARK    4  A    between atoms: O1_5  and  N1_6 
REMARK    5  A    between atoms: N1_6  and  C5_7 
REMARK    6  A    between atoms: C5_7  and  C6_8 
REMARK    7  A    between atoms: C5_7  and  C21_32 
REMARK    8  A    between atoms: C6_8  and  C7_9 
REMARK       I    between atoms: C7_9  and  N2_11 
REMARK    9  A    between atoms: C15_24  and  O3_25 
REMARK   10  A    between atoms: C15_24  and  C16_27 
ROOT
HETATM    1  C7  UNL     1      -2.233 -35.491 -26.113  1.00  0.00     0.224 C 
HETATM    2  O2  UNL     1      -2.466 -34.317 -25.791  1.00  0.00    -0.273 OA
HETATM    3  N2  UNL     1      -2.956 -36.068 -27.198  1.00  0.00    -0.317 N 
HETATM    4  C8  UNL     1      -2.626 -37.407 -27.550  1.00  0.00     0.135 C 
HETATM    5  C9  UNL     1      -3.812 -38.085 -28.153  1.00  0.00     0.102 C 
HETATM    6  C10 UNL     1      -4.301 -37.347 -29.319  1.00  0.00     0.282 C 
HETATM    7  F1  UNL     1      -3.755 -37.910 -30.461  1.00  0.00    -0.203 F 
HETATM    8  F2  UNL     1      -5.672 -37.624 -29.487  1.00  0.00    -0.203 F 
HETATM    9  C11 UNL     1      -4.078 -35.844 -29.276  1.00  0.00     0.239 C 
HETATM   10  C12 UNL     1      -4.975 -35.255 -30.287  1.00  0.00     0.052 C 
HETATM   11  C13 UNL     1      -4.251 -34.042 -30.875  1.00  0.00     0.030 C 
HETATM   12  C14 UNL     1      -2.827 -34.518 -30.780  1.00  0.00     0.233 C 
HETATM   13  N3  UNL     1      -2.782 -35.629 -29.908  1.00  0.00    -0.055 N 
ATOM     14  H31 UNL     1      -2.450 -36.469 -30.382  1.00  0.00     0.278 HD
ATOM     15  H32 UNL     1      -2.037 -35.537 -29.217  1.00  0.00     0.278 HD
HETATM   16  C15 UNL     1      -3.980 -35.272 -27.925  1.00  0.00     0.179 C 
ENDROOT
BRANCH   1  17
HETATM   17  C6  UNL     1      -1.236 -36.276 -25.400  1.00  0.00     0.136 C 
BRANCH  17  18
HETATM   18  C5  UNL     1       0.201 -35.874 -25.540  1.00  0.00     0.204 C 
BRANCH  18  19
HETATM   19  N1  UNL     1       0.794 -36.977 -26.353  1.00  0.00    -0.087 NA
BRANCH  19  20
HETATM   20  O1  UNL     1       1.467 -36.373 -27.357  1.00  0.00    -0.286 OA
BRANCH  20  21
HETATM   21  C4  UNL     1       2.676 -36.986 -27.623  1.00  0.00     0.196 C 
BRANCH  21  22
HETATM   22  C3  UNL     1       2.993 -37.027 -29.085  1.00  0.00     0.028 C 
BRANCH  22  23
HETATM   23  C2  UNL     1       4.047 -38.054 -29.415  1.00  0.00    -0.002 C 
HETATM   24  C1  UNL     1       4.479 -37.984 -30.849  1.00  0.00     0.005 C 
ENDBRANCH  22  23
ENDBRANCH  21  22
ENDBRANCH  20  21
ENDBRANCH  19  20
ENDBRANCH  18  19
BRANCH  18  25
HETATM   25  C21 UNL     1       0.996 -35.866 -24.318  1.00  0.00     0.253 C 
HETATM   26  N4  UNL     1       2.295 -35.365 -24.206  1.00  0.00    -0.061 NA
HETATM   27  O4  UNL     1       0.506 -36.352 -23.236  1.00  0.00    -0.275 OA
ENDBRANCH  18  25
ENDBRANCH  17  18
ENDBRANCH   1  17
BRANCH  16  28
HETATM   28  O3  UNL     1      -3.253 -34.042 -28.095  1.00  0.00    -0.368 OA
ATOM     29  H3  UNL     1      -3.868 -33.568 -28.641  1.00  0.00     0.212 HD
ENDBRANCH  16  28
BRANCH  16  30
HETATM   30  C16 UNL     1      -5.052 -34.929 -27.049  1.00  0.00     0.044 C 
HETATM   31  C17 UNL     1      -5.851 -33.644 -27.326  1.00  0.00     0.009 C 
HETATM   32  C18 UNL     1      -6.546 -33.553 -25.949  1.00  0.00     0.001 C 
HETATM   33  C19 UNL     1      -7.005 -34.972 -25.767  1.00  0.00     0.001 C 
HETATM   34  C20 UNL     1      -6.025 -35.886 -26.479  1.00  0.00     0.009 C 
ENDBRANCH  16  30
TORSDOF 10
ENDMDL
MODEL 2
REMARK VINA RESULT: -7.973177304      1.129      1.364
REMARK  10 active torsions:
REMARK  status: ('A' for Active; 'I' for Inactive)
REMARK    1  A    between atoms: C2_2  and  C3_3 
REMARK    2  A    between atoms: C3_3  and  C4_4 
REMARK    3  A    between atoms: C4_4  and  O1_5 
REMARK    4  A    between atoms: O1_5  and  N1_6 
REMARK    5  A    between atoms: N1_6  and  C5_7 
REMARK    6  A    between atoms: C5_7  and  C6_8 
REMARK    7  A    between atoms: C5_7  and  C21_32 
REMARK    8  A    between atoms: C6_8  and  C7_9 
REMARK       I    between atoms: C7_9  and  N2_11 
REMARK    9  A    between atoms: C15_24  and  O3_25 
REMARK   10  A    between atoms: C15_24  and  C16_27 
ROOT
HETATM    1  C7  UNL     1      -2.241 -35.466 -26.102  1.00  0.00     0.224 C 
HETATM    2  O2  UNL     1      -2.490 -34.295 -25.779  1.00  0.00    -0.273 OA
HETATM    3  N2  UNL     1      -2.967 -36.057 -27.177  1.00  0.00    -0.317 N 
HETATM    4  C8  UNL     1      -2.619 -37.391 -27.531  1.00  0.00     0.135 C 
HETATM    5  C9  UNL     1      -3.801 -38.089 -28.119  1.00  0.00     0.102 C 
HETATM    6  C10 UNL     1      -4.316 -37.361 -29.280  1.00  0.00     0.282 C 
HETATM    7  F1  UNL     1      -3.775 -37.917 -30.427  1.00  0.00    -0.203 F 
HETATM    8  F2  UNL     1      -5.684 -37.661 -29.430  1.00  0.00    -0.203 F 
HETATM    9  C11 UNL     1      -4.117 -35.854 -29.242  1.00  0.00     0.239 C 
HETATM   10  C12 UNL     1      -5.037 -35.283 -30.242  1.00  0.00     0.052 C 
HETATM   11  C13 UNL     1      -4.340 -34.058 -30.841  1.00  0.00     0.030 C 
HETATM   12  C14 UNL     1      -2.907 -34.511 -30.763  1.00  0.00     0.233 C 
HETATM   13  N3  UNL     1      -2.834 -35.619 -29.889  1.00  0.00    -0.055 N 
ATOM     14  H31 UNL     1      -2.493 -36.454 -30.366  1.00  0.00     0.278 HD
ATOM     15  H32 UNL     1      -2.082 -35.514 -29.208  1.00  0.00     0.278 HD
HETATM   16  C15 UNL     1      -4.013 -35.279 -27.893  1.00  0.00     0.179 C 
ENDROOT
BRANCH   1  17
HETATM   17  C6  UNL     1      -1.222 -36.233 -25.400  1.00  0.00     0.136 C 
BRANCH  17  18
HETATM   18  C5  UNL     1      -0.473 -35.552 -24.294  1.00  0.00     0.204 C 
BRANCH  18  19
HETATM   19  N1  UNL     1       0.922 -36.061 -24.454  1.00  0.00    -0.087 NA
BRANCH  19  20
HETATM   20  O1  UNL     1       1.241 -35.858 -25.751  1.00  0.00    -0.286 OA
BRANCH  20  21
HETATM   21  C4  UNL     1       2.452 -35.210 -25.899  1.00  0.00     0.196 C 
BRANCH  21  22
HETATM   22  C3  UNL     1       3.371 -35.913 -26.847  1.00  0.00     0.028 C 
BRANCH  22  23
HETATM   23  C2  UNL     1       2.623 -36.708 -27.888  1.00  0.00    -0.002 C 
HETATM   24  C1  UNL     1       3.541 -37.529 -28.744  1.00  0.00     0.005 C 
ENDBRANCH  22  23
ENDBRANCH  21  22
ENDBRANCH  20  21
ENDBRANCH  19  20
ENDBRANCH  18  19
BRANCH  18  25
HETATM   25  C21 UNL     1      -0.836 -35.931 -22.934  1.00  0.00     0.253 C 
HETATM   26  N4  UNL     1       0.031 -36.502 -22.000  1.00  0.00    -0.061 NA
HETATM   27  O4  UNL     1      -2.037 -35.749 -22.520  1.00  0.00    -0.275 OA
ENDBRANCH  18  25
ENDBRANCH  17  18
ENDBRANCH   1  17
BRANCH  16  28
HETATM   28  O3  UNL     1      -3.308 -34.037 -28.074  1.00  0.00    -0.368 OA
ATOM     29  H3  UNL     1      -3.533 -33.857 -28.979  1.00  0.00     0.212 HD
ENDBRANCH  16  28
BRANCH  16  30
HETATM   30  C16 UNL     1      -5.080 -34.952 -27.004  1.00  0.00     0.044 C 
HETATM   31  C17 UNL     1      -5.895 -33.673 -27.266  1.00  0.00     0.009 C 
HETATM   32  C18 UNL     1      -6.577 -33.598 -25.882  1.00  0.00     0.001 C 
HETATM   33  C19 UNL     1      -7.020 -35.022 -25.705  1.00  0.00     0.001 C 
HETATM   34  C20 UNL     1      -6.038 -35.922 -26.432  1.00  0.00     0.009 C 
ENDBRANCH  16  30
TORSDOF 10
ENDMDL
MODEL 3
REMARK VINA RESULT: -7.676397213      1.313      1.451
REMARK  10 active torsions:
REMARK  status: ('A' for Active; 'I' for Inactive)
REMARK    1  A    between atoms: C2_2  and  C3_3 
REMARK    2  A    between atoms: C3_3  and  C4_4 
REMARK    3  A    between atoms: C4_4  and  O1_5 
REMARK    4  A    between atoms: O1_5  and  N1_6 
REMARK    5  A    between atoms: N1_6  and  C5_7 
REMARK    6  A    between atoms: C5_7  and  C6_8 
REMARK    7  A    between atoms: C5_7  and  C21_32 
REMARK    8  A    between atoms: C6_8  and  C7_9 
REMARK       I    between atoms: C7_9  and  N2_11 
REMARK    9  A    between atoms: C15_24  and  O3_25 
REMARK   10  A    between atoms: C15_24  and  C16_27 
ROOT
HETATM    1  C7  UNL     1      -2.675 -35.153 -25.415  1.00  0.00     0.224 C 
HETATM    2  O2  UNL     1      -2.914 -33.953 -25.209  1.00  0.00    -0.273 OA
HETATM    3  N2  UNL     1      -3.309 -35.808 -26.510  1.00  0.00    -0.317 N 
HETATM    4  C8  UNL     1      -2.974 -37.175 -26.722  1.00  0.00     0.135 C 
HETATM    5  C9  UNL     1      -4.114 -37.886 -27.373  1.00  0.00     0.102 C 
HETATM    6  C10 UNL     1      -4.484 -37.241 -28.633  1.00  0.00     0.282 C 
HETATM    7  F1  UNL     1      -3.851 -37.901 -29.673  1.00  0.00    -0.203 F 
HETATM    8  F2  UNL     1      -5.840 -37.516 -28.900  1.00  0.00    -0.203 F 
HETATM    9  C11 UNL     1      -4.239 -35.741 -28.691  1.00  0.00     0.239 C 
HETATM   10  C12 UNL     1      -5.033 -35.227 -29.822  1.00  0.00     0.052 C 
HETATM   11  C13 UNL     1      -4.238 -34.074 -30.438  1.00  0.00     0.030 C 
HETATM   12  C14 UNL     1      -2.837 -34.556 -30.179  1.00  0.00     0.233 C 
HETATM   13  N3  UNL     1      -2.889 -35.593 -29.220  1.00  0.00    -0.055 N 
ATOM     14  H31 UNL     1      -2.532 -36.472 -29.594  1.00  0.00     0.278 HD
ATOM     15  H32 UNL     1      -2.206 -35.453 -28.475  1.00  0.00     0.278 HD
HETATM   16  C15 UNL     1      -4.251 -35.063 -27.387  1.00  0.00     0.179 C 
ENDROOT
BRANCH   1  17
HETATM   17  C6  UNL     1      -1.758 -35.888 -24.555  1.00  0.00     0.136 C 
BRANCH  17  18
HETATM   18  C5  UNL     1      -0.455 -35.237 -24.205  1.00  0.00     0.204 C 
BRANCH  18  19
HETATM   19  N1  UNL     1       0.548 -36.321 -24.428  1.00  0.00    -0.087 NA
BRANCH  19  20
HETATM   20  O1  UNL     1       1.305 -35.913 -25.470  1.00  0.00    -0.286 OA
BRANCH  20  21
HETATM   21  C4  UNL     1       1.178 -36.741 -26.569  1.00  0.00     0.196 C 
BRANCH  21  22
HETATM   22  C3  UNL     1       1.940 -36.245 -27.757  1.00  0.00     0.028 C 
BRANCH  22  23
HETATM   23  C2  UNL     1       3.367 -36.732 -27.767  1.00  0.00    -0.002 C 
HETATM   24  C1  UNL     1       3.622 -37.720 -28.866  1.00  0.00     0.005 C 
ENDBRANCH  22  23
ENDBRANCH  21  22
ENDBRANCH  20  21
ENDBRANCH  19  20
ENDBRANCH  18  19
BRANCH  18  25
HETATM   25  C21 UNL     1      -0.269 -34.864 -22.808  1.00  0.00     0.253 C 
HETATM   26  N4  UNL     1      -1.297 -34.692 -21.877  1.00  0.00    -0.061 NA
HETATM   27  O4  UNL     1       0.914 -34.663 -22.353  1.00  0.00    -0.275 OA
ENDBRANCH  18  25
ENDBRANCH  17  18
ENDBRANCH   1  17
BRANCH  16  28
HETATM   28  O3  UNL     1      -3.489 -33.859 -27.589  1.00  0.00    -0.368 OA
ATOM     29  H3  UNL     1      -3.090 -34.062 -28.427  1.00  0.00     0.212 HD
ENDBRANCH  16  28
BRANCH  16  30
HETATM   30  C16 UNL     1      -5.390 -34.638 -26.640  1.00  0.00     0.044 C 
HETATM   31  C17 UNL     1      -6.197 -33.430 -27.146  1.00  0.00     0.009 C 
HETATM   32  C18 UNL     1      -6.989 -33.174 -25.845  1.00  0.00     0.001 C 
HETATM   33  C19 UNL     1      -7.426 -34.568 -25.498  1.00  0.00     0.001 C 
HETATM   34  C20 UNL     1      -6.378 -35.539 -26.009  1.00  0.00     0.009 C 
ENDBRANCH  16  30
TORSDOF 10
ENDMDL
MODEL 4
REMARK VINA RESULT: -7.580912883      3.165      7.611
REMARK  10 active torsions:
REMARK  status: ('A' for Active; 'I' for Inactive)
REMARK    1  A    between atoms: C2_2  and  C3_3 
REMARK    2  A    between atoms: C3_3  and  C4_4 
REMARK    3  A    between atoms: C4_4  and  O1_5 
REMARK    4  A    between atoms: O1_5  and  N1_6 
REMARK    5  A    between atoms: N1_6  and  C5_7 
REMARK    6  A    between atoms: C5_7  and  C6_8 
REMARK    7  A    between atoms: C5_7  and  C21_32 
REMARK    8  A    between atoms: C6_8  and  C7_9 
REMARK       I    between atoms: C7_9  and  N2_11 
REMARK    9  A    between atoms: C15_24  and  O3_25 
REMARK   10  A    between atoms: C15_24  and  C16_27 
ROOT
HETATM    1  C7  UNL     1      -5.655 -33.534 -27.419  1.00  0.00     0.224 C 
HETATM    2  O2  UNL     1      -4.972 -32.783 -28.131  1.00  0.00    -0.273 OA
HETATM    3  N2  UNL     1      -5.159 -34.834 -27.109  1.00  0.00    -0.317 N 
HETATM    4  C8  UNL     1      -5.965 -35.644 -26.260  1.00  0.00     0.135 C 
HETATM    5  C9  UNL     1      -5.728 -37.088 -26.556  1.00  0.00     0.102 C 
HETATM    6  C10 UNL     1      -4.313 -37.430 -26.408  1.00  0.00     0.282 C 
HETATM    7  F1  UNL     1      -4.112 -37.950 -25.140  1.00  0.00    -0.203 F 
HETATM    8  F2  UNL     1      -4.028 -38.541 -27.225  1.00  0.00    -0.203 F 
HETATM    9  C11 UNL     1      -3.338 -36.302 -26.710  1.00  0.00     0.239 C 
HETATM   10  C12 UNL     1      -2.019 -36.928 -26.912  1.00  0.00     0.052 C 
HETATM   11  C13 UNL     1      -0.973 -35.949 -26.373  1.00  0.00     0.030 C 
HETATM   12  C14 UNL     1      -1.757 -35.321 -25.253  1.00  0.00     0.233 C 
HETATM   13  N3  UNL     1      -3.124 -35.628 -25.436  1.00  0.00    -0.055 N 
ATOM     14  H31 UNL     1      -3.498 -36.168 -24.656  1.00  0.00     0.278 HD
ATOM     15  H32 UNL     1      -3.712 -34.799 -25.345  1.00  0.00     0.278 HD
HETATM   16  C15 UNL     1      -3.843 -35.282 -27.640  1.00  0.00     0.179 C 
ENDROOT
BRANCH   1  17
HETATM   17  C6  UNL     1      -6.946 -33.103 -26.903  1.00  0.00     0.136 C 
BRANCH  17  18
HETATM   18  C5  UNL     1      -6.952 -32.140 -25.754  1.00  0.00     0.204 C 
BRANCH  18  19
HETATM   19  N1  UNL     1      -8.208 -32.481 -25.020  1.00  0.00    -0.087 NA
BRANCH  19  20
HETATM   20  O1  UNL     1      -8.781 -33.484 -25.720  1.00  0.00    -0.286 OA
BRANCH  20  21
HETATM   21  C4  UNL     1     -10.081 -33.729 -25.319  1.00  0.00     0.196 C 
BRANCH  21  22
HETATM   22  C3  UNL     1     -10.428 -35.184 -25.342  1.00  0.00     0.028 C 
BRANCH  22  23
HETATM   23  C2  UNL     1      -9.349 -36.041 -24.730  1.00  0.00    -0.002 C 
HETATM   24  C1  UNL     1      -9.288 -37.406 -25.349  1.00  0.00     0.005 C 
ENDBRANCH  22  23
ENDBRANCH  21  22
ENDBRANCH  20  21
ENDBRANCH  19  20
ENDBRANCH  18  19
BRANCH  18  25
HETATM   25  C21 UNL     1      -7.108 -30.730 -26.089  1.00  0.00     0.253 C 
HETATM   26  N4  UNL     1      -6.103 -29.910 -26.609  1.00  0.00    -0.061 NA
HETATM   27  O4  UNL     1      -8.239 -30.152 -25.905  1.00  0.00    -0.275 OA
ENDBRANCH  18  25
ENDBRANCH  17  18
ENDBRANCH   1  17
BRANCH  16  28
HETATM   28  O3  UNL     1      -3.060 -34.107 -27.362  1.00  0.00    -0.368 OA
ATOM     29  H3  UNL     1      -3.736 -33.549 -26.995  1.00  0.00     0.212 HD
ENDBRANCH  16  28
BRANCH  16  30
HETATM   30  C16 UNL     1      -3.883 -35.349 -29.064  1.00  0.00     0.044 C 
HETATM   31  C17 UNL     1      -2.730 -34.723 -29.866  1.00  0.00     0.009 C 
HETATM   32  C18 UNL     1      -3.438 -34.713 -31.239  1.00  0.00     0.001 C 
HETATM   33  C19 UNL     1      -4.015 -36.099 -31.272  1.00  0.00     0.001 C 
HETATM   34  C20 UNL     1      -4.319 -36.525 -29.848  1.00  0.00     0.009 C 
ENDBRANCH  16  30
TORSDOF 10
ENDMDL
MODEL 5
REMARK VINA RESULT: -7.519442786      3.199      7.685
REMARK  10 active torsions:
REMARK  status: ('A' for Active; 'I' for Inactive)
REMARK    1  A    between atoms: C2_2  and  C3_3 
REMARK    2  A    between atoms: C3_3  and  C4_4 
REMARK    3  A    between atoms: C4_4  and  O1_5 
REMARK    4  A    between atoms: O1_5  and  N1_6 
REMARK    5  A    between atoms: N1_6  and  C5_7 
REMARK    6  A    between atoms: C5_7  and  C6_8 
REMARK    7  A    between atoms: C5_7  and  C21_32 
REMARK    8  A    between atoms: C6_8  and  C7_9 
REMARK       I    between atoms: C7_9  and  N2_11 
REMARK    9  A    between atoms: C15_24  and  O3_25 
REMARK   10  A    between atoms: C15_24  and  C16_27 
ROOT
HETATM    1  C7  UNL     1      -5.763 -33.582 -27.408  1.00  0.00     0.224 C 
HETATM    2  O2  UNL     1      -5.104 -32.811 -28.121  1.00  0.00    -0.273 OA
HETATM    3  N2  UNL     1      -5.225 -34.864 -27.093  1.00  0.00    -0.317 N 
HETATM    4  C8  UNL     1      -6.006 -35.698 -26.244  1.00  0.00     0.135 C 
HETATM    5  C9  UNL     1      -5.722 -37.134 -26.535  1.00  0.00     0.102 C 
HETATM    6  C10 UNL     1      -4.296 -37.429 -26.384  1.00  0.00     0.282 C 
HETATM    7  F1  UNL     1      -4.082 -37.939 -25.114  1.00  0.00    -0.203 F 
HETATM    8  F2  UNL     1      -3.974 -38.533 -27.197  1.00  0.00    -0.203 F 
HETATM    9  C11 UNL     1      -3.358 -36.271 -26.687  1.00  0.00     0.239 C 
HETATM   10  C12 UNL     1      -2.019 -36.854 -26.886  1.00  0.00     0.052 C 
HETATM   11  C13 UNL     1      -1.007 -35.840 -26.348  1.00  0.00     0.030 C 
HETATM   12  C14 UNL     1      -1.813 -35.236 -25.230  1.00  0.00     0.233 C 
HETATM   13  N3  UNL     1      -3.169 -35.587 -25.415  1.00  0.00    -0.055 N 
ATOM     14  H31 UNL     1      -3.526 -36.137 -24.634  1.00  0.00     0.278 HD
ATOM     15  H32 UNL     1      -3.784 -34.777 -25.327  1.00  0.00     0.278 HD
HETATM   16  C15 UNL     1      -3.895 -35.271 -27.621  1.00  0.00     0.179 C 
ENDROOT
BRANCH   1  17
HETATM   17  C6  UNL     1      -7.068 -33.192 -26.895  1.00  0.00     0.136 C 
BRANCH  17  18
HETATM   18  C5  UNL     1      -7.111 -32.163 -25.806  1.00  0.00     0.204 C 
BRANCH  18  19
HETATM   19  N1  UNL     1      -7.511 -30.914 -26.521  1.00  0.00    -0.087 NA
BRANCH  19  20
HETATM   20  O1  UNL     1      -8.583 -31.248 -27.271  1.00  0.00    -0.286 OA
BRANCH  20  21
HETATM   21  C4  UNL     1      -9.723 -30.564 -26.894  1.00  0.00     0.196 C 
BRANCH  21  22
HETATM   22  C3  UNL     1     -10.750 -31.454 -26.269  1.00  0.00     0.028 C 
BRANCH  22  23
HETATM   23  C2  UNL     1     -10.777 -32.826 -26.894  1.00  0.00    -0.002 C 
HETATM   24  C1  UNL     1     -10.629 -33.917 -25.875  1.00  0.00     0.005 C 
ENDBRANCH  22  23
ENDBRANCH  21  22
ENDBRANCH  20  21
ENDBRANCH  19  20
ENDBRANCH  18  19
BRANCH  18  25
HETATM   25  C21 UNL     1      -5.838 -31.824 -25.182  1.00  0.00     0.253 C 
HETATM   26  N4  UNL     1      -5.137 -32.637 -24.288  1.00  0.00    -0.061 NA
HETATM   27  O4  UNL     1      -5.281 -30.697 -25.441  1.00  0.00    -0.275 OA
ENDBRANCH  18  25
ENDBRANCH  17  18
ENDBRANCH   1  17
BRANCH  16  28
HETATM   28  O3  UNL     1      -3.151 -34.070 -27.345  1.00  0.00    -0.368 OA
ATOM     29  H3  UNL     1      -2.747 -34.320 -26.521  1.00  0.00     0.212 HD
ENDBRANCH  16  28
BRANCH  16  30
HETATM   30  C16 UNL     1      -3.930 -35.343 -29.045  1.00  0.00     0.044 C 
HETATM   31  C17 UNL     1      -2.794 -34.686 -29.847  1.00  0.00     0.009 C 
HETATM   32  C18 UNL     1      -3.500 -34.700 -31.221  1.00  0.00     0.001 C 
HETATM   33  C19 UNL     1      -4.036 -36.103 -31.251  1.00  0.00     0.001 C 
HETATM   34  C20 UNL     1      -4.330 -36.533 -29.826  1.00  0.00     0.009 C 
ENDBRANCH  16  30
TORSDOF 10
ENDMDL
