MODEL 1
REMARK VINA RESULT: -7.763042073      0.000      0.000
REMARK  13 active torsions:
REMARK  status: ('A' for Active; 'I' for Inactive)
REMARK    1  A    between atoms: C2_2  and  C3_3 
REMARK    2  A    between atoms: C3_3  and  C4_4 
REMARK    3  A    between atoms: C4_4  and  C6_7 
REMARK    4  A    between atoms: C9_12  and  N2_13 
REMARK    5  A    between atoms: N2_13  and  C10_15 
REMARK    6  A    between atoms: C10_15  and  C11_16 
REMARK    7  A    between atoms: C10_15  and  C12_19 
REMARK    8  A    between atoms: C11_16  and  O1_17 
REMARK    9  A    between atoms: C12_19  and  O2_20 
REMARK   10  A    between atoms: C13_24  and  N4_25 
REMARK   11  A    between atoms: N4_25  and  C14_27 
REMARK   12  A    between atoms: C14_27  and  C15_28 
REMARK   13  A    between atoms: N5_31  and  C18_32 
ROOT
HETATM    1  C6  UNL     1      -2.436 -35.225 -25.818  1.00  0.00     0.048 A 
HETATM    2  C7  UNL     1      -3.622 -34.556 -25.988  1.00  0.00     0.036 A 
HETATM    3  C8  UNL     1      -4.574 -34.392 -24.858  1.00  0.00     0.069 C 
HETATM    4  N1  UNL     1      -3.971 -34.042 -27.201  1.00  0.00    -0.195 N 
ATOM      5  H1  UNL     1      -4.861 -33.551 -27.290  1.00  0.00     0.184 HD
HETATM    6  C9  UNL     1      -3.188 -34.161 -28.273  1.00  0.00     0.680 A 
HETATM    7  N3  UNL     1      -2.026 -34.809 -28.137  1.00  0.00    -0.176 N 
ATOM      8  H3  UNL     1      -1.417 -34.909 -28.948  1.00  0.00     0.186 HD
HETATM    9  C13 UNL     1      -1.639 -35.333 -26.963  1.00  0.00     0.128 A 
ENDROOT
BRANCH   9  10
HETATM   10  N4  UNL     1      -0.492 -35.946 -26.891  1.00  0.00    -0.375 N 
ATOM     11  H4  UNL     1      -0.397 -36.780 -26.311  1.00  0.00     0.161 HD
BRANCH  10  12
HETATM   12  C14 UNL     1       0.648 -35.448 -27.631  1.00  0.00     0.126 C 
BRANCH  12  13
HETATM   13  C15 UNL     1       1.921 -36.087 -27.130  1.00  0.00     0.008 C 
HETATM   14  C16 UNL     1       2.859 -35.083 -26.568  1.00  0.00     0.026 C 
HETATM   15  C17 UNL     1       4.305 -35.441 -26.686  1.00  0.00     0.119 C 
HETATM   16  N5  UNL     1       4.582 -36.812 -26.923  1.00  0.00    -0.396 N 
HETATM   17  C20 UNL     1       3.787 -37.477 -27.888  1.00  0.00     0.177 C 
HETATM   18 CL1  UNL     1       4.691 -37.908 -29.374  1.00  0.00    -0.103 Cl
HETATM   19  C21 UNL     1       2.576 -36.711 -28.342  1.00  0.00     0.047 C 
BRANCH  16  20
HETATM   20  C18 UNL     1       5.984 -37.064 -26.952  1.00  0.00     0.114 C 
HETATM   21  C19 UNL     1       6.663 -37.033 -25.623  1.00  0.00     0.026 C 
ENDBRANCH  16  20
ENDBRANCH  12  13
ENDBRANCH  10  12
ENDBRANCH   9  10
BRANCH   1  22
HETATM   22  C4  UNL     1      -1.985 -35.797 -24.515  1.00  0.00     0.132 C 
HETATM   23  C5  UNL     1      -3.008 -36.718 -23.926  1.00  0.00     0.057 C 
HETATM   24  F1  UNL     1      -0.928 -36.688 -24.894  1.00  0.00    -0.238 F 
BRANCH  22  25
HETATM   25  C3  UNL     1      -1.315 -34.836 -23.611  1.00  0.00     0.048 C 
BRANCH  25  26
HETATM   26  C2  UNL     1      -0.223 -35.349 -22.728  1.00  0.00    -0.001 C 
HETATM   27  C1  UNL     1       1.143 -34.955 -23.158  1.00  0.00     0.005 C 
ENDBRANCH  25  26
ENDBRANCH  22  25
ENDBRANCH   1  22
BRANCH   6  28
HETATM   28  N2  UNL     1      -3.557 -33.663 -29.391  1.00  0.00    -0.217 N 
ATOM     29  H2  UNL     1      -3.475 -32.651 -29.492  1.00  0.00     0.178 HD
BRANCH  28  30
HETATM   30  C10 UNL     1      -4.073 -34.379 -30.515  1.00  0.00     0.146 C 
BRANCH  30  31
HETATM   31  C11 UNL     1      -4.396 -35.835 -30.176  1.00  0.00     0.192 C 
BRANCH  31  32
HETATM   32  O1  UNL     1      -3.758 -36.628 -31.116  1.00  0.00    -0.399 OA
ATOM     33  H1  UNL     1      -2.835 -36.404 -31.094  1.00  0.00     0.209 HD
ENDBRANCH  31  32
ENDBRANCH  30  31
BRANCH  30  34
HETATM   34  C12 UNL     1      -3.050 -34.405 -31.633  1.00  0.00     0.192 C 
BRANCH  34  35
HETATM   35  O2  UNL     1      -1.755 -34.297 -31.116  1.00  0.00    -0.399 OA
ATOM     36  H2  UNL     1      -1.167 -33.927 -31.764  1.00  0.00     0.209 HD
ENDBRANCH  34  35
ENDBRANCH  30  34
ENDBRANCH  28  30
ENDBRANCH   6  28
TORSDOF 13
ENDMDL
MODEL 2
REMARK VINA RESULT: -7.391433653      3.035      5.276
REMARK  13 active torsions:
REMARK  status: ('A' for Active; 'I' for Inactive)
REMARK    1  A    between atoms: C2_2  and  C3_3 
REMARK    2  A    between atoms: C3_3  and  C4_4 
REMARK    3  A    between atoms: C4_4  and  C6_7 
REMARK    4  A    between atoms: C9_12  and  N2_13 
REMARK    5  A    between atoms: N2_13  and  C10_15 
REMARK    6  A    between atoms: C10_15  and  C11_16 
REMARK    7  A    between atoms: C10_15  and  C12_19 
REMARK    8  A    between atoms: C11_16  and  O1_17 
REMARK    9  A    between atoms: C12_19  and  O2_20 
REMARK   10  A    between atoms: C13_24  and  N4_25 
REMARK   11  A    between atoms: N4_25  and  C14_27 
REMARK   12  A    between atoms: C14_27  and  C15_28 
REMARK   13  A    between atoms: N5_31  and  C18_32 
ROOT
HETATM    1  C6  UNL     1      -3.273 -34.940 -27.658  1.00  0.00     0.048 A 
HETATM    2  C7  UNL     1      -4.391 -34.617 -26.931  1.00  0.00     0.036 A 
HETATM    3  C8  UNL     1      -5.690 -34.358 -27.604  1.00  0.00     0.069 C 
HETATM    4  N1  UNL     1      -4.338 -34.505 -25.574  1.00  0.00    -0.195 N 
ATOM      5  H1  UNL     1      -5.188 -34.264 -25.065  1.00  0.00     0.184 HD
HETATM    6  C9  UNL     1      -3.210 -34.699 -24.890  1.00  0.00     0.680 A 
HETATM    7  N3  UNL     1      -2.104 -35.014 -25.574  1.00  0.00    -0.176 N 
ATOM      8  H3  UNL     1      -1.233 -35.165 -25.065  1.00  0.00     0.186 HD
HETATM    9  C13 UNL     1      -2.107 -35.136 -26.910  1.00  0.00     0.128 A 
ENDROOT
BRANCH   9  10
HETATM   10  N4  UNL     1      -1.000 -35.453 -27.519  1.00  0.00    -0.375 N 
ATOM     11  H4  UNL     1      -0.800 -35.069 -28.443  1.00  0.00     0.161 HD
BRANCH  10  12
HETATM   12  C14 UNL     1      -0.051 -36.347 -26.889  1.00  0.00     0.126 C 
BRANCH  12  13
HETATM   13  C15 UNL     1       1.351 -35.804 -27.019  1.00  0.00     0.008 C 
HETATM   14  C16 UNL     1       2.178 -36.625 -27.939  1.00  0.00     0.026 C 
HETATM   15  C17 UNL     1       3.641 -36.628 -27.632  1.00  0.00     0.119 C 
HETATM   16  N5  UNL     1       4.099 -35.568 -26.807  1.00  0.00    -0.396 N 
HETATM   17  C20 UNL     1       3.316 -35.246 -25.672  1.00  0.00     0.177 C 
HETATM   18 CL1  UNL     1       4.110 -35.670 -24.122  1.00  0.00    -0.103 Cl
HETATM   19  C21 UNL     1       1.960 -35.893 -25.638  1.00  0.00     0.047 C 
BRANCH  16  20
HETATM   20  C18 UNL     1       5.511 -35.619 -26.629  1.00  0.00     0.114 C 
HETATM   21  C19 UNL     1       6.134 -36.956 -26.866  1.00  0.00     0.026 C 
ENDBRANCH  16  20
ENDBRANCH  12  13
ENDBRANCH  10  12
ENDBRANCH   9  10
BRANCH   1  22
HETATM   22  C4  UNL     1      -3.265 -35.096 -29.143  1.00  0.00     0.132 C 
HETATM   23  C5  UNL     1      -3.852 -33.903 -29.832  1.00  0.00     0.057 C 
HETATM   24  F1  UNL     1      -1.874 -35.009 -29.477  1.00  0.00    -0.238 F 
BRANCH  22  25
HETATM   25  C3  UNL     1      -3.652 -36.438 -29.631  1.00  0.00     0.048 C 
BRANCH  25  26
HETATM   26  C2  UNL     1      -4.712 -36.523 -30.681  1.00  0.00    -0.001 C 
HETATM   27  C1  UNL     1      -5.945 -37.229 -30.245  1.00  0.00     0.005 C 
ENDBRANCH  25  26
ENDBRANCH  22  25
ENDBRANCH   1  22
BRANCH   6  28
HETATM   28  N2  UNL     1      -3.207 -34.583 -23.617  1.00  0.00    -0.217 N 
ATOM     29  H2  UNL     1      -2.911 -33.683 -23.239  1.00  0.00     0.178 HD
BRANCH  28  30
HETATM   30  C10 UNL     1      -3.577 -35.586 -22.668  1.00  0.00     0.146 C 
BRANCH  30  31
HETATM   31  C11 UNL     1      -3.473 -36.998 -23.247  1.00  0.00     0.192 C 
BRANCH  31  32
HETATM   32  O1  UNL     1      -3.806 -37.882 -22.234  1.00  0.00    -0.399 OA
ATOM     33  H1  UNL     1      -3.002 -38.304 -21.953  1.00  0.00     0.209 HD
ENDBRANCH  31  32
ENDBRANCH  30  31
BRANCH  30  34
HETATM   34  C12 UNL     1      -5.019 -35.392 -22.239  1.00  0.00     0.192 C 
BRANCH  34  35
HETATM   35  O2  UNL     1      -5.888 -35.985 -23.159  1.00  0.00    -0.399 OA
ATOM     36  H2  UNL     1      -6.793 -35.843 -22.903  1.00  0.00     0.209 HD
ENDBRANCH  34  35
ENDBRANCH  30  34
ENDBRANCH  28  30
ENDBRANCH   6  28
TORSDOF 13
ENDMDL
MODEL 3
REMARK VINA RESULT: -7.364870677      0.666      1.290
REMARK  13 active torsions:
REMARK  status: ('A' for Active; 'I' for Inactive)
REMARK    1  A    between atoms: C2_2  and  C3_3 
REMARK    2  A    between atoms: C3_3  and  C4_4 
REMARK    3  A    between atoms: C4_4  and  C6_7 
REMARK    4  A    between atoms: C9_12  and  N2_13 
REMARK    5  A    between atoms: N2_13  and  C10_15 
REMARK    6  A    between atoms: C10_15  and  C11_16 
REMARK    7  A    between atoms: C10_15  and  C12_19 
REMARK    8  A    between atoms: C11_16  and  O1_17 
REMARK    9  A    between atoms: C12_19  and  O2_20 
REMARK   10  A    between atoms: C13_24  and  N4_25 
REMARK   11  A    between atoms: N4_25  and  C14_27 
REMARK   12  A    between atoms: C14_27  and  C15_28 
REMARK   13  A    between atoms: N5_31  and  C18_32 
ROOT
HETATM    1  C6  UNL     1      -2.107 -35.190 -25.415  1.00  0.00     0.048 A 
HETATM    2  C7  UNL     1      -3.319 -34.557 -25.523  1.00  0.00     0.036 A 
HETATM    3  C8  UNL     1      -4.114 -34.220 -24.314  1.00  0.00     0.069 C 
HETATM    4  N1  UNL     1      -3.839 -34.238 -26.742  1.00  0.00    -0.195 N 
ATOM      5  H1  UNL     1      -4.743 -33.767 -26.784  1.00  0.00     0.184 HD
HETATM    6  C9  UNL     1      -3.205 -34.522 -27.880  1.00  0.00     0.680 A 
HETATM    7  N3  UNL     1      -2.021 -35.140 -27.804  1.00  0.00    -0.176 N 
ATOM      8  H3  UNL     1      -1.524 -35.365 -28.666  1.00  0.00     0.186 HD
HETATM    9  C13 UNL     1      -1.468 -35.474 -26.627  1.00  0.00     0.128 A 
ENDROOT
BRANCH   9  10
HETATM   10  N4  UNL     1      -0.309 -36.068 -26.618  1.00  0.00    -0.375 N 
ATOM     11  H4  UNL     1      -0.170 -36.903 -26.050  1.00  0.00     0.161 HD
BRANCH  10  12
HETATM   12  C14 UNL     1       0.784 -35.547 -27.413  1.00  0.00     0.126 C 
BRANCH  12  13
HETATM   13  C15 UNL     1       2.099 -36.112 -26.934  1.00  0.00     0.008 C 
HETATM   14  C16 UNL     1       3.020 -35.046 -26.467  1.00  0.00     0.026 C 
HETATM   15  C17 UNL     1       4.473 -35.357 -26.630  1.00  0.00     0.119 C 
HETATM   16  N5  UNL     1       4.792 -36.729 -26.805  1.00  0.00    -0.396 N 
HETATM   17  C20 UNL     1       3.984 -37.473 -27.698  1.00  0.00     0.177 C 
HETATM   18 CL1  UNL     1       4.841 -37.952 -29.197  1.00  0.00    -0.103 Cl
HETATM   19  C21 UNL     1       2.727 -36.777 -28.139  1.00  0.00     0.047 C 
BRANCH  16  20
HETATM   20  C18 UNL     1       6.200 -36.931 -26.882  1.00  0.00     0.114 C 
HETATM   21  C19 UNL     1       6.868 -37.250 -25.585  1.00  0.00     0.026 C 
ENDBRANCH  16  20
ENDBRANCH  12  13
ENDBRANCH  10  12
ENDBRANCH   9  10
BRANCH   1  22
HETATM   22  C4  UNL     1      -1.472 -35.553 -24.113  1.00  0.00     0.132 C 
HETATM   23  C5  UNL     1      -2.389 -36.365 -23.253  1.00  0.00     0.057 C 
HETATM   24  F1  UNL     1      -0.461 -36.497 -24.489  1.00  0.00    -0.238 F 
BRANCH  22  25
HETATM   25  C3  UNL     1      -0.703 -34.465 -23.471  1.00  0.00     0.048 C 
BRANCH  25  26
HETATM   26  C2  UNL     1       0.317 -34.839 -22.444  1.00  0.00    -0.001 C 
HETATM   27  C1  UNL     1       1.721 -34.767 -22.926  1.00  0.00     0.005 C 
ENDBRANCH  25  26
ENDBRANCH  22  25
ENDBRANCH   1  22
BRANCH   6  28
HETATM   28  N2  UNL     1      -3.731 -34.204 -29.000  1.00  0.00    -0.217 N 
ATOM     29  H2  UNL     1      -4.151 -33.277 -29.063  1.00  0.00     0.178 HD
BRANCH  28  30
HETATM   30  C10 UNL     1      -3.790 -35.016 -30.175  1.00  0.00     0.146 C 
BRANCH  30  31
HETATM   31  C11 UNL     1      -3.054 -34.382 -31.356  1.00  0.00     0.192 C 
BRANCH  31  32
HETATM   32  O1  UNL     1      -1.722 -34.263 -30.994  1.00  0.00    -0.399 OA
ATOM     33  H1  UNL     1      -1.202 -34.499 -31.753  1.00  0.00     0.209 HD
ENDBRANCH  31  32
ENDBRANCH  30  31
BRANCH  30  34
HETATM   34  C12 UNL     1      -5.232 -35.205 -30.607  1.00  0.00     0.192 C 
BRANCH  34  35
HETATM   35  O2  UNL     1      -5.696 -36.468 -30.226  1.00  0.00    -0.399 OA
ATOM     36  H2  UNL     1      -5.007 -37.117 -30.313  1.00  0.00     0.209 HD
ENDBRANCH  34  35
ENDBRANCH  30  34
ENDBRANCH  28  30
ENDBRANCH   6  28
TORSDOF 13
ENDMDL
MODEL 4
REMARK VINA RESULT: -7.321576973      4.486      8.833
REMARK  13 active torsions:
REMARK  status: ('A' for Active; 'I' for Inactive)
REMARK    1  A    between atoms: C2_2  and  C3_3 
REMARK    2  A    between atoms: C3_3  and  C4_4 
REMARK    3  A    between atoms: C4_4  and  C6_7 
REMARK    4  A    between atoms: C9_12  and  N2_13 
REMARK    5  A    between atoms: N2_13  and  C10_15 
REMARK    6  A    between atoms: C10_15  and  C11_16 
REMARK    7  A    between atoms: C10_15  and  C12_19 
REMARK    8  A    between atoms: C11_16  and  O1_17 
REMARK    9  A    between atoms: C12_19  and  O2_20 
REMARK   10  A    between atoms: C13_24  and  N4_25 
REMARK   11  A    between atoms: N4_25  and  C14_27 
REMARK   12  A    between atoms: C14_27  and  C15_28 
REMARK   13  A    between atoms: N5_31  and  C18_32 
ROOT
HETATM    1  C6  UNL     1      -3.420 -35.377 -28.449  1.00  0.00     0.048 A 
HETATM    2  C7  UNL     1      -2.259 -34.975 -29.058  1.00  0.00     0.036 A 
HETATM    3  C8  UNL     1      -2.276 -34.401 -30.429  1.00  0.00     0.069 C 
HETATM    4  N1  UNL     1      -1.055 -35.108 -28.434  1.00  0.00    -0.195 N 
ATOM      5  H1  UNL     1      -0.212 -34.798 -28.918  1.00  0.00     0.184 HD
HETATM    6  C9  UNL     1      -0.943 -35.631 -27.213  1.00  0.00     0.680 A 
HETATM    7  N3  UNL     1      -2.060 -36.033 -26.595  1.00  0.00    -0.176 N 
ATOM      8  H3  UNL     1      -1.991 -36.436 -25.661  1.00  0.00     0.186 HD
HETATM    9  C13 UNL     1      -3.268 -35.922 -27.169  1.00  0.00     0.128 A 
ENDROOT
BRANCH   9  10
HETATM   10  N4  UNL     1      -4.319 -36.323 -26.514  1.00  0.00    -0.375 N 
ATOM     11  H4  UNL     1      -4.768 -37.204 -26.764  1.00  0.00     0.161 HD
BRANCH  10  12
HETATM   12  C14 UNL     1      -4.853 -35.524 -25.431  1.00  0.00     0.126 C 
BRANCH  12  13
HETATM   13  C15 UNL     1      -6.167 -36.093 -24.953  1.00  0.00     0.008 C 
HETATM   14  C16 UNL     1      -6.529 -37.334 -25.684  1.00  0.00     0.026 C 
HETATM   15  C17 UNL     1      -7.997 -37.581 -25.811  1.00  0.00     0.119 C 
HETATM   16  N5  UNL     1      -8.822 -36.868 -24.903  1.00  0.00    -0.396 N 
HETATM   17  C20 UNL     1      -8.527 -35.498 -24.699  1.00  0.00     0.177 C 
HETATM   18 CL1  UNL     1      -9.769 -34.399 -25.377  1.00  0.00    -0.103 Cl
HETATM   19  C21 UNL     1      -7.211 -35.046 -25.268  1.00  0.00     0.047 C 
BRANCH  16  20
HETATM   20  C18 UNL     1     -10.194 -37.221 -25.057  1.00  0.00     0.114 C 
HETATM   21  C19 UNL     1     -10.455 -38.367 -25.978  1.00  0.00     0.026 C 
ENDBRANCH  16  20
ENDBRANCH  12  13
ENDBRANCH  10  12
ENDBRANCH   9  10
BRANCH   1  22
HETATM   22  C4  UNL     1      -4.773 -35.243 -29.068  1.00  0.00     0.132 C 
HETATM   23  C5  UNL     1      -5.510 -34.051 -28.543  1.00  0.00     0.057 C 
HETATM   24  F1  UNL     1      -4.482 -34.873 -30.421  1.00  0.00    -0.238 F 
BRANCH  22  25
HETATM   25  C3  UNL     1      -5.519 -36.512 -29.212  1.00  0.00     0.048 C 
BRANCH  25  26
HETATM   26  C2  UNL     1      -5.601 -37.126 -30.572  1.00  0.00    -0.001 C 
HETATM   27  C1  UNL     1      -4.483 -38.053 -30.889  1.00  0.00     0.005 C 
ENDBRANCH  25  26
ENDBRANCH  22  25
ENDBRANCH   1  22
BRANCH   6  28
HETATM   28  N2  UNL     1       0.207 -35.737 -26.666  1.00  0.00    -0.217 N 
ATOM     29  H2  UNL     1       0.224 -35.918 -25.663  1.00  0.00     0.178 HD
BRANCH  28  30
HETATM   30  C10 UNL     1       1.474 -35.629 -27.319  1.00  0.00     0.146 C 
BRANCH  30  31
HETATM   31  C11 UNL     1       2.138 -36.990 -27.527  1.00  0.00     0.192 C 
BRANCH  31  32
HETATM   32  O1  UNL     1       2.838 -36.929 -28.721  1.00  0.00    -0.399 OA
ATOM     33  H1  UNL     1       3.071 -37.819 -28.958  1.00  0.00     0.209 HD
ENDBRANCH  31  32
ENDBRANCH  30  31
BRANCH  30  34
HETATM   34  C12 UNL     1       2.426 -34.799 -26.479  1.00  0.00     0.192 C 
BRANCH  34  35
HETATM   35  O2  UNL     1       3.746 -35.216 -26.678  1.00  0.00    -0.399 OA
ATOM     36  H2  UNL     1       4.354 -34.553 -26.372  1.00  0.00     0.209 HD
ENDBRANCH  34  35
ENDBRANCH  30  34
ENDBRANCH  28  30
ENDBRANCH   6  28
TORSDOF 13
ENDMDL
MODEL 5
REMARK VINA RESULT: -7.284372111      1.318      1.582
REMARK  13 active torsions:
REMARK  status: ('A' for Active; 'I' for Inactive)
REMARK    1  A    between atoms: C2_2  and  C3_3 
REMARK    2  A    between atoms: C3_3  and  C4_4 
REMARK    3  A    between atoms: C4_4  and  C6_7 
REMARK    4  A    between atoms: C9_12  and  N2_13 
REMARK    5  A    between atoms: N2_13  and  C10_15 
REMARK    6  A    between atoms: C10_15  and  C11_16 
REMARK    7  A    between atoms: C10_15  and  C12_19 
REMARK    8  A    between atoms: C11_16  and  O1_17 
REMARK    9  A    between atoms: C12_19  and  O2_20 
REMARK   10  A    between atoms: C13_24  and  N4_25 
REMARK   11  A    between atoms: N4_25  and  C14_27 
REMARK   12  A    between atoms: C14_27  and  C15_28 
REMARK   13  A    between atoms: N5_31  and  C18_32 
ROOT
HETATM    1  C6  UNL     1      -2.088 -35.927 -25.231  1.00  0.00     0.048 A 
HETATM    2  C7  UNL     1      -3.399 -36.307 -25.372  1.00  0.00     0.036 A 
HETATM    3  C8  UNL     1      -4.245 -36.584 -24.181  1.00  0.00     0.069 C 
HETATM    4  N1  UNL     1      -3.957 -36.463 -26.605  1.00  0.00    -0.195 N 
ATOM      5  H1  UNL     1      -4.934 -36.746 -26.672  1.00  0.00     0.184 HD
HETATM    6  C9  UNL     1      -3.266 -36.257 -27.727  1.00  0.00     0.680 A 
HETATM    7  N3  UNL     1      -1.985 -35.886 -27.620  1.00  0.00    -0.176 N 
ATOM      8  H3  UNL     1      -1.444 -35.726 -28.468  1.00  0.00     0.186 HD
HETATM    9  C13 UNL     1      -1.392 -35.720 -26.427  1.00  0.00     0.128 A 
ENDROOT
BRANCH   9  10
HETATM   10  N4  UNL     1      -0.144 -35.350 -26.387  1.00  0.00    -0.375 N 
ATOM     11  H4  UNL     1       0.220 -34.879 -25.559  1.00  0.00     0.161 HD
BRANCH  10  12
HETATM   12  C14 UNL     1       0.728 -35.605 -27.514  1.00  0.00     0.126 C 
BRANCH  12  13
HETATM   13  C15 UNL     1       2.054 -36.152 -27.042  1.00  0.00     0.008 C 
HETATM   14  C16 UNL     1       2.955 -35.076 -26.560  1.00  0.00     0.026 C 
HETATM   15  C17 UNL     1       4.413 -35.360 -26.725  1.00  0.00     0.119 C 
HETATM   16  N5  UNL     1       4.757 -36.723 -26.917  1.00  0.00    -0.396 N 
HETATM   17  C20 UNL     1       3.962 -37.470 -27.821  1.00  0.00     0.177 C 
HETATM   18 CL1  UNL     1       4.829 -37.914 -29.325  1.00  0.00    -0.103 Cl
HETATM   19  C21 UNL     1       2.694 -36.791 -28.254  1.00  0.00     0.047 C 
BRANCH  16  20
HETATM   20  C18 UNL     1       6.168 -36.899 -26.995  1.00  0.00     0.114 C 
HETATM   21  C19 UNL     1       6.837 -37.253 -25.708  1.00  0.00     0.026 C 
ENDBRANCH  16  20
ENDBRANCH  12  13
ENDBRANCH  10  12
ENDBRANCH   9  10
BRANCH   1  22
HETATM   22  C4  UNL     1      -1.420 -35.722 -23.911  1.00  0.00     0.132 C 
HETATM   23  C5  UNL     1      -1.792 -34.409 -23.297  1.00  0.00     0.057 C 
HETATM   24  F1  UNL     1      -2.070 -36.673 -23.060  1.00  0.00    -0.238 F 
BRANCH  22  25
HETATM   25  C3  UNL     1       0.001 -36.132 -23.862  1.00  0.00     0.048 C 
BRANCH  25  26
HETATM   26  C2  UNL     1       0.806 -35.727 -22.669  1.00  0.00    -0.001 C 
HETATM   27  C1  UNL     1       2.034 -34.958 -22.997  1.00  0.00     0.005 C 
ENDBRANCH  25  26
ENDBRANCH  22  25
ENDBRANCH   1  22
BRANCH   6  28
HETATM   28  N2  UNL     1      -3.831 -36.415 -28.862  1.00  0.00    -0.217 N 
ATOM     29  H2  UNL     1      -3.994 -37.376 -29.164  1.00  0.00     0.178 HD
BRANCH  28  30
HETATM   30  C10 UNL     1      -4.258 -35.382 -29.753  1.00  0.00     0.146 C 
BRANCH  30  31
HETATM   31  C11 UNL     1      -3.313 -35.215 -30.944  1.00  0.00     0.192 C 
BRANCH  31  32
HETATM   32  O1  UNL     1      -3.780 -34.149 -31.694  1.00  0.00    -0.399 OA
ATOM     33  H1  UNL     1      -3.612 -34.351 -32.607  1.00  0.00     0.209 HD
ENDBRANCH  31  32
ENDBRANCH  30  31
BRANCH  30  34
HETATM   34  C12 UNL     1      -4.293 -34.050 -29.030  1.00  0.00     0.192 C 
BRANCH  34  35
HETATM   35  O2  UNL     1      -3.032 -33.445 -29.055  1.00  0.00    -0.399 OA
ATOM     36  H2  UNL     1      -2.763 -33.273 -29.949  1.00  0.00     0.209 HD
ENDBRANCH  34  35
ENDBRANCH  30  34
ENDBRANCH  28  30
ENDBRANCH   6  28
TORSDOF 13
ENDMDL
