MODEL 1
REMARK VINA RESULT: -8.664506657      0.000      0.000
REMARK  11 active torsions:
REMARK  status: ('A' for Active; 'I' for Inactive)
REMARK    1  A    between atoms: C6_8  and  O1_9 
REMARK    2  A    between atoms: C7_11  and  C8_12 
REMARK    3  A    between atoms: C9_13  and  C10_14 
REMARK    4  A    between atoms: C10_14  and  O2_15 
REMARK    5  A    between atoms: C10_14  and  C11_17 
REMARK    6  A    between atoms: C12_18  and  C13_19 
REMARK    7  A    between atoms: C17_24  and  C18_25 
REMARK    8  A    between atoms: C18_25  and  C19_26 
REMARK    9  A    between atoms: C18_25  and  C21_29 
REMARK   10  A    between atoms: C19_26  and  C20_27 
REMARK   11  A    between atoms: C21_29  and  O5_33 
ROOT
HETATM    1  C13 UNL     1       2.199 -35.952 -26.937  1.00  0.00     0.152 C 
HETATM    2  O3  UNL     1       3.153 -36.451 -27.834  1.00  0.00    -0.372 OA
HETATM    3  C14 UNL     1       4.205 -36.918 -26.969  1.00  0.00     0.147 C 
HETATM    4  C15 UNL     1       5.401 -37.075 -27.873  1.00  0.00     0.044 C 
HETATM    5  C16 UNL     1       4.355 -35.803 -26.013  1.00  0.00    -0.048 C 
HETATM    6  C17 UNL     1       5.334 -35.736 -24.969  1.00  0.00    -0.008 C 
HETATM    7  C22 UNL     1       2.911 -35.493 -25.691  1.00  0.00     0.045 C 
HETATM    8  C23 UNL     1       2.354 -36.164 -24.495  1.00  0.00     0.017 C 
ENDROOT
BRANCH   1   9
HETATM    9  C12 UNL     1       1.185 -37.005 -26.688  1.00  0.00     0.004 C 
HETATM   10  C11 UNL     1      -0.098 -36.833 -26.530  1.00  0.00     0.007 C 
BRANCH  10  11
HETATM   11  C10 UNL     1      -0.832 -35.542 -26.563  1.00  0.00     0.163 C 
BRANCH  11  12
HETATM   12  C9  UNL     1      -1.921 -35.653 -27.577  1.00  0.00     0.005 C 
HETATM   13  C8  UNL     1      -3.191 -35.736 -27.192  1.00  0.00    -0.016 C 
BRANCH  13  14
HETATM   14  C7  UNL     1      -4.279 -35.848 -28.199  1.00  0.00     0.071 C 
HETATM   15  C2  UNL     1      -4.551 -34.474 -28.761  1.00  0.00    -0.079 C 
HETATM   16  C1  UNL     1      -5.505 -33.731 -28.237  1.00  0.00     0.015 C 
HETATM   17  C3  UNL     1      -3.715 -34.017 -29.900  1.00  0.00     0.040 C 
HETATM   18  C4  UNL     1      -4.027 -34.903 -31.078  1.00  0.00     0.086 C 
HETATM   19  C5  UNL     1      -4.510 -36.266 -30.624  1.00  0.00     0.270 C 
HETATM   20  F1  UNL     1      -4.289 -37.238 -31.561  1.00  0.00    -0.203 F 
HETATM   21  F2  UNL     1      -5.865 -36.174 -30.315  1.00  0.00    -0.203 F 
HETATM   22  C6  UNL     1      -3.794 -36.693 -29.352  1.00  0.00     0.202 C 
BRANCH  22  23
HETATM   23  O1  UNL     1      -4.095 -38.040 -29.160  1.00  0.00    -0.389 OA
ATOM     24  H1  UNL     1      -3.653 -38.306 -28.361  1.00  0.00     0.210 HD
ENDBRANCH  22  23
ENDBRANCH  13  14
ENDBRANCH  11  12
BRANCH  11  25
HETATM   25  O2  UNL     1      -1.374 -35.325 -25.283  1.00  0.00    -0.388 OA
ATOM     26  H2  UNL     1      -0.872 -35.794 -24.627  1.00  0.00     0.210 HD
ENDBRANCH  11  25
ENDBRANCH  10  11
ENDBRANCH   1   9
BRANCH   6  27
HETATM   27  C18 UNL     1       5.467 -36.700 -23.858  1.00  0.00     0.089 C 
BRANCH  27  28
HETATM   28  C19 UNL     1       6.574 -37.704 -23.978  1.00  0.00     0.086 C 
BRANCH  28  29
HETATM   29  C20 UNL     1       6.500 -38.797 -23.001  1.00  0.00     0.232 C 
HETATM   30  O4  UNL     1       7.219 -39.025 -22.077  1.00  0.00    -0.307 OA
ENDBRANCH  28  29
ENDBRANCH  27  28
BRANCH  27  31
HETATM   31  C21 UNL     1       5.787 -35.861 -22.633  1.00  0.00     0.117 C 
HETATM   32  N1  UNL     1       4.920 -35.101 -22.095  1.00  0.00    -0.383 N 
ATOM     33  H12 UNL     1       4.003 -35.095 -22.541  1.00  0.00     0.158 HD
ATOM     34  H11 UNL     1       5.136 -34.538 -21.273  1.00  0.00     0.158 HD
BRANCH  31  35
HETATM   35  O5  UNL     1       7.042 -35.869 -22.025  1.00  0.00    -0.349 OA
ATOM     36  H5  UNL     1       7.232 -35.374 -21.236  1.00  0.00     0.219 HD
ENDBRANCH  31  35
ENDBRANCH  27  31
ENDBRANCH   6  27
TORSDOF 11
ENDMDL
MODEL 2
REMARK VINA RESULT: -8.545988761      1.025      1.472
REMARK  11 active torsions:
REMARK  status: ('A' for Active; 'I' for Inactive)
REMARK    1  A    between atoms: C6_8  and  O1_9 
REMARK    2  A    between atoms: C7_11  and  C8_12 
REMARK    3  A    between atoms: C9_13  and  C10_14 
REMARK    4  A    between atoms: C10_14  and  O2_15 
REMARK    5  A    between atoms: C10_14  and  C11_17 
REMARK    6  A    between atoms: C12_18  and  C13_19 
REMARK    7  A    between atoms: C17_24  and  C18_25 
REMARK    8  A    between atoms: C18_25  and  C19_26 
REMARK    9  A    between atoms: C18_25  and  C21_29 
REMARK   10  A    between atoms: C19_26  and  C20_27 
REMARK   11  A    between atoms: C21_29  and  O5_33 
ROOT
HETATM    1  C13 UNL     1       1.822 -35.866 -27.072  1.00  0.00     0.152 C 
HETATM    2  O3  UNL     1       2.684 -36.392 -28.043  1.00  0.00    -0.372 OA
HETATM    3  C14 UNL     1       3.788 -36.892 -27.267  1.00  0.00     0.147 C 
HETATM    4  C15 UNL     1       4.902 -37.084 -28.265  1.00  0.00     0.044 C 
HETATM    5  C16 UNL     1       4.049 -35.783 -26.328  1.00  0.00    -0.048 C 
HETATM    6  C17 UNL     1       5.112 -35.746 -25.367  1.00  0.00    -0.008 C 
HETATM    7  C22 UNL     1       2.647 -35.429 -25.890  1.00  0.00     0.045 C 
HETATM    8  C23 UNL     1       2.169 -36.084 -24.652  1.00  0.00     0.017 C 
ENDROOT
BRANCH   1   9
HETATM    9  C12 UNL     1       0.800 -36.887 -26.740  1.00  0.00     0.004 C 
HETATM   10  C11 UNL     1      -0.484 -36.698 -26.614  1.00  0.00     0.007 C 
BRANCH  10  11
HETATM   11  C10 UNL     1      -1.211 -35.412 -26.774  1.00  0.00     0.163 C 
BRANCH  11  12
HETATM   12  C9  UNL     1      -2.398 -35.657 -27.647  1.00  0.00     0.005 C 
HETATM   13  C8  UNL     1      -2.920 -34.666 -28.362  1.00  0.00    -0.016 C 
BRANCH  13  14
HETATM   14  C7  UNL     1      -4.102 -34.905 -29.231  1.00  0.00     0.071 C 
HETATM   15  C2  UNL     1      -3.613 -35.237 -30.620  1.00  0.00    -0.079 C 
HETATM   16  C1  UNL     1      -3.505 -34.281 -31.521  1.00  0.00     0.015 C 
HETATM   17  C3  UNL     1      -3.270 -36.652 -30.910  1.00  0.00     0.040 C 
HETATM   18  C4  UNL     1      -4.543 -37.455 -30.829  1.00  0.00     0.086 C 
HETATM   19  C5  UNL     1      -5.545 -36.797 -29.902  1.00  0.00     0.270 C 
HETATM   20  F1  UNL     1      -6.437 -37.692 -29.376  1.00  0.00    -0.203 F 
HETATM   21  F2  UNL     1      -6.205 -35.793 -30.606  1.00  0.00    -0.203 F 
HETATM   22  C6  UNL     1      -4.837 -36.127 -28.735  1.00  0.00     0.202 C 
BRANCH  22  23
HETATM   23  O1  UNL     1      -5.825 -35.788 -27.812  1.00  0.00    -0.389 OA
ATOM     24  H1  UNL     1      -5.467 -35.090 -27.275  1.00  0.00     0.210 HD
ENDBRANCH  22  23
ENDBRANCH  13  14
ENDBRANCH  11  12
BRANCH  11  25
HETATM   25  O2  UNL     1      -1.621 -34.990 -25.497  1.00  0.00    -0.388 OA
ATOM     26  H2  UNL     1      -1.259 -35.560 -24.828  1.00  0.00     0.210 HD
ENDBRANCH  11  25
ENDBRANCH  10  11
ENDBRANCH   1   9
BRANCH   6  27
HETATM   27  C18 UNL     1       5.306 -36.714 -24.269  1.00  0.00     0.089 C 
BRANCH  27  28
HETATM   28  C19 UNL     1       6.480 -37.638 -24.398  1.00  0.00     0.086 C 
BRANCH  28  29
HETATM   29  C20 UNL     1       6.467 -38.758 -23.448  1.00  0.00     0.232 C 
HETATM   30  O4  UNL     1       7.051 -38.869 -22.414  1.00  0.00    -0.307 OA
ENDBRANCH  28  29
ENDBRANCH  27  28
BRANCH  27  31
HETATM   31  C21 UNL     1       5.562 -35.873 -23.031  1.00  0.00     0.117 C 
HETATM   32  N1  UNL     1       4.653 -35.149 -22.512  1.00  0.00    -0.383 N 
ATOM     33  H12 UNL     1       3.748 -35.174 -22.982  1.00  0.00     0.158 HD
ATOM     34  H11 UNL     1       4.826 -34.585 -21.681  1.00  0.00     0.158 HD
BRANCH  31  35
HETATM   35  O5  UNL     1       6.800 -35.840 -22.388  1.00  0.00    -0.349 OA
ATOM     36  H5  UNL     1       7.129 -35.062 -21.952  1.00  0.00     0.219 HD
ENDBRANCH  31  35
ENDBRANCH  27  31
ENDBRANCH   6  27
TORSDOF 11
ENDMDL
MODEL 3
REMARK VINA RESULT: -8.077574687      0.943      1.347
REMARK  11 active torsions:
REMARK  status: ('A' for Active; 'I' for Inactive)
REMARK    1  A    between atoms: C6_8  and  O1_9 
REMARK    2  A    between atoms: C7_11  and  C8_12 
REMARK    3  A    between atoms: C9_13  and  C10_14 
REMARK    4  A    between atoms: C10_14  and  O2_15 
REMARK    5  A    between atoms: C10_14  and  C11_17 
REMARK    6  A    between atoms: C12_18  and  C13_19 
REMARK    7  A    between atoms: C17_24  and  C18_25 
REMARK    8  A    between atoms: C18_25  and  C19_26 
REMARK    9  A    between atoms: C18_25  and  C21_29 
REMARK   10  A    between atoms: C19_26  and  C20_27 
REMARK   11  A    between atoms: C21_29  and  O5_33 
ROOT
HETATM    1  C13 UNL     1       2.254 -36.008 -27.076  1.00  0.00     0.152 C 
HETATM    2  O3  UNL     1       3.211 -36.525 -27.958  1.00  0.00    -0.372 OA
HETATM    3  C14 UNL     1       4.249 -36.996 -27.078  1.00  0.00     0.147 C 
HETATM    4  C15 UNL     1       5.453 -37.174 -27.968  1.00  0.00     0.044 C 
HETATM    5  C16 UNL     1       4.401 -35.874 -26.131  1.00  0.00    -0.048 C 
HETATM    6  C17 UNL     1       5.370 -35.808 -25.077  1.00  0.00    -0.008 C 
HETATM    7  C22 UNL     1       2.958 -35.544 -25.827  1.00  0.00     0.045 C 
HETATM    8  C23 UNL     1       2.381 -36.198 -24.631  1.00  0.00     0.017 C 
ENDROOT
BRANCH   1   9
HETATM    9  C12 UNL     1       1.225 -37.047 -26.828  1.00  0.00     0.004 C 
HETATM   10  C11 UNL     1      -0.027 -36.851 -26.521  1.00  0.00     0.007 C 
BRANCH  10  11
HETATM   11  C10 UNL     1      -0.704 -35.539 -26.349  1.00  0.00     0.163 C 
BRANCH  11  12
HETATM   12  C9  UNL     1      -1.868 -35.493 -27.282  1.00  0.00     0.005 C 
HETATM   13  C8  UNL     1      -2.572 -36.593 -27.532  1.00  0.00    -0.016 C 
BRANCH  13  14
HETATM   14  C7  UNL     1      -3.731 -36.551 -28.461  1.00  0.00     0.071 C 
HETATM   15  C2  UNL     1      -4.952 -36.129 -27.681  1.00  0.00    -0.079 C 
HETATM   16  C1  UNL     1      -5.756 -37.044 -27.178  1.00  0.00     0.015 C 
HETATM   17  C3  UNL     1      -5.194 -34.673 -27.515  1.00  0.00     0.040 C 
HETATM   18  C4  UNL     1      -5.482 -34.101 -28.878  1.00  0.00     0.086 C 
HETATM   19  C5  UNL     1      -4.830 -34.928 -29.967  1.00  0.00     0.270 C 
HETATM   20  F1  UNL     1      -4.593 -34.204 -31.104  1.00  0.00    -0.203 F 
HETATM   21  F2  UNL     1      -5.646 -36.024 -30.238  1.00  0.00    -0.203 F 
HETATM   22  C6  UNL     1      -3.493 -35.478 -29.495  1.00  0.00     0.202 C 
BRANCH  22  23
HETATM   23  O1  UNL     1      -2.853 -35.989 -30.624  1.00  0.00    -0.389 OA
ATOM     24  H1  UNL     1      -2.375 -36.760 -30.339  1.00  0.00     0.210 HD
ENDBRANCH  22  23
ENDBRANCH  13  14
ENDBRANCH  11  12
BRANCH  11  25
HETATM   25  O2  UNL     1      -1.142 -35.455 -25.015  1.00  0.00    -0.388 OA
ATOM     26  H2  UNL     1      -1.971 -34.994 -24.967  1.00  0.00     0.210 HD
ENDBRANCH  11  25
ENDBRANCH  10  11
ENDBRANCH   1   9
BRANCH   6  27
HETATM   27  C18 UNL     1       5.481 -36.762 -23.957  1.00  0.00     0.089 C 
BRANCH  27  28
HETATM   28  C19 UNL     1       6.590 -37.767 -24.046  1.00  0.00     0.086 C 
BRANCH  28  29
HETATM   29  C20 UNL     1       6.488 -38.860 -23.072  1.00  0.00     0.232 C 
HETATM   30  O4  UNL     1       7.197 -39.104 -22.144  1.00  0.00    -0.307 OA
ENDBRANCH  28  29
ENDBRANCH  27  28
BRANCH  27  31
HETATM   31  C21 UNL     1       5.776 -35.913 -22.732  1.00  0.00     0.117 C 
HETATM   32  N1  UNL     1       4.907 -35.127 -22.236  1.00  0.00    -0.383 N 
ATOM     33  H12 UNL     1       4.006 -35.108 -22.714  1.00  0.00     0.158 HD
ATOM     34  H11 UNL     1       5.105 -34.557 -21.414  1.00  0.00     0.158 HD
BRANCH  31  35
HETATM   35  O5  UNL     1       7.008 -35.940 -22.079  1.00  0.00    -0.349 OA
ATOM     36  H5  UNL     1       7.138 -36.388 -21.250  1.00  0.00     0.219 HD
ENDBRANCH  31  35
ENDBRANCH  27  31
ENDBRANCH   6  27
TORSDOF 11
ENDMDL
MODEL 4
REMARK VINA RESULT: -8.055738332      1.860      2.436
REMARK  11 active torsions:
REMARK  status: ('A' for Active; 'I' for Inactive)
REMARK    1  A    between atoms: C6_8  and  O1_9 
REMARK    2  A    between atoms: C7_11  and  C8_12 
REMARK    3  A    between atoms: C9_13  and  C10_14 
REMARK    4  A    between atoms: C10_14  and  O2_15 
REMARK    5  A    between atoms: C10_14  and  C11_17 
REMARK    6  A    between atoms: C12_18  and  C13_19 
REMARK    7  A    between atoms: C17_24  and  C18_25 
REMARK    8  A    between atoms: C18_25  and  C19_26 
REMARK    9  A    between atoms: C18_25  and  C21_29 
REMARK   10  A    between atoms: C19_26  and  C20_27 
REMARK   11  A    between atoms: C21_29  and  O5_33 
ROOT
HETATM    1  C13 UNL     1       1.321 -35.113 -24.717  1.00  0.00     0.152 C 
HETATM    2  O3  UNL     1       1.659 -35.455 -26.033  1.00  0.00    -0.372 OA
HETATM    3  C14 UNL     1       2.887 -36.191 -25.876  1.00  0.00     0.147 C 
HETATM    4  C15 UNL     1       3.495 -36.219 -27.255  1.00  0.00     0.044 C 
HETATM    5  C16 UNL     1       3.649 -35.348 -24.933  1.00  0.00    -0.048 C 
HETATM    6  C17 UNL     1       4.990 -35.603 -24.495  1.00  0.00    -0.008 C 
HETATM    7  C22 UNL     1       2.589 -35.015 -23.909  1.00  0.00     0.045 C 
HETATM    8  C23 UNL     1       2.524 -35.906 -22.729  1.00  0.00     0.017 C 
ENDROOT
BRANCH   1   9
HETATM    9  C12 UNL     1       0.361 -36.115 -24.197  1.00  0.00     0.004 C 
HETATM   10  C11 UNL     1      -0.928 -36.139 -24.392  1.00  0.00     0.007 C 
BRANCH  10  11
HETATM   11  C10 UNL     1      -1.725 -35.163 -25.181  1.00  0.00     0.163 C 
BRANCH  11  12
HETATM   12  C9  UNL     1      -1.843 -35.681 -26.575  1.00  0.00     0.005 C 
HETATM   13  C8  UNL     1      -2.788 -35.217 -27.386  1.00  0.00    -0.016 C 
BRANCH  13  14
HETATM   14  C7  UNL     1      -2.910 -35.730 -28.776  1.00  0.00     0.071 C 
HETATM   15  C2  UNL     1      -3.951 -36.823 -28.791  1.00  0.00    -0.079 C 
HETATM   16  C1  UNL     1      -3.580 -38.081 -28.666  1.00  0.00     0.015 C 
HETATM   17  C3  UNL     1      -5.371 -36.419 -28.950  1.00  0.00     0.040 C 
HETATM   18  C4  UNL     1      -5.525 -35.824 -30.325  1.00  0.00     0.086 C 
HETATM   19  C5  UNL     1      -4.217 -35.237 -30.815  1.00  0.00     0.270 C 
HETATM   20  F1  UNL     1      -4.402 -34.252 -31.747  1.00  0.00    -0.203 F 
HETATM   21  F2  UNL     1      -3.436 -36.268 -31.332  1.00  0.00    -0.203 F 
HETATM   22  C6  UNL     1      -3.436 -34.627 -29.662  1.00  0.00     0.202 C 
BRANCH  22  23
HETATM   23  O1  UNL     1      -2.398 -33.889 -30.229  1.00  0.00    -0.389 OA
ATOM     24  H1  UNL     1      -1.598 -34.375 -30.064  1.00  0.00     0.210 HD
ENDBRANCH  22  23
ENDBRANCH  13  14
ENDBRANCH  11  12
BRANCH  11  25
HETATM   25  O2  UNL     1      -2.995 -35.067 -24.584  1.00  0.00    -0.388 OA
ATOM     26  H2  UNL     1      -2.917 -35.062 -23.638  1.00  0.00     0.210 HD
ENDBRANCH  11  25
ENDBRANCH  10  11
ENDBRANCH   1   9
BRANCH   6  27
HETATM   27  C18 UNL     1       5.438 -36.808 -23.771  1.00  0.00     0.089 C 
BRANCH  27  28
HETATM   28  C19 UNL     1       6.489 -37.638 -24.445  1.00  0.00     0.086 C 
BRANCH  28  29
HETATM   29  C20 UNL     1       6.892 -37.137 -25.765  1.00  0.00     0.232 C 
HETATM   30  O4  UNL     1       6.570 -37.529 -26.844  1.00  0.00    -0.307 OA
ENDBRANCH  28  29
ENDBRANCH  27  28
BRANCH  27  31
HETATM   31  C21 UNL     1       6.063 -36.296 -22.485  1.00  0.00     0.117 C 
HETATM   32  N1  UNL     1       6.853 -37.012 -21.791  1.00  0.00    -0.383 N 
ATOM     33  H12 UNL     1       7.037 -37.947 -22.157  1.00  0.00     0.158 HD
ATOM     34  H11 UNL     1       7.272 -36.668 -20.928  1.00  0.00     0.158 HD
BRANCH  31  35
HETATM   35  O5  UNL     1       5.812 -35.018 -21.985  1.00  0.00    -0.349 OA
ATOM     36  H5  UNL     1       6.171 -34.234 -22.383  1.00  0.00     0.219 HD
ENDBRANCH  31  35
ENDBRANCH  27  31
ENDBRANCH   6  27
TORSDOF 11
ENDMDL
MODEL 5
REMARK VINA RESULT: -8.040445317      2.043      2.580
REMARK  11 active torsions:
REMARK  status: ('A' for Active; 'I' for Inactive)
REMARK    1  A    between atoms: C6_8  and  O1_9 
REMARK    2  A    between atoms: C7_11  and  C8_12 
REMARK    3  A    between atoms: C9_13  and  C10_14 
REMARK    4  A    between atoms: C10_14  and  O2_15 
REMARK    5  A    between atoms: C10_14  and  C11_17 
REMARK    6  A    between atoms: C12_18  and  C13_19 
REMARK    7  A    between atoms: C17_24  and  C18_25 
REMARK    8  A    between atoms: C18_25  and  C19_26 
REMARK    9  A    between atoms: C18_25  and  C21_29 
REMARK   10  A    between atoms: C19_26  and  C20_27 
REMARK   11  A    between atoms: C21_29  and  O5_33 
ROOT
HETATM    1  C13 UNL     1       1.368 -35.374 -26.122  1.00  0.00     0.152 C 
HETATM    2  O3  UNL     1       1.484 -36.277 -27.186  1.00  0.00    -0.372 OA
HETATM    3  C14 UNL     1       2.837 -36.754 -27.068  1.00  0.00     0.147 C 
HETATM    4  C15 UNL     1       3.136 -37.391 -28.401  1.00  0.00     0.044 C 
HETATM    5  C16 UNL     1       3.599 -35.508 -26.848  1.00  0.00    -0.048 C 
HETATM    6  C17 UNL     1       5.025 -35.420 -26.733  1.00  0.00    -0.008 C 
HETATM    7  C22 UNL     1       2.732 -34.807 -25.827  1.00  0.00     0.045 C 
HETATM    8  C23 UNL     1       3.093 -35.028 -24.409  1.00  0.00     0.017 C 
ENDROOT
BRANCH   1   9
HETATM    9  C12 UNL     1       0.754 -36.075 -24.968  1.00  0.00     0.004 C 
HETATM   10  C11 UNL     1      -0.491 -36.014 -24.588  1.00  0.00     0.007 C 
BRANCH  10  11
HETATM   11  C10 UNL     1      -1.576 -35.224 -25.226  1.00  0.00     0.163 C 
BRANCH  11  12
HETATM   12  C9  UNL     1      -1.873 -35.833 -26.555  1.00  0.00     0.005 C 
HETATM   13  C8  UNL     1      -2.444 -35.110 -27.513  1.00  0.00    -0.016 C 
BRANCH  13  14
HETATM   14  C7  UNL     1      -2.742 -35.713 -28.838  1.00  0.00     0.071 C 
HETATM   15  C2  UNL     1      -3.909 -36.657 -28.682  1.00  0.00    -0.079 C 
HETATM   16  C1  UNL     1      -3.689 -37.939 -28.469  1.00  0.00     0.015 C 
HETATM   17  C3  UNL     1      -5.276 -36.085 -28.775  1.00  0.00     0.040 C 
HETATM   18  C4  UNL     1      -5.465 -35.587 -30.184  1.00  0.00     0.086 C 
HETATM   19  C5  UNL     1      -4.139 -35.219 -30.817  1.00  0.00     0.270 C 
HETATM   20  F1  UNL     1      -4.275 -34.296 -31.818  1.00  0.00    -0.203 F 
HETATM   21  F2  UNL     1      -3.538 -36.382 -31.292  1.00  0.00    -0.203 F 
HETATM   22  C6  UNL     1      -3.197 -34.625 -29.781  1.00  0.00     0.202 C 
BRANCH  22  23
HETATM   23  O1  UNL     1      -2.125 -34.079 -30.485  1.00  0.00    -0.389 OA
ATOM     24  H1  UNL     1      -1.889 -33.273 -30.039  1.00  0.00     0.210 HD
ENDBRANCH  22  23
ENDBRANCH  13  14
ENDBRANCH  11  12
BRANCH  11  25
HETATM   25  O2  UNL     1      -2.706 -35.296 -24.390  1.00  0.00    -0.388 OA
ATOM     26  H2  UNL     1      -3.349 -34.646 -24.647  1.00  0.00     0.210 HD
ENDBRANCH  11  25
ENDBRANCH  10  11
ENDBRANCH   1   9
BRANCH   6  27
HETATM   27  C18 UNL     1       5.843 -36.096 -25.707  1.00  0.00     0.089 C 
BRANCH  27  28
HETATM   28  C19 UNL     1       5.100 -36.677 -24.541  1.00  0.00     0.086 C 
BRANCH  28  29
HETATM   29  C20 UNL     1       5.932 -36.903 -23.353  1.00  0.00     0.232 C 
HETATM   30  O4  UNL     1       6.434 -37.915 -22.972  1.00  0.00    -0.307 OA
ENDBRANCH  28  29
ENDBRANCH  27  28
BRANCH  27  31
HETATM   31  C21 UNL     1       6.497 -37.267 -26.419  1.00  0.00     0.117 C 
HETATM   32  N1  UNL     1       6.090 -37.674 -27.553  1.00  0.00    -0.383 N 
ATOM     33  H12 UNL     1       5.300 -37.164 -27.947  1.00  0.00     0.158 HD
ATOM     34  H11 UNL     1       6.529 -38.461 -28.031  1.00  0.00     0.158 HD
BRANCH  31  35
HETATM   35  O5  UNL     1       7.578 -37.965 -25.880  1.00  0.00    -0.349 OA
ATOM     36  H5  UNL     1       7.476 -38.795 -25.427  1.00  0.00     0.219 HD
ENDBRANCH  31  35
ENDBRANCH  27  31
ENDBRANCH   6  27
TORSDOF 11
ENDMDL
