MODEL 1
REMARK VINA RESULT: -7.561805995      0.000      0.000
REMARK  9 active torsions:
REMARK  status: ('A' for Active; 'I' for Inactive)
REMARK       I    between atoms: C1_2  and  N1_3 
REMARK    1  A    between atoms: C1_2  and  C18_29 
REMARK    2  A    between atoms: N1_3  and  C2_5 
REMARK    3  A    between atoms: C5_10  and  C6_11 
REMARK    4  A    between atoms: C6_11  and  N2_12 
REMARK    5  A    between atoms: N2_12  and  C7_13 
REMARK    6  A    between atoms: N2_12  and  C14_21 
REMARK    7  A    between atoms: C7_13  and  C8_14 
REMARK    8  A    between atoms: C8_14  and  C9_15 
REMARK    9  A    between atoms: C14_21  and  C15_22 
ROOT
HETATM    1  C2  UNL     1      -4.762 -35.677 -29.999  1.00  0.00     0.102 C 
HETATM    2  C3  UNL     1      -5.453 -36.846 -30.662  1.00  0.00     0.105 C 
HETATM    3  C4  UNL     1      -4.064 -37.427 -30.897  1.00  0.00     0.252 C 
HETATM    4  F1  UNL     1      -4.003 -38.783 -30.831  1.00  0.00    -0.206 F 
HETATM    5  F2  UNL     1      -3.458 -36.886 -32.033  1.00  0.00    -0.206 F 
HETATM    6  C5  UNL     1      -3.617 -36.658 -29.674  1.00  0.00     0.109 C 
ENDROOT
BRANCH   6   7
HETATM    7  C6  UNL     1      -3.869 -37.281 -28.367  1.00  0.00     0.285 C 
BRANCH   7   8
HETATM    8  N2  UNL     1      -2.934 -37.145 -27.304  1.00  0.00     0.094 N 
BRANCH   8   9
HETATM    9  C7  UNL     1      -3.707 -37.358 -26.074  1.00  0.00     0.273 C 
BRANCH   9  10
HETATM   10  C8  UNL     1      -4.282 -36.144 -25.465  1.00  0.00     0.035 C 
BRANCH  10  11
HETATM   11  C9  UNL     1      -5.687 -36.517 -24.979  1.00  0.00    -0.009 C 
HETATM   12  C10 UNL     1      -6.601 -36.751 -26.174  1.00  0.00     0.031 C 
HETATM   13  C11 UNL     1      -7.855 -37.419 -25.651  1.00  0.00     0.168 C 
HETATM   14  O2  UNL     1      -8.148 -36.995 -24.364  1.00  0.00    -0.391 OA
HETATM   15  C12 UNL     1      -7.808 -35.648 -24.151  1.00  0.00     0.168 C 
HETATM   16  C13 UNL     1      -6.305 -35.446 -24.132  1.00  0.00     0.031 C 
ENDBRANCH  10  11
ENDBRANCH   9  10
ENDBRANCH   8   9
BRANCH   8  17
HETATM   17  C14 UNL     1      -2.319 -35.878 -27.183  1.00  0.00     0.330 C 
BRANCH  17  18
HETATM   18  C15 UNL     1      -0.864 -35.811 -26.961  1.00  0.00     0.054 A 
HETATM   19  C16 UNL     1      -0.227 -36.205 -25.807  1.00  0.00     0.115 A 
HETATM   20  N3  UNL     1       1.076 -36.029 -26.007  1.00  0.00    -0.360 N 
HETATM   21  C17 UNL     1       1.300 -35.532 -27.258  1.00  0.00     0.180 A 
ATOM     22  H3  UNL     1       1.805 -36.236 -25.324  1.00  0.00     0.166 HD
HETATM   23  N4  UNL     1       0.078 -35.415 -27.809  1.00  0.00    -0.353 N 
ATOM     24  H4  UNL     1      -0.100 -35.069 -28.752  1.00  0.00     0.166 HD
ENDBRANCH  17  18
ENDBRANCH   8  17
ENDBRANCH   7   8
ENDBRANCH   6   7
BRANCH   1  25
HETATM   25  N1  UNL     1      -5.417 -35.077 -28.886  1.00  0.00    -0.349 N 
HETATM   26  C1  UNL     1      -4.945 -33.787 -28.467  1.00  0.00     0.286 C 
HETATM   27  O1  UNL     1      -3.979 -33.243 -29.088  1.00  0.00    -0.264 OA
ATOM     28  H1  UNL     1      -6.189 -35.542 -28.409  1.00  0.00     0.163 HD
BRANCH  26  29
HETATM   29  C18 UNL     1      -5.582 -33.141 -27.349  1.00  0.00     0.175 A 
HETATM   30  N5  UNL     1      -4.864 -32.720 -26.263  1.00  0.00    -0.345 N 
HETATM   31  C19 UNL     1      -5.724 -32.170 -25.417  1.00  0.00     0.132 A 
ATOM     32  H5  UNL     1      -3.856 -32.811 -26.129  1.00  0.00     0.167 HD
HETATM   33  C20 UNL     1      -6.968 -32.243 -25.961  1.00  0.00     0.120 A 
HETATM   34 CL1  UNL     1      -8.411 -31.634 -25.181  1.00  0.00    -0.063 Cl
HETATM   35  N6  UNL     1      -6.876 -32.843 -27.156  1.00  0.00    -0.327 N 
ATOM     36  H6  UNL     1      -7.645 -33.038 -27.798  1.00  0.00     0.168 HD
ENDBRANCH  26  29
ENDBRANCH   1  25
TORSDOF 9
ENDMDL
MODEL 2
REMARK VINA RESULT: -7.533026710      0.707      1.282
REMARK  9 active torsions:
REMARK  status: ('A' for Active; 'I' for Inactive)
REMARK       I    between atoms: C1_2  and  N1_3 
REMARK    1  A    between atoms: C1_2  and  C18_29 
REMARK    2  A    between atoms: N1_3  and  C2_5 
REMARK    3  A    between atoms: C5_10  and  C6_11 
REMARK    4  A    between atoms: C6_11  and  N2_12 
REMARK    5  A    between atoms: N2_12  and  C7_13 
REMARK    6  A    between atoms: N2_12  and  C14_21 
REMARK    7  A    between atoms: C7_13  and  C8_14 
REMARK    8  A    between atoms: C8_14  and  C9_15 
REMARK    9  A    between atoms: C14_21  and  C15_22 
ROOT
HETATM    1  C2  UNL     1      -4.761 -35.624 -29.955  1.00  0.00     0.102 C 
HETATM    2  C3  UNL     1      -5.537 -36.689 -30.696  1.00  0.00     0.105 C 
HETATM    3  C4  UNL     1      -4.203 -37.392 -30.914  1.00  0.00     0.252 C 
HETATM    4  F1  UNL     1      -4.275 -38.750 -30.912  1.00  0.00    -0.206 F 
HETATM    5  F2  UNL     1      -3.505 -36.863 -32.001  1.00  0.00    -0.206 F 
HETATM    6  C5  UNL     1      -3.729 -36.726 -29.641  1.00  0.00     0.109 C 
ENDROOT
BRANCH   6   7
HETATM    7  C6  UNL     1      -4.089 -37.380 -28.375  1.00  0.00     0.285 C 
BRANCH   7   8
HETATM    8  N2  UNL     1      -3.232 -37.294 -27.242  1.00  0.00     0.094 N 
BRANCH   8   9
HETATM    9  C7  UNL     1      -4.099 -37.513 -26.078  1.00  0.00     0.273 C 
BRANCH   9  10
HETATM   10  C8  UNL     1      -4.407 -36.313 -25.279  1.00  0.00     0.035 C 
BRANCH  10  11
HETATM   11  C9  UNL     1      -5.919 -36.087 -25.388  1.00  0.00    -0.009 C 
HETATM   12  C10 UNL     1      -6.481 -35.687 -24.030  1.00  0.00     0.031 C 
HETATM   13  C11 UNL     1      -7.885 -35.172 -24.264  1.00  0.00     0.168 C 
HETATM   14  O2  UNL     1      -8.486 -35.825 -25.328  1.00  0.00    -0.391 OA
HETATM   15  C12 UNL     1      -8.102 -37.173 -25.419  1.00  0.00     0.168 C 
HETATM   16  C13 UNL     1      -6.651 -37.314 -25.842  1.00  0.00     0.031 C 
ENDBRANCH  10  11
ENDBRANCH   9  10
ENDBRANCH   8   9
BRANCH   8  17
HETATM   17  C14 UNL     1      -2.595 -36.047 -27.046  1.00  0.00     0.330 C 
BRANCH  17  18
HETATM   18  C15 UNL     1      -1.126 -35.977 -27.127  1.00  0.00     0.054 A 
HETATM   19  C16 UNL     1      -0.261 -36.706 -26.344  1.00  0.00     0.115 A 
HETATM   20  N3  UNL     1       0.971 -36.397 -26.741  1.00  0.00    -0.360 N 
HETATM   21  C17 UNL     1       0.926 -35.490 -27.759  1.00  0.00     0.180 A 
ATOM     22  H3  UNL     1       1.826 -36.783 -26.342  1.00  0.00     0.166 HD
HETATM   23  N4  UNL     1      -0.384 -35.261 -27.964  1.00  0.00    -0.353 N 
ATOM     24  H4  UNL     1      -0.756 -34.623 -28.667  1.00  0.00     0.166 HD
ENDBRANCH  17  18
ENDBRANCH   8  17
ENDBRANCH   7   8
ENDBRANCH   6   7
BRANCH   1  25
HETATM   25  N1  UNL     1      -5.396 -35.013 -28.837  1.00  0.00    -0.349 N 
HETATM   26  C1  UNL     1      -4.870 -33.752 -28.394  1.00  0.00     0.286 C 
HETATM   27  O1  UNL     1      -3.878 -33.242 -29.001  1.00  0.00    -0.264 OA
ATOM     28  H1  UNL     1      -6.190 -35.451 -28.371  1.00  0.00     0.163 HD
BRANCH  26  29
HETATM   29  C18 UNL     1      -5.484 -33.096 -27.270  1.00  0.00     0.175 A 
HETATM   30  N5  UNL     1      -6.787 -32.680 -27.309  1.00  0.00    -0.345 N 
HETATM   31  C19 UNL     1      -7.053 -32.121 -26.137  1.00  0.00     0.132 A 
ATOM     32  H5  UNL     1      -7.433 -32.781 -28.093  1.00  0.00     0.167 HD
HETATM   33  C20 UNL     1      -5.934 -32.183 -25.367  1.00  0.00     0.120 A 
HETATM   34 CL1  UNL     1      -5.836 -31.560 -23.735  1.00  0.00    -0.063 Cl
HETATM   35  N6  UNL     1      -4.965 -32.787 -26.071  1.00  0.00    -0.327 N 
ATOM     36  H6  UNL     1      -4.014 -32.976 -25.756  1.00  0.00     0.168 HD
ENDBRANCH  26  29
ENDBRANCH   1  25
TORSDOF 9
ENDMDL
MODEL 3
REMARK VINA RESULT: -7.417651572      4.170      7.393
REMARK  9 active torsions:
REMARK  status: ('A' for Active; 'I' for Inactive)
REMARK       I    between atoms: C1_2  and  N1_3 
REMARK    1  A    between atoms: C1_2  and  C18_29 
REMARK    2  A    between atoms: N1_3  and  C2_5 
REMARK    3  A    between atoms: C5_10  and  C6_11 
REMARK    4  A    between atoms: C6_11  and  N2_12 
REMARK    5  A    between atoms: N2_12  and  C7_13 
REMARK    6  A    between atoms: N2_12  and  C14_21 
REMARK    7  A    between atoms: C7_13  and  C8_14 
REMARK    8  A    between atoms: C8_14  and  C9_15 
REMARK    9  A    between atoms: C14_21  and  C15_22 
ROOT
HETATM    1  C2  UNL     1      -4.400 -36.963 -24.976  1.00  0.00     0.102 C 
HETATM    2  C3  UNL     1      -5.003 -38.070 -25.810  1.00  0.00     0.105 C 
HETATM    3  C4  UNL     1      -5.094 -37.056 -26.942  1.00  0.00     0.252 C 
HETATM    4  F1  UNL     1      -4.906 -37.579 -28.183  1.00  0.00    -0.206 F 
HETATM    5  F2  UNL     1      -6.229 -36.250 -26.832  1.00  0.00    -0.206 F 
HETATM    6  C5  UNL     1      -3.915 -36.352 -26.307  1.00  0.00     0.109 C 
ENDROOT
BRANCH   6   7
HETATM    7  C6  UNL     1      -2.579 -36.876 -26.622  1.00  0.00     0.285 C 
BRANCH   7   8
HETATM    8  N2  UNL     1      -1.731 -36.201 -27.544  1.00  0.00     0.094 N 
BRANCH   8   9
HETATM    9  C7  UNL     1      -0.448 -36.040 -26.851  1.00  0.00     0.273 C 
BRANCH   9  10
HETATM   10  C8  UNL     1       0.647 -35.474 -27.661  1.00  0.00     0.035 C 
BRANCH  10  11
HETATM   11  C9  UNL     1       1.956 -35.993 -27.057  1.00  0.00    -0.009 C 
HETATM   12  C10 UNL     1       2.787 -34.825 -26.544  1.00  0.00     0.031 C 
HETATM   13  C11 UNL     1       3.891 -35.407 -25.686  1.00  0.00     0.168 C 
HETATM   14  O2  UNL     1       4.282 -36.652 -26.152  1.00  0.00    -0.391 OA
HETATM   15  C12 UNL     1       4.221 -36.747 -27.552  1.00  0.00     0.168 C 
HETATM   16  C13 UNL     1       2.788 -36.745 -28.052  1.00  0.00     0.031 C 
ENDBRANCH  10  11
ENDBRANCH   9  10
ENDBRANCH   8   9
BRANCH   8  17
HETATM   17  C14 UNL     1      -2.150 -34.907 -27.931  1.00  0.00     0.330 C 
BRANCH  17  18
HETATM   18  C15 UNL     1      -2.693 -34.710 -29.286  1.00  0.00     0.054 A 
HETATM   19  C16 UNL     1      -4.031 -34.596 -29.586  1.00  0.00     0.115 A 
HETATM   20  N3  UNL     1      -4.115 -34.390 -30.898  1.00  0.00    -0.360 N 
HETATM   21  C17 UNL     1      -2.870 -34.369 -31.454  1.00  0.00     0.180 A 
ATOM     22  H3  UNL     1      -4.986 -34.267 -31.414  1.00  0.00     0.166 HD
HETATM   23  N4  UNL     1      -2.026 -34.568 -30.425  1.00  0.00    -0.353 N 
ATOM     24  H4  UNL     1      -1.010 -34.605 -30.510  1.00  0.00     0.166 HD
ENDBRANCH  17  18
ENDBRANCH   8  17
ENDBRANCH   7   8
ENDBRANCH   6   7
BRANCH   1  25
HETATM   25  N1  UNL     1      -3.390 -37.326 -24.041  1.00  0.00    -0.349 N 
HETATM   26  C1  UNL     1      -3.655 -37.057 -22.655  1.00  0.00     0.286 C 
HETATM   27  O1  UNL     1      -4.754 -36.513 -22.324  1.00  0.00    -0.264 OA
ATOM     28  H1  UNL     1      -2.517 -37.760 -24.341  1.00  0.00     0.163 HD
BRANCH  26  29
HETATM   29  C18 UNL     1      -2.664 -37.412 -21.673  1.00  0.00     0.175 A 
HETATM   30  N5  UNL     1      -2.770 -38.558 -20.933  1.00  0.00    -0.345 N 
HETATM   31  C19 UNL     1      -1.716 -38.601 -20.129  1.00  0.00     0.132 A 
ATOM     32  H5  UNL     1      -3.519 -39.249 -20.988  1.00  0.00     0.167 HD
HETATM   33  C20 UNL     1      -0.955 -37.498 -20.359  1.00  0.00     0.120 A 
HETATM   34 CL1  UNL     1       0.538 -37.150 -19.515  1.00  0.00    -0.063 Cl
HETATM   35  N6  UNL     1      -1.544 -36.765 -21.315  1.00  0.00    -0.327 N 
ATOM     36  H6  UNL     1      -1.205 -35.883 -21.697  1.00  0.00     0.168 HD
ENDBRANCH  26  29
ENDBRANCH   1  25
TORSDOF 9
ENDMDL
MODEL 4
REMARK VINA RESULT: -7.354878275      4.999      8.321
REMARK  9 active torsions:
REMARK  status: ('A' for Active; 'I' for Inactive)
REMARK       I    between atoms: C1_2  and  N1_3 
REMARK    1  A    between atoms: C1_2  and  C18_29 
REMARK    2  A    between atoms: N1_3  and  C2_5 
REMARK    3  A    between atoms: C5_10  and  C6_11 
REMARK    4  A    between atoms: C6_11  and  N2_12 
REMARK    5  A    between atoms: N2_12  and  C7_13 
REMARK    6  A    between atoms: N2_12  and  C14_21 
REMARK    7  A    between atoms: C7_13  and  C8_14 
REMARK    8  A    between atoms: C8_14  and  C9_15 
REMARK    9  A    between atoms: C14_21  and  C15_22 
ROOT
HETATM    1  C2  UNL     1      -0.836 -36.473 -25.157  1.00  0.00     0.102 C 
HETATM    2  C3  UNL     1      -0.839 -35.177 -24.378  1.00  0.00     0.105 C 
HETATM    3  C4  UNL     1       0.454 -35.658 -23.733  1.00  0.00     0.252 C 
HETATM    4  F1  UNL     1       1.342 -34.669 -23.447  1.00  0.00    -0.206 F 
HETATM    5  F2  UNL     1       0.214 -36.530 -22.668  1.00  0.00    -0.206 F 
HETATM    6  C5  UNL     1       0.698 -36.459 -24.993  1.00  0.00     0.109 C 
ENDROOT
BRANCH   6   7
HETATM    7  C6  UNL     1       1.301 -35.746 -26.127  1.00  0.00     0.285 C 
BRANCH   7   8
HETATM    8  N2  UNL     1       2.426 -36.285 -26.811  1.00  0.00     0.094 N 
BRANCH   8   9
HETATM    9  C7  UNL     1       3.484 -35.276 -26.680  1.00  0.00     0.273 C 
BRANCH   9  10
HETATM   10  C8  UNL     1       3.974 -35.040 -25.309  1.00  0.00     0.035 C 
BRANCH  10  11
HETATM   11  C9  UNL     1       4.859 -36.237 -24.946  1.00  0.00    -0.009 C 
HETATM   12  C10 UNL     1       5.456 -36.036 -23.559  1.00  0.00     0.031 C 
HETATM   13  C11 UNL     1       6.042 -37.364 -23.130  1.00  0.00     0.168 C 
HETATM   14  O2  UNL     1       6.520 -38.075 -24.220  1.00  0.00    -0.391 OA
HETATM   15  C12 UNL     1       7.065 -37.240 -25.210  1.00  0.00     0.168 C 
HETATM   16  C13 UNL     1       5.993 -36.426 -25.908  1.00  0.00     0.031 C 
ENDBRANCH  10  11
ENDBRANCH   9  10
ENDBRANCH   8   9
BRANCH   8  17
HETATM   17  C14 UNL     1       2.253 -36.516 -28.195  1.00  0.00     0.330 C 
BRANCH  17  18
HETATM   18  C15 UNL     1       3.255 -37.323 -28.912  1.00  0.00     0.054 A 
HETATM   19  C16 UNL     1       4.075 -38.258 -28.326  1.00  0.00     0.115 A 
HETATM   20  N3  UNL     1       4.804 -38.796 -29.300  1.00  0.00    -0.360 N 
HETATM   21  C17 UNL     1       4.478 -38.236 -30.500  1.00  0.00     0.180 A 
ATOM     22  H3  UNL     1       5.507 -39.524 -29.170  1.00  0.00     0.166 HD
HETATM   23  N4  UNL     1       3.519 -37.335 -30.214  1.00  0.00    -0.353 N 
ATOM     24  H4  UNL     1       3.058 -36.742 -30.904  1.00  0.00     0.166 HD
ENDBRANCH  17  18
ENDBRANCH   8  17
ENDBRANCH   7   8
ENDBRANCH   6   7
BRANCH   1  25
HETATM   25  N1  UNL     1      -1.330 -36.433 -26.492  1.00  0.00    -0.349 N 
HETATM   26  C1  UNL     1      -2.688 -36.852 -26.699  1.00  0.00     0.286 C 
HETATM   27  O1  UNL     1      -3.380 -37.238 -25.706  1.00  0.00    -0.264 OA
ATOM     28  H1  UNL     1      -0.746 -36.119 -27.267  1.00  0.00     0.163 HD
BRANCH  26  29
HETATM   29  C18 UNL     1      -3.232 -36.823 -28.031  1.00  0.00     0.175 A 
HETATM   30  N5  UNL     1      -3.142 -35.706 -28.816  1.00  0.00    -0.345 N 
HETATM   31  C19 UNL     1      -3.728 -35.994 -29.970  1.00  0.00     0.132 A 
ATOM     32  H5  UNL     1      -2.705 -34.820 -28.562  1.00  0.00     0.167 HD
HETATM   33  C20 UNL     1      -4.183 -37.274 -29.915  1.00  0.00     0.120 A 
HETATM   34 CL1  UNL     1      -5.023 -38.068 -31.228  1.00  0.00    -0.063 Cl
HETATM   35  N6  UNL     1      -3.874 -37.784 -28.714  1.00  0.00    -0.327 N 
ATOM     36  H6  UNL     1      -4.086 -38.725 -28.383  1.00  0.00     0.168 HD
ENDBRANCH  26  29
ENDBRANCH   1  25
TORSDOF 9
ENDMDL
MODEL 5
REMARK VINA RESULT: -7.334013178      4.391      7.728
REMARK  9 active torsions:
REMARK  status: ('A' for Active; 'I' for Inactive)
REMARK       I    between atoms: C1_2  and  N1_3 
REMARK    1  A    between atoms: C1_2  and  C18_29 
REMARK    2  A    between atoms: N1_3  and  C2_5 
REMARK    3  A    between atoms: C5_10  and  C6_11 
REMARK    4  A    between atoms: C6_11  and  N2_12 
REMARK    5  A    between atoms: N2_12  and  C7_13 
REMARK    6  A    between atoms: N2_12  and  C14_21 
REMARK    7  A    between atoms: C7_13  and  C8_14 
REMARK    8  A    between atoms: C8_14  and  C9_15 
REMARK    9  A    between atoms: C14_21  and  C15_22 
ROOT
HETATM    1  C2  UNL     1       0.800 -35.644 -24.390  1.00  0.00     0.102 C 
HETATM    2  C3  UNL     1       0.238 -36.417 -23.219  1.00  0.00     0.105 C 
HETATM    3  C4  UNL     1      -0.947 -35.461 -23.264  1.00  0.00     0.252 C 
HETATM    4  F1  UNL     1      -2.138 -36.024 -22.925  1.00  0.00    -0.206 F 
HETATM    5  F2  UNL     1      -0.678 -34.263 -22.599  1.00  0.00    -0.206 F 
HETATM    6  C5  UNL     1      -0.661 -35.293 -24.740  1.00  0.00     0.109 C 
ENDROOT
BRANCH   6   7
HETATM    7  C6  UNL     1      -1.203 -36.318 -25.643  1.00  0.00     0.285 C 
BRANCH   7   8
HETATM    8  N2  UNL     1      -2.352 -36.052 -26.438  1.00  0.00     0.094 N 
BRANCH   8   9
HETATM    9  C7  UNL     1      -2.621 -37.297 -27.166  1.00  0.00     0.273 C 
BRANCH   9  10
HETATM   10  C8  UNL     1      -3.990 -37.831 -27.031  1.00  0.00     0.035 C 
BRANCH  10  11
HETATM   11  C9  UNL     1      -4.567 -37.927 -28.447  1.00  0.00    -0.009 C 
HETATM   12  C10 UNL     1      -3.467 -37.678 -29.471  1.00  0.00     0.031 C 
HETATM   13  C11 UNL     1      -4.012 -38.098 -30.820  1.00  0.00     0.168 C 
HETATM   14  O2  UNL     1      -5.379 -37.879 -30.897  1.00  0.00    -0.391 OA
HETATM   15  C12 UNL     1      -5.781 -36.732 -30.192  1.00  0.00     0.168 C 
HETATM   16  C13 UNL     1      -5.655 -36.925 -28.692  1.00  0.00     0.031 C 
ENDBRANCH  10  11
ENDBRANCH   9  10
ENDBRANCH   8   9
BRANCH   8  17
HETATM   17  C14 UNL     1      -2.207 -35.036 -27.410  1.00  0.00     0.330 C 
BRANCH  17  18
HETATM   18  C15 UNL     1      -3.388 -34.247 -27.798  1.00  0.00     0.054 A 
HETATM   19  C16 UNL     1      -3.664 -33.823 -29.078  1.00  0.00     0.115 A 
HETATM   20  N3  UNL     1      -4.828 -33.180 -29.028  1.00  0.00    -0.360 N 
HETATM   21  C17 UNL     1      -5.312 -33.176 -27.753  1.00  0.00     0.180 A 
ATOM     22  H3  UNL     1      -5.292 -32.752 -29.829  1.00  0.00     0.166 HD
HETATM   23  N4  UNL     1      -4.394 -33.844 -27.031  1.00  0.00    -0.353 N 
ATOM     24  H4  UNL     1      -4.463 -34.019 -26.027  1.00  0.00     0.166 HD
ENDBRANCH  17  18
ENDBRANCH   8  17
ENDBRANCH   7   8
ENDBRANCH   6   7
BRANCH   1  25
HETATM   25  N1  UNL     1       1.526 -36.381 -25.369  1.00  0.00    -0.349 N 
HETATM   26  C1  UNL     1       2.584 -35.691 -26.054  1.00  0.00     0.286 C 
HETATM   27  O1  UNL     1       2.824 -34.477 -25.770  1.00  0.00    -0.264 OA
ATOM     28  H1  UNL     1       1.305 -37.355 -25.574  1.00  0.00     0.163 HD
BRANCH  26  29
HETATM   29  C18 UNL     1       3.348 -36.398 -27.048  1.00  0.00     0.175 A 
HETATM   30  N5  UNL     1       4.678 -36.664 -26.872  1.00  0.00    -0.345 N 
HETATM   31  C19 UNL     1       5.090 -37.320 -27.948  1.00  0.00     0.132 A 
ATOM     32  H5  UNL     1       5.247 -36.407 -26.064  1.00  0.00     0.167 HD
HETATM   33  C20 UNL     1       4.035 -37.466 -28.793  1.00  0.00     0.120 A 
HETATM   34 CL1  UNL     1       4.129 -38.276 -30.341  1.00  0.00    -0.063 Cl
HETATM   35  N6  UNL     1       2.959 -36.895 -28.233  1.00  0.00    -0.327 N 
ATOM     36  H6  UNL     1       2.022 -36.847 -28.632  1.00  0.00     0.168 HD
ENDBRANCH  26  29
ENDBRANCH   1  25
TORSDOF 9
ENDMDL
