MODEL 1
REMARK VINA RESULT: -6.713241609      0.000      0.000
REMARK  7 active torsions:
REMARK  status: ('A' for Active; 'I' for Inactive)
REMARK    1  A    between atoms: C3_3  and  O1_4 
REMARK    2  A    between atoms: O1_4  and  C4_5 
REMARK    3  A    between atoms: C4_5  and  C5_6 
REMARK    4  A    between atoms: C5_6  and  O2_7 
REMARK    5  A    between atoms: C8_11  and  C9_12 
REMARK    6  A    between atoms: C9_12  and  C10_13 
REMARK       I    between atoms: C10_13  and  N1_15 
REMARK    7  A    between atoms: N1_15  and  C11_17 
ROOT
HETATM    1  C1  UNL     1      17.372  -0.857  11.612  1.00  0.00     0.014 C 
HETATM    2  C2  UNL     1      18.152  -0.068  11.150  1.00  0.00    -0.091 C 
HETATM    3  C3  UNL     1      19.114   0.930  10.554  1.00  0.00     0.260 C 
ENDROOT
BRANCH   3   4
HETATM    4  O1  UNL     1      19.708   1.569  11.589  1.00  0.00    -0.377 OA
BRANCH   4   5
HETATM    5  C4  UNL     1      20.077   2.847  11.453  1.00  0.00     0.206 C 
BRANCH   5   6
HETATM    6  C5  UNL     1      19.441   3.905  12.248  1.00  0.00     0.079 C 
HETATM    7  C6  UNL     1      19.550   5.322  11.722  1.00  0.00     0.040 C 
HETATM    8  C7  UNL     1      18.866   6.050  12.909  1.00  0.00     0.008 C 
HETATM    9  C8  UNL     1      17.653   5.177  13.138  1.00  0.00    -0.003 C 
HETATM   10  C15 UNL     1      18.007   3.791  12.575  1.00  0.00     0.045 C 
BRANCH   6  11
HETATM   11  O2  UNL     1      20.148   4.037  13.514  1.00  0.00    -0.388 OA
ATOM     12  H2  UNL     1      19.801   3.401  14.129  1.00  0.00     0.210 HD
ENDBRANCH   6  11
BRANCH   9  13
HETATM   13  C9  UNL     1      17.375   5.029  14.596  1.00  0.00     0.107 C 
BRANCH  13  14
HETATM   14  C10 UNL     1      16.195   4.160  14.826  1.00  0.00     0.218 C 
HETATM   15  O3  UNL     1      15.113   4.457  14.264  1.00  0.00    -0.274 OA
HETATM   16  N1  UNL     1      16.292   3.021  15.663  1.00  0.00    -0.356 N 
ATOM     17  H1  UNL     1      17.172   2.782  16.118  1.00  0.00     0.162 HD
BRANCH  16  18
HETATM   18  C11 UNL     1      15.125   2.211  15.856  1.00  0.00     0.084 C 
HETATM   19  C12 UNL     1      14.209   2.645  16.990  1.00  0.00     0.025 C 
HETATM   20  C13 UNL     1      13.971   1.162  17.245  1.00  0.00     0.004 C 
HETATM   21  C14 UNL     1      15.372   0.936  16.675  1.00  0.00     0.025 C 
ENDBRANCH  16  18
ENDBRANCH  13  14
ENDBRANCH   9  13
ENDBRANCH   5   6
ENDBRANCH   4   5
ENDBRANCH   3   4
TORSDOF 7
ENDMDL
MODEL 2
REMARK VINA RESULT: -6.487974741      2.268      5.385
REMARK  7 active torsions:
REMARK  status: ('A' for Active; 'I' for Inactive)
REMARK    1  A    between atoms: C3_3  and  O1_4 
REMARK    2  A    between atoms: O1_4  and  C4_5 
REMARK    3  A    between atoms: C4_5  and  C5_6 
REMARK    4  A    between atoms: C5_6  and  O2_7 
REMARK    5  A    between atoms: C8_11  and  C9_12 
REMARK    6  A    between atoms: C9_12  and  C10_13 
REMARK       I    between atoms: C10_13  and  N1_15 
REMARK    7  A    between atoms: N1_15  and  C11_17 
ROOT
HETATM    1  C1  UNL     1      14.734   0.629  17.220  1.00  0.00     0.014 C 
HETATM    2  C2  UNL     1      14.475   1.789  17.044  1.00  0.00    -0.091 C 
HETATM    3  C3  UNL     1      14.162   3.252  16.848  1.00  0.00     0.260 C 
ENDROOT
BRANCH   3   4
HETATM    4  O1  UNL     1      14.546   3.569  15.589  1.00  0.00    -0.377 OA
BRANCH   4   5
HETATM    5  C4  UNL     1      14.894   4.828  15.301  1.00  0.00     0.206 C 
BRANCH   5   6
HETATM    6  C5  UNL     1      15.914   5.115  14.285  1.00  0.00     0.079 C 
HETATM    7  C6  UNL     1      17.052   6.030  14.690  1.00  0.00     0.040 C 
HETATM    8  C7  UNL     1      17.760   6.122  13.313  1.00  0.00     0.008 C 
HETATM    9  C8  UNL     1      17.768   4.672  12.882  1.00  0.00    -0.003 C 
HETATM   10  C15 UNL     1      16.616   3.991  13.637  1.00  0.00     0.045 C 
BRANCH   6  11
HETATM   11  O2  UNL     1      15.310   5.900  13.217  1.00  0.00    -0.388 OA
ATOM     12  H2  UNL     1      15.378   5.417  12.402  1.00  0.00     0.210 HD
ENDBRANCH   6  11
BRANCH   9  13
HETATM   13  C9  UNL     1      17.500   4.553  11.419  1.00  0.00     0.107 C 
BRANCH  13  14
HETATM   14  C10 UNL     1      17.148   3.159  11.056  1.00  0.00     0.218 C 
HETATM   15  O3  UNL     1      16.059   2.949  10.468  1.00  0.00    -0.274 OA
HETATM   16  N1  UNL     1      18.024   2.090  11.368  1.00  0.00    -0.356 N 
ATOM     17  H1  UNL     1      18.908   2.264  11.846  1.00  0.00     0.162 HD
BRANCH  16  18
HETATM   18  C11 UNL     1      17.641   0.760  10.998  1.00  0.00     0.084 C 
HETATM   19  C12 UNL     1      16.870  -0.017  12.055  1.00  0.00     0.025 C 
HETATM   20  C13 UNL     1      17.627  -1.248  11.574  1.00  0.00     0.004 C 
HETATM   21  C14 UNL     1      18.750  -0.288  11.178  1.00  0.00     0.025 C 
ENDBRANCH  16  18
ENDBRANCH  13  14
ENDBRANCH   9  13
ENDBRANCH   5   6
ENDBRANCH   4   5
ENDBRANCH   3   4
TORSDOF 7
ENDMDL
MODEL 3
REMARK VINA RESULT: -6.447625312      1.497      1.856
REMARK  7 active torsions:
REMARK  status: ('A' for Active; 'I' for Inactive)
REMARK    1  A    between atoms: C3_3  and  O1_4 
REMARK    2  A    between atoms: O1_4  and  C4_5 
REMARK    3  A    between atoms: C4_5  and  C5_6 
REMARK    4  A    between atoms: C5_6  and  O2_7 
REMARK    5  A    between atoms: C8_11  and  C9_12 
REMARK    6  A    between atoms: C9_12  and  C10_13 
REMARK       I    between atoms: C10_13  and  N1_15 
REMARK    7  A    between atoms: N1_15  and  C11_17 
ROOT
HETATM    1  C1  UNL     1      18.256  -2.377  11.546  1.00  0.00     0.014 C 
HETATM    2  C2  UNL     1      17.815  -1.382  11.037  1.00  0.00    -0.091 C 
HETATM    3  C3  UNL     1      17.243  -0.131  10.416  1.00  0.00     0.260 C 
ENDROOT
BRANCH   3   4
HETATM    4  O1  UNL     1      18.293   0.652  10.075  1.00  0.00    -0.377 OA
BRANCH   4   5
HETATM    5  C4  UNL     1      18.975   1.298  11.027  1.00  0.00     0.206 C 
BRANCH   5   6
HETATM    6  C5  UNL     1      18.487   2.570  11.575  1.00  0.00     0.079 C 
HETATM    7  C6  UNL     1      17.926   3.574  10.588  1.00  0.00     0.040 C 
HETATM    8  C7  UNL     1      17.672   4.738  11.581  1.00  0.00     0.008 C 
HETATM    9  C8  UNL     1      17.008   4.013  12.730  1.00  0.00    -0.003 C 
HETATM   10  C15 UNL     1      17.459   2.547  12.632  1.00  0.00     0.045 C 
BRANCH   6  11
HETATM   11  O2  UNL     1      19.615   3.321  12.106  1.00  0.00    -0.388 OA
ATOM     12  H2  UNL     1      19.456   3.511  13.023  1.00  0.00     0.210 HD
ENDBRANCH   6  11
BRANCH   9  13
HETATM   13  C9  UNL     1      17.475   4.557  14.039  1.00  0.00     0.107 C 
BRANCH  13  14
HETATM   14  C10 UNL     1      17.165   3.618  15.145  1.00  0.00     0.218 C 
HETATM   15  O3  UNL     1      18.116   3.056  15.740  1.00  0.00    -0.274 OA
HETATM   16  N1  UNL     1      15.822   3.363  15.517  1.00  0.00    -0.356 N 
ATOM     17  H1  UNL     1      15.050   3.820  15.032  1.00  0.00     0.162 HD
BRANCH  16  18
HETATM   18  C11 UNL     1      15.570   2.448  16.591  1.00  0.00     0.084 C 
HETATM   19  C12 UNL     1      15.603   0.974  16.216  1.00  0.00     0.025 C 
HETATM   20  C13 UNL     1      14.465   0.787  17.212  1.00  0.00     0.004 C 
HETATM   21  C14 UNL     1      14.081   2.235  16.901  1.00  0.00     0.025 C 
ENDBRANCH  16  18
ENDBRANCH  13  14
ENDBRANCH   9  13
ENDBRANCH   5   6
ENDBRANCH   4   5
ENDBRANCH   3   4
TORSDOF 7
ENDMDL
MODEL 4
REMARK VINA RESULT: -6.440483679      3.198      6.510
REMARK  7 active torsions:
REMARK  status: ('A' for Active; 'I' for Inactive)
REMARK    1  A    between atoms: C3_3  and  O1_4 
REMARK    2  A    between atoms: O1_4  and  C4_5 
REMARK    3  A    between atoms: C4_5  and  C5_6 
REMARK    4  A    between atoms: C5_6  and  O2_7 
REMARK    5  A    between atoms: C8_11  and  C9_12 
REMARK    6  A    between atoms: C9_12  and  C10_13 
REMARK       I    between atoms: C10_13  and  N1_15 
REMARK    7  A    between atoms: N1_15  and  C11_17 
ROOT
HETATM    1  C1  UNL     1      14.794   2.459  18.981  1.00  0.00     0.014 C 
HETATM    2  C2  UNL     1      14.975   1.575  18.187  1.00  0.00    -0.091 C 
HETATM    3  C3  UNL     1      15.186   0.449  17.205  1.00  0.00     0.260 C 
ENDROOT
BRANCH   3   4
HETATM    4  O1  UNL     1      15.090   0.987  15.966  1.00  0.00    -0.377 OA
BRANCH   4   5
HETATM    5  C4  UNL     1      16.123   1.667  15.458  1.00  0.00     0.206 C 
BRANCH   5   6
HETATM    6  C5  UNL     1      15.950   3.033  14.948  1.00  0.00     0.079 C 
HETATM    7  C6  UNL     1      14.826   3.854  15.547  1.00  0.00     0.040 C 
HETATM    8  C7  UNL     1      14.966   5.108  14.644  1.00  0.00     0.008 C 
HETATM    9  C8  UNL     1      16.462   5.327  14.665  1.00  0.00    -0.003 C 
HETATM   10  C15 UNL     1      17.092   3.965  14.996  1.00  0.00     0.045 C 
BRANCH   6  11
HETATM   11  O2  UNL     1      15.521   2.970  13.558  1.00  0.00    -0.388 OA
ATOM     12  H2  UNL     1      14.923   2.240  13.452  1.00  0.00     0.210 HD
ENDBRANCH   6  11
BRANCH   9  13
HETATM   13  C9  UNL     1      16.952   5.752  13.321  1.00  0.00     0.107 C 
BRANCH  13  14
HETATM   14  C10 UNL     1      18.203   6.541  13.438  1.00  0.00     0.218 C 
HETATM   15  O3  UNL     1      19.192   6.204  12.743  1.00  0.00    -0.274 OA
HETATM   16  N1  UNL     1      18.274   7.650  14.317  1.00  0.00    -0.356 N 
ATOM     17  H1  UNL     1      17.469   7.922  14.880  1.00  0.00     0.162 HD
BRANCH  16  18
HETATM   18  C11 UNL     1      19.503   8.383  14.397  1.00  0.00     0.084 C 
HETATM   19  C12 UNL     1      19.840   8.947  15.769  1.00  0.00     0.025 C 
HETATM   20  C13 UNL     1      20.412  10.153  15.034  1.00  0.00     0.004 C 
HETATM   21  C14 UNL     1      19.398   9.842  13.931  1.00  0.00     0.025 C 
ENDBRANCH  16  18
ENDBRANCH  13  14
ENDBRANCH   9  13
ENDBRANCH   5   6
ENDBRANCH   4   5
ENDBRANCH   3   4
TORSDOF 7
ENDMDL
MODEL 5
REMARK VINA RESULT: -6.345699965      1.563      5.478
REMARK  7 active torsions:
REMARK  status: ('A' for Active; 'I' for Inactive)
REMARK    1  A    between atoms: C3_3  and  O1_4 
REMARK    2  A    between atoms: O1_4  and  C4_5 
REMARK    3  A    between atoms: C4_5  and  C5_6 
REMARK    4  A    between atoms: C5_6  and  O2_7 
REMARK    5  A    between atoms: C8_11  and  C9_12 
REMARK    6  A    between atoms: C9_12  and  C10_13 
REMARK       I    between atoms: C10_13  and  N1_15 
REMARK    7  A    between atoms: N1_15  and  C11_17 
ROOT
HETATM    1  C1  UNL     1      14.658   0.661  17.219  1.00  0.00     0.014 C 
HETATM    2  C2  UNL     1      14.455   1.831  17.035  1.00  0.00    -0.091 C 
HETATM    3  C3  UNL     1      14.211   3.306  16.828  1.00  0.00     0.260 C 
ENDROOT
BRANCH   3   4
HETATM    4  O1  UNL     1      14.610   3.596  15.568  1.00  0.00    -0.377 OA
BRANCH   4   5
HETATM    5  C4  UNL     1      14.949   4.851  15.253  1.00  0.00     0.206 C 
BRANCH   5   6
HETATM    6  C5  UNL     1      16.091   5.126  14.374  1.00  0.00     0.079 C 
HETATM    7  C6  UNL     1      16.984   6.293  14.749  1.00  0.00     0.040 C 
HETATM    8  C7  UNL     1      17.922   6.256  13.514  1.00  0.00     0.008 C 
HETATM    9  C8  UNL     1      18.226   4.778  13.412  1.00  0.00    -0.003 C 
HETATM   10  C15 UNL     1      17.063   4.050  14.103  1.00  0.00     0.045 C 
BRANCH   6  11
HETATM   11  O2  UNL     1      15.596   5.576  13.081  1.00  0.00    -0.388 OA
ATOM     12  H2  UNL     1      15.206   6.436  13.181  1.00  0.00     0.210 HD
ENDBRANCH   6  11
BRANCH   9  13
HETATM   13  C9  UNL     1      18.266   4.344  11.985  1.00  0.00     0.107 C 
BRANCH  13  14
HETATM   14  C10 UNL     1      18.689   2.926  11.874  1.00  0.00     0.218 C 
HETATM   15  O3  UNL     1      19.911   2.656  11.972  1.00  0.00    -0.274 OA
HETATM   16  N1  UNL     1      17.732   1.904  11.660  1.00  0.00    -0.356 N 
ATOM     17  H1  UNL     1      16.740   2.127  11.581  1.00  0.00     0.162 HD
BRANCH  16  18
HETATM   18  C11 UNL     1      18.188   0.549  11.559  1.00  0.00     0.084 C 
HETATM   19  C12 UNL     1      17.823  -0.169  10.268  1.00  0.00     0.025 C 
HETATM   20  C13 UNL     1      17.645  -1.420  11.120  1.00  0.00     0.004 C 
HETATM   21  C14 UNL     1      17.288  -0.474  12.267  1.00  0.00     0.025 C 
ENDBRANCH  16  18
ENDBRANCH  13  14
ENDBRANCH   9  13
ENDBRANCH   5   6
ENDBRANCH   4   5
ENDBRANCH   3   4
TORSDOF 7
ENDMDL
