MODEL 1
REMARK VINA RESULT: -7.200803380      0.000      0.000
REMARK  7 active torsions:
REMARK  status: ('A' for Active; 'I' for Inactive)
REMARK    1  A    between atoms: C2_2  and  N1_4 
REMARK    2  A    between atoms: N1_4  and  C4_6 
REMARK    3  A    between atoms: C4_6  and  C5_7 
REMARK    4  A    between atoms: C5_7  and  O1_8 
REMARK    5  A    between atoms: C5_7  and  C6_10 
REMARK    6  A    between atoms: C6_10  and  N2_11 
REMARK    7  A    between atoms: N3_16  and  C11_17 
ROOT
HETATM    1  N2  UNL     1      16.596   1.023  13.544  1.00  0.00    -0.329 N 
HETATM    2  C7  UNL     1      16.326   2.435  13.364  1.00  0.00     0.159 C 
HETATM    3  C8  UNL     1      16.542   3.024  14.736  1.00  0.00     0.053 A 
HETATM    4  C9  UNL     1      16.287   4.455  15.003  1.00  0.00     0.035 A 
HETATM    5  C10 UNL     1      17.702   3.881  15.049  1.00  0.00     0.035 A 
HETATM    6  N3  UNL     1      16.061   1.986  15.601  1.00  0.00    -0.319 N 
HETATM    7  C14 UNL     1      16.307   0.768  14.939  1.00  0.00     0.321 C 
HETATM    8  O2  UNL     1      16.272  -0.368  15.511  1.00  0.00    -0.247 OA
ENDROOT
BRANCH   1   9
HETATM    9  C6  UNL     1      17.034   0.001  12.674  1.00  0.00     0.164 C 
BRANCH   9  10
HETATM   10  C5  UNL     1      16.785   0.182  11.200  1.00  0.00     0.174 C 
BRANCH  10  11
HETATM   11  C4  UNL     1      17.998   0.722  10.500  1.00  0.00     0.089 C 
BRANCH  11  12
HETATM   12  N1  UNL     1      19.033   1.116  11.333  1.00  0.00    -0.396 N 
ATOM     13  H1  UNL     1      19.143   0.616  12.216  1.00  0.00     0.159 HD
BRANCH  12  14
HETATM   14  C2  UNL     1      19.929   2.138  11.058  1.00  0.00     0.072 C 
HETATM   15  C1  UNL     1      20.133   2.602   9.657  1.00  0.00     0.031 C 
HETATM   16  C3  UNL     1      19.554   3.394  11.867  1.00  0.00     0.031 C 
ENDBRANCH  12  14
ENDBRANCH  11  12
ENDBRANCH  10  11
BRANCH  10  17
HETATM   17  O1  UNL     1      15.651   0.956  10.951  1.00  0.00    -0.389 OA
ATOM     18  H1  UNL     1      15.379   0.903  10.042  1.00  0.00     0.210 HD
ENDBRANCH  10  17
ENDBRANCH   9  10
ENDBRANCH   1   9
BRANCH   6  19
HETATM   19  C11 UNL     1      15.438   2.152  16.911  1.00  0.00     0.081 C 
HETATM   20  C12 UNL     1      14.039   2.719  16.748  1.00  0.00     0.032 C 
HETATM   21  C13 UNL     1      15.256   0.793  17.598  1.00  0.00     0.032 C 
ENDBRANCH   6  19
TORSDOF 7
ENDMDL
MODEL 2
REMARK VINA RESULT: -7.020180770      2.077      5.793
REMARK  7 active torsions:
REMARK  status: ('A' for Active; 'I' for Inactive)
REMARK    1  A    between atoms: C2_2  and  N1_4 
REMARK    2  A    between atoms: N1_4  and  C4_6 
REMARK    3  A    between atoms: C4_6  and  C5_7 
REMARK    4  A    between atoms: C5_7  and  O1_8 
REMARK    5  A    between atoms: C5_7  and  C6_10 
REMARK    6  A    between atoms: C6_10  and  N2_11 
REMARK    7  A    between atoms: N3_16  and  C11_17 
ROOT
HETATM    1  N2  UNL     1      17.324   3.906  12.722  1.00  0.00    -0.329 N 
HETATM    2  C7  UNL     1      18.741   3.698  12.500  1.00  0.00     0.159 C 
HETATM    3  C8  UNL     1      18.789   2.652  11.414  1.00  0.00     0.053 A 
HETATM    4  C9  UNL     1      20.075   2.094  10.946  1.00  0.00     0.035 A 
HETATM    5  C10 UNL     1      19.214   2.969  10.037  1.00  0.00     0.035 A 
HETATM    6  N3  UNL     1      17.664   1.822  11.730  1.00  0.00    -0.319 N 
HETATM    7  C14 UNL     1      16.703   2.659  12.328  1.00  0.00     0.321 C 
HETATM    8  O2  UNL     1      15.482   2.338  12.483  1.00  0.00    -0.247 OA
ENDROOT
BRANCH   1   9
HETATM    9  C6  UNL     1      16.569   4.996  13.205  1.00  0.00     0.164 C 
BRANCH   9  10
HETATM   10  C5  UNL     1      16.411   5.133  14.696  1.00  0.00     0.174 C 
BRANCH  10  11
HETATM   11  C4  UNL     1      15.027   4.759  15.139  1.00  0.00     0.089 C 
BRANCH  11  12
HETATM   12  N1  UNL     1      14.783   3.398  15.223  1.00  0.00    -0.396 N 
ATOM     13  H1  UNL     1      14.369   2.941  14.410  1.00  0.00     0.159 HD
BRANCH  12  14
HETATM   14  C2  UNL     1      15.060   2.609  16.330  1.00  0.00     0.072 C 
HETATM   15  C1  UNL     1      14.014   1.709  16.893  1.00  0.00     0.031 C 
HETATM   16  C3  UNL     1      16.276   1.709  16.040  1.00  0.00     0.031 C 
ENDBRANCH  12  14
ENDBRANCH  11  12
ENDBRANCH  10  11
BRANCH  10  17
HETATM   17  O1  UNL     1      16.778   6.401  15.147  1.00  0.00    -0.389 OA
ATOM     18  H1  UNL     1      17.361   6.839  14.539  1.00  0.00     0.210 HD
ENDBRANCH  10  17
ENDBRANCH   9  10
ENDBRANCH   1   9
BRANCH   6  19
HETATM   19  C11 UNL     1      17.532   0.389  11.483  1.00  0.00     0.081 C 
HETATM   20  C12 UNL     1      17.052  -0.310  12.743  1.00  0.00     0.032 C 
HETATM   21  C13 UNL     1      16.454   0.120  10.426  1.00  0.00     0.032 C 
ENDBRANCH   6  19
TORSDOF 7
ENDMDL
MODEL 3
REMARK VINA RESULT: -6.914949444      1.784      2.966
REMARK  7 active torsions:
REMARK  status: ('A' for Active; 'I' for Inactive)
REMARK    1  A    between atoms: C2_2  and  N1_4 
REMARK    2  A    between atoms: N1_4  and  C4_6 
REMARK    3  A    between atoms: C4_6  and  C5_7 
REMARK    4  A    between atoms: C5_7  and  O1_8 
REMARK    5  A    between atoms: C5_7  and  C6_10 
REMARK    6  A    between atoms: C6_10  and  N2_11 
REMARK    7  A    between atoms: N3_16  and  C11_17 
ROOT
HETATM    1  N2  UNL     1      16.567   1.406  12.713  1.00  0.00    -0.329 N 
HETATM    2  C7  UNL     1      16.802   0.886  14.045  1.00  0.00     0.159 C 
HETATM    3  C8  UNL     1      16.325   1.989  14.956  1.00  0.00     0.053 A 
HETATM    4  C9  UNL     1      16.468   1.885  16.423  1.00  0.00     0.035 A 
HETATM    5  C10 UNL     1      15.093   1.869  15.758  1.00  0.00     0.035 A 
HETATM    6  N3  UNL     1      16.693   3.172  14.233  1.00  0.00    -0.319 N 
HETATM    7  C14 UNL     1      16.619   2.844  12.866  1.00  0.00     0.321 C 
HETATM    8  O2  UNL     1      16.603   3.707  11.931  1.00  0.00    -0.247 OA
ENDROOT
BRANCH   1   9
HETATM    9  C6  UNL     1      16.331   0.796  11.462  1.00  0.00     0.164 C 
BRANCH   9  10
HETATM   10  C5  UNL     1      17.425  -0.062  10.884  1.00  0.00     0.174 C 
BRANCH  10  11
HETATM   11  C4  UNL     1      18.784   0.498  11.191  1.00  0.00     0.089 C 
BRANCH  11  12
HETATM   12  N1  UNL     1      19.317   1.321  10.212  1.00  0.00    -0.396 N 
ATOM     13  H1  UNL     1      19.487   0.911   9.293  1.00  0.00     0.159 HD
BRANCH  12  14
HETATM   14  C2  UNL     1      19.635   2.659  10.386  1.00  0.00     0.072 C 
HETATM   15  C1  UNL     1      20.367   3.106  11.604  1.00  0.00     0.031 C 
HETATM   16  C3  UNL     1      20.467   3.159   9.189  1.00  0.00     0.031 C 
ENDBRANCH  12  14
ENDBRANCH  11  12
ENDBRANCH  10  11
BRANCH  10  17
HETATM   17  O1  UNL     1      17.250  -0.285   9.518  1.00  0.00    -0.389 OA
ATOM     18  H1  UNL     1      16.362  -0.096   9.239  1.00  0.00     0.210 HD
ENDBRANCH  10  17
ENDBRANCH   9  10
ENDBRANCH   1   9
BRANCH   6  19
HETATM   19  C11 UNL     1      17.071   4.464  14.796  1.00  0.00     0.081 C 
HETATM   20  C12 UNL     1      18.333   4.972  14.121  1.00  0.00     0.032 C 
HETATM   21  C13 UNL     1      15.994   5.516  14.504  1.00  0.00     0.032 C 
ENDBRANCH   6  19
TORSDOF 7
ENDMDL
MODEL 4
REMARK VINA RESULT: -6.874185805      2.028      5.941
REMARK  7 active torsions:
REMARK  status: ('A' for Active; 'I' for Inactive)
REMARK    1  A    between atoms: C2_2  and  N1_4 
REMARK    2  A    between atoms: N1_4  and  C4_6 
REMARK    3  A    between atoms: C4_6  and  C5_7 
REMARK    4  A    between atoms: C5_7  and  O1_8 
REMARK    5  A    between atoms: C5_7  and  C6_10 
REMARK    6  A    between atoms: C6_10  and  N2_11 
REMARK    7  A    between atoms: N3_16  and  C11_17 
ROOT
HETATM    1  N2  UNL     1      17.578   3.660  13.563  1.00  0.00    -0.329 N 
HETATM    2  C7  UNL     1      18.385   4.337  12.567  1.00  0.00     0.159 C 
HETATM    3  C8  UNL     1      17.902   3.766  11.257  1.00  0.00     0.053 A 
HETATM    4  C9  UNL     1      18.537   4.144   9.978  1.00  0.00     0.035 A 
HETATM    5  C10 UNL     1      17.103   4.558  10.302  1.00  0.00     0.035 A 
HETATM    6  N3  UNL     1      17.617   2.403  11.598  1.00  0.00    -0.319 N 
HETATM    7  C14 UNL     1      17.213   2.402  12.946  1.00  0.00     0.321 C 
HETATM    8  O2  UNL     1      16.620   1.427  13.508  1.00  0.00    -0.247 OA
ENDROOT
BRANCH   1   9
HETATM    9  C6  UNL     1      17.159   4.002  14.866  1.00  0.00     0.164 C 
BRANCH   9  10
HETATM   10  C5  UNL     1      15.756   4.520  15.038  1.00  0.00     0.174 C 
BRANCH  10  11
HETATM   11  C4  UNL     1      14.874   3.508  15.709  1.00  0.00     0.089 C 
BRANCH  11  12
HETATM   12  N1  UNL     1      15.538   2.432  16.276  1.00  0.00    -0.396 N 
ATOM     13  H1  UNL     1      16.457   2.195  15.902  1.00  0.00     0.159 HD
BRANCH  12  14
HETATM   14  C2  UNL     1      15.046   1.652  17.312  1.00  0.00     0.072 C 
HETATM   15  C1  UNL     1      14.920   2.217  18.684  1.00  0.00     0.031 C 
HETATM   16  C3  UNL     1      13.648   1.118  16.947  1.00  0.00     0.031 C 
ENDBRANCH  12  14
ENDBRANCH  11  12
ENDBRANCH  10  11
BRANCH  10  17
HETATM   17  O1  UNL     1      15.212   4.969  13.834  1.00  0.00    -0.389 OA
ATOM     18  H1  UNL     1      15.511   5.844  13.615  1.00  0.00     0.210 HD
ENDBRANCH  10  17
ENDBRANCH   9  10
ENDBRANCH   1   9
BRANCH   6  19
HETATM   19  C11 UNL     1      17.721   1.238  10.723  1.00  0.00     0.081 C 
HETATM   20  C12 UNL     1      18.819   0.316  11.222  1.00  0.00     0.032 C 
HETATM   21  C13 UNL     1      16.432   0.409  10.771  1.00  0.00     0.032 C 
ENDBRANCH   6  19
TORSDOF 7
ENDMDL
MODEL 5
REMARK VINA RESULT: -6.847481694      3.040      5.337
REMARK  7 active torsions:
REMARK  status: ('A' for Active; 'I' for Inactive)
REMARK    1  A    between atoms: C2_2  and  N1_4 
REMARK    2  A    between atoms: N1_4  and  C4_6 
REMARK    3  A    between atoms: C4_6  and  C5_7 
REMARK    4  A    between atoms: C5_7  and  O1_8 
REMARK    5  A    between atoms: C5_7  and  C6_10 
REMARK    6  A    between atoms: C6_10  and  N2_11 
REMARK    7  A    between atoms: N3_16  and  C11_17 
ROOT
HETATM    1  N2  UNL     1      17.627   4.050  12.233  1.00  0.00    -0.329 N 
HETATM    2  C7  UNL     1      18.411   4.843  13.159  1.00  0.00     0.159 C 
HETATM    3  C8  UNL     1      17.539   6.041  13.441  1.00  0.00     0.053 A 
HETATM    4  C9  UNL     1      18.015   7.150  14.293  1.00  0.00     0.035 A 
HETATM    5  C10 UNL     1      16.874   6.239  14.743  1.00  0.00     0.035 A 
HETATM    6  N3  UNL     1      16.900   6.266  12.177  1.00  0.00    -0.319 N 
HETATM    7  C14 UNL     1      16.773   5.006  11.562  1.00  0.00     0.321 C 
HETATM    8  O2  UNL     1      16.012   4.777  10.568  1.00  0.00    -0.247 OA
ENDROOT
BRANCH   1   9
HETATM    9  C6  UNL     1      17.587   2.672  11.931  1.00  0.00     0.164 C 
BRANCH   9  10
HETATM   10  C5  UNL     1      16.372   1.895  12.365  1.00  0.00     0.174 C 
BRANCH  10  11
HETATM   11  C4  UNL     1      16.753   0.606  13.032  1.00  0.00     0.089 C 
BRANCH  11  12
HETATM   12  N1  UNL     1      16.848   0.663  14.414  1.00  0.00    -0.396 N 
ATOM     13  H1  UNL     1      17.489   0.014  14.870  1.00  0.00     0.159 HD
BRANCH  12  14
HETATM   14  C2  UNL     1      16.136   1.536  15.223  1.00  0.00     0.072 C 
HETATM   15  C1  UNL     1      15.356   1.021  16.382  1.00  0.00     0.031 C 
HETATM   16  C3  UNL     1      17.082   2.608  15.796  1.00  0.00     0.031 C 
ENDBRANCH  12  14
ENDBRANCH  11  12
ENDBRANCH  10  11
BRANCH  10  17
HETATM   17  O1  UNL     1      15.476   1.693  11.315  1.00  0.00    -0.389 OA
ATOM     18  H1  UNL     1      15.552   2.367  10.650  1.00  0.00     0.210 HD
ENDBRANCH  10  17
ENDBRANCH   9  10
ENDBRANCH   1   9
BRANCH   6  19
HETATM   19  C11 UNL     1      16.464   7.547  11.628  1.00  0.00     0.081 C 
HETATM   20  C12 UNL     1      17.036   7.733  10.234  1.00  0.00     0.032 C 
HETATM   21  C13 UNL     1      14.941   7.571  11.456  1.00  0.00     0.032 C 
ENDBRANCH   6  19
TORSDOF 7
ENDMDL
