MODEL 1
REMARK VINA RESULT: -6.832629423      0.000      0.000
REMARK  6 active torsions:
REMARK  status: ('A' for Active; 'I' for Inactive)
REMARK    1  A    between atoms: C3_3  and  C4_4 
REMARK    2  A    between atoms: C4_4  and  C5_5 
REMARK    3  A    between atoms: C5_5  and  N1_6 
REMARK    4  A    between atoms: C8_9  and  C9_10 
REMARK    5  A    between atoms: C8_9  and  N3_13 
REMARK       I    between atoms: N3_13  and  C11_15 
REMARK    6  A    between atoms: C11_15  and  C12_17 
ROOT
HETATM    1  C1  UNL     1      17.420  -0.797  11.446  1.00  0.00     0.096 C 
HETATM    2  C2  UNL     1      18.496  -0.070  11.202  1.00  0.00    -0.188 C 
HETATM    3  C3  UNL     1      19.498   0.729  10.933  1.00  0.00     0.081 C 
ENDROOT
BRANCH   3   4
HETATM    4  C4  UNL     1      19.166   2.103  10.580  1.00  0.00     0.031 C 
BRANCH   4   5
HETATM    5  C5  UNL     1      19.662   3.121  11.603  1.00  0.00     0.128 C 
BRANCH   5   6
HETATM    6  N1  UNL     1      18.593   3.564  12.416  1.00  0.00    -0.374 N 
HETATM    7  C6  UNL     1      18.889   4.157  13.643  1.00  0.00     0.065 C 
HETATM    8  C7  UNL     1      17.900   4.023  14.745  1.00  0.00     0.077 C 
HETATM    9  C8  UNL     1      16.552   3.542  14.356  1.00  0.00     0.053 C 
HETATM   10  C15 UNL     1      16.566   2.560  13.208  1.00  0.00     0.077 C 
HETATM   11  C16 UNL     1      17.280   3.239  12.061  1.00  0.00     0.065 C 
BRANCH   9  12
HETATM   12  C9  UNL     1      15.717   4.760  13.920  1.00  0.00     0.155 C 
HETATM   13  C10 UNL     1      15.077   5.409  15.039  1.00  0.00     0.061 C 
HETATM   14  N2  UNL     1      14.561   5.912  15.940  1.00  0.00    -0.197 NA
ENDBRANCH   9  12
BRANCH   9  15
HETATM   15  N3  UNL     1      15.840   2.920  15.446  1.00  0.00    -0.350 N 
HETATM   16  C11 UNL     1      16.345   1.902  16.287  1.00  0.00     0.222 C 
HETATM   17  O1  UNL     1      17.505   1.468  16.106  1.00  0.00    -0.273 OA
ATOM     18  H3  UNL     1      14.890   3.243  15.626  1.00  0.00     0.163 HD
BRANCH  16  19
HETATM   19  C12 UNL     1      15.544   1.321  17.385  1.00  0.00     0.078 A 
HETATM   20  C13 UNL     1      14.564   2.208  18.051  1.00  0.00     0.015 A 
HETATM   21  C14 UNL     1      14.116   1.088  17.130  1.00  0.00     0.015 A 
ENDBRANCH  16  19
ENDBRANCH   9  15
ENDBRANCH   5   6
ENDBRANCH   4   5
ENDBRANCH   3   4
TORSDOF 6
ENDMDL
MODEL 2
REMARK VINA RESULT: -6.734556561      2.785      5.101
REMARK  6 active torsions:
REMARK  status: ('A' for Active; 'I' for Inactive)
REMARK    1  A    between atoms: C3_3  and  C4_4 
REMARK    2  A    between atoms: C4_4  and  C5_5 
REMARK    3  A    between atoms: C5_5  and  N1_6 
REMARK    4  A    between atoms: C8_9  and  C9_10 
REMARK    5  A    between atoms: C8_9  and  N3_13 
REMARK       I    between atoms: N3_13  and  C11_15 
REMARK    6  A    between atoms: C11_15  and  C12_17 
ROOT
HETATM    1  C1  UNL     1      19.402  11.000  14.099  1.00  0.00     0.096 C 
HETATM    2  C2  UNL     1      19.425   9.860  14.767  1.00  0.00    -0.188 C 
HETATM    3  C3  UNL     1      19.363   8.702  15.376  1.00  0.00     0.081 C 
ENDROOT
BRANCH   3   4
HETATM    4  C4  UNL     1      18.341   7.773  14.915  1.00  0.00     0.031 C 
BRANCH   4   5
HETATM    5  C5  UNL     1      18.683   7.120  13.578  1.00  0.00     0.128 C 
BRANCH   5   6
HETATM    6  N1  UNL     1      18.127   5.822  13.506  1.00  0.00    -0.374 N 
HETATM    7  C6  UNL     1      16.836   5.676  13.001  1.00  0.00     0.065 C 
HETATM    8  C7  UNL     1      16.011   4.543  13.497  1.00  0.00     0.077 C 
HETATM    9  C8  UNL     1      16.735   3.490  14.249  1.00  0.00     0.053 C 
HETATM   10  C15 UNL     1      17.896   4.013  15.061  1.00  0.00     0.077 C 
HETATM   11  C16 UNL     1      18.802   4.752  14.103  1.00  0.00     0.065 C 
BRANCH   9  12
HETATM   12  C9  UNL     1      17.293   2.476  13.232  1.00  0.00     0.155 C 
HETATM   13  C10 UNL     1      16.306   2.085  12.255  1.00  0.00     0.061 C 
HETATM   14  N2  UNL     1      15.505   1.772  11.487  1.00  0.00    -0.197 NA
ENDBRANCH   9  12
BRANCH   9  15
HETATM   15  N3  UNL     1      15.880   2.749  15.145  1.00  0.00    -0.350 N 
HETATM   16  C11 UNL     1      16.310   1.793  16.093  1.00  0.00     0.222 C 
HETATM   17  O1  UNL     1      17.530   1.530  16.198  1.00  0.00    -0.273 OA
ATOM     18  H3  UNL     1      14.878   2.932  15.090  1.00  0.00     0.163 HD
BRANCH  16  19
HETATM   19  C12 UNL     1      15.362   1.081  16.976  1.00  0.00     0.078 A 
HETATM   20  C13 UNL     1      14.876   1.806  18.172  1.00  0.00     0.015 A 
HETATM   21  C14 UNL     1      13.968   1.544  16.983  1.00  0.00     0.015 A 
ENDBRANCH  16  19
ENDBRANCH   9  15
ENDBRANCH   5   6
ENDBRANCH   4   5
ENDBRANCH   3   4
TORSDOF 6
ENDMDL
MODEL 3
REMARK VINA RESULT: -6.652994081      3.008      5.301
REMARK  6 active torsions:
REMARK  status: ('A' for Active; 'I' for Inactive)
REMARK    1  A    between atoms: C3_3  and  C4_4 
REMARK    2  A    between atoms: C4_4  and  C5_5 
REMARK    3  A    between atoms: C5_5  and  N1_6 
REMARK    4  A    between atoms: C8_9  and  C9_10 
REMARK    5  A    between atoms: C8_9  and  N3_13 
REMARK       I    between atoms: N3_13  and  C11_15 
REMARK    6  A    between atoms: C11_15  and  C12_17 
ROOT
HETATM    1  C1  UNL     1      19.363  11.026  13.929  1.00  0.00     0.096 C 
HETATM    2  C2  UNL     1      19.405   9.941  14.681  1.00  0.00    -0.188 C 
HETATM    3  C3  UNL     1      19.361   8.832  15.376  1.00  0.00     0.081 C 
ENDROOT
BRANCH   3   4
HETATM    4  C4  UNL     1      18.339   7.863  15.002  1.00  0.00     0.031 C 
BRANCH   4   5
HETATM    5  C5  UNL     1      18.560   7.263  13.616  1.00  0.00     0.128 C 
BRANCH   5   6
HETATM    6  N1  UNL     1      17.885   6.026  13.501  1.00  0.00    -0.374 N 
HETATM    7  C6  UNL     1      16.510   6.034  13.271  1.00  0.00     0.065 C 
HETATM    8  C7  UNL     1      15.704   4.895  13.784  1.00  0.00     0.077 C 
HETATM    9  C8  UNL     1      16.467   3.702  14.223  1.00  0.00     0.053 C 
HETATM   10  C15 UNL     1      17.813   4.030  14.826  1.00  0.00     0.077 C 
HETATM   11  C16 UNL     1      18.567   4.842  13.797  1.00  0.00     0.065 C 
BRANCH   9  12
HETATM   12  C9  UNL     1      16.712   2.812  12.990  1.00  0.00     0.155 C 
HETATM   13  C10 UNL     1      16.699   1.408  13.320  1.00  0.00     0.061 C 
HETATM   14  N2  UNL     1      16.699   0.289  13.600  1.00  0.00    -0.197 NA
ENDBRANCH   9  12
BRANCH   9  15
HETATM   15  N3  UNL     1      15.750   2.895  15.180  1.00  0.00    -0.350 N 
HETATM   16  C11 UNL     1      14.787   3.368  16.101  1.00  0.00     0.222 C 
HETATM   17  O1  UNL     1      14.500   4.587  16.125  1.00  0.00    -0.273 OA
ATOM     18  H3  UNL     1      15.956   1.897  15.195  1.00  0.00     0.163 HD
BRANCH  16  19
HETATM   19  C12 UNL     1      14.097   2.468  17.048  1.00  0.00     0.078 A 
HETATM   20  C13 UNL     1      14.353   1.016  16.910  1.00  0.00     0.015 A 
HETATM   21  C14 UNL     1      14.918   1.810  18.074  1.00  0.00     0.015 A 
ENDBRANCH  16  19
ENDBRANCH   9  15
ENDBRANCH   5   6
ENDBRANCH   4   5
ENDBRANCH   3   4
TORSDOF 6
ENDMDL
MODEL 4
REMARK VINA RESULT: -6.336777191      3.305      6.087
REMARK  6 active torsions:
REMARK  status: ('A' for Active; 'I' for Inactive)
REMARK    1  A    between atoms: C3_3  and  C4_4 
REMARK    2  A    between atoms: C4_4  and  C5_5 
REMARK    3  A    between atoms: C5_5  and  N1_6 
REMARK    4  A    between atoms: C8_9  and  C9_10 
REMARK    5  A    between atoms: C8_9  and  N3_13 
REMARK       I    between atoms: N3_13  and  C11_15 
REMARK    6  A    between atoms: C11_15  and  C12_17 
ROOT
HETATM    1  C1  UNL     1      19.043  11.567  13.847  1.00  0.00     0.096 C 
HETATM    2  C2  UNL     1      19.453  10.437  14.396  1.00  0.00    -0.188 C 
HETATM    3  C3  UNL     1      19.759   9.289  14.947  1.00  0.00     0.081 C 
ENDROOT
BRANCH   3   4
HETATM    4  C4  UNL     1      18.659   8.366  15.193  1.00  0.00     0.031 C 
BRANCH   4   5
HETATM    5  C5  UNL     1      18.292   7.530  13.970  1.00  0.00     0.128 C 
BRANCH   5   6
HETATM    6  N1  UNL     1      17.972   6.207  14.354  1.00  0.00    -0.374 N 
HETATM    7  C6  UNL     1      18.965   5.231  14.280  1.00  0.00     0.065 C 
HETATM    8  C7  UNL     1      18.551   3.826  14.026  1.00  0.00     0.077 C 
HETATM    9  C8  UNL     1      17.106   3.534  14.183  1.00  0.00     0.053 C 
HETATM   10  C15 UNL     1      16.208   4.685  13.795  1.00  0.00     0.077 C 
HETATM   11  C16 UNL     1      16.640   5.875  14.622  1.00  0.00     0.065 C 
BRANCH   9  12
HETATM   12  C9  UNL     1      16.842   3.213  15.666  1.00  0.00     0.155 C 
HETATM   13  C10 UNL     1      17.027   1.813  15.962  1.00  0.00     0.061 C 
HETATM   14  N2  UNL     1      17.166   0.689  16.182  1.00  0.00    -0.197 NA
ENDBRANCH   9  12
BRANCH   9  15
HETATM   15  N3  UNL     1      16.679   2.381  13.428  1.00  0.00    -0.350 N 
HETATM   16  C11 UNL     1      16.945   2.146  12.060  1.00  0.00     0.222 C 
HETATM   17  O1  UNL     1      17.604   2.986  11.404  1.00  0.00    -0.273 OA
ATOM     18  H3  UNL     1      16.138   1.673  13.924  1.00  0.00     0.163 HD
BRANCH  16  19
HETATM   19  C12 UNL     1      16.470   0.932  11.363  1.00  0.00     0.078 A 
HETATM   20  C13 UNL     1      17.479   0.134  10.630  1.00  0.00     0.015 A 
HETATM   21  C14 UNL     1      16.865  -0.367  11.925  1.00  0.00     0.015 A 
ENDBRANCH  16  19
ENDBRANCH   9  15
ENDBRANCH   5   6
ENDBRANCH   4   5
ENDBRANCH   3   4
TORSDOF 6
ENDMDL
MODEL 5
REMARK VINA RESULT: -6.331570854      2.322      5.794
REMARK  6 active torsions:
REMARK  status: ('A' for Active; 'I' for Inactive)
REMARK    1  A    between atoms: C3_3  and  C4_4 
REMARK    2  A    between atoms: C4_4  and  C5_5 
REMARK    3  A    between atoms: C5_5  and  N1_6 
REMARK    4  A    between atoms: C8_9  and  C9_10 
REMARK    5  A    between atoms: C8_9  and  N3_13 
REMARK       I    between atoms: N3_13  and  C11_15 
REMARK    6  A    between atoms: C11_15  and  C12_17 
ROOT
HETATM    1  C1  UNL     1      14.987   2.824  15.747  1.00  0.00     0.096 C 
HETATM    2  C2  UNL     1      14.942   4.083  15.350  1.00  0.00    -0.188 C 
HETATM    3  C3  UNL     1      15.000   5.338  14.980  1.00  0.00     0.081 C 
ENDROOT
BRANCH   3   4
HETATM    4  C4  UNL     1      16.316   5.964  14.984  1.00  0.00     0.031 C 
BRANCH   4   5
HETATM    5  C5  UNL     1      16.672   6.619  13.653  1.00  0.00     0.128 C 
BRANCH   5   6
HETATM    6  N1  UNL     1      17.378   5.711  12.830  1.00  0.00    -0.374 N 
HETATM    7  C6  UNL     1      16.963   5.544  11.510  1.00  0.00     0.065 C 
HETATM    8  C7  UNL     1      17.194   4.227  10.860  1.00  0.00     0.077 C 
HETATM    9  C8  UNL     1      18.122   3.309  11.564  1.00  0.00     0.053 C 
HETATM   10  C15 UNL     1      18.072   3.429  13.068  1.00  0.00     0.077 C 
HETATM   11  C16 UNL     1      18.347   4.879  13.400  1.00  0.00     0.065 C 
BRANCH   9  12
HETATM   12  C9  UNL     1      19.557   3.643  11.115  1.00  0.00     0.155 C 
HETATM   13  C10 UNL     1      19.903   2.998   9.872  1.00  0.00     0.061 C 
HETATM   14  N2  UNL     1      20.172   2.466   8.884  1.00  0.00    -0.197 NA
ENDBRANCH   9  12
BRANCH   9  15
HETATM   15  N3  UNL     1      17.898   1.922  11.234  1.00  0.00    -0.350 N 
HETATM   16  C11 UNL     1      16.644   1.270  11.217  1.00  0.00     0.222 C 
HETATM   17  O1  UNL     1      15.609   1.912  11.509  1.00  0.00    -0.273 OA
ATOM     18  H3  UNL     1      18.716   1.362  10.993  1.00  0.00     0.163 HD
BRANCH  16  19
HETATM   19  C12 UNL     1      16.505  -0.159  10.865  1.00  0.00     0.078 A 
HETATM   20  C13 UNL     1      17.746  -0.899  10.541  1.00  0.00     0.015 A 
HETATM   21  C14 UNL     1      16.996  -1.144  11.838  1.00  0.00     0.015 A 
ENDBRANCH  16  19
ENDBRANCH   9  15
ENDBRANCH   5   6
ENDBRANCH   4   5
ENDBRANCH   3   4
TORSDOF 6
ENDMDL
