MODEL 1
REMARK VINA RESULT: -7.013994034      0.000      0.000
REMARK  10 active torsions:
REMARK  status: ('A' for Active; 'I' for Inactive)
REMARK    1  A    between atoms: O1_2  and  C2_3 
REMARK    2  A    between atoms: C2_3  and  C3_4 
REMARK    3  A    between atoms: N1_8  and  C4_9 
REMARK    4  A    between atoms: C4_9  and  C5_10 
REMARK    5  A    between atoms: C5_10  and  N2_11 
REMARK    6  A    between atoms: C5_10  and  C6_15 
REMARK    7  A    between atoms: C6_15  and  N3_16 
REMARK    8  A    between atoms: C6_15  and  C7_21 
REMARK    9  A    between atoms: C7_21  and  C8_24 
REMARK   10  A    between atoms: C8_24  and  C9_26 
ROOT
HETATM    1  C5  UNL     1      16.683   3.177  13.558  1.00  0.00     0.275 C 
ENDROOT
BRANCH   1   2
HETATM    2  C4  UNL     1      17.127   4.352  12.788  1.00  0.00     0.167 C 
BRANCH   2   3
HETATM    3  N1  UNL     1      18.425   4.292  12.190  1.00  0.00    -0.315 N 
HETATM    4  C2  UNL     1      19.029   4.264  10.877  1.00  0.00     0.263 C 
HETATM    5  C11 UNL     1      20.166   3.340  11.069  1.00  0.00     0.084 C 
HETATM    6  N4  UNL     1      20.630   3.581  12.402  1.00  0.00    -0.353 N 
HETATM    7  C12 UNL     1      21.269   3.336  10.064  1.00  0.00     0.043 C 
HETATM    8  C13 UNL     1      19.625   1.918  11.081  1.00  0.00     0.043 C 
HETATM    9  C10 UNL     1      19.598   4.232  13.083  1.00  0.00     0.173 C 
ATOM     10  H4  UNL     1      21.541   3.326  12.782  1.00  0.00     0.162 HD
HETATM   11  S1  UNL     1      19.693   4.817  14.607  1.00  0.00    -0.041 SA
BRANCH   4  12
HETATM   12  O1  UNL     1      18.116   3.868   9.967  1.00  0.00    -0.356 OA
HETATM   13  C1  UNL     1      16.922   4.453   9.804  1.00  0.00     0.205 C 
ENDBRANCH   4  12
BRANCH   4  14
HETATM   14  C3  UNL     1      19.424   5.720  10.681  1.00  0.00     0.440 C 
HETATM   15  F1  UNL     1      19.415   5.931   9.303  1.00  0.00    -0.166 F 
HETATM   16  F2  UNL     1      20.599   6.121  11.169  1.00  0.00    -0.166 F 
HETATM   17  F3  UNL     1      18.466   6.606  11.166  1.00  0.00    -0.166 F 
ENDBRANCH   4  14
ENDBRANCH   2   3
ENDBRANCH   1   2
BRANCH   1  18
HETATM   18  N2  UNL     1      16.213   2.122  12.644  1.00  0.00    -0.068 N 
ATOM     19  H23 UNL     1      15.980   2.492  11.722  1.00  0.00     0.275 HD
ATOM     20  H22 UNL     1      16.967   1.493  12.367  1.00  0.00     0.275 HD
ATOM     21  H21 UNL     1      15.430   1.620  13.063  1.00  0.00     0.275 HD
ENDBRANCH   1  18
BRANCH   1  22
HETATM   22  C6  UNL     1      15.594   3.357  14.557  1.00  0.00     0.359 C 
HETATM   23  F4  UNL     1      14.474   2.637  14.062  1.00  0.00    -0.202 F 
BRANCH  22  24
HETATM   24  N3  UNL     1      15.152   4.747  14.632  1.00  0.00    -0.034 N 
ATOM     25  H33 UNL     1      15.906   5.390  14.391  1.00  0.00     0.278 HD
ATOM     26  H32 UNL     1      14.504   4.972  13.877  1.00  0.00     0.278 HD
ATOM     27  H31 UNL     1      14.752   4.968  15.544  1.00  0.00     0.278 HD
ENDBRANCH  22  24
BRANCH  22  28
HETATM   28  C7  UNL     1      15.816   2.819  15.930  1.00  0.00     0.345 C 
HETATM   29  F5  UNL     1      15.066   3.458  16.858  1.00  0.00    -0.197 F 
HETATM   30  F6  UNL     1      17.195   2.925  16.236  1.00  0.00    -0.197 F 
BRANCH  28  31
HETATM   31  C8  UNL     1      15.575   1.305  15.962  1.00  0.00     0.354 C 
HETATM   32  F7  UNL     1      16.772   0.618  15.938  1.00  0.00    -0.233 F 
BRANCH  31  33
HETATM   33  C9  UNL     1      14.854   0.999  17.254  1.00  0.00     0.423 C 
HETATM   34  F8  UNL     1      15.031  -0.329  17.623  1.00  0.00    -0.168 F 
HETATM   35  F9  UNL     1      13.497   1.251  17.120  1.00  0.00    -0.168 F 
HETATM   36  F10 UNL     1      15.318   1.750  18.314  1.00  0.00    -0.168 F 
ENDBRANCH  31  33
ENDBRANCH  28  31
ENDBRANCH  22  28
ENDBRANCH   1  22
TORSDOF 10
ENDMDL
MODEL 2
REMARK VINA RESULT: -7.011915870      1.887      2.850
REMARK  10 active torsions:
REMARK  status: ('A' for Active; 'I' for Inactive)
REMARK    1  A    between atoms: O1_2  and  C2_3 
REMARK    2  A    between atoms: C2_3  and  C3_4 
REMARK    3  A    between atoms: N1_8  and  C4_9 
REMARK    4  A    between atoms: C4_9  and  C5_10 
REMARK    5  A    between atoms: C5_10  and  N2_11 
REMARK    6  A    between atoms: C5_10  and  C6_15 
REMARK    7  A    between atoms: C6_15  and  N3_16 
REMARK    8  A    between atoms: C6_15  and  C7_21 
REMARK    9  A    between atoms: C7_21  and  C8_24 
REMARK   10  A    between atoms: C8_24  and  C9_26 
ROOT
HETATM    1  C5  UNL     1      17.041   3.518  14.493  1.00  0.00     0.275 C 
ENDROOT
BRANCH   1   2
HETATM    2  C4  UNL     1      16.893   3.548  13.028  1.00  0.00     0.167 C 
BRANCH   2   3
HETATM    3  N1  UNL     1      17.747   4.436  12.300  1.00  0.00    -0.315 N 
HETATM    4  C2  UNL     1      18.974   4.400  11.538  1.00  0.00     0.263 C 
HETATM    5  C11 UNL     1      19.614   5.680  11.905  1.00  0.00     0.084 C 
HETATM    6  N4  UNL     1      18.537   6.611  12.063  1.00  0.00    -0.353 N 
HETATM    7  C12 UNL     1      20.714   6.209  11.045  1.00  0.00     0.043 C 
HETATM    8  C13 UNL     1      20.223   5.528  13.290  1.00  0.00     0.043 C 
HETATM    9  C10 UNL     1      17.370   5.861  12.234  1.00  0.00     0.173 C 
ATOM     10  H4  UNL     1      18.608   7.628  12.053  1.00  0.00     0.162 HD
HETATM   11  S1  UNL     1      15.859   6.475  12.341  1.00  0.00    -0.041 SA
BRANCH   4  12
HETATM   12  O1  UNL     1      19.677   3.296  11.862  1.00  0.00    -0.356 OA
HETATM   13  C1  UNL     1      19.349   2.059  11.465  1.00  0.00     0.205 C 
ENDBRANCH   4  12
BRANCH   4  14
HETATM   14  C3  UNL     1      18.457   4.338  10.109  1.00  0.00     0.440 C 
HETATM   15  F1  UNL     1      19.434   3.657   9.384  1.00  0.00    -0.166 F 
HETATM   16  F2  UNL     1      18.186   5.488   9.491  1.00  0.00    -0.166 F 
HETATM   17  F3  UNL     1      17.323   3.540   9.983  1.00  0.00    -0.166 F 
ENDBRANCH   4  14
ENDBRANCH   2   3
ENDBRANCH   1   2
BRANCH   1  18
HETATM   18  N2  UNL     1      18.453   3.719  14.862  1.00  0.00    -0.068 N 
ATOM     19  H23 UNL     1      18.873   2.870  15.241  1.00  0.00     0.275 HD
ATOM     20  H22 UNL     1      19.050   3.829  14.042  1.00  0.00     0.275 HD
ATOM     21  H21 UNL     1      18.537   4.506  15.505  1.00  0.00     0.275 HD
ENDBRANCH   1  18
BRANCH   1  22
HETATM   22  C6  UNL     1      16.606   2.295  15.223  1.00  0.00     0.359 C 
HETATM   23  F4  UNL     1      17.441   2.195  16.367  1.00  0.00    -0.202 F 
BRANCH  22  24
HETATM   24  N3  UNL     1      16.866   1.083  14.451  1.00  0.00    -0.034 N 
ATOM     25  H33 UNL     1      16.019   0.525  14.339  1.00  0.00     0.278 HD
ATOM     26  H32 UNL     1      17.045   1.299  13.470  1.00  0.00     0.278 HD
ATOM     27  H31 UNL     1      17.623   0.533  14.855  1.00  0.00     0.278 HD
ENDBRANCH  22  24
BRANCH  22  28
HETATM   28  C7  UNL     1      15.216   2.267  15.762  1.00  0.00     0.345 C 
HETATM   29  F5  UNL     1      14.740   1.006  15.886  1.00  0.00    -0.197 F 
HETATM   30  F6  UNL     1      14.387   3.037  14.908  1.00  0.00    -0.197 F 
BRANCH  28  31
HETATM   31  C8  UNL     1      15.137   3.029  17.091  1.00  0.00     0.354 C 
HETATM   32  F7  UNL     1      14.187   4.029  17.026  1.00  0.00    -0.233 F 
BRANCH  31  33
HETATM   33  C9  UNL     1      14.732   2.029  18.149  1.00  0.00     0.423 C 
HETATM   34  F8  UNL     1      13.506   1.448  17.845  1.00  0.00    -0.168 F 
HETATM   35  F9  UNL     1      14.640   2.649  19.387  1.00  0.00    -0.168 F 
HETATM   36  F10 UNL     1      15.626   0.986  18.267  1.00  0.00    -0.168 F 
ENDBRANCH  31  33
ENDBRANCH  28  31
ENDBRANCH  22  28
ENDBRANCH   1  22
TORSDOF 10
ENDMDL
MODEL 3
REMARK VINA RESULT: -7.011540344      2.098      3.220
REMARK  10 active torsions:
REMARK  status: ('A' for Active; 'I' for Inactive)
REMARK    1  A    between atoms: O1_2  and  C2_3 
REMARK    2  A    between atoms: C2_3  and  C3_4 
REMARK    3  A    between atoms: N1_8  and  C4_9 
REMARK    4  A    between atoms: C4_9  and  C5_10 
REMARK    5  A    between atoms: C5_10  and  N2_11 
REMARK    6  A    between atoms: C5_10  and  C6_15 
REMARK    7  A    between atoms: C6_15  and  N3_16 
REMARK    8  A    between atoms: C6_15  and  C7_21 
REMARK    9  A    between atoms: C7_21  and  C8_24 
REMARK   10  A    between atoms: C8_24  and  C9_26 
ROOT
HETATM    1  C5  UNL     1      17.173   3.461  14.484  1.00  0.00     0.275 C 
ENDROOT
BRANCH   1   2
HETATM    2  C4  UNL     1      17.339   3.420  13.021  1.00  0.00     0.167 C 
BRANCH   2   3
HETATM    3  N1  UNL     1      17.679   4.646  12.364  1.00  0.00    -0.315 N 
HETATM    4  C2  UNL     1      17.121   5.958  12.131  1.00  0.00     0.263 C 
HETATM    5  C11 UNL     1      17.565   6.253  10.753  1.00  0.00     0.084 C 
HETATM    6  N4  UNL     1      18.863   5.660  10.638  1.00  0.00    -0.353 N 
HETATM    7  C12 UNL     1      17.529   7.665  10.271  1.00  0.00     0.043 C 
HETATM    8  C13 UNL     1      16.680   5.475   9.792  1.00  0.00     0.043 C 
HETATM    9  C10 UNL     1      18.977   4.721  11.667  1.00  0.00     0.173 C 
ATOM     10  H4  UNL     1      19.570   5.881   9.938  1.00  0.00     0.162 HD
HETATM   11  S1  UNL     1      20.324   3.864  12.019  1.00  0.00    -0.041 SA
BRANCH   4  12
HETATM   12  O1  UNL     1      15.785   5.920  12.306  1.00  0.00    -0.356 OA
HETATM   13  C1  UNL     1      14.974   6.966  12.098  1.00  0.00     0.205 C 
ENDBRANCH   4  12
BRANCH   4  14
HETATM   14  C3  UNL     1      17.806   6.787  13.207  1.00  0.00     0.440 C 
HETATM   15  F1  UNL     1      17.030   6.631  14.355  1.00  0.00    -0.166 F 
HETATM   16  F2  UNL     1      17.978   8.090  12.979  1.00  0.00    -0.166 F 
HETATM   17  F3  UNL     1      19.050   6.276  13.567  1.00  0.00    -0.166 F 
ENDBRANCH   4  14
ENDBRANCH   2   3
ENDBRANCH   1   2
BRANCH   1  18
HETATM   18  N2  UNL     1      18.462   3.764  15.130  1.00  0.00    -0.068 N 
ATOM     19  H23 UNL     1      19.031   2.927  15.255  1.00  0.00     0.275 HD
ATOM     20  H22 UNL     1      19.088   4.279  14.511  1.00  0.00     0.275 HD
ATOM     21  H21 UNL     1      18.305   4.254  16.010  1.00  0.00     0.275 HD
ENDBRANCH   1  18
BRANCH   1  22
HETATM   22  C6  UNL     1      16.655   2.247  15.171  1.00  0.00     0.359 C 
HETATM   23  F4  UNL     1      17.455   2.073  16.332  1.00  0.00    -0.202 F 
BRANCH  22  24
HETATM   24  N3  UNL     1      16.868   1.042  14.374  1.00  0.00    -0.034 N 
ATOM     25  H33 UNL     1      17.108   1.271  13.410  1.00  0.00     0.278 HD
ATOM     26  H32 UNL     1      17.729   0.566  14.644  1.00  0.00     0.278 HD
ATOM     27  H31 UNL     1      16.066   0.413  14.418  1.00  0.00     0.278 HD
ENDBRANCH  22  24
BRANCH  22  28
HETATM   28  C7  UNL     1      15.252   2.281  15.676  1.00  0.00     0.345 C 
HETATM   29  F5  UNL     1      14.716   1.043  15.782  1.00  0.00    -0.197 F 
HETATM   30  F6  UNL     1      14.481   3.093  14.808  1.00  0.00    -0.197 F 
BRANCH  28  31
HETATM   31  C8  UNL     1      15.177   3.039  17.008  1.00  0.00     0.354 C 
HETATM   32  F7  UNL     1      14.237   4.049  16.943  1.00  0.00    -0.233 F 
BRANCH  31  33
HETATM   33  C9  UNL     1      14.759   2.040  18.062  1.00  0.00     0.423 C 
HETATM   34  F8  UNL     1      13.510   1.503  17.774  1.00  0.00    -0.168 F 
HETATM   35  F9  UNL     1      14.711   2.647  19.308  1.00  0.00    -0.168 F 
HETATM   36  F10 UNL     1      15.620   0.967  18.150  1.00  0.00    -0.168 F 
ENDBRANCH  31  33
ENDBRANCH  28  31
ENDBRANCH  22  28
ENDBRANCH   1  22
TORSDOF 10
ENDMDL
MODEL 4
REMARK VINA RESULT: -6.941268670      1.779      2.717
REMARK  10 active torsions:
REMARK  status: ('A' for Active; 'I' for Inactive)
REMARK    1  A    between atoms: O1_2  and  C2_3 
REMARK    2  A    between atoms: C2_3  and  C3_4 
REMARK    3  A    between atoms: N1_8  and  C4_9 
REMARK    4  A    between atoms: C4_9  and  C5_10 
REMARK    5  A    between atoms: C5_10  and  N2_11 
REMARK    6  A    between atoms: C5_10  and  C6_15 
REMARK    7  A    between atoms: C6_15  and  N3_16 
REMARK    8  A    between atoms: C6_15  and  C7_21 
REMARK    9  A    between atoms: C7_21  and  C8_24 
REMARK   10  A    between atoms: C8_24  and  C9_26 
ROOT
HETATM    1  C5  UNL     1      16.844   4.067  14.339  1.00  0.00     0.275 C 
ENDROOT
BRANCH   1   2
HETATM    2  C4  UNL     1      18.235   4.390  13.978  1.00  0.00     0.167 C 
BRANCH   2   3
HETATM    3  N1  UNL     1      18.557   4.439  12.584  1.00  0.00    -0.315 N 
HETATM    4  C2  UNL     1      18.630   3.555  11.443  1.00  0.00     0.263 C 
HETATM    5  C11 UNL     1      19.809   4.070  10.717  1.00  0.00     0.084 C 
HETATM    6  N4  UNL     1      19.784   5.488  10.911  1.00  0.00    -0.353 N 
HETATM    7  C12 UNL     1      20.000   3.685   9.287  1.00  0.00     0.043 C 
HETATM    8  C13 UNL     1      21.059   3.586  11.436  1.00  0.00     0.043 C 
HETATM    9  C10 UNL     1      18.960   5.737  12.011  1.00  0.00     0.173 C 
ATOM     10  H4  UNL     1      20.276   6.185  10.352  1.00  0.00     0.162 HD
HETATM   11  S1  UNL     1      18.528   7.217  12.554  1.00  0.00    -0.041 SA
BRANCH   4  12
HETATM   12  O1  UNL     1      18.729   2.278  11.864  1.00  0.00    -0.356 OA
HETATM   13  C1  UNL     1      18.740   1.220  11.042  1.00  0.00     0.205 C 
ENDBRANCH   4  12
BRANCH   4  14
HETATM   14  C3  UNL     1      17.299   3.819  10.755  1.00  0.00     0.440 C 
HETATM   15  F1  UNL     1      16.509   2.702  11.022  1.00  0.00    -0.166 F 
HETATM   16  F2  UNL     1      17.306   4.036   9.439  1.00  0.00    -0.166 F 
HETATM   17  F3  UNL     1      16.598   4.876  11.331  1.00  0.00    -0.166 F 
ENDBRANCH   4  14
ENDBRANCH   2   3
ENDBRANCH   1   2
BRANCH   1  18
HETATM   18  N2  UNL     1      16.276   5.141  15.171  1.00  0.00    -0.068 N 
ATOM     19  H23 UNL     1      16.476   6.066  14.791  1.00  0.00     0.275 HD
ATOM     20  H22 UNL     1      15.257   5.172  15.111  1.00  0.00     0.275 HD
ATOM     21  H21 UNL     1      16.599   5.046  16.134  1.00  0.00     0.275 HD
ENDBRANCH   1  18
BRANCH   1  22
HETATM   22  C6  UNL     1      16.580   2.803  15.080  1.00  0.00     0.359 C 
HETATM   23  F4  UNL     1      17.382   2.852  16.252  1.00  0.00    -0.202 F 
BRANCH  22  24
HETATM   24  N3  UNL     1      17.052   1.635  14.341  1.00  0.00    -0.034 N 
ATOM     25  H33 UNL     1      16.337   1.283  13.705  1.00  0.00     0.278 HD
ATOM     26  H32 UNL     1      17.763   1.891  13.656  1.00  0.00     0.278 HD
ATOM     27  H31 UNL     1      17.386   0.902  14.967  1.00  0.00     0.278 HD
ENDBRANCH  22  24
BRANCH  22  28
HETATM   28  C7  UNL     1      15.195   2.566  15.576  1.00  0.00     0.345 C 
HETATM   29  F5  UNL     1      14.868   1.252  15.576  1.00  0.00    -0.197 F 
HETATM   30  F6  UNL     1      14.295   3.309  14.772  1.00  0.00    -0.197 F 
BRANCH  28  31
HETATM   31  C8  UNL     1      15.004   3.189  16.965  1.00  0.00     0.354 C 
HETATM   32  F7  UNL     1      13.910   4.031  16.977  1.00  0.00    -0.233 F 
BRANCH  31  33
HETATM   33  C9  UNL     1      14.765   2.052  17.931  1.00  0.00     0.423 C 
HETATM   34  F8  UNL     1      13.565   1.407  17.657  1.00  0.00    -0.168 F 
HETATM   35  F9  UNL     1      14.733   2.526  19.234  1.00  0.00    -0.168 F 
HETATM   36  F10 UNL     1      15.741   1.080  17.861  1.00  0.00    -0.168 F 
ENDBRANCH  31  33
ENDBRANCH  28  31
ENDBRANCH  22  28
ENDBRANCH   1  22
TORSDOF 10
ENDMDL
MODEL 5
REMARK VINA RESULT: -6.860012586      1.914      2.764
REMARK  10 active torsions:
REMARK  status: ('A' for Active; 'I' for Inactive)
REMARK    1  A    between atoms: O1_2  and  C2_3 
REMARK    2  A    between atoms: C2_3  and  C3_4 
REMARK    3  A    between atoms: N1_8  and  C4_9 
REMARK    4  A    between atoms: C4_9  and  C5_10 
REMARK    5  A    between atoms: C5_10  and  N2_11 
REMARK    6  A    between atoms: C5_10  and  C6_15 
REMARK    7  A    between atoms: C6_15  and  N3_16 
REMARK    8  A    between atoms: C6_15  and  C7_21 
REMARK    9  A    between atoms: C7_21  and  C8_24 
REMARK   10  A    between atoms: C8_24  and  C9_26 
ROOT
HETATM    1  C5  UNL     1      17.314   3.965  15.358  1.00  0.00     0.275 C 
ENDROOT
BRANCH   1   2
HETATM    2  C4  UNL     1      16.650   5.016  14.568  1.00  0.00     0.167 C 
BRANCH   2   3
HETATM    3  N1  UNL     1      17.265   5.395  13.332  1.00  0.00    -0.315 N 
HETATM    4  C2  UNL     1      17.184   5.080  11.924  1.00  0.00     0.263 C 
HETATM    5  C11 UNL     1      18.599   5.147  11.502  1.00  0.00     0.084 C 
HETATM    6  N4  UNL     1      19.178   6.198  12.282  1.00  0.00    -0.353 N 
HETATM    7  C12 UNL     1      18.912   5.266  10.047  1.00  0.00     0.043 C 
HETATM    8  C13 UNL     1      19.293   3.874  11.961  1.00  0.00     0.043 C 
HETATM    9  C10 UNL     1      18.331   6.413  13.373  1.00  0.00     0.173 C 
ATOM     10  H4  UNL     1      20.044   6.697  12.079  1.00  0.00     0.162 HD
HETATM   11  S1  UNL     1      18.509   7.593  14.490  1.00  0.00    -0.041 SA
BRANCH   4  12
HETATM   12  O1  UNL     1      16.595   3.878  11.761  1.00  0.00    -0.356 OA
HETATM   13  C1  UNL     1      16.747   3.113  10.672  1.00  0.00     0.205 C 
ENDBRANCH   4  12
BRANCH   4  14
HETATM   14  C3  UNL     1      16.313   6.210  11.398  1.00  0.00     0.440 C 
HETATM   15  F1  UNL     1      15.663   5.694  10.277  1.00  0.00    -0.166 F 
HETATM   16  F2  UNL     1      16.908   7.355  11.060  1.00  0.00    -0.166 F 
HETATM   17  F3  UNL     1      15.278   6.540  12.269  1.00  0.00    -0.166 F 
ENDBRANCH   4  14
ENDBRANCH   2   3
ENDBRANCH   1   2
BRANCH   1  18
HETATM   18  N2  UNL     1      18.727   3.849  14.958  1.00  0.00    -0.068 N 
ATOM     19  H23 UNL     1      19.349   3.802  15.765  1.00  0.00     0.275 HD
ATOM     20  H22 UNL     1      18.936   2.935  14.555  1.00  0.00     0.275 HD
ATOM     21  H21 UNL     1      18.975   4.612  14.328  1.00  0.00     0.275 HD
ENDBRANCH   1  18
BRANCH   1  22
HETATM   22  C6  UNL     1      16.766   2.582  15.299  1.00  0.00     0.359 C 
HETATM   23  F4  UNL     1      17.533   1.809  16.211  1.00  0.00    -0.202 F 
BRANCH  22  24
HETATM   24  N3  UNL     1      16.989   1.967  13.993  1.00  0.00    -0.034 N 
ATOM     25  H33 UNL     1      16.135   1.958  13.435  1.00  0.00     0.278 HD
ATOM     26  H32 UNL     1      17.563   2.562  13.396  1.00  0.00     0.278 HD
ATOM     27  H31 UNL     1      17.387   1.032  14.079  1.00  0.00     0.278 HD
ENDBRANCH  22  24
BRANCH  22  28
HETATM   28  C7  UNL     1      15.351   2.378  15.722  1.00  0.00     0.345 C 
HETATM   29  F5  UNL     1      15.018   1.068  15.782  1.00  0.00    -0.197 F 
HETATM   30  F6  UNL     1      14.507   3.073  14.821  1.00  0.00    -0.197 F 
BRANCH  28  31
HETATM   31  C8  UNL     1      15.079   3.085  17.056  1.00  0.00     0.354 C 
HETATM   32  F7  UNL     1      14.021   3.964  16.938  1.00  0.00    -0.233 F 
BRANCH  31  33
HETATM   33  C9  UNL     1      14.723   2.013  18.060  1.00  0.00     0.423 C 
HETATM   34  F8  UNL     1      13.518   1.402  17.732  1.00  0.00    -0.168 F 
HETATM   35  F9  UNL     1      14.619   2.559  19.331  1.00  0.00    -0.168 F 
HETATM   36  F10 UNL     1      15.657   1.000  18.113  1.00  0.00    -0.168 F 
ENDBRANCH  31  33
ENDBRANCH  28  31
ENDBRANCH  22  28
ENDBRANCH   1  22
TORSDOF 10
ENDMDL
