MODEL 1
REMARK VINA RESULT: -8.233864357      0.000      0.000
REMARK  9 active torsions:
REMARK  status: ('A' for Active; 'I' for Inactive)
REMARK       I    between atoms: N2_6  and  C5_7 
REMARK    1  A    between atoms: C5_7  and  C6_9 
REMARK    2  A    between atoms: C6_9  and  C7_12 
REMARK    3  A    between atoms: C7_12  and  O2_13 
REMARK    4  A    between atoms: C7_12  and  C8_16 
REMARK    5  A    between atoms: C8_16  and  C9_19 
REMARK    6  A    between atoms: C9_19  and  C11_22 
REMARK    7  A    between atoms: C11_22  and  O3_23 
REMARK    8  A    between atoms: C11_22  and  C12_25 
REMARK    9  A    between atoms: C12_25  and  C13_27 
ROOT
HETATM    1  C7  UNL     1      17.729   3.500  12.731  1.00  0.00     0.348 C 
HETATM    2  F3  UNL     1      17.403   4.785  12.431  1.00  0.00    -0.197 F 
ENDROOT
BRANCH   1   3
HETATM    3  C6  UNL     1      17.702   2.726  11.416  1.00  0.00     0.388 C 
HETATM    4  F1  UNL     1      16.734   3.216  10.585  1.00  0.00    -0.189 F 
HETATM    5  F2  UNL     1      17.543   1.397  11.702  1.00  0.00    -0.189 F 
BRANCH   3   6
HETATM    6  C5  UNL     1      19.018   2.882  10.745  1.00  0.00     0.299 C 
HETATM    7  N2  UNL     1      19.319   3.844   9.780  1.00  0.00    -0.345 N 
HETATM    8  C4  UNL     1      20.698   3.820   9.266  1.00  0.00     0.127 C 
HETATM    9  C14 UNL     1      18.262   4.741   9.385  1.00  0.00     0.156 C 
HETATM   10  C3  UNL     1      20.658   3.481   7.806  1.00  0.00     0.050 C 
HETATM   11  C2  UNL     1      20.464   4.797   7.047  1.00  0.00     0.273 C 
HETATM   12  N1  UNL     1      19.098   5.222   7.175  1.00  0.00     0.085 N 
HETATM   13  C1  UNL     1      18.764   6.142   6.085  1.00  0.00     0.309 C 
HETATM   14  C15 UNL     1      18.843   5.825   8.458  1.00  0.00     0.291 C 
HETATM   15  O1  UNL     1      19.962   2.086  11.063  1.00  0.00    -0.266 OA
ENDBRANCH   3   6
ENDBRANCH   1   3
BRANCH   1  16
HETATM   16  O2  UNL     1      19.014   3.495  13.225  1.00  0.00    -0.352 OA
ATOM     17  H2  UNL     1      19.352   4.383  13.213  1.00  0.00     0.213 HD
ENDBRANCH   1  16
BRANCH   1  18
HETATM   18  C8  UNL     1      16.810   2.803  13.699  1.00  0.00     0.347 C 
HETATM   19  F4  UNL     1      17.196   1.487  13.734  1.00  0.00    -0.196 F 
HETATM   20  F5  UNL     1      15.495   2.824  13.235  1.00  0.00    -0.196 F 
BRANCH  18  21
HETATM   21  C9  UNL     1      16.761   3.432  15.064  1.00  0.00     0.199 C 
HETATM   22  C10 UNL     1      15.620   4.483  14.984  1.00  0.00     0.061 C 
HETATM   23  F6  UNL     1      17.919   4.173  15.210  1.00  0.00    -0.234 F 
BRANCH  21  24
HETATM   24  C11 UNL     1      16.458   2.492  16.162  1.00  0.00     0.206 C 
BRANCH  24  25
HETATM   25  O3  UNL     1      17.588   1.611  16.353  1.00  0.00    -0.389 OA
ATOM     26  H3  UNL     1      17.333   0.903  16.933  1.00  0.00     0.210 HD
ENDBRANCH  24  25
BRANCH  24  27
HETATM   27  C12 UNL     1      15.293   1.590  16.097  1.00  0.00     0.309 C 
HETATM   28  F7  UNL     1      14.194   2.502  15.812  1.00  0.00    -0.237 F 
BRANCH  27  29
HETATM   29  C13 UNL     1      14.819   0.979  17.390  1.00  0.00     0.420 C 
HETATM   30  F8  UNL     1      15.045   1.825  18.467  1.00  0.00    -0.168 F 
HETATM   31  F9  UNL     1      13.395   0.908  17.349  1.00  0.00    -0.168 F 
HETATM   32  F10 UNL     1      15.219  -0.291  17.589  1.00  0.00    -0.168 F 
ENDBRANCH  27  29
ENDBRANCH  24  27
ENDBRANCH  21  24
ENDBRANCH  18  21
ENDBRANCH   1  18
TORSDOF 9
ENDMDL
MODEL 2
REMARK VINA RESULT: -8.091161380      1.404      1.710
REMARK  9 active torsions:
REMARK  status: ('A' for Active; 'I' for Inactive)
REMARK       I    between atoms: N2_6  and  C5_7 
REMARK    1  A    between atoms: C5_7  and  C6_9 
REMARK    2  A    between atoms: C6_9  and  C7_12 
REMARK    3  A    between atoms: C7_12  and  O2_13 
REMARK    4  A    between atoms: C7_12  and  C8_16 
REMARK    5  A    between atoms: C8_16  and  C9_19 
REMARK    6  A    between atoms: C9_19  and  C11_22 
REMARK    7  A    between atoms: C11_22  and  O3_23 
REMARK    8  A    between atoms: C11_22  and  C12_25 
REMARK    9  A    between atoms: C12_25  and  C13_27 
ROOT
HETATM    1  C7  UNL     1      17.689   3.021  12.531  1.00  0.00     0.348 C 
HETATM    2  F3  UNL     1      18.579   3.996  12.855  1.00  0.00    -0.197 F 
ENDROOT
BRANCH   1   3
HETATM    3  C6  UNL     1      16.888   3.541  11.340  1.00  0.00     0.388 C 
HETATM    4  F1  UNL     1      16.162   4.645  11.690  1.00  0.00    -0.189 F 
HETATM    5  F2  UNL     1      16.116   2.518  10.862  1.00  0.00    -0.189 F 
BRANCH   3   6
HETATM    6  C5  UNL     1      17.835   3.926  10.262  1.00  0.00     0.299 C 
HETATM    7  N2  UNL     1      17.752   5.091   9.498  1.00  0.00    -0.345 N 
HETATM    8  C4  UNL     1      18.815   5.271   8.495  1.00  0.00     0.127 C 
HETATM    9  C14 UNL     1      16.646   5.977   9.758  1.00  0.00     0.156 C 
HETATM   10  C3  UNL     1      18.194   5.250   7.131  1.00  0.00     0.050 C 
HETATM   11  C2  UNL     1      17.746   6.681   6.823  1.00  0.00     0.273 C 
HETATM   12  N1  UNL     1      16.552   6.977   7.566  1.00  0.00     0.085 N 
HETATM   13  C1  UNL     1      15.836   8.084   6.928  1.00  0.00     0.309 C 
HETATM   14  C15 UNL     1      16.839   7.272   8.946  1.00  0.00     0.291 C 
HETATM   15  O1  UNL     1      18.809   3.146  10.000  1.00  0.00    -0.266 OA
ENDBRANCH   3   6
ENDBRANCH   1   3
BRANCH   1  16
HETATM   16  O2  UNL     1      18.403   1.911  12.138  1.00  0.00    -0.352 OA
ATOM     17  H2  UNL     1      19.175   2.195  11.663  1.00  0.00     0.213 HD
ENDBRANCH   1  16
BRANCH   1  18
HETATM   18  C8  UNL     1      16.715   2.640  13.615  1.00  0.00     0.347 C 
HETATM   19  F4  UNL     1      16.703   1.270  13.673  1.00  0.00    -0.196 F 
HETATM   20  F5  UNL     1      15.421   3.040  13.279  1.00  0.00    -0.196 F 
BRANCH  18  21
HETATM   21  C9  UNL     1      16.996   3.278  14.947  1.00  0.00     0.199 C 
HETATM   22  C10 UNL     1      16.214   4.620  14.927  1.00  0.00     0.061 C 
HETATM   23  F6  UNL     1      18.330   3.642  14.948  1.00  0.00    -0.234 F 
BRANCH  21  24
HETATM   24  C11 UNL     1      16.545   2.489  16.112  1.00  0.00     0.206 C 
BRANCH  24  25
HETATM   25  O3  UNL     1      17.538   1.481  16.411  1.00  0.00    -0.389 OA
ATOM     26  H3  UNL     1      18.019   1.742  17.188  1.00  0.00     0.210 HD
ENDBRANCH  24  25
BRANCH  24  27
HETATM   27  C12 UNL     1      15.267   1.752  16.088  1.00  0.00     0.309 C 
HETATM   28  F7  UNL     1      14.284   2.818  15.947  1.00  0.00    -0.237 F 
BRANCH  27  29
HETATM   29  C13 UNL     1      14.810   1.121  17.378  1.00  0.00     0.420 C 
HETATM   30  F8  UNL     1      15.036   1.956  18.463  1.00  0.00    -0.168 F 
HETATM   31  F9  UNL     1      13.386   1.036  17.347  1.00  0.00    -0.168 F 
HETATM   32  F10 UNL     1      15.224  -0.147  17.557  1.00  0.00    -0.168 F 
ENDBRANCH  27  29
ENDBRANCH  24  27
ENDBRANCH  21  24
ENDBRANCH  18  21
ENDBRANCH   1  18
TORSDOF 9
ENDMDL
MODEL 3
REMARK VINA RESULT: -8.082235235      1.278      1.943
REMARK  9 active torsions:
REMARK  status: ('A' for Active; 'I' for Inactive)
REMARK       I    between atoms: N2_6  and  C5_7 
REMARK    1  A    between atoms: C5_7  and  C6_9 
REMARK    2  A    between atoms: C6_9  and  C7_12 
REMARK    3  A    between atoms: C7_12  and  O2_13 
REMARK    4  A    between atoms: C7_12  and  C8_16 
REMARK    5  A    between atoms: C8_16  and  C9_19 
REMARK    6  A    between atoms: C9_19  and  C11_22 
REMARK    7  A    between atoms: C11_22  and  O3_23 
REMARK    8  A    between atoms: C11_22  and  C12_25 
REMARK    9  A    between atoms: C12_25  and  C13_27 
ROOT
HETATM    1  C7  UNL     1      17.718   3.472  12.718  1.00  0.00     0.348 C 
HETATM    2  F3  UNL     1      17.401   4.738  12.343  1.00  0.00    -0.197 F 
ENDROOT
BRANCH   1   3
HETATM    3  C6  UNL     1      17.720   2.628  11.446  1.00  0.00     0.388 C 
HETATM    4  F1  UNL     1      16.502   2.040  11.253  1.00  0.00    -0.189 F 
HETATM    5  F2  UNL     1      18.746   1.727  11.528  1.00  0.00    -0.189 F 
BRANCH   3   6
HETATM    6  C5  UNL     1      18.000   3.516  10.287  1.00  0.00     0.299 C 
HETATM    7  N2  UNL     1      19.270   3.840   9.811  1.00  0.00    -0.345 N 
HETATM    8  C4  UNL     1      19.303   4.727   8.637  1.00  0.00     0.127 C 
HETATM    9  C14 UNL     1      20.402   3.289  10.513  1.00  0.00     0.156 C 
HETATM   10  C3  UNL     1      19.964   6.014   9.028  1.00  0.00     0.050 C 
HETATM   11  C2  UNL     1      21.471   5.816   8.843  1.00  0.00     0.273 C 
HETATM   12  N1  UNL     1      21.981   5.012   9.919  1.00  0.00     0.085 N 
HETATM   13  C1  UNL     1      23.422   5.232  10.059  1.00  0.00     0.309 C 
HETATM   14  C15 UNL     1      21.687   3.614   9.728  1.00  0.00     0.291 C 
HETATM   15  O1  UNL     1      17.014   4.033   9.665  1.00  0.00    -0.266 OA
ENDBRANCH   3   6
ENDBRANCH   1   3
BRANCH   1  16
HETATM   16  O2  UNL     1      18.992   3.492  13.241  1.00  0.00    -0.352 OA
ATOM     17  H2  UNL     1      19.369   4.353  13.099  1.00  0.00     0.213 HD
ENDBRANCH   1  16
BRANCH   1  18
HETATM   18  C8  UNL     1      16.777   2.826  13.701  1.00  0.00     0.347 C 
HETATM   19  F4  UNL     1      17.057   1.483  13.694  1.00  0.00    -0.196 F 
HETATM   20  F5  UNL     1      15.454   2.964  13.281  1.00  0.00    -0.196 F 
BRANCH  18  21
HETATM   21  C9  UNL     1      16.822   3.424  15.080  1.00  0.00     0.199 C 
HETATM   22  C10 UNL     1      15.767   4.564  15.061  1.00  0.00     0.061 C 
HETATM   23  F6  UNL     1      18.040   4.067  15.203  1.00  0.00    -0.234 F 
BRANCH  21  24
HETATM   24  C11 UNL     1      16.480   2.484  16.167  1.00  0.00     0.206 C 
BRANCH  24  25
HETATM   25  O3  UNL     1      17.579   1.565  16.358  1.00  0.00    -0.389 OA
ATOM     26  H3  UNL     1      17.263   0.677  16.243  1.00  0.00     0.210 HD
ENDBRANCH  24  25
BRANCH  24  27
HETATM   27  C12 UNL     1      15.287   1.621  16.084  1.00  0.00     0.309 C 
HETATM   28  F7  UNL     1      14.215   2.575  15.839  1.00  0.00    -0.237 F 
BRANCH  27  29
HETATM   29  C13 UNL     1      14.805   0.984  17.362  1.00  0.00     0.420 C 
HETATM   30  F8  UNL     1      14.997   1.821  18.453  1.00  0.00    -0.168 F 
HETATM   31  F9  UNL     1      13.384   0.885  17.297  1.00  0.00    -0.168 F 
HETATM   32  F10 UNL     1      15.228  -0.280  17.551  1.00  0.00    -0.168 F 
ENDBRANCH  27  29
ENDBRANCH  24  27
ENDBRANCH  21  24
ENDBRANCH  18  21
ENDBRANCH   1  18
TORSDOF 9
ENDMDL
MODEL 4
REMARK VINA RESULT: -8.062582759      1.870      2.447
REMARK  9 active torsions:
REMARK  status: ('A' for Active; 'I' for Inactive)
REMARK       I    between atoms: N2_6  and  C5_7 
REMARK    1  A    between atoms: C5_7  and  C6_9 
REMARK    2  A    between atoms: C6_9  and  C7_12 
REMARK    3  A    between atoms: C7_12  and  O2_13 
REMARK    4  A    between atoms: C7_12  and  C8_16 
REMARK    5  A    between atoms: C8_16  and  C9_19 
REMARK    6  A    between atoms: C9_19  and  C11_22 
REMARK    7  A    between atoms: C11_22  and  O3_23 
REMARK    8  A    between atoms: C11_22  and  C12_25 
REMARK    9  A    between atoms: C12_25  and  C13_27 
ROOT
HETATM    1  C7  UNL     1      17.766   3.503  12.850  1.00  0.00     0.348 C 
HETATM    2  F3  UNL     1      18.783   4.041  13.574  1.00  0.00    -0.197 F 
ENDROOT
BRANCH   1   3
HETATM    3  C6  UNL     1      17.843   4.131  11.461  1.00  0.00     0.388 C 
HETATM    4  F1  UNL     1      18.009   5.485  11.548  1.00  0.00    -0.189 F 
HETATM    5  F2  UNL     1      16.722   3.770  10.763  1.00  0.00    -0.189 F 
BRANCH   3   6
HETATM    6  C5  UNL     1      19.015   3.561  10.746  1.00  0.00     0.299 C 
HETATM    7  N2  UNL     1      20.287   4.133  10.704  1.00  0.00    -0.345 N 
HETATM    8  C4  UNL     1      21.299   3.378   9.946  1.00  0.00     0.127 C 
HETATM    9  C14 UNL     1      20.472   5.388  11.387  1.00  0.00     0.156 C 
HETATM   10  C3  UNL     1      21.730   4.204   8.772  1.00  0.00     0.050 C 
HETATM   11  C2  UNL     1      22.862   5.114   9.258  1.00  0.00     0.273 C 
HETATM   12  N1  UNL     1      22.309   6.184  10.042  1.00  0.00     0.085 N 
HETATM   13  C1  UNL     1      23.248   7.306  10.077  1.00  0.00     0.309 C 
HETATM   14  C15 UNL     1      21.970   5.750  11.374  1.00  0.00     0.291 C 
HETATM   15  O1  UNL     1      18.868   2.462  10.116  1.00  0.00    -0.266 OA
ENDBRANCH   3   6
ENDBRANCH   1   3
BRANCH   1  16
HETATM   16  O2  UNL     1      17.994   2.149  12.741  1.00  0.00    -0.352 OA
ATOM     17  H2  UNL     1      17.978   1.764  13.610  1.00  0.00     0.213 HD
ENDBRANCH   1  16
BRANCH   1  18
HETATM   18  C8  UNL     1      16.382   3.743  13.391  1.00  0.00     0.347 C 
HETATM   19  F4  UNL     1      15.600   2.705  12.954  1.00  0.00    -0.196 F 
HETATM   20  F5  UNL     1      15.837   4.910  12.855  1.00  0.00    -0.196 F 
BRANCH  18  21
HETATM   21  C9  UNL     1      16.327   3.926  14.883  1.00  0.00     0.199 C 
HETATM   22  C10 UNL     1      15.987   5.427  15.094  1.00  0.00     0.061 C 
HETATM   23  F6  UNL     1      17.618   3.783  15.356  1.00  0.00    -0.234 F 
BRANCH  21  24
HETATM   24  C11 UNL     1      15.300   3.111  15.563  1.00  0.00     0.206 C 
BRANCH  24  25
HETATM   25  O3  UNL     1      14.465   3.978  16.363  1.00  0.00    -0.389 OA
ATOM     26  H3  UNL     1      14.432   3.642  17.251  1.00  0.00     0.210 HD
ENDBRANCH  24  25
BRANCH  24  27
HETATM   27  C12 UNL     1      15.674   2.014  16.476  1.00  0.00     0.309 C 
HETATM   28  F7  UNL     1      15.939   0.911  15.562  1.00  0.00    -0.237 F 
BRANCH  27  29
HETATM   29  C13 UNL     1      14.581   1.417  17.323  1.00  0.00     0.420 C 
HETATM   30  F8  UNL     1      13.413   1.236  16.595  1.00  0.00    -0.168 F 
HETATM   31  F9  UNL     1      14.952   0.077  17.643  1.00  0.00    -0.168 F 
HETATM   32  F10 UNL     1      14.405   2.017  18.515  1.00  0.00    -0.168 F 
ENDBRANCH  27  29
ENDBRANCH  24  27
ENDBRANCH  21  24
ENDBRANCH  18  21
ENDBRANCH   1  18
TORSDOF 9
ENDMDL
MODEL 5
REMARK VINA RESULT: -8.025783043      2.854      3.873
REMARK  9 active torsions:
REMARK  status: ('A' for Active; 'I' for Inactive)
REMARK       I    between atoms: N2_6  and  C5_7 
REMARK    1  A    between atoms: C5_7  and  C6_9 
REMARK    2  A    between atoms: C6_9  and  C7_12 
REMARK    3  A    between atoms: C7_12  and  O2_13 
REMARK    4  A    between atoms: C7_12  and  C8_16 
REMARK    5  A    between atoms: C8_16  and  C9_19 
REMARK    6  A    between atoms: C9_19  and  C11_22 
REMARK    7  A    between atoms: C11_22  and  O3_23 
REMARK    8  A    between atoms: C11_22  and  C12_25 
REMARK    9  A    between atoms: C12_25  and  C13_27 
ROOT
HETATM    1  C7  UNL     1      16.304   4.732  14.076  1.00  0.00     0.348 C 
HETATM    2  F3  UNL     1      14.961   4.541  14.155  1.00  0.00    -0.197 F 
ENDROOT
BRANCH   1   3
HETATM    3  C6  UNL     1      16.606   5.105  12.627  1.00  0.00     0.388 C 
HETATM    4  F1  UNL     1      16.472   4.019  11.809  1.00  0.00    -0.189 F 
HETATM    5  F2  UNL     1      17.853   5.665  12.578  1.00  0.00    -0.189 F 
BRANCH   3   6
HETATM    6  C5  UNL     1      15.634   6.142  12.192  1.00  0.00     0.299 C 
HETATM    7  N2  UNL     1      15.600   6.729  10.926  1.00  0.00    -0.345 N 
HETATM    8  C4  UNL     1      14.535   7.724  10.716  1.00  0.00     0.127 C 
HETATM    9  C14 UNL     1      16.600   6.315   9.975  1.00  0.00     0.156 C 
HETATM   10  C3  UNL     1      15.170   9.060  10.472  1.00  0.00     0.050 C 
HETATM   11  C2  UNL     1      15.463   9.148   8.972  1.00  0.00     0.273 C 
HETATM   12  N1  UNL     1      16.610   8.339   8.664  1.00  0.00     0.085 N 
HETATM   13  C1  UNL     1      17.209   8.792   7.406  1.00  0.00     0.309 C 
HETATM   14  C15 UNL     1      16.277   6.939   8.604  1.00  0.00     0.291 C 
HETATM   15  O1  UNL     1      14.754   6.539  13.024  1.00  0.00    -0.266 OA
ENDBRANCH   3   6
ENDBRANCH   1   3
BRANCH   1  16
HETATM   16  O2  UNL     1      16.629   5.796  14.888  1.00  0.00    -0.352 OA
ATOM     17  H2  UNL     1      15.997   5.847  15.596  1.00  0.00     0.213 HD
ENDBRANCH   1  16
BRANCH   1  18
HETATM   18  C8  UNL     1      17.155   3.542  14.435  1.00  0.00     0.347 C 
HETATM   19  F4  UNL     1      18.045   3.964  15.390  1.00  0.00    -0.196 F 
HETATM   20  F5  UNL     1      17.910   3.125  13.338  1.00  0.00    -0.196 F 
BRANCH  18  21
HETATM   21  C9  UNL     1      16.372   2.332  14.863  1.00  0.00     0.199 C 
HETATM   22  C10 UNL     1      16.752   1.223  13.843  1.00  0.00     0.061 C 
HETATM   23  F6  UNL     1      15.039   2.604  14.614  1.00  0.00    -0.234 F 
BRANCH  21  24
HETATM   24  C11 UNL     1      16.686   1.847  16.222  1.00  0.00     0.206 C 
BRANCH  24  25
HETATM   25  O3  UNL     1      17.536   0.683  16.123  1.00  0.00    -0.389 OA
ATOM     26  H3  UNL     1      17.082  -0.065  16.493  1.00  0.00     0.210 HD
ENDBRANCH  24  25
BRANCH  24  27
HETATM   27  C12 UNL     1      15.618   1.445  17.157  1.00  0.00     0.309 C 
HETATM   28  F7  UNL     1      14.837   0.502  16.367  1.00  0.00    -0.237 F 
BRANCH  27  29
HETATM   29  C13 UNL     1      14.564   2.470  17.486  1.00  0.00     0.420 C 
HETATM   30  F8  UNL     1      13.301   2.048  17.095  1.00  0.00    -0.168 F 
HETATM   31  F9  UNL     1      14.439   2.536  18.905  1.00  0.00    -0.168 F 
HETATM   32  F10 UNL     1      14.870   3.726  17.111  1.00  0.00    -0.168 F 
ENDBRANCH  27  29
ENDBRANCH  24  27
ENDBRANCH  21  24
ENDBRANCH  18  21
ENDBRANCH   1  18
TORSDOF 9
ENDMDL
