MODEL 1
REMARK VINA RESULT: -7.580404668      0.000      0.000
REMARK  9 active torsions:
REMARK  status: ('A' for Active; 'I' for Inactive)
REMARK    1  A    between atoms: C2_5  and  C3_6 
REMARK    2  A    between atoms: C3_6  and  C4_8 
REMARK    3  A    between atoms: C4_8  and  C5_11 
REMARK    4  A    between atoms: C5_11  and  O2_12 
REMARK    5  A    between atoms: C5_11  and  C6_14 
REMARK    6  A    between atoms: C6_14  and  C7_17 
REMARK    7  A    between atoms: C7_17  and  C8_20 
REMARK    8  A    between atoms: C8_20  and  C9_23 
REMARK    9  A    between atoms: C10_26  and  C11_27 
ROOT
HETATM    1  C11 UNL     1      15.729   1.929  16.427  1.00  0.00    -0.042 C 
HETATM    2  C12 UNL     1      15.314   2.096  17.575  1.00  0.00     0.010 C 
HETATM    3 CL2  UNL     1      14.757   2.364  19.194  1.00  0.00    -0.023 Cl
ENDROOT
BRANCH   1   4
HETATM    4  C10 UNL     1      16.178   1.772  15.067  1.00  0.00     0.116 A 
HETATM    5  C2  UNL     1      16.161   2.869  14.204  1.00  0.00     0.101 A 
HETATM    6  N1  UNL     1      16.534   2.551  12.936  1.00  0.00    -0.304 N 
HETATM    7  C1  UNL     1      16.891   1.291  12.548  1.00  0.00     0.327 A 
ATOM      8  H1  UNL     1      16.548   3.294  12.236  1.00  0.00     0.171 HD
HETATM    9  O1  UNL     1      17.221   1.112  11.342  1.00  0.00    -0.247 OA
HETATM   10  N2  UNL     1      16.903   0.259  13.393  1.00  0.00    -0.274 N 
HETATM   11  C13 UNL     1      16.546   0.502  14.645  1.00  0.00     0.270 A 
ATOM     12  H2  UNL     1      17.173  -0.676  13.088  1.00  0.00     0.173 HD
HETATM   13  O3  UNL     1      16.530  -0.442  15.519  1.00  0.00    -0.266 OA
BRANCH   5  14
HETATM   14  C3  UNL     1      15.903   4.236  14.662  1.00  0.00     0.196 C 
HETATM   15  F1  UNL     1      14.636   4.689  14.564  1.00  0.00    -0.202 F 
BRANCH  14  16
HETATM   16  C4  UNL     1      16.955   5.278  14.402  1.00  0.00     0.330 C 
HETATM   17  F2  UNL     1      18.109   4.807  14.911  1.00  0.00    -0.195 F 
HETATM   18  F3  UNL     1      16.664   6.423  15.142  1.00  0.00    -0.195 F 
BRANCH  16  19
HETATM   19  C5  UNL     1      16.956   5.692  12.956  1.00  0.00     0.276 C 
BRANCH  19  20
HETATM   20  O2  UNL     1      15.860   6.520  12.726  1.00  0.00    -0.383 OA
ATOM     21  H2  UNL     1      15.873   6.799  11.818  1.00  0.00     0.210 HD
ENDBRANCH  19  20
BRANCH  19  22
HETATM   22  C6  UNL     1      18.188   6.023  12.262  1.00  0.00     0.345 C 
HETATM   23  F4  UNL     1      17.669   7.076  11.323  1.00  0.00    -0.196 F 
HETATM   24  F5  UNL     1      19.138   6.747  12.904  1.00  0.00    -0.196 F 
BRANCH  22  25
HETATM   25  C7  UNL     1      18.682   5.087  11.168  1.00  0.00     0.378 C 
HETATM   26  F6  UNL     1      19.206   5.834  10.085  1.00  0.00    -0.192 F 
HETATM   27  F7  UNL     1      17.685   4.351  10.562  1.00  0.00    -0.192 F 
BRANCH  25  28
HETATM   28  C8  UNL     1      19.721   4.118  11.589  1.00  0.00     0.357 C 
HETATM   29  F8  UNL     1      20.942   4.855  11.518  1.00  0.00    -0.195 F 
HETATM   30  F9  UNL     1      19.654   3.618  12.839  1.00  0.00    -0.195 F 
BRANCH  28  31
HETATM   31  C9  UNL     1      20.021   3.044  10.520  1.00  0.00     0.344 C 
HETATM   32  F10 UNL     1      20.274   1.848  11.193  1.00  0.00    -0.226 F 
HETATM   33 CL1  UNL     1      21.526   3.459   9.624  1.00  0.00    -0.083 Cl
ENDBRANCH  28  31
ENDBRANCH  25  28
ENDBRANCH  22  25
ENDBRANCH  19  22
ENDBRANCH  16  19
ENDBRANCH  14  16
ENDBRANCH   5  14
ENDBRANCH   1   4
TORSDOF 9
ENDMDL
MODEL 2
REMARK VINA RESULT: -7.492533493      2.123      6.088
REMARK  9 active torsions:
REMARK  status: ('A' for Active; 'I' for Inactive)
REMARK    1  A    between atoms: C2_5  and  C3_6 
REMARK    2  A    between atoms: C3_6  and  C4_8 
REMARK    3  A    between atoms: C4_8  and  C5_11 
REMARK    4  A    between atoms: C5_11  and  O2_12 
REMARK    5  A    between atoms: C5_11  and  C6_14 
REMARK    6  A    between atoms: C6_14  and  C7_17 
REMARK    7  A    between atoms: C7_17  and  C8_20 
REMARK    8  A    between atoms: C8_20  and  C9_23 
REMARK    9  A    between atoms: C10_26  and  C11_27 
ROOT
HETATM    1  C11 UNL     1      20.305   3.896  11.108  1.00  0.00    -0.042 C 
HETATM    2  C12 UNL     1      21.195   4.690  10.799  1.00  0.00     0.010 C 
HETATM    3 CL2  UNL     1      22.473   5.773  10.355  1.00  0.00    -0.023 Cl
ENDROOT
BRANCH   1   4
HETATM    4  C10 UNL     1      19.247   2.966  11.414  1.00  0.00     0.116 A 
HETATM    5  C2  UNL     1      18.459   3.168  12.548  1.00  0.00     0.101 A 
HETATM    6  N1  UNL     1      17.558   2.170  12.752  1.00  0.00    -0.304 N 
HETATM    7  C1  UNL     1      17.436   1.085  11.930  1.00  0.00     0.327 A 
ATOM      8  H1  UNL     1      16.941   2.234  13.561  1.00  0.00     0.171 HD
HETATM    9  O1  UNL     1      16.563   0.219  12.216  1.00  0.00    -0.247 OA
HETATM   10  N2  UNL     1      18.200   0.916  10.849  1.00  0.00    -0.274 N 
HETATM   11  C13 UNL     1      19.100   1.854  10.596  1.00  0.00     0.270 A 
ATOM     12  H2  UNL     1      18.095   0.102  10.245  1.00  0.00     0.173 HD
HETATM   13  O3  UNL     1      19.875   1.762   9.574  1.00  0.00    -0.266 OA
BRANCH   5  14
HETATM   14  C3  UNL     1      18.511   4.396  13.344  1.00  0.00     0.196 C 
HETATM   15  F1  UNL     1      19.165   4.338  14.522  1.00  0.00    -0.202 F 
BRANCH  14  16
HETATM   16  C4  UNL     1      17.299   5.285  13.351  1.00  0.00     0.330 C 
HETATM   17  F2  UNL     1      16.527   4.906  12.316  1.00  0.00    -0.195 F 
HETATM   18  F3  UNL     1      17.684   6.594  13.067  1.00  0.00    -0.195 F 
BRANCH  16  19
HETATM   19  C5  UNL     1      16.661   5.313  14.714  1.00  0.00     0.276 C 
BRANCH  19  20
HETATM   20  O2  UNL     1      16.722   6.612  15.210  1.00  0.00    -0.383 OA
ATOM     21  H2  UNL     1      16.108   6.694  15.930  1.00  0.00     0.210 HD
ENDBRANCH  19  20
BRANCH  19  22
HETATM   22  C6  UNL     1      15.458   4.553  15.004  1.00  0.00     0.345 C 
HETATM   23  F4  UNL     1      15.080   5.179  16.318  1.00  0.00    -0.196 F 
HETATM   24  F5  UNL     1      14.325   4.809  14.303  1.00  0.00    -0.196 F 
BRANCH  22  25
HETATM   25  C7  UNL     1      15.602   3.142  15.554  1.00  0.00     0.378 C 
HETATM   26  F6  UNL     1      16.900   2.957  16.092  1.00  0.00    -0.192 F 
HETATM   27  F7  UNL     1      15.539   2.152  14.594  1.00  0.00    -0.192 F 
BRANCH  25  28
HETATM   28  C8  UNL     1      14.625   2.770  16.604  1.00  0.00     0.357 C 
HETATM   29  F8  UNL     1      15.391   2.747  17.809  1.00  0.00    -0.195 F 
HETATM   30  F9  UNL     1      13.590   3.603  16.830  1.00  0.00    -0.195 F 
BRANCH  28  31
HETATM   31  C9  UNL     1      14.209   1.283  16.549  1.00  0.00     0.344 C 
HETATM   32  F10 UNL     1      12.900   1.202  17.028  1.00  0.00    -0.226 F 
HETATM   33 CL1  UNL     1      15.229   0.309  17.669  1.00  0.00    -0.083 Cl
ENDBRANCH  28  31
ENDBRANCH  25  28
ENDBRANCH  22  25
ENDBRANCH  19  22
ENDBRANCH  16  19
ENDBRANCH  14  16
ENDBRANCH   5  14
ENDBRANCH   1   4
TORSDOF 9
ENDMDL
MODEL 3
REMARK VINA RESULT: -7.301963860      1.029      1.420
REMARK  9 active torsions:
REMARK  status: ('A' for Active; 'I' for Inactive)
REMARK    1  A    between atoms: C2_5  and  C3_6 
REMARK    2  A    between atoms: C3_6  and  C4_8 
REMARK    3  A    between atoms: C4_8  and  C5_11 
REMARK    4  A    between atoms: C5_11  and  O2_12 
REMARK    5  A    between atoms: C5_11  and  C6_14 
REMARK    6  A    between atoms: C6_14  and  C7_17 
REMARK    7  A    between atoms: C7_17  and  C8_20 
REMARK    8  A    between atoms: C8_20  and  C9_23 
REMARK    9  A    between atoms: C10_26  and  C11_27 
ROOT
HETATM    1  C11 UNL     1      15.835   1.948  16.102  1.00  0.00    -0.042 C 
HETATM    2  C12 UNL     1      15.371   2.143  17.226  1.00  0.00     0.010 C 
HETATM    3 CL2  UNL     1      14.721   2.460  18.801  1.00  0.00    -0.023 Cl
ENDROOT
BRANCH   1   4
HETATM    4  C10 UNL     1      16.326   1.725  14.765  1.00  0.00     0.116 A 
HETATM    5  C2  UNL     1      16.425   2.798  13.879  1.00  0.00     0.101 A 
HETATM    6  N1  UNL     1      16.825   2.422  12.635  1.00  0.00    -0.304 N 
HETATM    7  C1  UNL     1      17.105   1.130  12.291  1.00  0.00     0.327 A 
ATOM      8  H1  UNL     1      16.922   3.144  11.920  1.00  0.00     0.171 HD
HETATM    9  O1  UNL     1      17.469   0.897  11.104  1.00  0.00    -0.247 OA
HETATM   10  N2  UNL     1      17.006   0.121  13.158  1.00  0.00    -0.274 N 
HETATM   11  C13 UNL     1      16.617   0.421  14.388  1.00  0.00     0.270 A 
ATOM     12  H2  UNL     1      17.220  -0.838  12.885  1.00  0.00     0.173 HD
HETATM   13  O3  UNL     1      16.497  -0.497  15.281  1.00  0.00    -0.266 OA
BRANCH   5  14
HETATM   14  C3  UNL     1      16.250   4.191  14.294  1.00  0.00     0.196 C 
HETATM   15  F1  UNL     1      15.227   4.875  13.740  1.00  0.00    -0.202 F 
BRANCH  14  16
HETATM   16  C4  UNL     1      17.482   5.014  14.543  1.00  0.00     0.330 C 
HETATM   17  F2  UNL     1      18.296   4.279  15.323  1.00  0.00    -0.195 F 
HETATM   18  F3  UNL     1      17.146   6.130  15.308  1.00  0.00    -0.195 F 
BRANCH  16  19
HETATM   19  C5  UNL     1      18.051   5.535  13.251  1.00  0.00     0.276 C 
BRANCH  19  20
HETATM   20  O2  UNL     1      17.867   6.915  13.206  1.00  0.00    -0.383 OA
ATOM     21  H2  UNL     1      18.390   7.270  12.497  1.00  0.00     0.210 HD
ENDBRANCH  19  20
BRANCH  19  22
HETATM   22  C6  UNL     1      19.293   5.018  12.705  1.00  0.00     0.345 C 
HETATM   23  F4  UNL     1      20.273   5.860  13.474  1.00  0.00    -0.196 F 
HETATM   24  F5  UNL     1      19.720   3.786  13.077  1.00  0.00    -0.196 F 
BRANCH  22  25
HETATM   25  C7  UNL     1      19.740   5.497  11.332  1.00  0.00     0.378 C 
HETATM   26  F6  UNL     1      20.367   6.764  11.435  1.00  0.00    -0.192 F 
HETATM   27  F7  UNL     1      18.703   5.755  10.458  1.00  0.00    -0.192 F 
BRANCH  25  28
HETATM   28  C8  UNL     1      20.672   4.592  10.620  1.00  0.00     0.357 C 
HETATM   29  F8  UNL     1      21.147   5.367   9.518  1.00  0.00    -0.195 F 
HETATM   30  F9  UNL     1      21.767   4.163  11.278  1.00  0.00    -0.195 F 
BRANCH  28  31
HETATM   31  C9  UNL     1      19.954   3.470   9.838  1.00  0.00     0.344 C 
HETATM   32  F10 UNL     1      20.296   2.260  10.443  1.00  0.00    -0.226 F 
HETATM   33 CL1  UNL     1      20.572   3.393   8.149  1.00  0.00    -0.083 Cl
ENDBRANCH  28  31
ENDBRANCH  25  28
ENDBRANCH  22  25
ENDBRANCH  19  22
ENDBRANCH  16  19
ENDBRANCH  14  16
ENDBRANCH   5  14
ENDBRANCH   1   4
TORSDOF 9
ENDMDL
MODEL 4
REMARK VINA RESULT: -7.242788310      1.058      1.534
REMARK  9 active torsions:
REMARK  status: ('A' for Active; 'I' for Inactive)
REMARK    1  A    between atoms: C2_5  and  C3_6 
REMARK    2  A    between atoms: C3_6  and  C4_8 
REMARK    3  A    between atoms: C4_8  and  C5_11 
REMARK    4  A    between atoms: C5_11  and  O2_12 
REMARK    5  A    between atoms: C5_11  and  C6_14 
REMARK    6  A    between atoms: C6_14  and  C7_17 
REMARK    7  A    between atoms: C7_17  and  C8_20 
REMARK    8  A    between atoms: C8_20  and  C9_23 
REMARK    9  A    between atoms: C10_26  and  C11_27 
ROOT
HETATM    1  C11 UNL     1      16.024   2.009  16.069  1.00  0.00    -0.042 C 
HETATM    2  C12 UNL     1      15.520   2.193  17.179  1.00  0.00     0.010 C 
HETATM    3 CL2  UNL     1      14.808   2.493  18.730  1.00  0.00    -0.023 Cl
ENDROOT
BRANCH   1   4
HETATM    4  C10 UNL     1      16.561   1.788  14.750  1.00  0.00     0.116 A 
HETATM    5  C2  UNL     1      16.921   2.881  13.961  1.00  0.00     0.101 A 
HETATM    6  N1  UNL     1      17.334   2.522  12.716  1.00  0.00    -0.304 N 
HETATM    7  C1  UNL     1      17.393   1.226  12.285  1.00  0.00     0.327 A 
ATOM      8  H1  UNL     1      17.615   3.258  12.069  1.00  0.00     0.171 HD
HETATM    9  O1  UNL     1      17.793   1.010  11.107  1.00  0.00    -0.247 OA
HETATM   10  N2  UNL     1      17.045   0.198  13.061  1.00  0.00    -0.274 N 
HETATM   11  C13 UNL     1      16.631   0.482  14.287  1.00  0.00     0.270 A 
ATOM     12  H2  UNL     1      17.096  -0.764  12.725  1.00  0.00     0.173 HD
HETATM   13  O3  UNL     1      16.277  -0.455  15.094  1.00  0.00    -0.266 OA
BRANCH   5  14
HETATM   14  C3  UNL     1      16.978   4.250  14.476  1.00  0.00     0.196 C 
HETATM   15  F1  UNL     1      17.665   4.448  15.621  1.00  0.00    -0.202 F 
BRANCH  14  16
HETATM   16  C4  UNL     1      15.755   5.111  14.332  1.00  0.00     0.330 C 
HETATM   17  F2  UNL     1      15.687   5.887  15.430  1.00  0.00    -0.195 F 
HETATM   18  F3  UNL     1      14.616   4.308  14.375  1.00  0.00    -0.195 F 
BRANCH  16  19
HETATM   19  C5  UNL     1      15.740   5.804  12.996  1.00  0.00     0.276 C 
BRANCH  19  20
HETATM   20  O2  UNL     1      14.476   6.353  12.791  1.00  0.00    -0.383 OA
ATOM     21  H2  UNL     1      13.848   5.647  12.699  1.00  0.00     0.210 HD
ENDBRANCH  19  20
BRANCH  19  22
HETATM   22  C6  UNL     1      16.877   6.577  12.529  1.00  0.00     0.345 C 
HETATM   23  F4  UNL     1      16.151   7.660  11.781  1.00  0.00    -0.196 F 
HETATM   24  F5  UNL     1      17.568   7.341  13.410  1.00  0.00    -0.196 F 
BRANCH  22  25
HETATM   25  C7  UNL     1      17.657   6.069  11.325  1.00  0.00     0.378 C 
HETATM   26  F6  UNL     1      17.733   7.077  10.331  1.00  0.00    -0.192 F 
HETATM   27  F7  UNL     1      17.041   5.036  10.647  1.00  0.00    -0.192 F 
BRANCH  25  28
HETATM   28  C8  UNL     1      19.038   5.617  11.612  1.00  0.00     0.357 C 
HETATM   29  F8  UNL     1      19.861   6.709  11.199  1.00  0.00    -0.195 F 
HETATM   30  F9  UNL     1      19.368   5.359  12.892  1.00  0.00    -0.195 F 
BRANCH  28  31
HETATM   31  C9  UNL     1      19.545   4.542  10.625  1.00  0.00     0.344 C 
HETATM   32  F10 UNL     1      20.113   3.518  11.383  1.00  0.00    -0.226 F 
HETATM   33 CL1  UNL     1      20.861   5.212   9.595  1.00  0.00    -0.083 Cl
ENDBRANCH  28  31
ENDBRANCH  25  28
ENDBRANCH  22  25
ENDBRANCH  19  22
ENDBRANCH  16  19
ENDBRANCH  14  16
ENDBRANCH   5  14
ENDBRANCH   1   4
TORSDOF 9
ENDMDL
MODEL 5
REMARK VINA RESULT: -7.189000993      3.042      4.264
REMARK  9 active torsions:
REMARK  status: ('A' for Active; 'I' for Inactive)
REMARK    1  A    between atoms: C2_5  and  C3_6 
REMARK    2  A    between atoms: C3_6  and  C4_8 
REMARK    3  A    between atoms: C4_8  and  C5_11 
REMARK    4  A    between atoms: C5_11  and  O2_12 
REMARK    5  A    between atoms: C5_11  and  C6_14 
REMARK    6  A    between atoms: C6_14  and  C7_17 
REMARK    7  A    between atoms: C7_17  and  C8_20 
REMARK    8  A    between atoms: C8_20  and  C9_23 
REMARK    9  A    between atoms: C10_26  and  C11_27 
ROOT
HETATM    1  C11 UNL     1      15.042   5.212  14.182  1.00  0.00    -0.042 C 
HETATM    2  C12 UNL     1      14.350   6.061  13.617  1.00  0.00     0.010 C 
HETATM    3 CL2  UNL     1      13.400   7.249  12.787  1.00  0.00    -0.023 Cl
ENDROOT
BRANCH   1   4
HETATM    4  C10 UNL     1      15.818   4.180  14.823  1.00  0.00     0.116 A 
HETATM    5  C2  UNL     1      17.197   4.127  14.618  1.00  0.00     0.101 A 
HETATM    6  N1  UNL     1      17.780   3.055  15.218  1.00  0.00    -0.304 N 
HETATM    7  C1  UNL     1      17.089   2.130  15.947  1.00  0.00     0.327 A 
ATOM      8  H1  UNL     1      18.788   2.935  15.118  1.00  0.00     0.171 HD
HETATM    9  O1  UNL     1      17.735   1.174  16.460  1.00  0.00    -0.247 OA
HETATM   10  N2  UNL     1      15.769   2.204  16.131  1.00  0.00    -0.274 N 
HETATM   11  C13 UNL     1      15.140   3.226  15.569  1.00  0.00     0.270 A 
ATOM     12  H2  UNL     1      15.267   1.506  16.679  1.00  0.00     0.173 HD
HETATM   13  O3  UNL     1      13.868   3.366  15.699  1.00  0.00    -0.266 OA
BRANCH   5  14
HETATM   14  C3  UNL     1      17.943   5.193  13.947  1.00  0.00     0.196 C 
HETATM   15  F1  UNL     1      17.898   6.421  14.505  1.00  0.00    -0.202 F 
BRANCH  14  16
HETATM   16  C4  UNL     1      17.972   5.197  12.444  1.00  0.00     0.330 C 
HETATM   17  F2  UNL     1      19.258   5.350  12.076  1.00  0.00    -0.195 F 
HETATM   18  F3  UNL     1      17.314   6.331  11.971  1.00  0.00    -0.195 F 
BRANCH  16  19
HETATM   19  C5  UNL     1      17.233   4.010  11.888  1.00  0.00     0.276 C 
BRANCH  19  20
HETATM   20  O2  UNL     1      16.314   4.458  10.942  1.00  0.00    -0.383 OA
ATOM     21  H2  UNL     1      15.809   3.716  10.632  1.00  0.00     0.210 HD
ENDBRANCH  19  20
BRANCH  19  22
HETATM   22  C6  UNL     1      17.911   2.757  11.606  1.00  0.00     0.345 C 
HETATM   23  F4  UNL     1      18.064   2.887  10.116  1.00  0.00    -0.196 F 
HETATM   24  F5  UNL     1      19.214   2.615  11.951  1.00  0.00    -0.196 F 
BRANCH  22  25
HETATM   25  C7  UNL     1      17.087   1.479  11.554  1.00  0.00     0.378 C 
HETATM   26  F6  UNL     1      16.109   1.568  10.533  1.00  0.00    -0.192 F 
HETATM   27  F7  UNL     1      16.317   1.257  12.678  1.00  0.00    -0.192 F 
BRANCH  25  28
HETATM   28  C8  UNL     1      17.862   0.237  11.325  1.00  0.00     0.357 C 
HETATM   29  F8  UNL     1      17.722  -0.015   9.927  1.00  0.00    -0.195 F 
HETATM   30  F9  UNL     1      19.186   0.260  11.574  1.00  0.00    -0.195 F 
BRANCH  28  31
HETATM   31  C9  UNL     1      17.162  -1.027  11.873  1.00  0.00     0.344 C 
HETATM   32  F10 UNL     1      17.123  -0.909  13.263  1.00  0.00    -0.226 F 
HETATM   33 CL1  UNL     1      18.145  -2.491  11.507  1.00  0.00    -0.083 Cl
ENDBRANCH  28  31
ENDBRANCH  25  28
ENDBRANCH  22  25
ENDBRANCH  19  22
ENDBRANCH  16  19
ENDBRANCH  14  16
ENDBRANCH   5  14
ENDBRANCH   1   4
TORSDOF 9
ENDMDL
