MODEL 1
REMARK VINA RESULT: -8.241641190      0.000      0.000
REMARK  9 active torsions:
REMARK  status: ('A' for Active; 'I' for Inactive)
REMARK    1  A    between atoms: C2_2  and  C3_4 
REMARK    2  A    between atoms: C2_2  and  C6_12 
REMARK    3  A    between atoms: C3_4  and  C4_6 
REMARK    4  A    between atoms: C4_6  and  C5_8 
REMARK    5  A    between atoms: C6_12  and  C7_15 
REMARK    6  A    between atoms: C7_15  and  N1_16 
REMARK    7  A    between atoms: C7_15  and  O1_20 
REMARK    8  A    between atoms: C7_15  and  C8_22 
REMARK    9  A    between atoms: C8_22  and  C9_24 
REMARK       I    between atoms: C9_24  and  N2_26 
ROOT
HETATM    1  C7  UNL     1      18.419   5.311  13.187  1.00  0.00     0.317 C 
ENDROOT
BRANCH   1   2
HETATM    2  C6  UNL     1      18.753   4.325  12.139  1.00  0.00     0.342 C 
HETATM    3  F6  UNL     1      19.791   3.551  12.646  1.00  0.00    -0.197 F 
HETATM    4  F7  UNL     1      19.341   5.147  11.115  1.00  0.00    -0.197 F 
BRANCH   2   5
HETATM    5  C2  UNL     1      17.754   3.519  11.458  1.00  0.00     0.207 C 
HETATM    6  C1  UNL     1      17.147   4.357  10.276  1.00  0.00     0.065 C 
HETATM    7  F1  UNL     1      16.676   3.061  12.164  1.00  0.00    -0.231 F 
BRANCH   5   8
HETATM    8  C3  UNL     1      18.308   2.297  10.751  1.00  0.00     0.077 C 
HETATM    9 CL1  UNL     1      19.802   2.569   9.861  1.00  0.00    -0.086 Cl
BRANCH   8  10
HETATM   10  C4  UNL     1      18.315   1.007  11.433  1.00  0.00     0.321 C 
HETATM   11  F2  UNL     1      19.443   0.265  11.499  1.00  0.00    -0.234 F 
BRANCH  10  12
HETATM   12  C5  UNL     1      17.253   0.058  10.840  1.00  0.00     0.422 C 
HETATM   13  F3  UNL     1      17.102  -0.966  11.796  1.00  0.00    -0.168 F 
HETATM   14  F4  UNL     1      16.043   0.662  10.703  1.00  0.00    -0.168 F 
HETATM   15  F5  UNL     1      17.699  -0.510   9.663  1.00  0.00    -0.168 F 
ENDBRANCH  10  12
ENDBRANCH   8  10
ENDBRANCH   5   8
ENDBRANCH   2   5
ENDBRANCH   1   2
BRANCH   1  16
HETATM   16  N1  UNL     1      18.461   6.684  12.711  1.00  0.00    -0.039 N 
ATOM     17  H13 UNL     1      19.298   7.160  13.049  1.00  0.00     0.278 HD
ATOM     18  H12 UNL     1      18.645   6.716  11.708  1.00  0.00     0.278 HD
ATOM     19  H11 UNL     1      17.622   7.215  12.944  1.00  0.00     0.278 HD
ENDBRANCH   1  16
BRANCH   1  20
HETATM   20  O1  UNL     1      19.584   5.266  14.057  1.00  0.00    -0.359 OA
ATOM     21  H1  UNL     1      19.282   5.713  14.839  1.00  0.00     0.212 HD
ENDBRANCH   1  20
BRANCH   1  22
HETATM   22  C8  UNL     1      17.271   5.090  14.087  1.00  0.00     0.243 C 
HETATM   23 CL2  UNL     1      16.860   6.439  15.147  1.00  0.00    -0.110 Cl
BRANCH  22  24
HETATM   24  C9  UNL     1      17.495   3.891  14.966  1.00  0.00     0.243 C 
HETATM   25  O2  UNL     1      18.691   3.588  15.311  1.00  0.00    -0.272 OA
HETATM   26  N2  UNL     1      16.485   3.059  15.450  1.00  0.00    -0.342 N 
HETATM   27  C10 UNL     1      16.660   1.918  16.315  1.00  0.00     0.169 C 
HETATM   28  C13 UNL     1      15.078   3.130  15.191  1.00  0.00     0.208 C 
HETATM   29  C11 UNL     1      15.580   2.180  17.367  1.00  0.00     0.261 C 
HETATM   30  F8  UNL     1      15.267   1.030  18.059  1.00  0.00    -0.241 F 
HETATM   31  C12 UNL     1      14.453   2.697  16.529  1.00  0.00     0.291 C 
HETATM   32  F9  UNL     1      13.572   1.640  16.273  1.00  0.00    -0.201 F 
HETATM   33  F10 UNL     1      13.842   3.735  17.163  1.00  0.00    -0.201 F 
ENDBRANCH  22  24
ENDBRANCH   1  22
TORSDOF 9
ENDMDL
MODEL 2
REMARK VINA RESULT: -8.208488491      2.965      4.546
REMARK  9 active torsions:
REMARK  status: ('A' for Active; 'I' for Inactive)
REMARK    1  A    between atoms: C2_2  and  C3_4 
REMARK    2  A    between atoms: C2_2  and  C6_12 
REMARK    3  A    between atoms: C3_4  and  C4_6 
REMARK    4  A    between atoms: C4_6  and  C5_8 
REMARK    5  A    between atoms: C6_12  and  C7_15 
REMARK    6  A    between atoms: C7_15  and  N1_16 
REMARK    7  A    between atoms: C7_15  and  O1_20 
REMARK    8  A    between atoms: C7_15  and  C8_22 
REMARK    9  A    between atoms: C8_22  and  C9_24 
REMARK       I    between atoms: C9_24  and  N2_26 
ROOT
HETATM    1  C7  UNL     1      17.972   4.904  12.815  1.00  0.00     0.317 C 
ENDROOT
BRANCH   1   2
HETATM    2  C6  UNL     1      17.492   5.376  11.500  1.00  0.00     0.342 C 
HETATM    3  F6  UNL     1      16.482   4.502  11.114  1.00  0.00    -0.197 F 
HETATM    4  F7  UNL     1      18.611   5.087  10.640  1.00  0.00    -0.197 F 
BRANCH   2   5
HETATM    5  C2  UNL     1      17.149   6.761  11.228  1.00  0.00     0.207 C 
HETATM    6  C1  UNL     1      17.870   7.213   9.908  1.00  0.00     0.065 C 
HETATM    7  F1  UNL     1      17.464   7.717  12.155  1.00  0.00    -0.231 F 
BRANCH   5   8
HETATM    8  C3  UNL     1      15.686   6.995  10.907  1.00  0.00     0.077 C 
HETATM    9 CL1  UNL     1      14.605   6.942  12.295  1.00  0.00    -0.086 Cl
BRANCH   8  10
HETATM   10  C4  UNL     1      15.309   8.050   9.972  1.00  0.00     0.321 C 
HETATM   11  F2  UNL     1      14.852   9.242  10.420  1.00  0.00    -0.234 F 
BRANCH  10  12
HETATM   12  C5  UNL     1      14.231   7.560   8.984  1.00  0.00     0.422 C 
HETATM   13  F3  UNL     1      14.183   6.162   9.158  1.00  0.00    -0.168 F 
HETATM   14  F4  UNL     1      12.998   8.044   9.286  1.00  0.00    -0.168 F 
HETATM   15  F5  UNL     1      14.599   7.822   7.679  1.00  0.00    -0.168 F 
ENDBRANCH  10  12
ENDBRANCH   8  10
ENDBRANCH   5   8
ENDBRANCH   2   5
ENDBRANCH   1   2
BRANCH   1  16
HETATM   16  N1  UNL     1      19.315   5.363  13.130  1.00  0.00    -0.039 N 
ATOM     17  H13 UNL     1      19.617   5.007  14.037  1.00  0.00     0.278 HD
ATOM     18  H12 UNL     1      20.005   4.906  12.533  1.00  0.00     0.278 HD
ATOM     19  H11 UNL     1      19.413   6.377  13.087  1.00  0.00     0.278 HD
ENDBRANCH   1  16
BRANCH   1  20
HETATM   20  O1  UNL     1      18.192   3.484  12.588  1.00  0.00    -0.359 OA
ATOM     21  H1  UNL     1      18.893   3.279  13.196  1.00  0.00     0.212 HD
ENDBRANCH   1  20
BRANCH   1  22
HETATM   22  C8  UNL     1      17.094   4.962  13.998  1.00  0.00     0.243 C 
HETATM   23 CL2  UNL     1      17.203   6.437  14.960  1.00  0.00    -0.110 Cl
BRANCH  22  24
HETATM   24  C9  UNL     1      17.359   3.810  14.927  1.00  0.00     0.243 C 
HETATM   25  O2  UNL     1      18.568   3.548  15.262  1.00  0.00    -0.272 OA
HETATM   26  N2  UNL     1      16.377   2.981  15.468  1.00  0.00    -0.342 N 
HETATM   27  C10 UNL     1      16.592   1.885  16.381  1.00  0.00     0.169 C 
HETATM   28  C13 UNL     1      14.964   3.010  15.235  1.00  0.00     0.208 C 
HETATM   29  C11 UNL     1      15.527   2.173  17.442  1.00  0.00     0.261 C 
HETATM   30  F8  UNL     1      15.251   1.050  18.192  1.00  0.00    -0.241 F 
HETATM   31  C12 UNL     1      14.373   2.628  16.603  1.00  0.00     0.291 C 
HETATM   32  F9  UNL     1      13.510   1.542  16.413  1.00  0.00    -0.201 F 
HETATM   33  F10 UNL     1      13.752   3.682  17.201  1.00  0.00    -0.201 F 
ENDBRANCH  22  24
ENDBRANCH   1  22
TORSDOF 9
ENDMDL
MODEL 3
REMARK VINA RESULT: -8.129603120      2.607      4.378
REMARK  9 active torsions:
REMARK  status: ('A' for Active; 'I' for Inactive)
REMARK    1  A    between atoms: C2_2  and  C3_4 
REMARK    2  A    between atoms: C2_2  and  C6_12 
REMARK    3  A    between atoms: C3_4  and  C4_6 
REMARK    4  A    between atoms: C4_6  and  C5_8 
REMARK    5  A    between atoms: C6_12  and  C7_15 
REMARK    6  A    between atoms: C7_15  and  N1_16 
REMARK    7  A    between atoms: C7_15  and  O1_20 
REMARK    8  A    between atoms: C7_15  and  C8_22 
REMARK    9  A    between atoms: C8_22  and  C9_24 
REMARK       I    between atoms: C9_24  and  N2_26 
ROOT
HETATM    1  C7  UNL     1      18.186   4.570  12.814  1.00  0.00     0.317 C 
ENDROOT
BRANCH   1   2
HETATM    2  C6  UNL     1      17.807   4.910  11.427  1.00  0.00     0.342 C 
HETATM    3  F6  UNL     1      16.464   4.575  11.294  1.00  0.00    -0.197 F 
HETATM    4  F7  UNL     1      18.533   3.933  10.658  1.00  0.00    -0.197 F 
BRANCH   2   5
HETATM    5  C2  UNL     1      18.114   6.189  10.810  1.00  0.00     0.207 C 
HETATM    6  C1  UNL     1      17.590   6.176   9.330  1.00  0.00     0.065 C 
HETATM    7  F1  UNL     1      19.419   6.589  10.725  1.00  0.00    -0.231 F 
BRANCH   5   8
HETATM    8  C3  UNL     1      17.381   7.371  11.414  1.00  0.00     0.077 C 
HETATM    9 CL1  UNL     1      18.414   8.562  12.196  1.00  0.00    -0.086 Cl
BRANCH   8  10
HETATM   10  C4  UNL     1      16.294   8.004  10.675  1.00  0.00     0.321 C 
HETATM   11  F2  UNL     1      16.183   9.351  10.625  1.00  0.00    -0.234 F 
BRANCH  10  12
HETATM   12  C5  UNL     1      14.920   7.513  11.174  1.00  0.00     0.422 C 
HETATM   13  F3  UNL     1      14.171   8.685  11.396  1.00  0.00    -0.168 F 
HETATM   14  F4  UNL     1      14.261   6.787  10.235  1.00  0.00    -0.168 F 
HETATM   15  F5  UNL     1      15.042   6.842  12.375  1.00  0.00    -0.168 F 
ENDBRANCH  10  12
ENDBRANCH   8  10
ENDBRANCH   5   8
ENDBRANCH   2   5
ENDBRANCH   1   2
BRANCH   1  16
HETATM   16  N1  UNL     1      19.508   5.054  13.178  1.00  0.00    -0.039 N 
ATOM     17  H13 UNL     1      20.230   4.395  12.885  1.00  0.00     0.278 HD
ATOM     18  H12 UNL     1      19.772   5.857  12.607  1.00  0.00     0.278 HD
ATOM     19  H11 UNL     1      19.595   5.270  14.171  1.00  0.00     0.278 HD
ENDBRANCH   1  16
BRANCH   1  20
HETATM   20  O1  UNL     1      18.409   3.133  12.744  1.00  0.00    -0.359 OA
ATOM     21  H1  UNL     1      17.822   2.796  13.410  1.00  0.00     0.212 HD
ENDBRANCH   1  20
BRANCH   1  22
HETATM   22  C8  UNL     1      17.226   4.746  13.919  1.00  0.00     0.243 C 
HETATM   23 CL2  UNL     1      17.281   6.308  14.738  1.00  0.00    -0.110 Cl
BRANCH  22  24
HETATM   24  C9  UNL     1      17.413   3.690  14.972  1.00  0.00     0.243 C 
HETATM   25  O2  UNL     1      18.591   3.458  15.419  1.00  0.00    -0.272 OA
HETATM   26  N2  UNL     1      16.385   2.920  15.519  1.00  0.00    -0.342 N 
HETATM   27  C10 UNL     1      16.523   1.918  16.547  1.00  0.00     0.169 C 
HETATM   28  C13 UNL     1      14.994   2.931  15.181  1.00  0.00     0.208 C 
HETATM   29  C11 UNL     1      15.387   2.312  17.494  1.00  0.00     0.261 C 
HETATM   30  F8  UNL     1      15.047   1.269  18.328  1.00  0.00    -0.241 F 
HETATM   31  C12 UNL     1      14.301   2.686  16.533  1.00  0.00     0.291 C 
HETATM   32  F9  UNL     1      13.443   1.589  16.388  1.00  0.00    -0.201 F 
HETATM   33  F10 UNL     1      13.649   3.795  16.979  1.00  0.00    -0.201 F 
ENDBRANCH  22  24
ENDBRANCH   1  22
TORSDOF 9
ENDMDL
MODEL 4
REMARK VINA RESULT: -8.029303035      2.831      4.337
REMARK  9 active torsions:
REMARK  status: ('A' for Active; 'I' for Inactive)
REMARK    1  A    between atoms: C2_2  and  C3_4 
REMARK    2  A    between atoms: C2_2  and  C6_12 
REMARK    3  A    between atoms: C3_4  and  C4_6 
REMARK    4  A    between atoms: C4_6  and  C5_8 
REMARK    5  A    between atoms: C6_12  and  C7_15 
REMARK    6  A    between atoms: C7_15  and  N1_16 
REMARK    7  A    between atoms: C7_15  and  O1_20 
REMARK    8  A    between atoms: C7_15  and  C8_22 
REMARK    9  A    between atoms: C8_22  and  C9_24 
REMARK       I    between atoms: C9_24  and  N2_26 
ROOT
HETATM    1  C7  UNL     1      18.145   4.833  12.894  1.00  0.00     0.317 C 
ENDROOT
BRANCH   1   2
HETATM    2  C6  UNL     1      17.786   5.316  11.545  1.00  0.00     0.342 C 
HETATM    3  F6  UNL     1      16.747   4.506  11.102  1.00  0.00    -0.197 F 
HETATM    4  F7  UNL     1      18.936   4.940  10.766  1.00  0.00    -0.197 F 
BRANCH   2   5
HETATM    5  C2  UNL     1      17.556   6.717  11.237  1.00  0.00     0.207 C 
HETATM    6  C1  UNL     1      18.867   7.322  10.621  1.00  0.00     0.065 C 
HETATM    7  F1  UNL     1      17.205   7.570  12.247  1.00  0.00    -0.231 F 
BRANCH   5   8
HETATM    8  C3  UNL     1      16.531   6.960  10.146  1.00  0.00     0.077 C 
HETATM    9 CL1  UNL     1      17.059   6.527   8.524  1.00  0.00    -0.086 Cl
BRANCH   8  10
HETATM   10  C4  UNL     1      15.135   6.601  10.370  1.00  0.00     0.321 C 
HETATM   11  F2  UNL     1      14.396   6.044   9.385  1.00  0.00    -0.234 F 
BRANCH  10  12
HETATM   12  C5  UNL     1      14.314   7.821  10.837  1.00  0.00     0.422 C 
HETATM   13  F3  UNL     1      13.315   7.987   9.857  1.00  0.00    -0.168 F 
HETATM   14  F4  UNL     1      13.685   7.596  12.019  1.00  0.00    -0.168 F 
HETATM   15  F5  UNL     1      15.093   8.962  10.859  1.00  0.00    -0.168 F 
ENDBRANCH  10  12
ENDBRANCH   8  10
ENDBRANCH   5   8
ENDBRANCH   2   5
ENDBRANCH   1   2
BRANCH   1  16
HETATM   16  N1  UNL     1      19.458   5.279  13.329  1.00  0.00    -0.039 N 
ATOM     17  H13 UNL     1      19.396   6.174  13.815  1.00  0.00     0.278 HD
ATOM     18  H12 UNL     1      19.806   4.698  14.092  1.00  0.00     0.278 HD
ATOM     19  H11 UNL     1      20.137   5.326  12.569  1.00  0.00     0.278 HD
ENDBRANCH   1  16
BRANCH   1  20
HETATM   20  O1  UNL     1      18.374   3.413  12.679  1.00  0.00    -0.359 OA
ATOM     21  H1  UNL     1      18.758   3.390  11.810  1.00  0.00     0.212 HD
ENDBRANCH   1  20
BRANCH   1  22
HETATM   22  C8  UNL     1      17.166   4.891  13.997  1.00  0.00     0.243 C 
HETATM   23 CL2  UNL     1      17.153   6.389  14.929  1.00  0.00    -0.110 Cl
BRANCH  22  24
HETATM   24  C9  UNL     1      17.381   3.767  14.971  1.00  0.00     0.243 C 
HETATM   25  O2  UNL     1      18.571   3.503  15.364  1.00  0.00    -0.272 OA
HETATM   26  N2  UNL     1      16.367   2.965  15.498  1.00  0.00    -0.342 N 
HETATM   27  C10 UNL     1      16.533   1.897  16.453  1.00  0.00     0.169 C 
HETATM   28  C13 UNL     1      14.966   3.002  15.205  1.00  0.00     0.208 C 
HETATM   29  C11 UNL     1      15.429   2.230  17.459  1.00  0.00     0.261 C 
HETATM   30  F8  UNL     1      15.110   1.135  18.232  1.00  0.00    -0.241 F 
HETATM   31  C12 UNL     1      14.315   2.670  16.560  1.00  0.00     0.291 C 
HETATM   32  F9  UNL     1      13.448   1.587  16.369  1.00  0.00    -0.201 F 
HETATM   33  F10 UNL     1      13.683   3.748  17.098  1.00  0.00    -0.201 F 
ENDBRANCH  22  24
ENDBRANCH   1  22
TORSDOF 9
ENDMDL
MODEL 5
REMARK VINA RESULT: -7.803834980      2.568      5.292
REMARK  9 active torsions:
REMARK  status: ('A' for Active; 'I' for Inactive)
REMARK    1  A    between atoms: C2_2  and  C3_4 
REMARK    2  A    between atoms: C2_2  and  C6_12 
REMARK    3  A    between atoms: C3_4  and  C4_6 
REMARK    4  A    between atoms: C4_6  and  C5_8 
REMARK    5  A    between atoms: C6_12  and  C7_15 
REMARK    6  A    between atoms: C7_15  and  N1_16 
REMARK    7  A    between atoms: C7_15  and  O1_20 
REMARK    8  A    between atoms: C7_15  and  C8_22 
REMARK    9  A    between atoms: C8_22  and  C9_24 
REMARK       I    between atoms: C9_24  and  N2_26 
ROOT
HETATM    1  C7  UNL     1      18.350   5.008  11.145  1.00  0.00     0.317 C 
ENDROOT
BRANCH   1   2
HETATM    2  C6  UNL     1      17.038   5.687  11.165  1.00  0.00     0.342 C 
HETATM    3  F6  UNL     1      16.081   4.698  10.964  1.00  0.00    -0.197 F 
HETATM    4  F7  UNL     1      17.068   6.457   9.949  1.00  0.00    -0.197 F 
BRANCH   2   5
HETATM    5  C2  UNL     1      16.644   6.625  12.202  1.00  0.00     0.207 C 
HETATM    6  C1  UNL     1      15.118   6.955  12.034  1.00  0.00     0.065 C 
HETATM    7  F1  UNL     1      17.269   7.840  12.271  1.00  0.00    -0.231 F 
BRANCH   5   8
HETATM    8  C3  UNL     1      16.713   6.069  13.611  1.00  0.00     0.077 C 
HETATM    9 CL1  UNL     1      17.626   7.050  14.752  1.00  0.00    -0.086 Cl
BRANCH   8  10
HETATM   10  C4  UNL     1      15.516   5.504  14.226  1.00  0.00     0.321 C 
HETATM   11  F2  UNL     1      14.896   6.138  15.247  1.00  0.00    -0.234 F 
BRANCH  10  12
HETATM   12  C5  UNL     1      15.779   4.077  14.750  1.00  0.00     0.422 C 
HETATM   13  F3  UNL     1      14.826   3.878  15.767  1.00  0.00    -0.168 F 
HETATM   14  F4  UNL     1      15.556   3.132  13.800  1.00  0.00    -0.168 F 
HETATM   15  F5  UNL     1      17.038   3.980  15.309  1.00  0.00    -0.168 F 
ENDBRANCH  10  12
ENDBRANCH   8  10
ENDBRANCH   5   8
ENDBRANCH   2   5
ENDBRANCH   1   2
BRANCH   1  16
HETATM   16  N1  UNL     1      19.465   5.927  10.982  1.00  0.00    -0.039 N 
ATOM     17  H13 UNL     1      19.234   6.848  11.357  1.00  0.00     0.278 HD
ATOM     18  H12 UNL     1      20.233   5.681  11.606  1.00  0.00     0.278 HD
ATOM     19  H11 UNL     1      19.788   5.998  10.017  1.00  0.00     0.278 HD
ENDBRANCH   1  16
BRANCH   1  20
HETATM   20  O1  UNL     1      18.341   4.328   9.859  1.00  0.00    -0.359 OA
ATOM     21  H1  UNL     1      17.559   3.792   9.909  1.00  0.00     0.212 HD
ENDBRANCH   1  20
BRANCH   1  22
HETATM   22  C8  UNL     1      18.664   3.952  12.125  1.00  0.00     0.243 C 
HETATM   23 CL2  UNL     1      19.852   4.381  13.357  1.00  0.00    -0.110 Cl
BRANCH  22  24
HETATM   24  C9  UNL     1      19.165   2.710  11.442  1.00  0.00     0.243 C 
HETATM   25  O2  UNL     1      20.375   2.676  11.024  1.00  0.00    -0.272 OA
HETATM   26  N2  UNL     1      18.404   1.562  11.218  1.00  0.00    -0.342 N 
HETATM   27  C10 UNL     1      18.859   0.345  10.591  1.00  0.00     0.169 C 
HETATM   28  C13 UNL     1      17.025   1.337  11.533  1.00  0.00     0.208 C 
HETATM   29  C11 UNL     1      18.336  -0.704  11.575  1.00  0.00     0.261 C 
HETATM   30  F8  UNL     1      18.276  -1.951  10.991  1.00  0.00    -0.241 F 
HETATM   31  C12 UNL     1      16.994  -0.148  11.935  1.00  0.00     0.291 C 
HETATM   32  F9  UNL     1      16.026  -0.788  11.151  1.00  0.00    -0.201 F 
HETATM   33  F10 UNL     1      16.767  -0.309  13.267  1.00  0.00    -0.201 F 
ENDBRANCH  22  24
ENDBRANCH   1  22
TORSDOF 9
ENDMDL
