MODEL 1
REMARK VINA RESULT: -7.441027322      0.000      0.000
REMARK  7 active torsions:
REMARK  status: ('A' for Active; 'I' for Inactive)
REMARK    1  A    between atoms: O1_2  and  C2_3 
REMARK    2  A    between atoms: C2_3  and  C3_4 
REMARK    3  A    between atoms: C2_3  and  C13_16 
REMARK    4  A    between atoms: C4_5  and  C5_6 
REMARK    5  A    between atoms: C6_7  and  O2_8 
REMARK    6  A    between atoms: C13_16  and  C14_17 
REMARK    7  A    between atoms: C15_18  and  C16_19 
ROOT
HETATM    1  C3  UNL     1      16.986   3.728  14.022  1.00  0.00     0.001 C 
HETATM    2  C4  UNL     1      15.952   3.314  14.746  1.00  0.00    -0.021 C 
ENDROOT
BRANCH   2   3
HETATM    3  C5  UNL     1      16.231   2.753  16.087  1.00  0.00     0.041 C 
HETATM    4  C6  UNL     1      16.011   1.235  16.011  1.00  0.00     0.130 C 
HETATM    5  C7  UNL     1      15.038   0.905  17.122  1.00  0.00     0.019 C 
HETATM    6  C8  UNL     1      13.684   1.368  16.690  1.00  0.00     0.008 C 
HETATM    7  C11 UNL     1      15.413   2.007  18.126  1.00  0.00    -0.007 C 
HETATM    8  C9  UNL     1      13.826   2.895  16.659  1.00  0.00     0.006 C 
HETATM    9  C10 UNL     1      15.240   3.166  17.131  1.00  0.00    -0.000 C 
HETATM   10  C12 UNL     1      14.480   2.090  19.273  1.00  0.00     0.011 C 
BRANCH   4  11
HETATM   11  O2  UNL     1      17.217   0.581  16.155  1.00  0.00    -0.394 OA
ATOM     12  H2  UNL     1      17.217  -0.211  15.630  1.00  0.00     0.210 HD
ENDBRANCH   4  11
ENDBRANCH   2   3
BRANCH   1  13
HETATM   13  C2  UNL     1      16.810   4.308  12.659  1.00  0.00     0.146 C 
BRANCH  13  14
HETATM   14  O1  UNL     1      15.747   5.169  12.578  1.00  0.00    -0.387 OA
HETATM   15  C1  UNL     1      16.102   6.451  12.170  1.00  0.00     0.202 C 
ENDBRANCH  13  14
BRANCH  13  16
HETATM   16  C13 UNL     1      16.761   3.194  11.650  1.00  0.00     0.063 C 
BRANCH  16  17
HETATM   17  C14 UNL     1      17.105   1.895  12.241  1.00  0.00    -0.019 C 
HETATM   18  C15 UNL     1      16.536   0.787  11.805  1.00  0.00     0.067 C 
BRANCH  18  19
HETATM   19  C16 UNL     1      16.865  -0.508  12.379  1.00  0.00     0.254 C 
HETATM   20  N1  UNL     1      17.420  -1.515  11.519  1.00  0.00    -0.058 NA
HETATM   21  O3  UNL     1      16.670  -0.746  13.596  1.00  0.00    -0.272 OA
ENDBRANCH  18  19
ENDBRANCH  16  17
ENDBRANCH  13  16
ENDBRANCH   1  13
TORSDOF 7
ENDMDL
MODEL 2
REMARK VINA RESULT: -7.338757143      2.204      3.439
REMARK  7 active torsions:
REMARK  status: ('A' for Active; 'I' for Inactive)
REMARK    1  A    between atoms: O1_2  and  C2_3 
REMARK    2  A    between atoms: C2_3  and  C3_4 
REMARK    3  A    between atoms: C2_3  and  C13_16 
REMARK    4  A    between atoms: C4_5  and  C5_6 
REMARK    5  A    between atoms: C6_7  and  O2_8 
REMARK    6  A    between atoms: C13_16  and  C14_17 
REMARK    7  A    between atoms: C15_18  and  C16_19 
ROOT
HETATM    1  C3  UNL     1      16.280   1.998  13.364  1.00  0.00     0.001 C 
HETATM    2  C4  UNL     1      15.627   2.639  14.326  1.00  0.00    -0.021 C 
ENDROOT
BRANCH   2   3
HETATM    3  C5  UNL     1      16.058   2.407  15.723  1.00  0.00     0.041 C 
HETATM    4  C6  UNL     1      15.975   0.898  15.991  1.00  0.00     0.130 C 
HETATM    5  C7  UNL     1      15.124   0.747  17.234  1.00  0.00     0.019 C 
HETATM    6  C8  UNL     1      13.704   1.002  16.843  1.00  0.00     0.008 C 
HETATM    7  C11 UNL     1      15.469   2.068  17.942  1.00  0.00    -0.007 C 
HETATM    8  C9  UNL     1      13.699   2.491  16.475  1.00  0.00     0.006 C 
HETATM    9  C10 UNL     1      15.114   2.964  16.744  1.00  0.00    -0.000 C 
HETATM   10  C12 UNL     1      14.622   2.329  19.127  1.00  0.00     0.011 C 
BRANCH   4  11
HETATM   11  O2  UNL     1      17.245   0.384  16.157  1.00  0.00    -0.394 OA
ATOM     12  H2  UNL     1      17.798   0.657  15.433  1.00  0.00     0.210 HD
ENDBRANCH   4  11
ENDBRANCH   2   3
BRANCH   1  13
HETATM   13  C2  UNL     1      15.922   2.163  11.925  1.00  0.00     0.146 C 
BRANCH  13  14
HETATM   14  O1  UNL     1      15.816   0.969  11.260  1.00  0.00    -0.387 OA
HETATM   15  C1  UNL     1      16.569  -0.052  11.832  1.00  0.00     0.202 C 
ENDBRANCH  13  14
BRANCH  13  16
HETATM   16  C13 UNL     1      16.884   3.126  11.283  1.00  0.00     0.063 C 
BRANCH  16  17
HETATM   17  C14 UNL     1      18.044   3.403  12.138  1.00  0.00    -0.019 C 
HETATM   18  C15 UNL     1      18.314   4.635  12.526  1.00  0.00     0.067 C 
BRANCH  18  19
HETATM   19  C16 UNL     1      19.460   4.927  13.374  1.00  0.00     0.254 C 
HETATM   20  N1  UNL     1      19.547   4.277  14.651  1.00  0.00    -0.058 NA
HETATM   21  O3  UNL     1      20.353   5.727  13.003  1.00  0.00    -0.272 OA
ENDBRANCH  18  19
ENDBRANCH  16  17
ENDBRANCH  13  16
ENDBRANCH   1  13
TORSDOF 7
ENDMDL
MODEL 3
REMARK VINA RESULT: -7.143332830      2.333      3.886
REMARK  7 active torsions:
REMARK  status: ('A' for Active; 'I' for Inactive)
REMARK    1  A    between atoms: O1_2  and  C2_3 
REMARK    2  A    between atoms: C2_3  and  C3_4 
REMARK    3  A    between atoms: C2_3  and  C13_16 
REMARK    4  A    between atoms: C4_5  and  C5_6 
REMARK    5  A    between atoms: C6_7  and  O2_8 
REMARK    6  A    between atoms: C13_16  and  C14_17 
REMARK    7  A    between atoms: C15_18  and  C16_19 
ROOT
HETATM    1  C3  UNL     1      16.357   2.055  13.476  1.00  0.00     0.001 C 
HETATM    2  C4  UNL     1      15.896   2.827  14.452  1.00  0.00    -0.021 C 
ENDROOT
BRANCH   2   3
HETATM    3  C5  UNL     1      16.219   2.442  15.845  1.00  0.00     0.041 C 
HETATM    4  C6  UNL     1      15.986   0.930  15.976  1.00  0.00     0.130 C 
HETATM    5  C7  UNL     1      15.051   0.760  17.154  1.00  0.00     0.019 C 
HETATM    6  C8  UNL     1      13.685   1.178  16.713  1.00  0.00     0.008 C 
HETATM    7  C11 UNL     1      15.470   1.979  17.992  1.00  0.00    -0.007 C 
HETATM    8  C9  UNL     1      13.837   2.686  16.477  1.00  0.00     0.006 C 
HETATM    9  C10 UNL     1      15.269   3.000  16.859  1.00  0.00    -0.000 C 
HETATM   10  C12 UNL     1      14.580   2.222  19.149  1.00  0.00     0.011 C 
BRANCH   4  11
HETATM   11  O2  UNL     1      17.192   0.287  16.163  1.00  0.00    -0.394 OA
ATOM     12  H2  UNL     1      17.093  -0.398  16.814  1.00  0.00     0.210 HD
ENDBRANCH   4  11
ENDBRANCH   2   3
BRANCH   1  13
HETATM   13  C2  UNL     1      16.086   2.356  12.040  1.00  0.00     0.146 C 
BRANCH  13  14
HETATM   14  O1  UNL     1      15.734   1.246  11.318  1.00  0.00    -0.387 OA
HETATM   15  C1  UNL     1      16.452   0.107  11.668  1.00  0.00     0.202 C 
ENDBRANCH  13  14
BRANCH  13  16
HETATM   16  C13 UNL     1      17.257   3.104  11.462  1.00  0.00     0.063 C 
BRANCH  16  17
HETATM   17  C14 UNL     1      16.833   4.209  10.593  1.00  0.00    -0.019 C 
HETATM   18  C15 UNL     1      16.342   5.320  11.110  1.00  0.00     0.067 C 
BRANCH  18  19
HETATM   19  C16 UNL     1      15.917   6.424  10.265  1.00  0.00     0.254 C 
HETATM   20  N1  UNL     1      14.621   6.354   9.650  1.00  0.00    -0.058 NA
HETATM   21  O3  UNL     1      16.661   7.417  10.074  1.00  0.00    -0.272 OA
ENDBRANCH  18  19
ENDBRANCH  16  17
ENDBRANCH  13  16
ENDBRANCH   1  13
TORSDOF 7
ENDMDL
MODEL 4
REMARK VINA RESULT: -7.110775952      2.582      3.597
REMARK  7 active torsions:
REMARK  status: ('A' for Active; 'I' for Inactive)
REMARK    1  A    between atoms: O1_2  and  C2_3 
REMARK    2  A    between atoms: C2_3  and  C3_4 
REMARK    3  A    between atoms: C2_3  and  C13_16 
REMARK    4  A    between atoms: C4_5  and  C5_6 
REMARK    5  A    between atoms: C6_7  and  O2_8 
REMARK    6  A    between atoms: C13_16  and  C14_17 
REMARK    7  A    between atoms: C15_18  and  C16_19 
ROOT
HETATM    1  C3  UNL     1      16.329   2.084  13.572  1.00  0.00     0.001 C 
HETATM    2  C4  UNL     1      15.934   2.895  14.546  1.00  0.00    -0.021 C 
ENDROOT
BRANCH   2   3
HETATM    3  C5  UNL     1      16.229   2.491  15.940  1.00  0.00     0.041 C 
HETATM    4  C6  UNL     1      16.000   0.977  16.043  1.00  0.00     0.130 C 
HETATM    5  C7  UNL     1      15.040   0.785  17.198  1.00  0.00     0.019 C 
HETATM    6  C8  UNL     1      13.683   1.203  16.732  1.00  0.00     0.008 C 
HETATM    7  C11 UNL     1      15.434   1.994  18.062  1.00  0.00    -0.007 C 
HETATM    8  C9  UNL     1      13.832   2.715  16.522  1.00  0.00     0.006 C 
HETATM    9  C10 UNL     1      15.254   3.030  16.941  1.00  0.00    -0.000 C 
HETATM   10  C12 UNL     1      14.517   2.215  19.203  1.00  0.00     0.011 C 
BRANCH   4  11
HETATM   11  O2  UNL     1      17.205   0.336  16.247  1.00  0.00    -0.394 OA
ATOM     12  H2  UNL     1      17.748   0.853  16.831  1.00  0.00     0.210 HD
ENDBRANCH   4  11
ENDBRANCH   2   3
BRANCH   1  13
HETATM   13  C2  UNL     1      16.080   2.400  12.135  1.00  0.00     0.146 C 
BRANCH  13  14
HETATM   14  O1  UNL     1      16.310   1.333  11.306  1.00  0.00    -0.387 OA
HETATM   15  C1  UNL     1      16.646   0.166  11.984  1.00  0.00     0.202 C 
ENDBRANCH  13  14
BRANCH  13  16
HETATM   16  C13 UNL     1      16.854   3.634  11.759  1.00  0.00     0.063 C 
BRANCH  16  17
HETATM   17  C14 UNL     1      17.107   3.709  10.315  1.00  0.00    -0.019 C 
HETATM   18  C15 UNL     1      18.071   4.477   9.841  1.00  0.00     0.067 C 
BRANCH  18  19
HETATM   19  C16 UNL     1      18.336   4.564   8.414  1.00  0.00     0.254 C 
HETATM   20  N1  UNL     1      17.295   5.056   7.556  1.00  0.00    -0.058 NA
HETATM   21  O3  UNL     1      19.445   4.220   7.938  1.00  0.00    -0.272 OA
ENDBRANCH  18  19
ENDBRANCH  16  17
ENDBRANCH  13  16
ENDBRANCH   1  13
TORSDOF 7
ENDMDL
MODEL 5
REMARK VINA RESULT: -7.056257204      2.628      3.467
REMARK  7 active torsions:
REMARK  status: ('A' for Active; 'I' for Inactive)
REMARK    1  A    between atoms: O1_2  and  C2_3 
REMARK    2  A    between atoms: C2_3  and  C3_4 
REMARK    3  A    between atoms: C2_3  and  C13_16 
REMARK    4  A    between atoms: C4_5  and  C5_6 
REMARK    5  A    between atoms: C6_7  and  O2_8 
REMARK    6  A    between atoms: C13_16  and  C14_17 
REMARK    7  A    between atoms: C15_18  and  C16_19 
ROOT
HETATM    1  C3  UNL     1      16.429   2.214  13.354  1.00  0.00     0.001 C 
HETATM    2  C4  UNL     1      15.663   2.688  14.329  1.00  0.00    -0.021 C 
ENDROOT
BRANCH   2   3
HETATM    3  C5  UNL     1      16.082   2.424  15.725  1.00  0.00     0.041 C 
HETATM    4  C6  UNL     1      15.970   0.912  15.966  1.00  0.00     0.130 C 
HETATM    5  C7  UNL     1      15.110   0.756  17.201  1.00  0.00     0.019 C 
HETATM    6  C8  UNL     1      13.697   1.043  16.808  1.00  0.00     0.008 C 
HETATM    7  C11 UNL     1      15.476   2.057  17.934  1.00  0.00    -0.007 C 
HETATM    8  C9  UNL     1      13.722   2.539  16.467  1.00  0.00     0.006 C 
HETATM    9  C10 UNL     1      15.143   2.980  16.750  1.00  0.00    -0.000 C 
HETATM   10  C12 UNL     1      14.627   2.314  19.120  1.00  0.00     0.011 C 
BRANCH   4  11
HETATM   11  O2  UNL     1      17.229   0.372  16.128  1.00  0.00    -0.394 OA
ATOM     12  H2  UNL     1      17.157  -0.514  16.463  1.00  0.00     0.210 HD
ENDBRANCH   4  11
ENDBRANCH   2   3
BRANCH   1  13
HETATM   13  C2  UNL     1      16.093   2.425  11.916  1.00  0.00     0.146 C 
BRANCH  13  14
HETATM   14  O1  UNL     1      16.369   1.332  11.137  1.00  0.00    -0.387 OA
HETATM   15  C1  UNL     1      16.579   0.168  11.869  1.00  0.00     0.202 C 
ENDBRANCH  13  14
BRANCH  13  16
HETATM   16  C13 UNL     1      16.750   3.690  11.435  1.00  0.00     0.063 C 
BRANCH  16  17
HETATM   17  C14 UNL     1      18.164   3.761  11.823  1.00  0.00    -0.019 C 
HETATM   18  C15 UNL     1      19.028   4.442  11.092  1.00  0.00     0.067 C 
BRANCH  18  19
HETATM   19  C16 UNL     1      20.432   4.523  11.461  1.00  0.00     0.254 C 
HETATM   20  N1  UNL     1      20.866   5.639  12.253  1.00  0.00    -0.058 NA
HETATM   21  O3  UNL     1      21.249   3.641  11.100  1.00  0.00    -0.272 OA
ENDBRANCH  18  19
ENDBRANCH  16  17
ENDBRANCH  13  16
ENDBRANCH   1  13
TORSDOF 7
ENDMDL
