MODEL 1
REMARK VINA RESULT: -7.838399054      0.000      0.000
REMARK  2 active torsions:
REMARK  status: ('A' for Active; 'I' for Inactive)
REMARK    1  A    between atoms: C2_2  and  C3_3 
REMARK    2  A    between atoms: C5_5  and  C6_6 
ROOT
HETATM    1  C6  UNL     1      -8.151  -7.545  11.275  1.00  0.00     0.008 C 
HETATM    2  C7  UNL     1      -9.082  -7.278  12.433  1.00  0.00     0.008 C 
HETATM    3  C8  UNL     1      -9.306  -8.290  13.438  1.00  0.00     0.003 C 
HETATM    4  C9  UNL     1      -9.665  -9.686  13.200  1.00  0.00     0.033 C 
HETATM    5  C10 UNL     1     -10.971  -9.956  12.511  1.00  0.00     0.186 C 
HETATM    6  C11 UNL     1     -10.911 -11.152  11.553  1.00  0.00     0.035 C 
HETATM    7  C12 UNL     1     -10.869 -10.527  10.137  1.00  0.00     0.035 C 
HETATM    8  C13 UNL     1     -10.223  -9.223  10.586  1.00  0.00     0.186 C 
HETATM    9  C14 UNL     1      -9.991  -8.197   9.621  1.00  0.00     0.034 C 
HETATM   10  C15 UNL     1      -8.802  -7.338   9.972  1.00  0.00     0.010 C 
HETATM   11  N1  UNL     1     -11.262  -8.885  11.579  1.00  0.00    -0.067 N 
ATOM     12  H11 UNL     1     -11.257  -7.934  11.949  1.00  0.00     0.278 HD
ATOM     13  H12 UNL     1     -12.221  -8.811  11.241  1.00  0.00     0.278 HD
ENDROOT
BRANCH   1  14
HETATM   14  C5  UNL     1      -6.926  -6.722  11.389  1.00  0.00    -0.020 C 
HETATM   15  C3  UNL     1      -6.494  -5.601  11.013  1.00  0.00    -0.087 C 
HETATM   16  C4  UNL     1      -7.140  -4.573  10.202  1.00  0.00     0.043 C 
BRANCH  15  17
HETATM   17  C2  UNL     1      -5.063  -5.223  11.440  1.00  0.00     0.029 C 
HETATM   18  C1  UNL     1      -4.390  -6.453  11.995  1.00  0.00     0.010 C 
ENDBRANCH  15  17
ENDBRANCH   1  14
TORSDOF 2
ENDMDL
MODEL 2
REMARK VINA RESULT: -6.887555892      0.886      1.059
REMARK  2 active torsions:
REMARK  status: ('A' for Active; 'I' for Inactive)
REMARK    1  A    between atoms: C2_2  and  C3_3 
REMARK    2  A    between atoms: C5_5  and  C6_6 
ROOT
HETATM    1  C6  UNL     1      -7.879  -7.602  11.114  1.00  0.00     0.008 C 
HETATM    2  C7  UNL     1      -8.938  -7.470  12.182  1.00  0.00     0.008 C 
HETATM    3  C8  UNL     1      -9.473  -8.645  12.829  1.00  0.00     0.003 C 
HETATM    4  C9  UNL     1      -9.992  -9.840  12.168  1.00  0.00     0.033 C 
HETATM    5  C10 UNL     1     -11.192  -9.673  11.282  1.00  0.00     0.186 C 
HETATM    6  C11 UNL     1     -11.154 -10.573  10.041  1.00  0.00     0.035 C 
HETATM    7  C12 UNL     1     -10.786  -9.626   8.873  1.00  0.00     0.035 C 
HETATM    8  C13 UNL     1     -10.036  -8.626   9.742  1.00  0.00     0.186 C 
HETATM    9  C14 UNL     1      -9.497  -7.450   9.139  1.00  0.00     0.034 C 
HETATM   10  C15 UNL     1      -8.268  -6.950   9.854  1.00  0.00     0.010 C 
HETATM   11  N1  UNL     1     -11.162  -8.364  10.660  1.00  0.00    -0.067 N 
ATOM     12  H11 UNL     1     -11.076  -7.558  11.280  1.00  0.00     0.278 HD
ATOM     13  H12 UNL     1     -12.030  -8.027  10.246  1.00  0.00     0.278 HD
ENDROOT
BRANCH   1  14
HETATM   14  C5  UNL     1      -6.580  -7.082  11.599  1.00  0.00    -0.020 C 
HETATM   15  C3  UNL     1      -5.915  -6.013  11.576  1.00  0.00    -0.087 C 
HETATM   16  C4  UNL     1      -6.231  -4.727  10.964  1.00  0.00     0.043 C 
BRANCH  15  17
HETATM   17  C2  UNL     1      -4.545  -6.027  12.279  1.00  0.00     0.029 C 
HETATM   18  C1  UNL     1      -3.486  -6.358  11.257  1.00  0.00     0.010 C 
ENDBRANCH  15  17
ENDBRANCH   1  14
TORSDOF 2
ENDMDL
MODEL 3
REMARK VINA RESULT: -6.409067544      0.888      1.182
REMARK  2 active torsions:
REMARK  status: ('A' for Active; 'I' for Inactive)
REMARK    1  A    between atoms: C2_2  and  C3_3 
REMARK    2  A    between atoms: C5_5  and  C6_6 
ROOT
HETATM    1  C6  UNL     1      -8.687  -7.263  10.713  1.00  0.00     0.008 C 
HETATM    2  C7  UNL     1      -9.732  -7.099  11.790  1.00  0.00     0.008 C 
HETATM    3  C8  UNL     1      -9.872  -8.091  12.829  1.00  0.00     0.003 C 
HETATM    4  C9  UNL     1      -9.991  -9.535  12.642  1.00  0.00     0.033 C 
HETATM    5  C10 UNL     1     -11.185 -10.036  11.881  1.00  0.00     0.186 C 
HETATM    6  C11 UNL     1     -10.869 -11.246  10.994  1.00  0.00     0.035 C 
HETATM    7  C12 UNL     1     -10.817 -10.681   9.553  1.00  0.00     0.035 C 
HETATM    8  C13 UNL     1     -10.416  -9.275   9.975  1.00  0.00     0.186 C 
HETATM    9  C14 UNL     1     -10.274  -8.266   8.976  1.00  0.00     0.034 C 
HETATM   10  C15 UNL     1      -9.262  -7.216   9.360  1.00  0.00     0.010 C 
HETATM   11  N1  UNL     1     -11.567  -9.064  10.876  1.00  0.00    -0.067 N 
ATOM     12  H11 UNL     1     -11.737  -8.110  11.195  1.00  0.00     0.278 HD
ATOM     13  H12 UNL     1     -12.498  -9.157  10.471  1.00  0.00     0.278 HD
ENDROOT
BRANCH   1  14
HETATM   14  C5  UNL     1      -7.616  -6.252  10.867  1.00  0.00    -0.020 C 
HETATM   15  C3  UNL     1      -6.404  -6.194  11.202  1.00  0.00    -0.087 C 
HETATM   16  C4  UNL     1      -5.501  -7.255  11.634  1.00  0.00     0.043 C 
BRANCH  15  17
HETATM   17  C2  UNL     1      -5.738  -4.805  11.181  1.00  0.00     0.029 C 
HETATM   18  C1  UNL     1      -4.351  -4.932  11.759  1.00  0.00     0.010 C 
ENDBRANCH  15  17
ENDBRANCH   1  14
TORSDOF 2
ENDMDL
MODEL 4
REMARK VINA RESULT: -6.163147468      2.246      3.530
REMARK  2 active torsions:
REMARK  status: ('A' for Active; 'I' for Inactive)
REMARK    1  A    between atoms: C2_2  and  C3_3 
REMARK    2  A    between atoms: C5_5  and  C6_6 
ROOT
HETATM    1  C6  UNL     1     -10.032  -7.579  12.066  1.00  0.00     0.008 C 
HETATM    2  C7  UNL     1      -8.963  -7.813  11.027  1.00  0.00     0.008 C 
HETATM    3  C8  UNL     1      -9.280  -7.735   9.621  1.00  0.00     0.003 C 
HETATM    4  C9  UNL     1     -10.383  -8.411   8.941  1.00  0.00     0.033 C 
HETATM    5  C10 UNL     1     -10.382  -9.912   8.947  1.00  0.00     0.186 C 
HETATM    6  C11 UNL     1     -11.787 -10.515   9.065  1.00  0.00     0.035 C 
HETATM    7  C12 UNL     1     -11.888 -11.009  10.529  1.00  0.00     0.035 C 
HETATM    8  C13 UNL     1     -10.885 -10.004  11.079  1.00  0.00     0.186 C 
HETATM    9  C14 UNL     1     -10.541 -10.054  12.463  1.00  0.00     0.034 C 
HETATM   10  C15 UNL     1     -10.156  -8.702  13.008  1.00  0.00     0.010 C 
HETATM   11  N1  UNL     1      -9.783 -10.394  10.176  1.00  0.00    -0.067 N 
ATOM     12  H11 UNL     1      -8.852 -10.048  10.405  1.00  0.00     0.278 HD
ATOM     13  H12 UNL     1      -9.490 -11.371  10.197  1.00  0.00     0.278 HD
ENDROOT
BRANCH   1  14
HETATM   14  C5  UNL     1      -9.790  -6.309  12.788  1.00  0.00    -0.020 C 
HETATM   15  C3  UNL     1      -9.553  -5.099  12.532  1.00  0.00    -0.087 C 
HETATM   16  C4  UNL     1      -9.398  -4.428  11.246  1.00  0.00     0.043 C 
BRANCH  15  17
HETATM   17  C2  UNL     1      -9.379  -4.151  13.734  1.00  0.00     0.029 C 
HETATM   18  C1  UNL     1     -10.352  -3.008  13.586  1.00  0.00     0.010 C 
ENDBRANCH  15  17
ENDBRANCH   1  14
TORSDOF 2
ENDMDL
MODEL 5
REMARK VINA RESULT: -5.570370061      1.725      5.824
REMARK  2 active torsions:
REMARK  status: ('A' for Active; 'I' for Inactive)
REMARK    1  A    between atoms: C2_2  and  C3_3 
REMARK    2  A    between atoms: C5_5  and  C6_6 
ROOT
HETATM    1  C6  UNL     1      -9.041  -8.339  10.721  1.00  0.00     0.008 C 
HETATM    2  C7  UNL     1      -9.721  -7.084  11.212  1.00  0.00     0.008 C 
HETATM    3  C8  UNL     1      -9.591  -5.847  10.479  1.00  0.00     0.003 C 
HETATM    4  C9  UNL     1      -8.347  -5.240  10.013  1.00  0.00     0.033 C 
HETATM    5  C10 UNL     1      -7.347  -4.829  11.055  1.00  0.00     0.186 C 
HETATM    6  C11 UNL     1      -5.895  -5.052  10.616  1.00  0.00     0.035 C 
HETATM    7  C12 UNL     1      -5.434  -6.312  11.391  1.00  0.00     0.035 C 
HETATM    8  C13 UNL     1      -6.828  -6.907  11.521  1.00  0.00     0.186 C 
HETATM    9  C14 UNL     1      -6.996  -8.126  12.244  1.00  0.00     0.034 C 
HETATM   10  C15 UNL     1      -8.163  -8.937  11.739  1.00  0.00     0.010 C 
HETATM   11  N1  UNL     1      -7.423  -5.731  12.187  1.00  0.00    -0.067 N 
ATOM     12  H11 UNL     1      -8.339  -5.857  12.619  1.00  0.00     0.278 HD
ATOM     13  H12 UNL     1      -6.990  -5.422  13.057  1.00  0.00     0.278 HD
ENDROOT
BRANCH   1  14
HETATM   14  C5  UNL     1     -10.039  -9.321  10.242  1.00  0.00    -0.020 C 
HETATM   15  C3  UNL     1     -10.856 -10.155  10.713  1.00  0.00    -0.087 C 
HETATM   16  C4  UNL     1     -11.137 -10.508  12.100  1.00  0.00     0.043 C 
BRANCH  15  17
HETATM   17  C2  UNL     1     -11.696 -10.959   9.703  1.00  0.00     0.029 C 
HETATM   18  C1  UNL     1     -11.849 -10.136   8.448  1.00  0.00     0.010 C 
ENDBRANCH  15  17
ENDBRANCH   1  14
TORSDOF 2
ENDMDL
