MODEL 1
REMARK VINA RESULT: -7.323326312      0.000      0.000
REMARK  3 active torsions:
REMARK  status: ('A' for Active; 'I' for Inactive)
REMARK    1  A    between atoms: C4_4  and  C5_5 
REMARK    2  A    between atoms: C5_5  and  C6_6 
REMARK    3  A    between atoms: C14_14  and  N1_15 
ROOT
HETATM    1  C6  UNL     1      -9.258  -7.657  13.303  1.00  0.00    -0.009 C 
HETATM    2  C7  UNL     1      -8.246  -7.678  12.291  1.00  0.00     0.005 C 
HETATM    3  C8  UNL     1      -7.142  -8.542  11.947  1.00  0.00     0.004 C 
HETATM    4  C9  UNL     1      -6.523  -7.713  10.767  1.00  0.00     0.027 C 
HETATM    5  C10 UNL     1      -5.975  -6.413  11.192  1.00  0.00    -0.031 C 
HETATM    6  C11 UNL     1      -6.563  -5.116  10.956  1.00  0.00    -0.031 C 
HETATM    7  C12 UNL     1      -7.860  -4.866  10.293  1.00  0.00     0.029 C 
HETATM    8  C13 UNL     1      -9.120  -4.900  11.080  1.00  0.00     0.036 C 
HETATM    9  C14 UNL     1      -9.185  -5.182  12.530  1.00  0.00     0.184 C 
HETATM   10  C15 UNL     1     -10.011  -6.340  12.982  1.00  0.00     0.037 C 
ENDROOT
BRANCH   1  11
HETATM   11  C5  UNL     1     -10.253  -8.790  13.110  1.00  0.00     0.032 C 
BRANCH  11  12
HETATM   12  C4  UNL     1     -10.555  -8.987  11.684  1.00  0.00    -0.024 C 
HETATM   13  C2  UNL     1     -11.091 -10.125  11.263  1.00  0.00    -0.091 C 
HETATM   14  C1  UNL     1     -11.386 -11.202  12.244  1.00  0.00     0.042 C 
HETATM   15  C3  UNL     1     -11.403 -10.338   9.808  1.00  0.00     0.042 C 
ENDBRANCH  11  12
ENDBRANCH   1  11
BRANCH   9  16
HETATM   16  N1  UNL     1      -9.977  -4.041  13.122  1.00  0.00    -0.075 N 
ATOM     17  H13 UNL     1      -9.476  -3.523  13.844  1.00  0.00     0.274 HD
ATOM     18  H12 UNL     1     -10.109  -3.256  12.484  1.00  0.00     0.274 HD
ATOM     19  H11 UNL     1     -10.850  -4.459  13.446  1.00  0.00     0.274 HD
ENDBRANCH   9  16
TORSDOF 3
ENDMDL
MODEL 2
REMARK VINA RESULT: -7.056643306      1.583      5.431
REMARK  3 active torsions:
REMARK  status: ('A' for Active; 'I' for Inactive)
REMARK    1  A    between atoms: C4_4  and  C5_5 
REMARK    2  A    between atoms: C5_5  and  C6_6 
REMARK    3  A    between atoms: C14_14  and  N1_15 
ROOT
HETATM    1  C6  UNL     1      -9.055  -6.951  10.932  1.00  0.00    -0.009 C 
HETATM    2  C7  UNL     1      -9.567  -8.230  10.543  1.00  0.00     0.005 C 
HETATM    3  C8  UNL     1     -10.179  -8.785   9.359  1.00  0.00     0.004 C 
HETATM    4  C9  UNL     1     -10.511 -10.224   9.892  1.00  0.00     0.027 C 
HETATM    5  C10 UNL     1     -11.513 -10.227  10.973  1.00  0.00    -0.031 C 
HETATM    6  C11 UNL     1     -11.260 -10.455  12.376  1.00  0.00    -0.031 C 
HETATM    7  C12 UNL     1      -9.932 -10.666  12.988  1.00  0.00     0.029 C 
HETATM    8  C13 UNL     1      -9.101  -9.502  13.391  1.00  0.00     0.036 C 
HETATM    9  C14 UNL     1      -9.509  -8.092  13.216  1.00  0.00     0.184 C 
HETATM   10  C15 UNL     1      -8.630  -7.204  12.400  1.00  0.00     0.037 C 
ENDROOT
BRANCH   1  11
HETATM   11  C5  UNL     1      -7.791  -6.606  10.161  1.00  0.00     0.032 C 
BRANCH  11  12
HETATM   12  C4  UNL     1      -6.592  -7.015  10.909  1.00  0.00    -0.024 C 
HETATM   13  C2  UNL     1      -5.717  -6.106  11.322  1.00  0.00    -0.091 C 
HETATM   14  C1  UNL     1      -5.958  -4.670  11.023  1.00  0.00     0.042 C 
HETATM   15  C3  UNL     1      -4.488  -6.511  12.087  1.00  0.00     0.042 C 
ENDBRANCH  11  12
ENDBRANCH   1  11
BRANCH   9  16
HETATM   16  N1  UNL     1      -9.343  -7.457  14.576  1.00  0.00    -0.075 N 
ATOM     17  H13 UNL     1      -8.958  -8.088  15.280  1.00  0.00     0.274 HD
ATOM     18  H12 UNL     1      -8.596  -6.763  14.618  1.00  0.00     0.274 HD
ATOM     19  H11 UNL     1     -10.263  -7.087  14.814  1.00  0.00     0.274 HD
ENDBRANCH   9  16
TORSDOF 3
ENDMDL
MODEL 3
REMARK VINA RESULT: -6.798556182      2.353      5.841
REMARK  3 active torsions:
REMARK  status: ('A' for Active; 'I' for Inactive)
REMARK    1  A    between atoms: C4_4  and  C5_5 
REMARK    2  A    between atoms: C5_5  and  C6_6 
REMARK    3  A    between atoms: C14_14  and  N1_15 
ROOT
HETATM    1  C6  UNL     1      -8.876  -7.839  10.793  1.00  0.00    -0.009 C 
HETATM    2  C7  UNL     1      -9.766  -8.685  11.530  1.00  0.00     0.005 C 
HETATM    3  C8  UNL     1      -9.816  -9.221  12.869  1.00  0.00     0.004 C 
HETATM    4  C9  UNL     1     -11.089 -10.130  12.736  1.00  0.00     0.027 C 
HETATM    5  C10 UNL     1     -10.908 -11.251  11.797  1.00  0.00    -0.031 C 
HETATM    6  C11 UNL     1     -11.470 -11.360  10.472  1.00  0.00    -0.031 C 
HETATM    7  C12 UNL     1     -12.283 -10.329   9.794  1.00  0.00     0.029 C 
HETATM    8  C13 UNL     1     -11.621  -9.234   9.039  1.00  0.00     0.036 C 
HETATM    9  C14 UNL     1     -10.156  -9.081   8.911  1.00  0.00     0.184 C 
HETATM   10  C15 UNL     1      -9.539  -7.811   9.393  1.00  0.00     0.037 C 
ENDROOT
BRANCH   1  11
HETATM   11  C5  UNL     1      -8.906  -6.414  11.323  1.00  0.00     0.032 C 
BRANCH  11  12
HETATM   12  C4  UNL     1      -7.559  -5.971  11.713  1.00  0.00    -0.024 C 
HETATM   13  C2  UNL     1      -6.870  -5.151  10.930  1.00  0.00    -0.091 C 
HETATM   14  C1  UNL     1      -7.470  -4.682   9.654  1.00  0.00     0.042 C 
HETATM   15  C3  UNL     1      -5.492  -4.692  11.317  1.00  0.00     0.042 C 
ENDBRANCH  11  12
ENDBRANCH   1  11
BRANCH   9  16
HETATM   16  N1  UNL     1      -9.897  -8.959   7.428  1.00  0.00    -0.075 N 
ATOM     17  H13 UNL     1      -9.938  -9.847   6.929  1.00  0.00     0.274 HD
ATOM     18  H12 UNL     1     -10.650  -8.500   6.915  1.00  0.00     0.274 HD
ATOM     19  H11 UNL     1      -8.997  -8.485   7.351  1.00  0.00     0.274 HD
ENDBRANCH   9  16
TORSDOF 3
ENDMDL
MODEL 4
REMARK VINA RESULT: -5.852393225      2.447      5.445
REMARK  3 active torsions:
REMARK  status: ('A' for Active; 'I' for Inactive)
REMARK    1  A    between atoms: C4_4  and  C5_5 
REMARK    2  A    between atoms: C5_5  and  C6_6 
REMARK    3  A    between atoms: C14_14  and  N1_15 
ROOT
HETATM    1  C6  UNL     1      -8.336  -7.532  10.669  1.00  0.00    -0.009 C 
HETATM    2  C7  UNL     1      -9.150  -8.186  11.648  1.00  0.00     0.005 C 
HETATM    3  C8  UNL     1      -9.034  -8.495  13.054  1.00  0.00     0.004 C 
HETATM    4  C9  UNL     1     -10.352  -9.326  13.245  1.00  0.00     0.027 C 
HETATM    5  C10 UNL     1     -10.355 -10.594  12.494  1.00  0.00    -0.031 C 
HETATM    6  C11 UNL     1     -11.103 -10.877  11.291  1.00  0.00    -0.031 C 
HETATM    7  C12 UNL     1     -11.956  -9.916  10.562  1.00  0.00     0.029 C 
HETATM    8  C13 UNL     1     -11.360  -9.004   9.552  1.00  0.00     0.036 C 
HETATM    9  C14 UNL     1      -9.922  -8.973   9.208  1.00  0.00     0.184 C 
HETATM   10  C15 UNL     1      -9.187  -7.686   9.383  1.00  0.00     0.037 C 
ENDROOT
BRANCH   1  11
HETATM   11  C5  UNL     1      -8.227  -6.042  10.949  1.00  0.00     0.032 C 
BRANCH  11  12
HETATM   12  C4  UNL     1      -9.403  -5.324  10.433  1.00  0.00    -0.024 C 
HETATM   13  C2  UNL     1      -9.324  -4.635   9.302  1.00  0.00    -0.091 C 
HETATM   14  C1  UNL     1      -8.037  -4.593   8.559  1.00  0.00     0.042 C 
HETATM   15  C3  UNL     1     -10.518  -3.896   8.764  1.00  0.00     0.042 C 
ENDBRANCH  11  12
ENDBRANCH   1  11
BRANCH   9  16
HETATM   16  N1  UNL     1      -9.870  -9.110   7.705  1.00  0.00    -0.075 N 
ATOM     17  H13 UNL     1     -10.417  -9.890   7.344  1.00  0.00     0.274 HD
ATOM     18  H12 UNL     1     -10.370  -8.373   7.207  1.00  0.00     0.274 HD
ATOM     19  H11 UNL     1      -8.877  -9.161   7.475  1.00  0.00     0.274 HD
ENDBRANCH   9  16
TORSDOF 3
ENDMDL
MODEL 5
REMARK VINA RESULT: -5.784408877      2.593      5.907
REMARK  3 active torsions:
REMARK  status: ('A' for Active; 'I' for Inactive)
REMARK    1  A    between atoms: C4_4  and  C5_5 
REMARK    2  A    between atoms: C5_5  and  C6_6 
REMARK    3  A    between atoms: C14_14  and  N1_15 
ROOT
HETATM    1  C6  UNL     1      -8.996  -7.774   9.523  1.00  0.00    -0.009 C 
HETATM    2  C7  UNL     1      -9.640  -8.300  10.688  1.00  0.00     0.005 C 
HETATM    3  C8  UNL     1      -9.343  -8.358  12.100  1.00  0.00     0.004 C 
HETATM    4  C9  UNL     1     -10.561  -9.221  12.584  1.00  0.00     0.027 C 
HETATM    5  C10 UNL     1     -10.548 -10.596  12.054  1.00  0.00    -0.031 C 
HETATM    6  C11 UNL     1     -11.401 -11.123  11.015  1.00  0.00    -0.031 C 
HETATM    7  C12 UNL     1     -12.405 -10.352  10.252  1.00  0.00     0.029 C 
HETATM    8  C13 UNL     1     -12.000  -9.591   9.042  1.00  0.00     0.036 C 
HETATM    9  C14 UNL     1     -10.617  -9.534   8.522  1.00  0.00     0.184 C 
HETATM   10  C15 UNL     1      -9.971  -8.194   8.394  1.00  0.00     0.037 C 
ENDROOT
BRANCH   1  11
HETATM   11  C5  UNL     1      -8.975  -6.255   9.543  1.00  0.00     0.032 C 
BRANCH  11  12
HETATM   12  C4  UNL     1      -7.619  -5.752   9.816  1.00  0.00    -0.024 C 
HETATM   13  C2  UNL     1      -7.354  -5.124  10.954  1.00  0.00    -0.091 C 
HETATM   14  C1  UNL     1      -8.437  -4.931  11.954  1.00  0.00     0.042 C 
HETATM   15  C3  UNL     1      -5.973  -4.606  11.245  1.00  0.00     0.042 C 
ENDBRANCH  11  12
ENDBRANCH   1  11
BRANCH   9  16
HETATM   16  N1  UNL     1     -10.723  -9.920   7.066  1.00  0.00    -0.075 N 
ATOM     17  H13 UNL     1     -10.604 -10.918   6.896  1.00  0.00     0.274 HD
ATOM     18  H12 UNL     1     -11.668  -9.848   6.689  1.00  0.00     0.274 HD
ATOM     19  H11 UNL     1     -10.041  -9.335   6.583  1.00  0.00     0.274 HD
ENDBRANCH   9  16
TORSDOF 3
ENDMDL
