MODEL 1
REMARK VINA RESULT: -7.403816600      0.000      0.000
REMARK  2 active torsions:
REMARK  status: ('A' for Active; 'I' for Inactive)
REMARK    1  A    between atoms: C11_12  and  C12_13 
REMARK    2  A    between atoms: C12_13  and  C13_14 
ROOT
HETATM    1  C13 UNL     1      -8.647  -5.051   8.351  1.00  0.00     0.126 C 
HETATM    2  C14 UNL     1      -9.968  -4.370   8.308  1.00  0.00     0.059 C 
HETATM    3  N2  UNL     1     -10.996  -3.841   8.293  1.00  0.00    -0.197 NA
ENDROOT
BRANCH   1   4
HETATM    4  C12 UNL     1      -8.282  -5.422   9.755  1.00  0.00     0.050 C 
BRANCH   4   5
HETATM    5  C11 UNL     1      -9.154  -6.467  10.385  1.00  0.00     0.223 C 
HETATM    6  N1  UNL     1      -9.029  -6.455  11.825  1.00  0.00     0.088 N 
HETATM    7  C1  UNL     1      -9.244  -5.065  12.264  1.00  0.00     0.310 C 
HETATM    8  C2  UNL     1     -10.008  -7.245  12.516  1.00  0.00     0.272 C 
HETATM    9  C3  UNL     1      -9.426  -8.446  13.234  1.00  0.00     0.030 C 
HETATM   10  C4  UNL     1     -10.485  -9.539  13.398  1.00  0.00     0.002 C 
HETATM   11  C5  UNL     1     -10.317 -10.580  12.324  1.00  0.00     0.000 C 
HETATM   12  C6  UNL     1     -11.283 -10.422  11.178  1.00  0.00     0.000 C 
HETATM   13  C7  UNL     1     -10.598 -10.277   9.833  1.00  0.00     0.000 C 
HETATM   14  C8  UNL     1     -10.984  -9.022   9.124  1.00  0.00     0.000 C 
HETATM   15  C9  UNL     1      -9.855  -8.168   8.657  1.00  0.00     0.002 C 
HETATM   16  C10 UNL     1      -8.868  -7.783   9.735  1.00  0.00     0.036 C 
ENDBRANCH   4   5
ENDBRANCH   1   4
TORSDOF 2
ENDMDL
MODEL 2
REMARK VINA RESULT: -7.141157136      1.376      3.107
REMARK  2 active torsions:
REMARK  status: ('A' for Active; 'I' for Inactive)
REMARK    1  A    between atoms: C11_12  and  C12_13 
REMARK    2  A    between atoms: C12_13  and  C13_14 
ROOT
HETATM    1  C13 UNL     1      -9.171  -5.072   8.991  1.00  0.00     0.126 C 
HETATM    2  C14 UNL     1     -10.291  -4.287   8.408  1.00  0.00     0.059 C 
HETATM    3  N2  UNL     1     -11.169  -3.693   7.946  1.00  0.00    -0.197 NA
ENDROOT
BRANCH   1   4
HETATM    4  C12 UNL     1      -9.130  -6.454   8.417  1.00  0.00     0.050 C 
BRANCH   4   5
HETATM    5  C11 UNL     1      -9.222  -7.563   9.423  1.00  0.00     0.223 C 
HETATM    6  N1  UNL     1     -10.232  -8.527   9.049  1.00  0.00     0.088 N 
HETATM    7  C1  UNL     1      -9.957  -8.921   7.656  1.00  0.00     0.310 C 
HETATM    8  C2  UNL     1     -10.214  -9.740   9.815  1.00  0.00     0.272 C 
HETATM    9  C3  UNL     1     -11.438  -9.928  10.688  1.00  0.00     0.030 C 
HETATM   10  C4  UNL     1     -11.112 -10.828  11.883  1.00  0.00     0.002 C 
HETATM   11  C5  UNL     1     -10.844  -9.985  13.102  1.00  0.00     0.000 C 
HETATM   12  C6  UNL     1      -9.378  -9.802  13.394  1.00  0.00     0.000 C 
HETATM   13  C7  UNL     1      -8.956  -8.346  13.451  1.00  0.00     0.000 C 
HETATM   14  C8  UNL     1      -7.860  -8.027  12.489  1.00  0.00     0.000 C 
HETATM   15  C9  UNL     1      -8.111  -6.872  11.581  1.00  0.00     0.002 C 
HETATM   16  C10 UNL     1      -9.391  -6.963  10.782  1.00  0.00     0.036 C 
ENDBRANCH   4   5
ENDBRANCH   1   4
TORSDOF 2
ENDMDL
MODEL 3
REMARK VINA RESULT: -6.935765773      1.588      3.662
REMARK  2 active torsions:
REMARK  status: ('A' for Active; 'I' for Inactive)
REMARK    1  A    between atoms: C11_12  and  C12_13 
REMARK    2  A    between atoms: C12_13  and  C13_14 
ROOT
HETATM    1  C13 UNL     1      -7.319  -5.039  10.640  1.00  0.00     0.126 C 
HETATM    2  C14 UNL     1      -6.426  -6.099  11.176  1.00  0.00     0.059 C 
HETATM    3  N2  UNL     1      -5.746  -6.935  11.598  1.00  0.00    -0.197 NA
ENDROOT
BRANCH   1   4
HETATM    4  C12 UNL     1      -8.758  -5.382  10.874  1.00  0.00     0.050 C 
BRANCH   4   5
HETATM    5  C11 UNL     1      -9.069  -6.849  10.885  1.00  0.00     0.223 C 
HETATM    6  N1  UNL     1      -9.702  -7.261   9.653  1.00  0.00     0.088 N 
HETATM    7  C1  UNL     1      -8.853  -6.775   8.551  1.00  0.00     0.310 C 
HETATM    8  C2  UNL     1      -9.804  -8.681   9.478  1.00  0.00     0.272 C 
HETATM    9  C3  UNL     1     -11.229  -9.196   9.496  1.00  0.00     0.030 C 
HETATM   10  C4  UNL     1     -11.264 -10.664   9.930  1.00  0.00     0.002 C 
HETATM   11  C5  UNL     1     -11.617 -10.759  11.391  1.00  0.00     0.000 C 
HETATM   12  C6  UNL     1     -10.422 -10.974  12.283  1.00  0.00     0.000 C 
HETATM   13  C7  UNL     1     -10.275  -9.909  13.353  1.00  0.00     0.000 C 
HETATM   14  C8  UNL     1      -8.951  -9.222  13.300  1.00  0.00     0.000 C 
HETATM   15  C9  UNL     1      -8.997  -7.733  13.249  1.00  0.00     0.002 C 
HETATM   16  C10 UNL     1      -9.838  -7.165  12.129  1.00  0.00     0.036 C 
ENDBRANCH   4   5
ENDBRANCH   1   4
TORSDOF 2
ENDMDL
MODEL 4
REMARK VINA RESULT: -6.510884646      1.711      2.241
REMARK  2 active torsions:
REMARK  status: ('A' for Active; 'I' for Inactive)
REMARK    1  A    between atoms: C11_12  and  C12_13 
REMARK    2  A    between atoms: C12_13  and  C13_14 
ROOT
HETATM    1  C13 UNL     1      -7.199  -5.208  10.054  1.00  0.00     0.126 C 
HETATM    2  C14 UNL     1      -6.046  -4.942  10.954  1.00  0.00     0.059 C 
HETATM    3  N2  UNL     1      -5.162  -4.732  11.669  1.00  0.00    -0.197 NA
ENDROOT
BRANCH   1   4
HETATM    4  C12 UNL     1      -8.497  -4.970  10.761  1.00  0.00     0.050 C 
BRANCH   4   5
HETATM    5  C11 UNL     1      -9.314  -6.199  11.023  1.00  0.00     0.223 C 
HETATM    6  N1  UNL     1      -9.368  -6.502  12.435  1.00  0.00     0.088 N 
HETATM    7  C1  UNL     1      -9.791  -5.270  13.124  1.00  0.00     0.310 C 
HETATM    8  C2  UNL     1     -10.326  -7.507  12.796  1.00  0.00     0.272 C 
HETATM    9  C3  UNL     1      -9.703  -8.785  13.319  1.00  0.00     0.030 C 
HETATM   10  C4  UNL     1     -10.642  -9.972  13.093  1.00  0.00     0.002 C 
HETATM   11  C5  UNL     1     -10.227 -10.727  11.859  1.00  0.00     0.000 C 
HETATM   12  C6  UNL     1     -11.058 -10.397  10.646  1.00  0.00     0.000 C 
HETATM   13  C7  UNL     1     -10.236  -9.895   9.475  1.00  0.00     0.000 C 
HETATM   14  C8  UNL     1     -10.674  -8.550   8.999  1.00  0.00     0.000 C 
HETATM   15  C9  UNL     1      -9.601  -7.521   8.892  1.00  0.00     0.002 C 
HETATM   16  C10 UNL     1      -8.803  -7.306  10.157  1.00  0.00     0.036 C 
ENDBRANCH   4   5
ENDBRANCH   1   4
TORSDOF 2
ENDMDL
MODEL 5
REMARK VINA RESULT: -6.418594047      1.621      3.572
REMARK  2 active torsions:
REMARK  status: ('A' for Active; 'I' for Inactive)
REMARK    1  A    between atoms: C11_12  and  C12_13 
REMARK    2  A    between atoms: C12_13  and  C13_14 
ROOT
HETATM    1  C13 UNL     1      -9.566  -4.614  11.574  1.00  0.00     0.126 C 
HETATM    2  C14 UNL     1      -9.706  -4.024  12.931  1.00  0.00     0.059 C 
HETATM    3  N2  UNL     1      -9.799  -3.574  13.993  1.00  0.00    -0.197 NA
ENDROOT
BRANCH   1   4
HETATM    4  C12 UNL     1      -8.452  -5.613  11.537  1.00  0.00     0.050 C 
BRANCH   4   5
HETATM    5  C11 UNL     1      -8.877  -7.032  11.304  1.00  0.00     0.223 C 
HETATM    6  N1  UNL     1      -9.340  -7.225   9.949  1.00  0.00     0.088 N 
HETATM    7  C1  UNL     1      -8.294  -6.695   9.057  1.00  0.00     0.310 C 
HETATM    8  C2  UNL     1      -9.527  -8.595   9.569  1.00  0.00     0.272 C 
HETATM    9  C3  UNL     1     -10.974  -8.965   9.311  1.00  0.00     0.030 C 
HETATM   10  C4  UNL     1     -11.194 -10.463   9.531  1.00  0.00     0.002 C 
HETATM   11  C5  UNL     1     -11.777 -10.701  10.899  1.00  0.00     0.000 C 
HETATM   12  C6  UNL     1     -10.757 -11.142  11.916  1.00  0.00     0.000 C 
HETATM   13  C7  UNL     1     -10.694 -10.236  13.131  1.00  0.00     0.000 C 
HETATM   14  C8  UNL     1      -9.327  -9.683  13.364  1.00  0.00     0.000 C 
HETATM   15  C9  UNL     1      -9.245  -8.202  13.510  1.00  0.00     0.002 C 
HETATM   16  C10 UNL     1      -9.853  -7.420  12.368  1.00  0.00     0.036 C 
ENDBRANCH   4   5
ENDBRANCH   1   4
TORSDOF 2
ENDMDL
