MODEL 1
REMARK VINA RESULT: -5.246891105      0.000      0.000
REMARK  5 active torsions:
REMARK  status: ('A' for Active; 'I' for Inactive)
REMARK    1  A    between atoms: C2_2  and  C3_3 
REMARK    2  A    between atoms: C3_3  and  C4_4 
REMARK    3  A    between atoms: C4_4  and  N1_5 
REMARK    4  A    between atoms: N1_5  and  C5_7 
REMARK    5  A    between atoms: C5_7  and  C6_8 
ROOT
HETATM    1  N1  UNL     1       7.584  13.285  32.024  1.00  0.00    -0.421 N 
ATOM      2  H1  UNL     1       7.686  12.810  32.921  1.00  0.00     0.153 HD
ENDROOT
BRANCH   1   3
HETATM    3  C4  UNL     1       6.316  13.721  31.524  1.00  0.00     0.117 C 
BRANCH   3   4
HETATM    4  C3  UNL     1       5.463  12.550  31.076  1.00  0.00     0.045 C 
BRANCH   4   5
HETATM    5  C2  UNL     1       5.694  11.338  31.904  1.00  0.00    -0.035 C 
HETATM    6  C1  UNL     1       5.774  10.139  31.351  1.00  0.00     0.007 C 
ENDBRANCH   4   5
ENDBRANCH   3   4
ENDBRANCH   1   3
BRANCH   1   7
HETATM    7  C5  UNL     1       8.708  13.565  31.165  1.00  0.00     0.118 C 
BRANCH   7   8
HETATM    8  C6  UNL     1       9.410  12.278  30.903  1.00  0.00     0.003 C 
HETATM    9  C7  UNL     1       8.841  11.441  29.806  1.00  0.00     0.006 C 
HETATM   10  C8  UNL     1       9.585  10.119  30.028  1.00  0.00     0.000 C 
HETATM   11  C9  UNL     1      10.096  10.154  31.457  1.00  0.00     0.000 C 
HETATM   12  C10 UNL     1       9.276  11.297  32.077  1.00  0.00     0.006 C 
ENDBRANCH   7   8
ENDBRANCH   1   7
TORSDOF 5
ENDMDL
MODEL 2
REMARK VINA RESULT: -5.139464621      1.874      3.681
REMARK  5 active torsions:
REMARK  status: ('A' for Active; 'I' for Inactive)
REMARK    1  A    between atoms: C2_2  and  C3_3 
REMARK    2  A    between atoms: C3_3  and  C4_4 
REMARK    3  A    between atoms: C4_4  and  N1_5 
REMARK    4  A    between atoms: N1_5  and  C5_7 
REMARK    5  A    between atoms: C5_7  and  C6_8 
ROOT
HETATM    1  N1  UNL     1       9.500  12.859  33.657  1.00  0.00    -0.421 N 
ATOM      2  H1  UNL     1      10.044  13.521  34.209  1.00  0.00     0.153 HD
ENDROOT
BRANCH   1   3
HETATM    3  C4  UNL     1       9.226  11.527  34.105  1.00  0.00     0.117 C 
BRANCH   3   4
HETATM    4  C3  UNL     1      10.466  10.869  34.678  1.00  0.00     0.045 C 
BRANCH   4   5
HETATM    5  C2  UNL     1      11.269  10.180  33.636  1.00  0.00    -0.035 C 
HETATM    6  C1  UNL     1      10.793   9.129  32.989  1.00  0.00     0.007 C 
ENDBRANCH   4   5
ENDBRANCH   3   4
ENDBRANCH   1   3
BRANCH   1   7
HETATM    7  C5  UNL     1       8.949  13.194  32.368  1.00  0.00     0.118 C 
BRANCH   7   8
HETATM    8  C6  UNL     1       8.771  11.927  31.607  1.00  0.00     0.003 C 
HETATM    9  C7  UNL     1       9.701  11.723  30.458  1.00  0.00     0.006 C 
HETATM   10  C8  UNL     1       9.043  10.530  29.754  1.00  0.00     0.000 C 
HETATM   11  C9  UNL     1       7.606  10.490  30.239  1.00  0.00     0.000 C 
HETATM   12  C10 UNL     1       7.426  11.883  30.866  1.00  0.00     0.006 C 
ENDBRANCH   7   8
ENDBRANCH   1   7
TORSDOF 5
ENDMDL
MODEL 3
REMARK VINA RESULT: -5.137833406      1.759      3.184
REMARK  5 active torsions:
REMARK  status: ('A' for Active; 'I' for Inactive)
REMARK    1  A    between atoms: C2_2  and  C3_3 
REMARK    2  A    between atoms: C3_3  and  C4_4 
REMARK    3  A    between atoms: C4_4  and  N1_5 
REMARK    4  A    between atoms: N1_5  and  C5_7 
REMARK    5  A    between atoms: C5_7  and  C6_8 
ROOT
HETATM    1  N1  UNL     1       9.027  11.946  33.760  1.00  0.00    -0.421 N 
ATOM      2  H1  UNL     1       8.089  11.579  33.918  1.00  0.00     0.153 HD
ENDROOT
BRANCH   1   3
HETATM    3  C4  UNL     1       9.446  13.223  34.253  1.00  0.00     0.117 C 
BRANCH   3   4
HETATM    4  C3  UNL     1       9.322  14.296  33.188  1.00  0.00     0.045 C 
BRANCH   4   5
HETATM    5  C2  UNL     1       7.907  14.590  32.848  1.00  0.00    -0.035 C 
HETATM    6  C1  UNL     1       7.466  14.482  31.605  1.00  0.00     0.007 C 
ENDBRANCH   4   5
ENDBRANCH   3   4
ENDBRANCH   1   3
BRANCH   1   7
HETATM    7  C5  UNL     1      10.030  11.218  33.024  1.00  0.00     0.118 C 
BRANCH   7   8
HETATM    8  C6  UNL     1       9.436  10.824  31.717  1.00  0.00     0.003 C 
HETATM    9  C7  UNL     1       9.731  11.733  30.571  1.00  0.00     0.006 C 
HETATM   10  C8  UNL     1       8.741  11.213  29.520  1.00  0.00     0.000 C 
HETATM   11  C9  UNL     1       7.679  10.443  30.282  1.00  0.00     0.000 C 
HETATM   12  C10 UNL     1       7.903  10.908  31.730  1.00  0.00     0.006 C 
ENDBRANCH   7   8
ENDBRANCH   1   7
TORSDOF 5
ENDMDL
MODEL 4
REMARK VINA RESULT: -5.118171424      2.124      3.211
REMARK  5 active torsions:
REMARK  status: ('A' for Active; 'I' for Inactive)
REMARK    1  A    between atoms: C2_2  and  C3_3 
REMARK    2  A    between atoms: C3_3  and  C4_4 
REMARK    3  A    between atoms: C4_4  and  N1_5 
REMARK    4  A    between atoms: N1_5  and  C5_7 
REMARK    5  A    between atoms: C5_7  and  C6_8 
ROOT
HETATM    1  N1  UNL     1       9.427  14.342  32.085  1.00  0.00    -0.421 N 
ATOM      2  H1  UNL     1      10.420  14.575  32.073  1.00  0.00     0.153 HD
ENDROOT
BRANCH   1   3
HETATM    3  C4  UNL     1       8.672  14.255  33.298  1.00  0.00     0.117 C 
BRANCH   3   4
HETATM    4  C3  UNL     1       9.445  13.530  34.382  1.00  0.00     0.045 C 
BRANCH   4   5
HETATM    5  C2  UNL     1       9.304  12.054  34.281  1.00  0.00    -0.035 C 
HETATM    6  C1  UNL     1      10.340  11.254  34.476  1.00  0.00     0.007 C 
ENDBRANCH   4   5
ENDBRANCH   3   4
ENDBRANCH   1   3
BRANCH   1   7
HETATM    7  C5  UNL     1       8.680  14.076  30.881  1.00  0.00     0.118 C 
BRANCH   7   8
HETATM    8  C6  UNL     1       8.645  12.601  30.685  1.00  0.00     0.003 C 
HETATM    9  C7  UNL     1       9.971  11.916  30.685  1.00  0.00     0.006 C 
HETATM   10  C8  UNL     1       9.585  10.526  30.162  1.00  0.00     0.000 C 
HETATM   11  C9  UNL     1       8.247  10.692  29.466  1.00  0.00     0.000 C 
HETATM   12  C10 UNL     1       8.151  12.215  29.283  1.00  0.00     0.006 C 
ENDBRANCH   7   8
ENDBRANCH   1   7
TORSDOF 5
ENDMDL
MODEL 5
REMARK VINA RESULT: -5.080129063      1.610      2.796
REMARK  5 active torsions:
REMARK  status: ('A' for Active; 'I' for Inactive)
REMARK    1  A    between atoms: C2_2  and  C3_3 
REMARK    2  A    between atoms: C3_3  and  C4_4 
REMARK    3  A    between atoms: C4_4  and  N1_5 
REMARK    4  A    between atoms: N1_5  and  C5_7 
REMARK    5  A    between atoms: C5_7  and  C6_8 
ROOT
HETATM    1  N1  UNL     1       6.207  13.205  31.431  1.00  0.00    -0.421 N 
ATOM      2  H1  UNL     1       5.305  13.660  31.572  1.00  0.00     0.153 HD
ENDROOT
BRANCH   1   3
HETATM    3  C4  UNL     1       7.433  13.937  31.347  1.00  0.00     0.117 C 
BRANCH   3   4
HETATM    4  C3  UNL     1       7.736  14.663  32.644  1.00  0.00     0.045 C 
BRANCH   4   5
HETATM    5  C2  UNL     1       9.109  14.384  33.137  1.00  0.00    -0.035 C 
HETATM    6  C1  UNL     1       9.311  13.630  34.205  1.00  0.00     0.007 C 
ENDBRANCH   4   5
ENDBRANCH   3   4
ENDBRANCH   1   3
BRANCH   1   7
HETATM    7  C5  UNL     1       6.339  11.776  31.299  1.00  0.00     0.118 C 
BRANCH   7   8
HETATM    8  C6  UNL     1       7.773  11.476  31.032  1.00  0.00     0.003 C 
HETATM    9  C7  UNL     1       8.045  10.633  29.831  1.00  0.00     0.006 C 
HETATM   10  C8  UNL     1       9.523  10.282  30.047  1.00  0.00     0.000 C 
HETATM   11  C9  UNL     1       9.803  10.512  31.520  1.00  0.00     0.000 C 
HETATM   12  C10 UNL     1       8.390  10.587  32.121  1.00  0.00     0.006 C 
ENDBRANCH   7   8
ENDBRANCH   1   7
TORSDOF 5
ENDMDL
