MODEL 1
REMARK VINA RESULT: -5.519217262      0.000      0.000
REMARK  6 active torsions:
REMARK  status: ('A' for Active; 'I' for Inactive)
REMARK    1  A    between atoms: C1_4  and  C2_5 
REMARK    2  A    between atoms: C2_5  and  C3_6 
REMARK    3  A    between atoms: C3_6  and  N2_7 
REMARK    4  A    between atoms: N2_7  and  C4_10 
REMARK    5  A    between atoms: C4_10  and  C5_11 
REMARK    6  A    between atoms: C5_11  and  C6_12 
ROOT
HETATM    1  N2  UNL     1       7.344  14.139  31.348  1.00  0.00    -0.075 N 
ATOM      2  H21 UNL     1       8.181  13.913  30.810  1.00  0.00     0.277 HD
ATOM      3  H22 UNL     1       6.941  14.855  30.744  1.00  0.00     0.277 HD
ENDROOT
BRANCH   1   4
HETATM    4  C3  UNL     1       7.698  14.695  32.632  1.00  0.00     0.237 C 
BRANCH   4   5
HETATM    5  C2  UNL     1       9.146  14.354  32.890  1.00  0.00     0.071 C 
BRANCH   5   6
HETATM    6  C1  UNL     1       9.322  13.425  34.031  1.00  0.00     0.054 C 
HETATM    7  N1  UNL     1       9.560  13.786  35.219  1.00  0.00    -0.411 N 
ATOM      8  H12 UNL     1       9.634  14.790  35.387  1.00  0.00     0.155 HD
ATOM      9  H11 UNL     1       9.681  13.146  36.005  1.00  0.00     0.155 HD
ENDBRANCH   5   6
ENDBRANCH   4   5
ENDBRANCH   1   4
BRANCH   1  10
HETATM   10  C4  UNL     1       6.478  13.007  31.431  1.00  0.00     0.232 C 
BRANCH  10  11
HETATM   11  C5  UNL     1       7.286  11.760  31.156  1.00  0.00     0.032 C 
BRANCH  11  12
HETATM   12  C6  UNL     1       8.069  11.799  29.889  1.00  0.00    -0.013 C 
HETATM   13  C7  UNL     1       8.272  10.350  29.407  1.00  0.00     0.005 C 
HETATM   14  C8  UNL     1       9.540  10.352  30.236  1.00  0.00     0.001 C 
HETATM   15  C9  UNL     1       9.573  11.859  29.988  1.00  0.00     0.005 C 
ENDBRANCH  11  12
ENDBRANCH  10  11
ENDBRANCH   1  10
TORSDOF 6
ENDMDL
MODEL 2
REMARK VINA RESULT: -5.351010618      1.063      1.340
REMARK  6 active torsions:
REMARK  status: ('A' for Active; 'I' for Inactive)
REMARK    1  A    between atoms: C1_4  and  C2_5 
REMARK    2  A    between atoms: C2_5  and  C3_6 
REMARK    3  A    between atoms: C3_6  and  N2_7 
REMARK    4  A    between atoms: N2_7  and  C4_10 
REMARK    5  A    between atoms: C4_10  and  C5_11 
REMARK    6  A    between atoms: C5_11  and  C6_12 
ROOT
HETATM    1  N2  UNL     1       6.928  12.783  32.126  1.00  0.00    -0.075 N 
ATOM      2  H21 UNL     1       6.399  12.665  32.990  1.00  0.00     0.277 HD
ATOM      3  H22 UNL     1       7.840  12.448  32.436  1.00  0.00     0.277 HD
ENDROOT
BRANCH   1   4
HETATM    4  C3  UNL     1       6.997  14.177  31.758  1.00  0.00     0.237 C 
BRANCH   4   5
HETATM    5  C2  UNL     1       8.430  14.622  31.931  1.00  0.00     0.071 C 
BRANCH   5   6
HETATM    6  C1  UNL     1       8.927  14.432  33.314  1.00  0.00     0.054 C 
HETATM    7  N1  UNL     1       8.406  14.954  34.340  1.00  0.00    -0.411 N 
ATOM      8  H12 UNL     1       7.588  15.545  34.189  1.00  0.00     0.155 HD
ATOM      9  H11 UNL     1       8.748  14.823  35.293  1.00  0.00     0.155 HD
ENDBRANCH   5   6
ENDBRANCH   4   5
ENDBRANCH   1   4
BRANCH   1  10
HETATM   10  C4  UNL     1       6.406  11.942  31.098  1.00  0.00     0.232 C 
BRANCH  10  11
HETATM   11  C5  UNL     1       7.306  10.736  30.958  1.00  0.00     0.032 C 
BRANCH  11  12
HETATM   12  C6  UNL     1       8.085  10.690  29.689  1.00  0.00    -0.013 C 
HETATM   13  C7  UNL     1       9.525  10.260  30.026  1.00  0.00     0.005 C 
HETATM   14  C8  UNL     1       9.824  11.734  30.201  1.00  0.00     0.001 C 
HETATM   15  C9  UNL     1       8.703  11.973  29.191  1.00  0.00     0.005 C 
ENDBRANCH  11  12
ENDBRANCH  10  11
ENDBRANCH   1  10
TORSDOF 6
ENDMDL
MODEL 3
REMARK VINA RESULT: -5.297316801      0.814      1.138
REMARK  6 active torsions:
REMARK  status: ('A' for Active; 'I' for Inactive)
REMARK    1  A    between atoms: C1_4  and  C2_5 
REMARK    2  A    between atoms: C2_5  and  C3_6 
REMARK    3  A    between atoms: C3_6  and  N2_7 
REMARK    4  A    between atoms: N2_7  and  C4_10 
REMARK    5  A    between atoms: C4_10  and  C5_11 
REMARK    6  A    between atoms: C5_11  and  C6_12 
ROOT
HETATM    1  N2  UNL     1       7.236  14.267  32.151  1.00  0.00    -0.075 N 
ATOM      2  H21 UNL     1       6.721  15.147  32.141  1.00  0.00     0.277 HD
ATOM      3  H22 UNL     1       7.228  14.075  33.152  1.00  0.00     0.277 HD
ENDROOT
BRANCH   1   4
HETATM    4  C3  UNL     1       8.588  14.462  31.682  1.00  0.00     0.237 C 
BRANCH   4   5
HETATM    5  C2  UNL     1       9.468  14.637  32.896  1.00  0.00     0.071 C 
BRANCH   5   6
HETATM    6  C1  UNL     1       9.191  13.638  33.955  1.00  0.00     0.054 C 
HETATM    7  N1  UNL     1       9.570  13.743  35.157  1.00  0.00    -0.411 N 
ATOM      8  H12 UNL     1      10.103  14.579  35.397  1.00  0.00     0.155 HD
ATOM      9  H11 UNL     1       9.379  13.055  35.886  1.00  0.00     0.155 HD
ENDBRANCH   5   6
ENDBRANCH   4   5
ENDBRANCH   1   4
BRANCH   1  10
HETATM   10  C4  UNL     1       6.521  13.257  31.440  1.00  0.00     0.232 C 
BRANCH  10  11
HETATM   11  C5  UNL     1       7.465  12.594  30.464  1.00  0.00     0.032 C 
BRANCH  11  12
HETATM   12  C6  UNL     1       7.527  11.109  30.575  1.00  0.00    -0.013 C 
HETATM   13  C7  UNL     1       8.719  10.746  31.478  1.00  0.00     0.005 C 
HETATM   14  C8  UNL     1       9.550  10.724  30.213  1.00  0.00     0.001 C 
HETATM   15  C9  UNL     1       8.255  10.349  29.495  1.00  0.00     0.005 C 
ENDBRANCH  11  12
ENDBRANCH  10  11
ENDBRANCH   1  10
TORSDOF 6
ENDMDL
MODEL 4
REMARK VINA RESULT: -5.212418395      1.108      1.296
REMARK  6 active torsions:
REMARK  status: ('A' for Active; 'I' for Inactive)
REMARK    1  A    between atoms: C1_4  and  C2_5 
REMARK    2  A    between atoms: C2_5  and  C3_6 
REMARK    3  A    between atoms: C3_6  and  N2_7 
REMARK    4  A    between atoms: N2_7  and  C4_10 
REMARK    5  A    between atoms: C4_10  and  C5_11 
REMARK    6  A    between atoms: C5_11  and  C6_12 
ROOT
HETATM    1  N2  UNL     1       7.828  14.175  32.487  1.00  0.00    -0.075 N 
ATOM      2  H21 UNL     1       7.299  14.977  32.829  1.00  0.00     0.277 HD
ATOM      3  H22 UNL     1       7.341  13.427  32.978  1.00  0.00     0.277 HD
ENDROOT
BRANCH   1   4
HETATM    4  C3  UNL     1       9.205  14.253  32.916  1.00  0.00     0.237 C 
BRANCH   4   5
HETATM    5  C2  UNL     1       9.301  13.571  34.259  1.00  0.00     0.071 C 
BRANCH   5   6
HETATM    6  C1  UNL     1       9.523  12.110  34.147  1.00  0.00     0.054 C 
HETATM    7  N1  UNL     1      10.241  11.432  34.937  1.00  0.00    -0.411 N 
ATOM      8  H12 UNL     1      10.690  11.941  35.699  1.00  0.00     0.155 HD
ATOM      9  H11 UNL     1      10.394  10.426  34.860  1.00  0.00     0.155 HD
ENDBRANCH   5   6
ENDBRANCH   4   5
ENDBRANCH   1   4
BRANCH   1  10
HETATM   10  C4  UNL     1       7.673  14.035  31.075  1.00  0.00     0.232 C 
BRANCH  10  11
HETATM   11  C5  UNL     1       7.534  12.567  30.748  1.00  0.00     0.032 C 
BRANCH  11  12
HETATM   12  C6  UNL     1       8.393  12.100  29.625  1.00  0.00    -0.013 C 
HETATM   13  C7  UNL     1       8.284  10.566  29.543  1.00  0.00     0.005 C 
HETATM   14  C8  UNL     1       9.452  10.525  30.505  1.00  0.00     0.001 C 
HETATM   15  C9  UNL     1       9.858  11.870  29.903  1.00  0.00     0.005 C 
ENDBRANCH  11  12
ENDBRANCH  10  11
ENDBRANCH   1  10
TORSDOF 6
ENDMDL
MODEL 5
REMARK VINA RESULT: -5.169275246      1.636      3.009
REMARK  6 active torsions:
REMARK  status: ('A' for Active; 'I' for Inactive)
REMARK    1  A    between atoms: C1_4  and  C2_5 
REMARK    2  A    between atoms: C2_5  and  C3_6 
REMARK    3  A    between atoms: C3_6  and  N2_7 
REMARK    4  A    between atoms: N2_7  and  C4_10 
REMARK    5  A    between atoms: C4_10  and  C5_11 
REMARK    6  A    between atoms: C5_11  and  C6_12 
ROOT
HETATM    1  N2  UNL     1      10.356  10.824  34.011  1.00  0.00    -0.075 N 
ATOM      2  H21 UNL     1      10.310  10.110  34.738  1.00  0.00     0.277 HD
ATOM      3  H22 UNL     1      11.199  11.315  34.307  1.00  0.00     0.277 HD
ENDROOT
BRANCH   1   4
HETATM    4  C3  UNL     1       9.208  11.696  34.080  1.00  0.00     0.237 C 
BRANCH   4   5
HETATM    5  C2  UNL     1       9.701  13.063  34.493  1.00  0.00     0.071 C 
BRANCH   5   6
HETATM    6  C1  UNL     1       9.066  14.158  33.722  1.00  0.00     0.054 C 
HETATM    7  N1  UNL     1       8.287  15.023  34.215  1.00  0.00    -0.411 N 
ATOM      8  H12 UNL     1       8.092  14.948  35.213  1.00  0.00     0.155 HD
ATOM      9  H11 UNL     1       7.850  15.777  33.684  1.00  0.00     0.155 HD
ENDBRANCH   5   6
ENDBRANCH   4   5
ENDBRANCH   1   4
BRANCH   1  10
HETATM   10  C4  UNL     1      10.548  10.225  32.730  1.00  0.00     0.232 C 
BRANCH  10  11
HETATM   11  C5  UNL     1       9.321  10.487  31.887  1.00  0.00     0.032 C 
BRANCH  11  12
HETATM   12  C6  UNL     1       9.560  10.440  30.417  1.00  0.00    -0.013 C 
HETATM   13  C7  UNL     1       9.757  11.884  29.918  1.00  0.00     0.005 C 
HETATM   14  C8  UNL     1       8.257  11.917  29.712  1.00  0.00     0.001 C 
HETATM   15  C9  UNL     1       8.358  10.407  29.506  1.00  0.00     0.005 C 
ENDBRANCH  11  12
ENDBRANCH  10  11
ENDBRANCH   1  10
TORSDOF 6
ENDMDL
