MODEL 1
REMARK VINA RESULT: -6.111313304      0.000      0.000
REMARK  5 active torsions:
REMARK  status: ('A' for Active; 'I' for Inactive)
REMARK    1  A    between atoms: N1_1  and  N2_4 
REMARK    2  A    between atoms: N2_4  and  C1_5 
REMARK    3  A    between atoms: N2_4  and  N3_13 
REMARK    4  A    between atoms: C2_6  and  C3_7 
REMARK    5  A    between atoms: N3_13  and  O1_15 
ROOT
HETATM    1  N2  UNL     1       2.132 -13.780  -9.149  1.00  0.00    -0.196 N 
ENDROOT
BRANCH   1   2
HETATM    2  N1  UNL     1       2.925 -13.539  -8.028  1.00  0.00    -0.323 N 
ATOM      3  H12 UNL     1       2.877 -12.674  -7.488  1.00  0.00     0.179 HD
ATOM      4  H11 UNL     1       3.585 -14.256  -7.727  1.00  0.00     0.179 HD
ENDBRANCH   1   2
BRANCH   1   5
HETATM    5  C1  UNL     1       2.350 -13.015 -10.316  1.00  0.00     0.134 C 
HETATM    6  C2  UNL     1       3.099 -11.931 -10.344  1.00  0.00    -0.001 C 
BRANCH   6   7
HETATM    7  C3  UNL     1       3.305 -11.162 -11.564  1.00  0.00     0.010 C 
HETATM    8  C4  UNL     1       2.059 -10.364 -11.969  1.00  0.00     0.008 C 
HETATM    9  C5  UNL     1       2.298 -10.056 -13.433  1.00  0.00     0.001 C 
HETATM   10  C6  UNL     1       3.570  -9.365 -13.711  1.00  0.00     0.000 C 
HETATM   11  C7  UNL     1       4.683  -9.538 -12.771  1.00  0.00     0.001 C 
HETATM   12  C8  UNL     1       4.364 -10.084 -11.425  1.00  0.00     0.008 C 
ENDBRANCH   6   7
ENDBRANCH   1   5
BRANCH   1  13
HETATM   13  N3  UNL     1       1.123 -14.752  -9.177  1.00  0.00    -0.190 N 
ATOM     14  H3  UNL     1       1.113 -15.426  -9.942  1.00  0.00     0.217 HD
BRANCH  13  15
HETATM   15  O1  UNL     1       0.242 -14.825  -8.309  1.00  0.00    -0.273 OA
ATOM     16  H1  UNL     1      -0.520 -15.386  -8.399  1.00  0.00     0.246 HD
ENDBRANCH  13  15
ENDBRANCH   1  13
TORSDOF 5
ENDMDL
MODEL 2
REMARK VINA RESULT: -6.075303949      0.844      1.151
REMARK  5 active torsions:
REMARK  status: ('A' for Active; 'I' for Inactive)
REMARK    1  A    between atoms: N1_1  and  N2_4 
REMARK    2  A    between atoms: N2_4  and  C1_5 
REMARK    3  A    between atoms: N2_4  and  N3_13 
REMARK    4  A    between atoms: C2_6  and  C3_7 
REMARK    5  A    between atoms: N3_13  and  O1_15 
ROOT
HETATM    1  N2  UNL     1       2.151 -13.781  -9.143  1.00  0.00    -0.196 N 
ENDROOT
BRANCH   1   2
HETATM    2  N1  UNL     1       2.969 -13.523  -8.044  1.00  0.00    -0.323 N 
ATOM      3  H12 UNL     1       2.731 -12.844  -7.320  1.00  0.00     0.179 HD
ATOM      4  H11 UNL     1       3.847 -14.033  -7.953  1.00  0.00     0.179 HD
ENDBRANCH   1   2
BRANCH   1   5
HETATM    5  C1  UNL     1       2.343 -13.032 -10.326  1.00  0.00     0.134 C 
HETATM    6  C2  UNL     1       3.027 -11.906 -10.370  1.00  0.00    -0.001 C 
BRANCH   6   7
HETATM    7  C3  UNL     1       3.207 -11.157 -11.606  1.00  0.00     0.010 C 
HETATM    8  C4  UNL     1       2.816 -11.971 -12.845  1.00  0.00     0.008 C 
HETATM    9  C5  UNL     1       3.508 -11.242 -13.979  1.00  0.00     0.001 C 
HETATM   10  C6  UNL     1       3.178  -9.809 -14.074  1.00  0.00     0.000 C 
HETATM   11  C7  UNL     1       2.743  -9.106 -12.861  1.00  0.00     0.001 C 
HETATM   12  C8  UNL     1       2.308  -9.938 -11.708  1.00  0.00     0.008 C 
ENDBRANCH   6   7
ENDBRANCH   1   5
BRANCH   1  13
HETATM   13  N3  UNL     1       1.142 -14.753  -9.134  1.00  0.00    -0.190 N 
ATOM     14  H3  UNL     1       1.145 -15.469  -9.860  1.00  0.00     0.217 HD
BRANCH  13  15
HETATM   15  O1  UNL     1       0.245 -14.776  -8.280  1.00  0.00    -0.273 OA
ATOM     16  H1  UNL     1      -0.658 -14.561  -8.480  1.00  0.00     0.246 HD
ENDBRANCH  13  15
ENDBRANCH   1  13
TORSDOF 5
ENDMDL
MODEL 3
REMARK VINA RESULT: -5.999690016      0.439      1.482
REMARK  5 active torsions:
REMARK  status: ('A' for Active; 'I' for Inactive)
REMARK    1  A    between atoms: N1_1  and  N2_4 
REMARK    2  A    between atoms: N2_4  and  C1_5 
REMARK    3  A    between atoms: N2_4  and  N3_13 
REMARK    4  A    between atoms: C2_6  and  C3_7 
REMARK    5  A    between atoms: N3_13  and  O1_15 
ROOT
HETATM    1  N2  UNL     1       2.173 -13.721  -9.118  1.00  0.00    -0.196 N 
ENDROOT
BRANCH   1   2
HETATM    2  N1  UNL     1       3.022 -13.565  -8.023  1.00  0.00    -0.323 N 
ATOM      3  H12 UNL     1       3.965 -13.185  -8.101  1.00  0.00     0.179 HD
ATOM      4  H11 UNL     1       2.690 -13.841  -7.099  1.00  0.00     0.179 HD
ENDBRANCH   1   2
BRANCH   1   5
HETATM    5  C1  UNL     1       2.306 -12.841 -10.215  1.00  0.00     0.134 C 
HETATM    6  C2  UNL     1       2.974 -11.706 -10.159  1.00  0.00    -0.001 C 
BRANCH   6   7
HETATM    7  C3  UNL     1       3.094 -10.820 -11.309  1.00  0.00     0.010 C 
HETATM    8  C4  UNL     1       4.521 -10.782 -11.871  1.00  0.00     0.008 C 
HETATM    9  C5  UNL     1       4.545  -9.505 -12.686  1.00  0.00     0.001 C 
HETATM   10  C6  UNL     1       3.492  -9.419 -13.714  1.00  0.00     0.000 C 
HETATM   11  C7  UNL     1       2.254 -10.181 -13.518  1.00  0.00     0.001 C 
HETATM   12  C8  UNL     1       2.274 -11.269 -12.504  1.00  0.00     0.008 C 
ENDBRANCH   6   7
ENDBRANCH   1   5
BRANCH   1  13
HETATM   13  N3  UNL     1       1.186 -14.714  -9.185  1.00  0.00    -0.190 N 
ATOM     14  H3  UNL     1       1.228 -15.395  -9.944  1.00  0.00     0.217 HD
BRANCH  13  15
HETATM   15  O1  UNL     1       0.266 -14.798  -8.361  1.00  0.00    -0.273 OA
ATOM     16  H1  UNL     1       0.235 -15.474  -7.695  1.00  0.00     0.246 HD
ENDBRANCH  13  15
ENDBRANCH   1  13
TORSDOF 5
ENDMDL
MODEL 4
REMARK VINA RESULT: -5.745912000      1.101      1.277
REMARK  5 active torsions:
REMARK  status: ('A' for Active; 'I' for Inactive)
REMARK    1  A    between atoms: N1_1  and  N2_4 
REMARK    2  A    between atoms: N2_4  and  C1_5 
REMARK    3  A    between atoms: N2_4  and  N3_13 
REMARK    4  A    between atoms: C2_6  and  C3_7 
REMARK    5  A    between atoms: N3_13  and  O1_15 
ROOT
HETATM    1  N2  UNL     1       2.622 -13.732  -9.295  1.00  0.00    -0.196 N 
ENDROOT
BRANCH   1   2
HETATM    2  N1  UNL     1       3.686 -14.614  -9.477  1.00  0.00    -0.323 N 
ATOM      3  H12 UNL     1       4.622 -14.310  -9.744  1.00  0.00     0.179 HD
ATOM      4  H11 UNL     1       3.528 -15.612  -9.337  1.00  0.00     0.179 HD
ENDBRANCH   1   2
BRANCH   1   5
HETATM    5  C1  UNL     1       2.581 -12.546 -10.062  1.00  0.00     0.134 C 
HETATM    6  C2  UNL     1       2.678 -12.528 -11.376  1.00  0.00    -0.001 C 
BRANCH   6   7
HETATM    7  C3  UNL     1       2.632 -11.288 -12.140  1.00  0.00     0.010 C 
HETATM    8  C4  UNL     1       2.606 -10.048 -11.238  1.00  0.00     0.008 C 
HETATM    9  C5  UNL     1       2.083  -8.958 -12.152  1.00  0.00     0.001 C 
HETATM   10  C6  UNL     1       2.857  -8.782 -13.394  1.00  0.00     0.000 C 
HETATM   11  C7  UNL     1       3.618  -9.922 -13.916  1.00  0.00     0.001 C 
HETATM   12  C8  UNL     1       3.868 -11.059 -12.990  1.00  0.00     0.008 C 
ENDBRANCH   6   7
ENDBRANCH   1   5
BRANCH   1  13
HETATM   13  N3  UNL     1       1.583 -13.964  -8.384  1.00  0.00    -0.190 N 
ATOM     14  H3  UNL     1       1.606 -13.487  -7.483  1.00  0.00     0.217 HD
BRANCH  13  15
HETATM   15  O1  UNL     1       0.638 -14.727  -8.629  1.00  0.00    -0.273 OA
ATOM     16  H1  UNL     1       0.166 -15.192  -7.949  1.00  0.00     0.246 HD
ENDBRANCH  13  15
ENDBRANCH   1  13
TORSDOF 5
ENDMDL
MODEL 5
REMARK VINA RESULT: -5.394677261      1.314      1.679
REMARK  5 active torsions:
REMARK  status: ('A' for Active; 'I' for Inactive)
REMARK    1  A    between atoms: N1_1  and  N2_4 
REMARK    2  A    between atoms: N2_4  and  C1_5 
REMARK    3  A    between atoms: N2_4  and  N3_13 
REMARK    4  A    between atoms: C2_6  and  C3_7 
REMARK    5  A    between atoms: N3_13  and  O1_15 
ROOT
HETATM    1  N2  UNL     1       2.938 -13.589  -9.454  1.00  0.00    -0.196 N 
ENDROOT
BRANCH   1   2
HETATM    2  N1  UNL     1       3.848 -14.619  -9.687  1.00  0.00    -0.323 N 
ATOM      3  H12 UNL     1       3.692 -15.354 -10.377  1.00  0.00     0.179 HD
ATOM      4  H11 UNL     1       4.712 -14.644  -9.146  1.00  0.00     0.179 HD
ENDBRANCH   1   2
BRANCH   1   5
HETATM    5  C1  UNL     1       2.835 -12.544 -10.398  1.00  0.00     0.134 C 
HETATM    6  C2  UNL     1       3.095 -11.282 -10.117  1.00  0.00    -0.001 C 
BRANCH   6   7
HETATM    7  C3  UNL     1       2.979 -10.226 -11.113  1.00  0.00     0.010 C 
HETATM    8  C4  UNL     1       2.574 -10.764 -12.491  1.00  0.00     0.008 C 
HETATM    9  C5  UNL     1       2.975  -9.650 -13.436  1.00  0.00     0.001 C 
HETATM   10  C6  UNL     1       2.393  -8.335 -13.110  1.00  0.00     0.000 C 
HETATM   11  C7  UNL     1       2.008  -8.062 -11.721  1.00  0.00     0.001 C 
HETATM   12  C8  UNL     1       1.878  -9.227 -10.806  1.00  0.00     0.008 C 
ENDBRANCH   6   7
ENDBRANCH   1   5
BRANCH   1  13
HETATM   13  N3  UNL     1       2.113 -13.539  -8.322  1.00  0.00    -0.190 N 
ATOM     14  H3  UNL     1       2.349 -12.889  -7.572  1.00  0.00     0.217 HD
BRANCH  13  15
HETATM   15  O1  UNL     1       1.109 -14.253  -8.196  1.00  0.00    -0.273 OA
ATOM     16  H1  UNL     1       0.587 -14.267  -7.402  1.00  0.00     0.246 HD
ENDBRANCH  13  15
ENDBRANCH   1  13
TORSDOF 5
ENDMDL
