MODEL 1
REMARK VINA RESULT: -6.186284983      0.000      0.000
REMARK  4 active torsions:
REMARK  status: ('A' for Active; 'I' for Inactive)
REMARK    1  A    between atoms: N1_1  and  N2_4 
REMARK    2  A    between atoms: N3_6  and  C1_8 
REMARK    3  A    between atoms: C1_8  and  C2_9 
REMARK    4  A    between atoms: C2_9  and  C3_10 
ROOT
HETATM    1  C1  UNL     1       3.864 -13.498 -11.406  1.00  0.00     0.143 C 
ENDROOT
BRANCH   1   2
HETATM    2  N3  UNL     1       3.541 -14.291 -10.263  1.00  0.00    -0.323 N 
HETATM    3  N2  UNL     1       3.202 -13.795  -9.189  1.00  0.00    -0.254 N 
ATOM      4  H2  UNL     1       4.021 -13.225  -8.978  1.00  0.00     0.207 HD
ATOM      5  H3  UNL     1       3.593 -15.306 -10.339  1.00  0.00     0.181 HD
BRANCH   3   6
HETATM    6  N1  UNL     1       2.496 -13.551  -8.207  1.00  0.00    -0.331 N 
ATOM      7  H12 UNL     1       2.496 -14.488  -7.804  1.00  0.00     0.178 HD
ATOM      8  H11 UNL     1       1.923 -13.011  -7.559  1.00  0.00     0.178 HD
ENDBRANCH   3   6
ENDBRANCH   1   2
BRANCH   1   9
HETATM    9  C2  UNL     1       2.740 -13.246 -12.357  1.00  0.00     0.046 C 
BRANCH   9  10
HETATM   10  C3  UNL     1       2.445 -11.803 -12.647  1.00  0.00     0.078 C 
HETATM   11  C4  UNL     1       3.263 -11.313 -13.781  1.00  0.00     0.025 C 
HETATM   12  C5  UNL     1       3.576  -9.829 -13.689  1.00  0.00     0.004 C 
HETATM   13  C6  UNL     1       2.474  -9.146 -12.939  1.00  0.00     0.019 C 
HETATM   14  C7  UNL     1       2.475  -9.671 -11.524  1.00  0.00     0.114 C 
HETATM   15  N4  UNL     1       2.639 -11.076 -11.418  1.00  0.00    -0.417 N 
ATOM     16  H4  UNL     1       2.877 -11.536 -10.539  1.00  0.00     0.153 HD
ENDBRANCH   9  10
ENDBRANCH   1   9
TORSDOF 4
ENDMDL
MODEL 2
REMARK VINA RESULT: -6.096737688      0.971      1.142
REMARK  4 active torsions:
REMARK  status: ('A' for Active; 'I' for Inactive)
REMARK    1  A    between atoms: N1_1  and  N2_4 
REMARK    2  A    between atoms: N3_6  and  C1_8 
REMARK    3  A    between atoms: C1_8  and  C2_9 
REMARK    4  A    between atoms: C2_9  and  C3_10 
ROOT
HETATM    1  C1  UNL     1       3.933 -13.905 -11.262  1.00  0.00     0.143 C 
ENDROOT
BRANCH   1   2
HETATM    2  N3  UNL     1       3.529 -14.489 -10.022  1.00  0.00    -0.323 N 
HETATM    3  N2  UNL     1       3.197 -13.812  -9.050  1.00  0.00    -0.254 N 
ATOM      4  H2  UNL     1       4.047 -13.268  -8.900  1.00  0.00     0.207 HD
ATOM      5  H3  UNL     1       3.516 -15.505  -9.940  1.00  0.00     0.181 HD
BRANCH   3   6
HETATM    6  N1  UNL     1       2.484 -13.375  -8.142  1.00  0.00    -0.331 N 
ATOM      7  H12 UNL     1       1.819 -14.148  -8.109  1.00  0.00     0.178 HD
ATOM      8  H11 UNL     1       2.150 -12.739  -7.419  1.00  0.00     0.178 HD
ENDBRANCH   3   6
ENDBRANCH   1   2
BRANCH   1   9
HETATM    9  C2  UNL     1       2.839 -13.292 -12.074  1.00  0.00     0.046 C 
BRANCH   9  10
HETATM   10  C3  UNL     1       3.189 -12.010 -12.773  1.00  0.00     0.078 C 
HETATM   11  C4  UNL     1       4.428 -11.423 -12.213  1.00  0.00     0.025 C 
HETATM   12  C5  UNL     1       4.463  -9.907 -12.309  1.00  0.00     0.004 C 
HETATM   13  C6  UNL     1       3.649  -9.476 -13.490  1.00  0.00     0.019 C 
HETATM   14  C7  UNL     1       2.212  -9.855 -13.231  1.00  0.00     0.114 C 
HETATM   15  N4  UNL     1       2.034 -11.151 -12.684  1.00  0.00    -0.417 N 
ATOM     16  H4  UNL     1       1.157 -11.453 -12.259  1.00  0.00     0.153 HD
ENDBRANCH   9  10
ENDBRANCH   1   9
TORSDOF 4
ENDMDL
MODEL 3
REMARK VINA RESULT: -5.761564597      1.395      2.102
REMARK  4 active torsions:
REMARK  status: ('A' for Active; 'I' for Inactive)
REMARK    1  A    between atoms: N1_1  and  N2_4 
REMARK    2  A    between atoms: N3_6  and  C1_8 
REMARK    3  A    between atoms: C1_8  and  C2_9 
REMARK    4  A    between atoms: C2_9  and  C3_10 
ROOT
HETATM    1  C1  UNL     1       2.992 -12.420  -9.363  1.00  0.00     0.143 C 
ENDROOT
BRANCH   1   2
HETATM    2  N3  UNL     1       2.610 -13.494  -8.503  1.00  0.00    -0.323 N 
HETATM    3  N2  UNL     1       1.523 -14.063  -8.600  1.00  0.00    -0.254 N 
ATOM      4  H2  UNL     1       0.887 -13.279  -8.454  1.00  0.00     0.207 HD
ATOM      5  H3  UNL     1       3.262 -13.802  -7.783  1.00  0.00     0.181 HD
BRANCH   3   6
HETATM    6  N1  UNL     1       0.717 -14.983  -8.761  1.00  0.00    -0.331 N 
ATOM      7  H12 UNL     1       1.202 -15.687  -8.205  1.00  0.00     0.178 HD
ATOM      8  H11 UNL     1      -0.113 -15.472  -9.096  1.00  0.00     0.178 HD
ENDBRANCH   3   6
ENDBRANCH   1   2
BRANCH   1   9
HETATM    9  C2  UNL     1       3.070 -12.751 -10.817  1.00  0.00     0.046 C 
BRANCH   9  10
HETATM   10  C3  UNL     1       3.412 -11.607 -11.728  1.00  0.00     0.078 C 
HETATM   11  C4  UNL     1       2.748 -10.360 -11.282  1.00  0.00     0.025 C 
HETATM   12  C5  UNL     1       2.438  -9.411 -12.427  1.00  0.00     0.004 C 
HETATM   13  C6  UNL     1       3.441  -9.624 -13.519  1.00  0.00     0.019 C 
HETATM   14  C7  UNL     1       3.255 -11.020 -14.060  1.00  0.00     0.114 C 
HETATM   15  N4  UNL     1       3.068 -12.015 -13.067  1.00  0.00    -0.417 N 
ATOM     16  H4  UNL     1       2.716 -12.948 -13.284  1.00  0.00     0.153 HD
ENDBRANCH   9  10
ENDBRANCH   1   9
TORSDOF 4
ENDMDL
MODEL 4
REMARK VINA RESULT: -5.734232324      1.613      1.901
REMARK  4 active torsions:
REMARK  status: ('A' for Active; 'I' for Inactive)
REMARK    1  A    between atoms: N1_1  and  N2_4 
REMARK    2  A    between atoms: N3_6  and  C1_8 
REMARK    3  A    between atoms: C1_8  and  C2_9 
REMARK    4  A    between atoms: C2_9  and  C3_10 
ROOT
HETATM    1  C1  UNL     1       2.583 -13.511 -10.197  1.00  0.00     0.143 C 
ENDROOT
BRANCH   1   2
HETATM    2  N3  UNL     1       2.877 -12.923  -8.929  1.00  0.00    -0.323 N 
HETATM    3  N2  UNL     1       2.923 -11.705  -8.761  1.00  0.00    -0.254 N 
ATOM      4  H2  UNL     1       3.657 -11.451  -9.423  1.00  0.00     0.207 HD
ATOM      5  H3  UNL     1       3.056 -13.535  -8.133  1.00  0.00     0.181 HD
BRANCH   3   6
HETATM    6  N1  UNL     1       2.642 -10.597  -8.296  1.00  0.00    -0.331 N 
ATOM      7  H12 UNL     1       1.733 -10.841  -7.905  1.00  0.00     0.178 HD
ATOM      8  H11 UNL     1       2.747  -9.610  -8.064  1.00  0.00     0.178 HD
ENDBRANCH   3   6
ENDBRANCH   1   2
BRANCH   1   9
HETATM    9  C2  UNL     1       3.700 -13.500 -11.189  1.00  0.00     0.046 C 
BRANCH   9  10
HETATM   10  C3  UNL     1       3.642 -12.410 -12.221  1.00  0.00     0.078 C 
HETATM   11  C4  UNL     1       4.685 -11.389 -11.971  1.00  0.00     0.025 C 
HETATM   12  C5  UNL     1       4.283 -10.002 -12.445  1.00  0.00     0.004 C 
HETATM   13  C6  UNL     1       3.334 -10.138 -13.594  1.00  0.00     0.019 C 
HETATM   14  C7  UNL     1       2.075 -10.797 -13.086  1.00  0.00     0.114 C 
HETATM   15  N4  UNL     1       2.295 -11.895 -12.217  1.00  0.00    -0.417 N 
ATOM     16  H4  UNL     1       1.558 -12.290 -11.633  1.00  0.00     0.153 HD
ENDBRANCH   9  10
ENDBRANCH   1   9
TORSDOF 4
ENDMDL
MODEL 5
REMARK VINA RESULT: -5.594011226      1.533      1.892
REMARK  4 active torsions:
REMARK  status: ('A' for Active; 'I' for Inactive)
REMARK    1  A    between atoms: N1_1  and  N2_4 
REMARK    2  A    between atoms: N3_6  and  C1_8 
REMARK    3  A    between atoms: C1_8  and  C2_9 
REMARK    4  A    between atoms: C2_9  and  C3_10 
ROOT
HETATM    1  C1  UNL     1       2.560 -13.530  -9.952  1.00  0.00     0.143 C 
ENDROOT
BRANCH   1   2
HETATM    2  N3  UNL     1       2.691 -12.894  -8.680  1.00  0.00    -0.323 N 
HETATM    3  N2  UNL     1       2.855 -11.680  -8.563  1.00  0.00    -0.254 N 
ATOM      4  H2  UNL     1       3.721 -11.556  -9.087  1.00  0.00     0.207 HD
ATOM      5  H3  UNL     1       2.646 -13.466  -7.838  1.00  0.00     0.181 HD
BRANCH   3   6
HETATM    6  N1  UNL     1       2.632 -10.519  -8.211  1.00  0.00    -0.331 N 
ATOM      7  H12 UNL     1       3.446 -10.402  -7.607  1.00  0.00     0.178 HD
ATOM      8  H11 UNL     1       2.155  -9.620  -8.147  1.00  0.00     0.178 HD
ENDBRANCH   3   6
ENDBRANCH   1   2
BRANCH   1   9
HETATM    9  C2  UNL     1       3.575 -13.141 -10.977  1.00  0.00     0.046 C 
BRANCH   9  10
HETATM   10  C3  UNL     1       3.271 -11.891 -11.752  1.00  0.00     0.078 C 
HETATM   11  C4  UNL     1       2.882 -12.213 -13.144  1.00  0.00     0.025 C 
HETATM   12  C5  UNL     1       3.248 -11.117 -14.131  1.00  0.00     0.004 C 
HETATM   13  C6  UNL     1       3.246  -9.801 -13.417  1.00  0.00     0.019 C 
HETATM   14  C7  UNL     1       4.344  -9.828 -12.382  1.00  0.00     0.114 C 
HETATM   15  N4  UNL     1       4.424 -11.034 -11.642  1.00  0.00    -0.417 N 
ATOM     16  H4  UNL     1       5.237 -11.277 -11.075  1.00  0.00     0.153 HD
ENDBRANCH   9  10
ENDBRANCH   1   9
TORSDOF 4
ENDMDL
