MODEL 1
REMARK VINA RESULT: -5.376003465      0.000      0.000
REMARK  4 active torsions:
REMARK  status: ('A' for Active; 'I' for Inactive)
REMARK    1  A    between atoms: N1_1  and  C1_5 
REMARK    2  A    between atoms: C1_5  and  C2_6 
REMARK    3  A    between atoms: C2_6  and  S1_7 
REMARK    4  A    between atoms: S1_7  and  C3_8 
ROOT
HETATM    1  S1  UNL     1       2.638 -13.440 -12.044  1.00  0.00    -0.163 SA
ENDROOT
BRANCH   1   2
HETATM    2  C2  UNL     1       3.197 -13.944 -10.393  1.00  0.00     0.101 C 
BRANCH   2   3
HETATM    3  C1  UNL     1       2.875 -12.881  -9.359  1.00  0.00     0.239 C 
BRANCH   3   4
HETATM    4  N1  UNL     1       2.518 -13.509  -8.114  1.00  0.00    -0.079 N 
ATOM      5  H13 UNL     1       1.673 -14.073  -8.197  1.00  0.00     0.274 HD
ATOM      6  H12 UNL     1       3.167 -14.254  -7.858  1.00  0.00     0.274 HD
ATOM      7  H11 UNL     1       2.439 -12.802  -7.383  1.00  0.00     0.274 HD
ENDBRANCH   3   4
ENDBRANCH   2   3
ENDBRANCH   1   2
BRANCH   1   8
HETATM    8  C3  UNL     1       2.947 -11.671 -12.211  1.00  0.00     0.047 C 
HETATM    9  C4  UNL     1       2.099 -11.068 -13.324  1.00  0.00     0.015 C 
HETATM   10  C5  UNL     1       2.236  -9.552 -13.172  1.00  0.00     0.001 C 
HETATM   11  C6  UNL     1       3.668  -9.211 -13.452  1.00  0.00     0.000 C 
HETATM   12  C7  UNL     1       4.566  -9.870 -12.412  1.00  0.00     0.001 C 
HETATM   13  C8  UNL     1       4.386 -11.368 -12.569  1.00  0.00     0.015 C 
ENDBRANCH   1   8
TORSDOF 4
ENDMDL
MODEL 2
REMARK VINA RESULT: -5.185813251      0.793      1.684
REMARK  4 active torsions:
REMARK  status: ('A' for Active; 'I' for Inactive)
REMARK    1  A    between atoms: N1_1  and  C1_5 
REMARK    2  A    between atoms: C1_5  and  C2_6 
REMARK    3  A    between atoms: C2_6  and  S1_7 
REMARK    4  A    between atoms: S1_7  and  C3_8 
ROOT
HETATM    1  S1  UNL     1       3.995 -13.512 -11.596  1.00  0.00    -0.163 SA
ENDROOT
BRANCH   1   2
HETATM    2  C2  UNL     1       2.561 -13.680 -10.497  1.00  0.00     0.101 C 
BRANCH   2   3
HETATM    3  C1  UNL     1       2.694 -12.778  -9.285  1.00  0.00     0.239 C 
BRANCH   3   4
HETATM    4  N1  UNL     1       2.618 -13.567  -8.083  1.00  0.00    -0.079 N 
ATOM      5  H13 UNL     1       1.947 -13.188  -7.416  1.00  0.00     0.274 HD
ATOM      6  H12 UNL     1       2.170 -14.470  -8.243  1.00  0.00     0.274 HD
ATOM      7  H11 UNL     1       3.548 -13.667  -7.678  1.00  0.00     0.274 HD
ENDBRANCH   3   4
ENDBRANCH   2   3
ENDBRANCH   1   2
BRANCH   1   8
HETATM    8  C3  UNL     1       3.804 -11.974 -12.516  1.00  0.00     0.047 C 
HETATM    9  C4  UNL     1       4.410 -10.800 -11.756  1.00  0.00     0.015 C 
HETATM   10  C5  UNL     1       4.440  -9.637 -12.749  1.00  0.00     0.001 C 
HETATM   11  C6  UNL     1       3.016  -9.291 -13.062  1.00  0.00     0.000 C 
HETATM   12  C7  UNL     1       2.339 -10.473 -13.745  1.00  0.00     0.001 C 
HETATM   13  C8  UNL     1       2.351 -11.617 -12.748  1.00  0.00     0.015 C 
ENDBRANCH   1   8
TORSDOF 4
ENDMDL
MODEL 3
REMARK VINA RESULT: -5.128620236      0.949      1.187
REMARK  4 active torsions:
REMARK  status: ('A' for Active; 'I' for Inactive)
REMARK    1  A    between atoms: N1_1  and  C1_5 
REMARK    2  A    between atoms: C1_5  and  C2_6 
REMARK    3  A    between atoms: C2_6  and  S1_7 
REMARK    4  A    between atoms: S1_7  and  C3_8 
ROOT
HETATM    1  S1  UNL     1       2.975 -13.306 -12.331  1.00  0.00    -0.163 SA
ENDROOT
BRANCH   1   2
HETATM    2  C2  UNL     1       3.538 -13.824 -10.686  1.00  0.00     0.101 C 
BRANCH   2   3
HETATM    3  C1  UNL     1       2.388 -13.847  -9.698  1.00  0.00     0.239 C 
BRANCH   3   4
HETATM    4  N1  UNL     1       2.843 -13.383  -8.413  1.00  0.00    -0.079 N 
ATOM      5  H13 UNL     1       2.255 -12.635  -8.045  1.00  0.00     0.274 HD
ATOM      6  H12 UNL     1       2.684 -14.070  -7.677  1.00  0.00     0.274 HD
ATOM      7  H11 UNL     1       3.822 -13.107  -8.475  1.00  0.00     0.274 HD
ENDBRANCH   3   4
ENDBRANCH   2   3
ENDBRANCH   1   2
BRANCH   1   8
HETATM    8  C3  UNL     1       3.197 -11.521 -12.450  1.00  0.00     0.047 C 
HETATM    9  C4  UNL     1       2.035 -10.778 -11.800  1.00  0.00     0.015 C 
HETATM   10  C5  UNL     1       2.477  -9.317 -11.713  1.00  0.00     0.001 C 
HETATM   11  C6  UNL     1       2.611  -8.814 -13.118  1.00  0.00     0.000 C 
HETATM   12  C7  UNL     1       3.705  -9.593 -13.839  1.00  0.00     0.001 C 
HETATM   13  C8  UNL     1       3.252 -11.040 -13.883  1.00  0.00     0.015 C 
ENDBRANCH   1   8
TORSDOF 4
ENDMDL
MODEL 4
REMARK VINA RESULT: -5.045751605      2.628      3.492
REMARK  4 active torsions:
REMARK  status: ('A' for Active; 'I' for Inactive)
REMARK    1  A    between atoms: N1_1  and  C1_5 
REMARK    2  A    between atoms: C1_5  and  C2_6 
REMARK    3  A    between atoms: C2_6  and  S1_7 
REMARK    4  A    between atoms: S1_7  and  C3_8 
ROOT
HETATM    1  S1  UNL     1       3.950 -11.324 -11.654  1.00  0.00    -0.163 SA
ENDROOT
BRANCH   1   2
HETATM    2  C2  UNL     1       2.962 -12.839 -11.516  1.00  0.00     0.101 C 
BRANCH   2   3
HETATM    3  C1  UNL     1       3.804 -13.996 -11.011  1.00  0.00     0.239 C 
BRANCH   3   4
HETATM    4  N1  UNL     1       3.396 -14.347  -9.676  1.00  0.00    -0.079 N 
ATOM      5  H13 UNL     1       3.064 -15.310  -9.617  1.00  0.00     0.274 HD
ATOM      6  H12 UNL     1       4.188 -14.426  -9.039  1.00  0.00     0.274 HD
ATOM      7  H11 UNL     1       2.700 -13.680  -9.343  1.00  0.00     0.274 HD
ENDBRANCH   3   4
ENDBRANCH   2   3
ENDBRANCH   1   2
BRANCH   1   8
HETATM    8  C3  UNL     1       3.298 -10.134 -10.466  1.00  0.00     0.047 C 
HETATM    9  C4  UNL     1       2.892 -10.821  -9.167  1.00  0.00     0.015 C 
HETATM   10  C5  UNL     1       2.636  -9.693  -8.167  1.00  0.00     0.001 C 
HETATM   11  C6  UNL     1       1.451  -8.924  -8.667  1.00  0.00     0.000 C 
HETATM   12  C7  UNL     1       1.781  -8.291 -10.014  1.00  0.00     0.001 C 
HETATM   13  C8  UNL     1       2.058  -9.432 -10.974  1.00  0.00     0.015 C 
ENDBRANCH   1   8
TORSDOF 4
ENDMDL
MODEL 5
REMARK VINA RESULT: -5.043407400      1.703      2.478
REMARK  4 active torsions:
REMARK  status: ('A' for Active; 'I' for Inactive)
REMARK    1  A    between atoms: N1_1  and  C1_5 
REMARK    2  A    between atoms: C1_5  and  C2_6 
REMARK    3  A    between atoms: C2_6  and  S1_7 
REMARK    4  A    between atoms: S1_7  and  C3_8 
ROOT
HETATM    1  S1  UNL     1       2.663 -10.645  -9.156  1.00  0.00    -0.163 SA
ENDROOT
BRANCH   1   2
HETATM    2  C2  UNL     1       2.672 -12.405  -8.714  1.00  0.00     0.101 C 
BRANCH   2   3
HETATM    3  C1  UNL     1       2.836 -13.277  -9.944  1.00  0.00     0.239 C 
BRANCH   3   4
HETATM    4  N1  UNL     1       3.479 -14.512  -9.581  1.00  0.00    -0.079 N 
ATOM      5  H13 UNL     1       4.034 -14.895 -10.345  1.00  0.00     0.274 HD
ATOM      6  H12 UNL     1       4.233 -14.370  -8.909  1.00  0.00     0.274 HD
ATOM      7  H11 UNL     1       2.782 -15.175  -9.242  1.00  0.00     0.274 HD
ENDBRANCH   3   4
ENDBRANCH   2   3
ENDBRANCH   1   2
BRANCH   1   8
HETATM    8  C3  UNL     1       2.908 -10.527 -10.938  1.00  0.00     0.047 C 
HETATM    9  C4  UNL     1       4.368 -10.249 -11.276  1.00  0.00     0.015 C 
HETATM   10  C5  UNL     1       4.489 -10.456 -12.786  1.00  0.00     0.001 C 
HETATM   11  C6  UNL     1       3.660  -9.395 -13.442  1.00  0.00     0.000 C 
HETATM   12  C7  UNL     1       2.196  -9.579 -13.060  1.00  0.00     0.001 C 
HETATM   13  C8  UNL     1       2.113  -9.396 -11.556  1.00  0.00     0.015 C 
ENDBRANCH   1   8
TORSDOF 4
ENDMDL
