MODEL 1
REMARK VINA RESULT: -6.183275831      0.000      0.000
REMARK  3 active torsions:
REMARK  status: ('A' for Active; 'I' for Inactive)
REMARK    1  A    between atoms: C2_3  and  C3_4 
REMARK    2  A    between atoms: C3_4  and  N2_5 
REMARK    3  A    between atoms: N2_5  and  C4_7 
ROOT
HETATM    1  N1  UNL     1       2.557 -13.575  -8.562  1.00  0.00    -0.197 NA
HETATM    2  C1  UNL     1       2.583 -13.621  -9.714  1.00  0.00     0.064 C 
HETATM    3  C2  UNL     1       2.641 -13.667 -11.210  1.00  0.00     0.167 C 
ENDROOT
BRANCH   3   4
HETATM    4  C3  UNL     1       4.081 -13.854 -11.585  1.00  0.00     0.070 C 
BRANCH   4   5
HETATM    5  N2  UNL     1       4.714 -12.683 -11.970  1.00  0.00    -0.397 N 
ATOM      6  H2  UNL     1       5.711 -12.724 -12.181  1.00  0.00     0.159 HD
BRANCH   5   7
HETATM    7  C4  UNL     1       4.065 -11.446 -12.085  1.00  0.00     0.080 C 
HETATM    8  C5  UNL     1       3.970 -10.918 -13.503  1.00  0.00     0.025 C 
HETATM    9  C6  UNL     1       2.587 -10.355 -13.699  1.00  0.00     0.002 C 
HETATM   10  C7  UNL     1       2.399  -9.104 -12.847  1.00  0.00     0.000 C 
HETATM   11  C8  UNL     1       2.120  -9.447 -11.421  1.00  0.00     0.000 C 
HETATM   12  C9  UNL     1       3.305  -9.627 -10.545  1.00  0.00     0.002 C 
HETATM   13  C10 UNL     1       4.481 -10.329 -11.191  1.00  0.00     0.025 C 
ENDBRANCH   5   7
ENDBRANCH   4   5
ENDBRANCH   3   4
TORSDOF 3
ENDMDL
MODEL 2
REMARK VINA RESULT: -5.733414720      1.115      1.306
REMARK  3 active torsions:
REMARK  status: ('A' for Active; 'I' for Inactive)
REMARK    1  A    between atoms: C2_3  and  C3_4 
REMARK    2  A    between atoms: C3_4  and  N2_5 
REMARK    3  A    between atoms: N2_5  and  C4_7 
ROOT
HETATM    1  N1  UNL     1       1.899 -13.523  -8.589  1.00  0.00    -0.197 NA
HETATM    2  C1  UNL     1       2.733 -13.836  -9.322  1.00  0.00     0.064 C 
HETATM    3  C2  UNL     1       3.796 -14.251 -10.292  1.00  0.00     0.167 C 
ENDROOT
BRANCH   3   4
HETATM    4  C3  UNL     1       3.291 -13.915 -11.663  1.00  0.00     0.070 C 
BRANCH   4   5
HETATM    5  N2  UNL     1       2.394 -12.858 -11.684  1.00  0.00    -0.397 N 
ATOM      6  H2  UNL     1       1.438 -13.034 -11.375  1.00  0.00     0.159 HD
BRANCH   5   7
HETATM    7  C4  UNL     1       2.724 -11.563 -12.104  1.00  0.00     0.080 C 
HETATM    8  C5  UNL     1       3.813 -11.503 -13.156  1.00  0.00     0.025 C 
HETATM    9  C6  UNL     1       3.406 -10.488 -14.192  1.00  0.00     0.002 C 
HETATM   10  C7  UNL     1       3.424  -9.085 -13.592  1.00  0.00     0.000 C 
HETATM   11  C8  UNL     1       2.204  -8.823 -12.771  1.00  0.00     0.000 C 
HETATM   12  C9  UNL     1       2.275  -9.221 -11.343  1.00  0.00     0.002 C 
HETATM   13  C10 UNL     1       3.004 -10.522 -11.075  1.00  0.00     0.025 C 
ENDBRANCH   5   7
ENDBRANCH   4   5
ENDBRANCH   3   4
TORSDOF 3
ENDMDL
MODEL 3
REMARK VINA RESULT: -5.653612271      0.822      1.002
REMARK  3 active torsions:
REMARK  status: ('A' for Active; 'I' for Inactive)
REMARK    1  A    between atoms: C2_3  and  C3_4 
REMARK    2  A    between atoms: C3_4  and  N2_5 
REMARK    3  A    between atoms: N2_5  and  C4_7 
ROOT
HETATM    1  N1  UNL     1       0.769 -14.634  -8.621  1.00  0.00    -0.197 NA
HETATM    2  C1  UNL     1       1.742 -14.127  -8.973  1.00  0.00     0.064 C 
HETATM    3  C2  UNL     1       3.013 -13.490  -9.446  1.00  0.00     0.167 C 
ENDROOT
BRANCH   3   4
HETATM    4  C3  UNL     1       3.159 -13.834 -10.898  1.00  0.00     0.070 C 
BRANCH   4   5
HETATM    5  N2  UNL     1       3.984 -12.966 -11.597  1.00  0.00    -0.397 N 
ATOM      6  H2  UNL     1       4.892 -13.312 -11.908  1.00  0.00     0.159 HD
BRANCH   5   7
HETATM    7  C4  UNL     1       3.643 -11.642 -11.902  1.00  0.00     0.080 C 
HETATM    8  C5  UNL     1       3.831 -11.265 -13.358  1.00  0.00     0.025 C 
HETATM    9  C6  UNL     1       2.639 -10.450 -13.787  1.00  0.00     0.002 C 
HETATM   10  C7  UNL     1       2.638  -9.101 -13.075  1.00  0.00     0.000 C 
HETATM   11  C8  UNL     1       2.128  -9.218 -11.676  1.00  0.00     0.000 C 
HETATM   12  C9  UNL     1       3.135  -9.544 -10.635  1.00  0.00     0.002 C 
HETATM   13  C10 UNL     1       4.192 -10.545 -11.055  1.00  0.00     0.025 C 
ENDBRANCH   5   7
ENDBRANCH   4   5
ENDBRANCH   3   4
TORSDOF 3
ENDMDL
MODEL 4
REMARK VINA RESULT: -5.508940184      2.426      3.572
REMARK  3 active torsions:
REMARK  status: ('A' for Active; 'I' for Inactive)
REMARK    1  A    between atoms: C2_3  and  C3_4 
REMARK    2  A    between atoms: C3_4  and  N2_5 
REMARK    3  A    between atoms: N2_5  and  C4_7 
ROOT
HETATM    1  N1  UNL     1       1.583  -7.817 -10.107  1.00  0.00    -0.197 NA
HETATM    2  C1  UNL     1       1.860  -8.587  -9.295  1.00  0.00     0.064 C 
HETATM    3  C2  UNL     1       2.208  -9.608  -8.256  1.00  0.00     0.167 C 
ENDROOT
BRANCH   3   4
HETATM    4  C3  UNL     1       2.682 -10.829  -8.986  1.00  0.00     0.070 C 
BRANCH   4   5
HETATM    5  N2  UNL     1       3.732 -10.585  -9.859  1.00  0.00    -0.397 N 
ATOM      6  H2  UNL     1       4.609 -10.239  -9.470  1.00  0.00     0.159 HD
BRANCH   5   7
HETATM    7  C4  UNL     1       3.658 -10.788 -11.243  1.00  0.00     0.080 C 
HETATM    8  C5  UNL     1       3.966 -12.204 -11.687  1.00  0.00     0.025 C 
HETATM    9  C6  UNL     1       2.965 -12.589 -12.745  1.00  0.00     0.002 C 
HETATM   10  C7  UNL     1       3.192 -11.770 -14.011  1.00  0.00     0.000 C 
HETATM   11  C8  UNL     1       2.620 -10.396 -13.887  1.00  0.00     0.000 C 
HETATM   12  C9  UNL     1       3.509  -9.365 -13.296  1.00  0.00     0.002 C 
HETATM   13  C10 UNL     1       4.373  -9.843 -12.147  1.00  0.00     0.025 C 
ENDBRANCH   5   7
ENDBRANCH   4   5
ENDBRANCH   3   4
TORSDOF 3
ENDMDL
MODEL 5
REMARK VINA RESULT: -5.429835706      0.899      2.007
REMARK  3 active torsions:
REMARK  status: ('A' for Active; 'I' for Inactive)
REMARK    1  A    between atoms: C2_3  and  C3_4 
REMARK    2  A    between atoms: C3_4  and  N2_5 
REMARK    3  A    between atoms: N2_5  and  C4_7 
ROOT
HETATM    1  N1  UNL     1       2.240 -13.516  -8.278  1.00  0.00    -0.197 NA
HETATM    2  C1  UNL     1       2.306 -13.835  -9.385  1.00  0.00     0.064 C 
HETATM    3  C2  UNL     1       2.403 -14.225 -10.827  1.00  0.00     0.167 C 
ENDROOT
BRANCH   3   4
HETATM    4  C3  UNL     1       3.731 -13.735 -11.323  1.00  0.00     0.070 C 
BRANCH   4   5
HETATM    5  N2  UNL     1       3.960 -12.391 -11.073  1.00  0.00    -0.397 N 
ATOM      6  H2  UNL     1       4.561 -12.144 -10.287  1.00  0.00     0.159 HD
BRANCH   5   7
HETATM    7  C4  UNL     1       3.412 -11.352 -11.837  1.00  0.00     0.080 C 
HETATM    8  C5  UNL     1       2.320 -10.567 -11.138  1.00  0.00     0.025 C 
HETATM    9  C6  UNL     1       2.541  -9.104 -11.423  1.00  0.00     0.002 C 
HETATM   10  C7  UNL     1       2.291  -8.810 -12.899  1.00  0.00     0.000 C 
HETATM   11  C8  UNL     1       3.456  -9.211 -13.743  1.00  0.00     0.000 C 
HETATM   12  C9  UNL     1       3.464 -10.613 -14.228  1.00  0.00     0.002 C 
HETATM   13  C10 UNL     1       2.968 -11.640 -13.230  1.00  0.00     0.025 C 
ENDBRANCH   5   7
ENDBRANCH   4   5
ENDBRANCH   3   4
TORSDOF 3
ENDMDL
