MODEL 1
REMARK VINA RESULT: -5.988846102      0.000      0.000
REMARK  3 active torsions:
REMARK  status: ('A' for Active; 'I' for Inactive)
REMARK    1  A    between atoms: N1_4  and  N2_6 
REMARK    2  A    between atoms: N2_6  and  C4_8 
REMARK    3  A    between atoms: C4_8  and  C6_10 
ROOT
HETATM    1  N2  UNL     1       4.245  -9.840 -11.193  1.00  0.00    -0.332 N 
ATOM      2  H2  UNL     1       5.084 -10.007 -10.638  1.00  0.00     0.180 HD
ENDROOT
BRANCH   1   3
HETATM    3  N1  UNL     1       3.130  -9.225 -10.638  1.00  0.00    -0.314 N 
HETATM    4  C2  UNL     1       2.445  -9.686  -9.663  1.00  0.00    -0.005 C 
HETATM    5  C1  UNL     1       2.751 -10.958  -8.980  1.00  0.00     0.064 C 
HETATM    6  C3  UNL     1       1.278  -8.883  -9.203  1.00  0.00     0.064 C 
ATOM      7  H1  UNL     1       2.835  -8.335 -11.040  1.00  0.00     0.185 HD
ENDBRANCH   1   3
BRANCH   1   8
HETATM    8  C4  UNL     1       4.177 -10.235 -12.581  1.00  0.00     0.099 C 
HETATM    9  C5  UNL     1       3.068  -9.448 -13.263  1.00  0.00     0.034 C 
BRANCH   8  10
HETATM   10  C6  UNL     1       3.880 -11.689 -12.776  1.00  0.00     0.009 C 
HETATM   11  C7  UNL     1       2.403 -12.004 -12.636  1.00  0.00     0.007 C 
HETATM   12  C8  UNL     1       2.446 -13.530 -12.617  1.00  0.00     0.000 C 
HETATM   13  C9  UNL     1       3.787 -13.897 -12.015  1.00  0.00     0.000 C 
HETATM   14  C10 UNL     1       4.482 -12.571 -11.711  1.00  0.00     0.007 C 
ENDBRANCH   8  10
ENDBRANCH   1   8
TORSDOF 3
ENDMDL
MODEL 2
REMARK VINA RESULT: -5.487658048      0.820      1.659
REMARK  3 active torsions:
REMARK  status: ('A' for Active; 'I' for Inactive)
REMARK    1  A    between atoms: N1_4  and  N2_6 
REMARK    2  A    between atoms: N2_6  and  C4_8 
REMARK    3  A    between atoms: C4_8  and  C6_10 
ROOT
HETATM    1  N2  UNL     1       3.734  -9.257 -11.502  1.00  0.00    -0.332 N 
ATOM      2  H2  UNL     1       3.848  -8.282 -11.777  1.00  0.00     0.180 HD
ENDROOT
BRANCH   1   3
HETATM    3  N1  UNL     1       3.496  -9.606 -10.179  1.00  0.00    -0.314 N 
HETATM    4  C2  UNL     1       2.576  -9.113  -9.442  1.00  0.00    -0.005 C 
HETATM    5  C1  UNL     1       1.622  -8.087  -9.907  1.00  0.00     0.064 C 
HETATM    6  C3  UNL     1       2.476  -9.612  -8.043  1.00  0.00     0.064 C 
ATOM      7  H1  UNL     1       4.105 -10.311  -9.762  1.00  0.00     0.185 HD
ENDBRANCH   1   3
BRANCH   1   8
HETATM    8  C4  UNL     1       3.814 -10.321 -12.476  1.00  0.00     0.099 C 
HETATM    9  C5  UNL     1       2.815 -10.046 -13.589  1.00  0.00     0.034 C 
BRANCH   8  10
HETATM   10  C6  UNL     1       3.500 -11.672 -11.915  1.00  0.00     0.009 C 
HETATM   11  C7  UNL     1       4.684 -12.618 -11.982  1.00  0.00     0.007 C 
HETATM   12  C8  UNL     1       4.008 -13.934 -11.605  1.00  0.00     0.000 C 
HETATM   13  C9  UNL     1       2.575 -13.813 -12.079  1.00  0.00     0.000 C 
HETATM   14  C10 UNL     1       2.463 -12.425 -12.708  1.00  0.00     0.007 C 
ENDBRANCH   8  10
ENDBRANCH   1   8
TORSDOF 3
ENDMDL
MODEL 3
REMARK VINA RESULT: -5.425862406      2.124      3.791
REMARK  3 active torsions:
REMARK  status: ('A' for Active; 'I' for Inactive)
REMARK    1  A    between atoms: N1_4  and  N2_6 
REMARK    2  A    between atoms: N2_6  and  C4_8 
REMARK    3  A    between atoms: C4_8  and  C6_10 
ROOT
HETATM    1  N2  UNL     1       3.508 -11.403  -8.842  1.00  0.00    -0.332 N 
ATOM      2  H2  UNL     1       4.440 -11.552  -8.456  1.00  0.00     0.180 HD
ENDROOT
BRANCH   1   3
HETATM    3  N1  UNL     1       2.523 -12.376  -8.729  1.00  0.00    -0.314 N 
HETATM    4  C2  UNL     1       2.486 -13.467  -9.392  1.00  0.00    -0.005 C 
HETATM    5  C1  UNL     1       3.507 -13.850 -10.388  1.00  0.00     0.064 C 
HETATM    6  C3  UNL     1       1.347 -14.390  -9.134  1.00  0.00     0.064 C 
ATOM      7  H1  UNL     1       1.768 -12.206  -8.063  1.00  0.00     0.185 HD
ENDBRANCH   1   3
BRANCH   1   8
HETATM    8  C4  UNL     1       3.168 -10.175  -9.523  1.00  0.00     0.099 C 
HETATM    9  C5  UNL     1       1.870  -9.635  -8.944  1.00  0.00     0.034 C 
BRANCH   8  10
HETATM   10  C6  UNL     1       2.969 -10.343 -10.996  1.00  0.00     0.009 C 
HETATM   11  C7  UNL     1       4.280 -10.394 -11.757  1.00  0.00     0.007 C 
HETATM   12  C8  UNL     1       3.770 -10.300 -13.193  1.00  0.00     0.000 C 
HETATM   13  C9  UNL     1       2.483  -9.503 -13.123  1.00  0.00     0.000 C 
HETATM   14  C10 UNL     1       2.285  -9.167 -11.646  1.00  0.00     0.007 C 
ENDBRANCH   8  10
ENDBRANCH   1   8
TORSDOF 3
ENDMDL
MODEL 4
REMARK VINA RESULT: -5.340480393      0.935      1.324
REMARK  3 active torsions:
REMARK  status: ('A' for Active; 'I' for Inactive)
REMARK    1  A    between atoms: N1_4  and  N2_6 
REMARK    2  A    between atoms: N2_6  and  C4_8 
REMARK    3  A    between atoms: C4_8  and  C6_10 
ROOT
HETATM    1  N2  UNL     1       2.550  -9.711 -11.514  1.00  0.00    -0.332 N 
ATOM      2  H2  UNL     1       1.686  -9.343 -11.913  1.00  0.00     0.180 HD
ENDROOT
BRANCH   1   3
HETATM    3  N1  UNL     1       2.703  -9.848 -10.140  1.00  0.00    -0.314 N 
HETATM    4  C2  UNL     1       2.263  -9.027  -9.265  1.00  0.00    -0.005 C 
HETATM    5  C1  UNL     1       1.518  -7.798  -9.602  1.00  0.00     0.064 C 
HETATM    6  C3  UNL     1       2.526  -9.343  -7.834  1.00  0.00     0.064 C 
ATOM      7  H1  UNL     1       3.206 -10.669  -9.803  1.00  0.00     0.185 HD
ENDBRANCH   1   3
BRANCH   1   8
HETATM    8  C4  UNL     1       3.653 -10.106 -12.359  1.00  0.00     0.099 C 
HETATM    9  C5  UNL     1       3.533  -9.386 -13.693  1.00  0.00     0.034 C 
BRANCH   8  10
HETATM   10  C6  UNL     1       3.694 -11.574 -12.642  1.00  0.00     0.009 C 
HETATM   11  C7  UNL     1       2.311 -12.197 -12.679  1.00  0.00     0.007 C 
HETATM   12  C8  UNL     1       2.677 -13.679 -12.716  1.00  0.00     0.000 C 
HETATM   13  C9  UNL     1       3.998 -13.797 -11.984  1.00  0.00     0.000 C 
HETATM   14  C10 UNL     1       4.360 -12.377 -11.554  1.00  0.00     0.007 C 
ENDBRANCH   8  10
ENDBRANCH   1   8
TORSDOF 3
ENDMDL
MODEL 5
REMARK VINA RESULT: -5.309872695      1.676      4.194
REMARK  3 active torsions:
REMARK  status: ('A' for Active; 'I' for Inactive)
REMARK    1  A    between atoms: N1_4  and  N2_6 
REMARK    2  A    between atoms: N2_6  and  C4_8 
REMARK    3  A    between atoms: C4_8  and  C6_10 
ROOT
HETATM    1  N2  UNL     1       2.976 -12.177  -9.925  1.00  0.00    -0.332 N 
ATOM      2  H2  UNL     1       3.236 -12.648  -9.059  1.00  0.00     0.180 HD
ENDROOT
BRANCH   1   3
HETATM    3  N1  UNL     1       2.376 -12.873 -10.967  1.00  0.00    -0.314 N 
HETATM    4  C2  UNL     1       2.995 -13.584 -11.829  1.00  0.00    -0.005 C 
HETATM    5  C1  UNL     1       4.459 -13.767 -11.835  1.00  0.00     0.064 C 
HETATM    6  C3  UNL     1       2.179 -14.257 -12.877  1.00  0.00     0.064 C 
ATOM      7  H1  UNL     1       1.361 -12.811 -11.050  1.00  0.00     0.185 HD
ENDBRANCH   1   3
BRANCH   1   8
HETATM    8  C4  UNL     1       3.219 -10.765 -10.108  1.00  0.00     0.099 C 
HETATM    9  C5  UNL     1       2.328  -9.985  -9.154  1.00  0.00     0.034 C 
BRANCH   8  10
HETATM   10  C6  UNL     1       2.925 -10.281 -11.493  1.00  0.00     0.009 C 
HETATM   11  C7  UNL     1       4.186 -10.014 -12.294  1.00  0.00     0.007 C 
HETATM   12  C8  UNL     1       3.595  -9.307 -13.511  1.00  0.00     0.000 C 
HETATM   13  C9  UNL     1       2.348  -8.604 -13.016  1.00  0.00     0.000 C 
HETATM   14  C10 UNL     1       2.251  -8.934 -11.527  1.00  0.00     0.007 C 
ENDBRANCH   8  10
ENDBRANCH   1   8
TORSDOF 3
ENDMDL
