MODEL 1
REMARK VINA RESULT: -4.748184660      0.000      0.000
REMARK  3 active torsions:
REMARK  status: ('A' for Active; 'I' for Inactive)
REMARK    1  A    between atoms: C1_2  and  C2_3 
REMARK    2  A    between atoms: C2_3  and  C3_4 
REMARK    3  A    between atoms: C3_4  and  N1_5 
ROOT
HETATM    1  N1  UNL     1       3.677 -11.994 -12.533  1.00  0.00     0.088 N 
HETATM    2  C4  UNL     1       4.452 -10.988 -11.886  1.00  0.00     0.272 C 
HETATM    3  C5  UNL     1       4.437  -9.680 -12.620  1.00  0.00     0.030 C 
HETATM    4  C6  UNL     1       3.224  -9.344 -13.375  1.00  0.00     0.003 C 
HETATM    5  C7  UNL     1       2.196 -10.398 -13.550  1.00  0.00     0.030 C 
HETATM    6  C8  UNL     1       2.312 -11.549 -12.590  1.00  0.00     0.272 C 
ENDROOT
BRANCH   1   7
HETATM    7  C3  UNL     1       3.904 -13.266 -11.963  1.00  0.00     0.273 C 
BRANCH   7   8
HETATM    8  C2  UNL     1       2.694 -13.892 -11.290  1.00  0.00     0.041 C 
BRANCH   8   9
HETATM    9  C1  UNL     1       3.107 -13.992  -9.814  1.00  0.00     0.088 C 
HETATM   10  S1  UNL     1       2.672 -12.527  -8.886  1.00  0.00    -0.098 SA
ENDBRANCH   8   9
ENDBRANCH   7   8
ENDBRANCH   1   7
TORSDOF 3
ENDMDL
MODEL 2
REMARK VINA RESULT: -4.698136209      1.205      1.369
REMARK  3 active torsions:
REMARK  status: ('A' for Active; 'I' for Inactive)
REMARK    1  A    between atoms: C1_2  and  C2_3 
REMARK    2  A    between atoms: C2_3  and  C3_4 
REMARK    3  A    between atoms: C3_4  and  N1_5 
ROOT
HETATM    1  N1  UNL     1       2.525 -11.713 -12.418  1.00  0.00     0.088 N 
HETATM    2  C4  UNL     1       3.489 -11.492 -13.444  1.00  0.00     0.272 C 
HETATM    3  C5  UNL     1       3.338 -10.154 -14.106  1.00  0.00     0.030 C 
HETATM    4  C6  UNL     1       2.827  -9.050 -13.285  1.00  0.00     0.003 C 
HETATM    5  C7  UNL     1       2.286  -9.370 -11.943  1.00  0.00     0.030 C 
HETATM    6  C8  UNL     1       2.703 -10.710 -11.404  1.00  0.00     0.272 C 
ENDROOT
BRANCH   1   7
HETATM    7  C3  UNL     1       2.532 -13.057 -11.984  1.00  0.00     0.273 C 
BRANCH   7   8
HETATM    8  C2  UNL     1       3.819 -13.507 -11.311  1.00  0.00     0.041 C 
BRANCH   8   9
HETATM    9  C1  UNL     1       3.334 -14.249 -10.056  1.00  0.00     0.088 C 
HETATM   10  S1  UNL     1       2.653 -13.140  -8.832  1.00  0.00    -0.098 SA
ENDBRANCH   8   9
ENDBRANCH   7   8
ENDBRANCH   1   7
TORSDOF 3
ENDMDL
MODEL 3
REMARK VINA RESULT: -4.589127652      1.781      2.477
REMARK  3 active torsions:
REMARK  status: ('A' for Active; 'I' for Inactive)
REMARK    1  A    between atoms: C1_2  and  C2_3 
REMARK    2  A    between atoms: C2_3  and  C3_4 
REMARK    3  A    between atoms: C3_4  and  N1_5 
ROOT
HETATM    1  N1  UNL     1       3.199 -11.313 -11.441  1.00  0.00     0.088 N 
HETATM    2  C4  UNL     1       2.285 -11.497 -12.519  1.00  0.00     0.272 C 
HETATM    3  C5  UNL     1       2.172 -10.286 -13.398  1.00  0.00     0.030 C 
HETATM    4  C6  UNL     1       3.364  -9.443 -13.542  1.00  0.00     0.003 C 
HETATM    5  C7  UNL     1       4.517  -9.705 -12.647  1.00  0.00     0.030 C 
HETATM    6  C8  UNL     1       4.502 -11.058 -11.990  1.00  0.00     0.272 C 
ENDROOT
BRANCH   1   7
HETATM    7  C3  UNL     1       3.105 -12.362 -10.500  1.00  0.00     0.273 C 
BRANCH   7   8
HETATM    8  C2  UNL     1       2.586 -11.951  -9.131  1.00  0.00     0.041 C 
BRANCH   8   9
HETATM    9  C1  UNL     1       3.130 -10.526  -8.948  1.00  0.00     0.088 C 
HETATM   10  S1  UNL     1       1.824  -9.311  -8.825  1.00  0.00    -0.098 SA
ENDBRANCH   8   9
ENDBRANCH   7   8
ENDBRANCH   1   7
TORSDOF 3
ENDMDL
MODEL 4
REMARK VINA RESULT: -4.577988273      1.125      1.263
REMARK  3 active torsions:
REMARK  status: ('A' for Active; 'I' for Inactive)
REMARK    1  A    between atoms: C1_2  and  C2_3 
REMARK    2  A    between atoms: C2_3  and  C3_4 
REMARK    3  A    between atoms: C3_4  and  N1_5 
ROOT
HETATM    1  N1  UNL     1       3.759 -11.284 -12.179  1.00  0.00     0.088 N 
HETATM    2  C4  UNL     1       2.661 -10.776 -11.424  1.00  0.00     0.272 C 
HETATM    3  C5  UNL     1       2.344  -9.347 -11.751  1.00  0.00     0.030 C 
HETATM    4  C6  UNL     1       2.605  -8.894 -13.121  1.00  0.00     0.003 C 
HETATM    5  C7  UNL     1       3.366  -9.794 -14.021  1.00  0.00     0.030 C 
HETATM    6  C8  UNL     1       3.417 -11.228 -13.573  1.00  0.00     0.272 C 
ENDROOT
BRANCH   1   7
HETATM    7  C3  UNL     1       4.189 -12.536 -11.684  1.00  0.00     0.273 C 
BRANCH   7   8
HETATM    8  C2  UNL     1       3.092 -13.577 -11.532  1.00  0.00     0.041 C 
BRANCH   8   9
HETATM    9  C1  UNL     1       3.358 -14.190 -10.150  1.00  0.00     0.088 C 
HETATM   10  S1  UNL     1       2.641 -13.224  -8.828  1.00  0.00    -0.098 SA
ENDBRANCH   8   9
ENDBRANCH   7   8
ENDBRANCH   1   7
TORSDOF 3
ENDMDL
MODEL 5
REMARK VINA RESULT: -4.543013713      3.124      4.015
REMARK  3 active torsions:
REMARK  status: ('A' for Active; 'I' for Inactive)
REMARK    1  A    between atoms: C1_2  and  C2_3 
REMARK    2  A    between atoms: C2_3  and  C3_4 
REMARK    3  A    between atoms: C3_4  and  N1_5 
ROOT
HETATM    1  N1  UNL     1       3.347  -9.728 -10.673  1.00  0.00     0.088 N 
HETATM    2  C4  UNL     1       3.235 -10.711  -9.647  1.00  0.00     0.272 C 
HETATM    3  C5  UNL     1       2.723 -10.147  -8.354  1.00  0.00     0.030 C 
HETATM    4  C6  UNL     1       1.794  -9.015  -8.434  1.00  0.00     0.003 C 
HETATM    5  C7  UNL     1       1.598  -8.363  -9.751  1.00  0.00     0.030 C 
HETATM    6  C8  UNL     1       2.040  -9.187 -10.927  1.00  0.00     0.272 C 
ENDROOT
BRANCH   1   7
HETATM    7  C3  UNL     1       4.052 -10.227 -11.790  1.00  0.00     0.273 C 
BRANCH   7   8
HETATM    8  C2  UNL     1       3.484  -9.824 -13.141  1.00  0.00     0.041 C 
BRANCH   8   9
HETATM    9  C1  UNL     1       3.380 -11.152 -13.905  1.00  0.00     0.088 C 
HETATM   10  S1  UNL     1       2.804 -12.490 -12.869  1.00  0.00    -0.098 SA
ENDBRANCH   8   9
ENDBRANCH   7   8
ENDBRANCH   1   7
TORSDOF 3
ENDMDL
