MODEL 1
REMARK VINA RESULT: -6.323518612      0.000      0.000
REMARK  3 active torsions:
REMARK  status: ('A' for Active; 'I' for Inactive)
REMARK    1  A    between atoms: C2_2  and  C4_4 
REMARK    2  A    between atoms: C4_4  and  C5_5 
REMARK    3  A    between atoms: C5_5  and  C6_6 
ROOT
HETATM    1  C5  UNL     1       3.280 -11.031 -11.452  1.00  0.00     0.112 C 
HETATM    2  C9  UNL     1       4.575 -11.622 -11.903  1.00  0.00     0.182 C 
HETATM    3  N1  UNL     1       4.337 -13.075 -11.878  1.00  0.00    -0.314 N 
ATOM      4  H1  UNL     1       4.950 -13.781 -12.288  1.00  0.00     0.182 HD
HETATM    5  N2  UNL     1       3.245 -13.313 -11.263  1.00  0.00    -0.211 N 
ATOM      6  H2  UNL     1       2.857 -14.244 -11.111  1.00  0.00     0.215 HD
HETATM    7  O1  UNL     1       2.660 -12.141 -10.833  1.00  0.00    -0.252 OA
ENDROOT
BRANCH   1   8
HETATM    8  C4  UNL     1       3.390  -9.910 -10.489  1.00  0.00     0.047 C 
BRANCH   8   9
HETATM    9  C2  UNL     1       2.190  -9.620  -9.673  1.00  0.00    -0.020 C 
HETATM   10  C1  UNL     1       1.617  -8.251  -9.834  1.00  0.00     0.009 C 
HETATM   11  C3  UNL     1       2.610  -9.724  -8.197  1.00  0.00     0.009 C 
ENDBRANCH   8   9
ENDBRANCH   1   8
BRANCH   1  12
HETATM   12  C6  UNL     1       2.486 -10.663 -12.686  1.00  0.00     0.025 A 
HETATM   13  C7  UNL     1       3.121 -10.586 -14.015  1.00  0.00     0.008 A 
HETATM   14  C8  UNL     1       2.744  -9.300 -13.297  1.00  0.00     0.008 A 
ENDBRANCH   1  12
TORSDOF 3
ENDMDL
MODEL 2
REMARK VINA RESULT: -5.863085619      0.835      1.355
REMARK  3 active torsions:
REMARK  status: ('A' for Active; 'I' for Inactive)
REMARK    1  A    between atoms: C2_2  and  C4_4 
REMARK    2  A    between atoms: C4_4  and  C5_5 
REMARK    3  A    between atoms: C5_5  and  C6_6 
ROOT
HETATM    1  C5  UNL     1       2.821 -10.796 -11.798  1.00  0.00     0.112 C 
HETATM    2  C9  UNL     1       4.280 -10.761 -11.484  1.00  0.00     0.182 C 
HETATM    3  N1  UNL     1       4.772 -12.084 -11.904  1.00  0.00    -0.314 N 
ATOM      4  H1  UNL     1       5.753 -12.348 -11.993  1.00  0.00     0.182 HD
HETATM    5  N2  UNL     1       3.777 -12.848 -12.138  1.00  0.00    -0.211 N 
ATOM      6  H2  UNL     1       3.852 -13.818 -12.444  1.00  0.00     0.215 HD
HETATM    7  O1  UNL     1       2.589 -12.185 -11.921  1.00  0.00    -0.252 OA
ENDROOT
BRANCH   1   8
HETATM    8  C4  UNL     1       1.930 -10.222 -10.761  1.00  0.00     0.047 C 
BRANCH   8   9
HETATM    9  C2  UNL     1       2.571  -9.361  -9.743  1.00  0.00    -0.020 C 
HETATM   10  C1  UNL     1       2.625  -9.926  -8.362  1.00  0.00     0.009 C 
HETATM   11  C3  UNL     1       1.725  -8.081  -9.635  1.00  0.00     0.009 C 
ENDBRANCH   8   9
ENDBRANCH   1   8
BRANCH   1  12
HETATM   12  C6  UNL     1       2.624 -10.154 -13.154  1.00  0.00     0.025 A 
HETATM   13  C7  UNL     1       3.680  -9.332 -13.776  1.00  0.00     0.008 A 
HETATM   14  C8  UNL     1       2.455  -8.648 -13.191  1.00  0.00     0.008 A 
ENDBRANCH   1  12
TORSDOF 3
ENDMDL
MODEL 3
REMARK VINA RESULT: -5.789756104      2.499      3.625
REMARK  3 active torsions:
REMARK  status: ('A' for Active; 'I' for Inactive)
REMARK    1  A    between atoms: C2_2  and  C4_4 
REMARK    2  A    between atoms: C4_4  and  C5_5 
REMARK    3  A    between atoms: C5_5  and  C6_6 
ROOT
HETATM    1  C5  UNL     1       3.404 -10.585 -11.415  1.00  0.00     0.112 C 
HETATM    2  C9  UNL     1       1.945 -10.375 -11.177  1.00  0.00     0.182 C 
HETATM    3  N1  UNL     1       1.895  -9.320 -10.152  1.00  0.00    -0.314 N 
ATOM      4  H1  UNL     1       1.058  -8.806  -9.873  1.00  0.00     0.182 HD
HETATM    5  N2  UNL     1       3.063  -9.147  -9.667  1.00  0.00    -0.211 N 
ATOM      6  H2  UNL     1       3.293  -8.470  -8.939  1.00  0.00     0.215 HD
HETATM    7  O1  UNL     1       3.970  -9.999 -10.260  1.00  0.00    -0.252 OA
ENDROOT
BRANCH   1   8
HETATM    8  C4  UNL     1       3.836 -11.999 -11.530  1.00  0.00     0.047 C 
BRANCH   8   9
HETATM    9  C2  UNL     1       2.834 -13.027 -11.172  1.00  0.00    -0.020 C 
HETATM   10  C1  UNL     1       3.299 -14.075 -10.217  1.00  0.00     0.009 C 
HETATM   11  C3  UNL     1       2.470 -13.775 -12.465  1.00  0.00     0.009 C 
ENDBRANCH   8   9
ENDBRANCH   1   8
BRANCH   1  12
HETATM   12  C6  UNL     1       3.800  -9.756 -12.618  1.00  0.00     0.025 A 
HETATM   13  C7  UNL     1       2.797  -9.007 -13.399  1.00  0.00     0.008 A 
HETATM   14  C8  UNL     1       3.396 -10.277 -13.983  1.00  0.00     0.008 A 
ENDBRANCH   1  12
TORSDOF 3
ENDMDL
MODEL 4
REMARK VINA RESULT: -5.784379831      2.320      3.829
REMARK  3 active torsions:
REMARK  status: ('A' for Active; 'I' for Inactive)
REMARK    1  A    between atoms: C2_2  and  C4_4 
REMARK    2  A    between atoms: C4_4  and  C5_5 
REMARK    3  A    between atoms: C5_5  and  C6_6 
ROOT
HETATM    1  C5  UNL     1       2.981 -10.504 -11.167  1.00  0.00     0.112 C 
HETATM    2  C9  UNL     1       4.264 -10.280 -11.898  1.00  0.00     0.182 C 
HETATM    3  N1  UNL     1       3.879  -9.464 -13.061  1.00  0.00    -0.314 N 
ATOM      4  H1  UNL     1       4.527  -8.982 -13.685  1.00  0.00     0.182 HD
HETATM    5  N2  UNL     1       2.607  -9.454 -13.167  1.00  0.00    -0.211 N 
ATOM      6  H2  UNL     1       2.091  -8.958 -13.894  1.00  0.00     0.215 HD
HETATM    7  O1  UNL     1       2.027 -10.203 -12.167  1.00  0.00    -0.252 OA
ENDROOT
BRANCH   1   8
HETATM    8  C4  UNL     1       2.766 -11.880 -10.660  1.00  0.00     0.047 C 
BRANCH   8   9
HETATM    9  C2  UNL     1       3.348 -12.979 -11.463  1.00  0.00    -0.020 C 
HETATM   10  C1  UNL     1       2.460 -13.543 -12.522  1.00  0.00     0.009 C 
HETATM   11  C3  UNL     1       3.636 -14.142 -10.499  1.00  0.00     0.009 C 
ENDBRANCH   8   9
ENDBRANCH   1   8
BRANCH   1  12
HETATM   12  C6  UNL     1       2.881  -9.460 -10.077  1.00  0.00     0.025 A 
HETATM   13  C7  UNL     1       2.362  -9.795  -8.737  1.00  0.00     0.008 A 
HETATM   14  C8  UNL     1       1.492  -8.991  -9.691  1.00  0.00     0.008 A 
ENDBRANCH   1  12
TORSDOF 3
ENDMDL
MODEL 5
REMARK VINA RESULT: -5.642063496      2.031      2.876
REMARK  3 active torsions:
REMARK  status: ('A' for Active; 'I' for Inactive)
REMARK    1  A    between atoms: C2_2  and  C4_4 
REMARK    2  A    between atoms: C4_4  and  C5_5 
REMARK    3  A    between atoms: C5_5  and  C6_6 
ROOT
HETATM    1  C5  UNL     1       3.131 -11.067 -11.345  1.00  0.00     0.112 C 
HETATM    2  C9  UNL     1       2.307 -10.757 -12.551  1.00  0.00     0.182 C 
HETATM    3  N1  UNL     1       3.231 -10.037 -13.444  1.00  0.00    -0.314 N 
ATOM      4  H1  UNL     1       3.056  -9.824 -14.426  1.00  0.00     0.182 HD
HETATM    5  N2  UNL     1       4.284  -9.722 -12.796  1.00  0.00    -0.211 N 
ATOM      6  H2  UNL     1       5.077  -9.218 -13.191  1.00  0.00     0.215 HD
HETATM    7  O1  UNL     1       4.204 -10.158 -11.491  1.00  0.00    -0.252 OA
ENDROOT
BRANCH   1   8
HETATM    8  C4  UNL     1       2.459 -10.854 -10.041  1.00  0.00     0.047 C 
BRANCH   8   9
HETATM    9  C2  UNL     1       2.672  -9.539  -9.395  1.00  0.00    -0.020 C 
HETATM   10  C1  UNL     1       2.726  -9.555  -7.903  1.00  0.00     0.009 C 
HETATM   11  C3  UNL     1       1.467  -8.656  -9.759  1.00  0.00     0.009 C 
ENDBRANCH   8   9
ENDBRANCH   1   8
BRANCH   1  12
HETATM   12  C6  UNL     1       3.668 -12.473 -11.500  1.00  0.00     0.025 A 
HETATM   13  C7  UNL     1       2.893 -13.519 -12.195  1.00  0.00     0.008 A 
HETATM   14  C8  UNL     1       3.007 -13.562 -10.680  1.00  0.00     0.008 A 
ENDBRANCH   1  12
TORSDOF 3
ENDMDL
