MODEL 1
REMARK VINA RESULT: -7.356478434      0.000      0.000
REMARK  8 active torsions:
REMARK  status: ('A' for Active; 'I' for Inactive)
REMARK    1  A    between atoms: C2_2  and  C3_3 
REMARK    2  A    between atoms: C3_3  and  O1_4 
REMARK    3  A    between atoms: O1_4  and  C4_5 
REMARK    4  A    between atoms: C6_9  and  O3_10 
REMARK    5  A    between atoms: C12_17  and  C13_18 
REMARK    6  A    between atoms: C13_18  and  O4_19 
REMARK    7  A    between atoms: O4_19  and  S1_20 
REMARK    8  A    between atoms: C17_26  and  O7_27 
ROOT
HETATM    1  C4  UNL     1      45.075  58.761  11.247  1.00  0.00     0.312 C 
HETATM    2  O2  UNL     1      43.727  58.530  11.209  1.00  0.00    -0.251 OA
HETATM    3  N1  UNL     1      43.265  57.969  10.100  1.00  0.00    -0.090 NA
HETATM    4  C5  UNL     1      43.577  58.794   8.975  1.00  0.00     0.142 C 
HETATM    5  C6  UNL     1      42.899  58.432   7.708  1.00  0.00     0.141 C 
HETATM    6  C7  UNL     1      43.289  59.510   6.690  1.00  0.00     0.043 C 
HETATM    7  C8  UNL     1      44.742  59.299   6.361  1.00  0.00    -0.032 C 
HETATM    8  C9  UNL     1      45.233  60.298   5.346  1.00  0.00     0.010 C 
HETATM    9  C10 UNL     1      46.416  59.626   4.740  1.00  0.00     0.001 C 
HETATM   10  C11 UNL     1      46.414  58.191   5.134  1.00  0.00     0.007 C 
HETATM   11  C12 UNL     1      45.034  57.984   5.740  1.00  0.00     0.019 C 
HETATM   12  C15 UNL     1      45.554  59.518   7.608  1.00  0.00     0.019 C 
HETATM   13  C16 UNL     1      45.067  58.809   8.806  1.00  0.00     0.044 C 
HETATM   14  C17 UNL     1      45.606  59.502  10.042  1.00  0.00     0.181 C 
ENDROOT
BRANCH  11  15
HETATM   15  C13 UNL     1      44.123  57.565   4.642  1.00  0.00     0.195 C 
BRANCH  15  16
HETATM   16  O4  UNL     1      44.759  56.826   3.655  1.00  0.00    -0.276 OA
BRANCH  16  17
HETATM   17  S1  UNL     1      43.814  56.531   2.334  1.00  0.00     0.261 S 
HETATM   18  C14 UNL     1      42.242  57.338   2.564  1.00  0.00     0.194 C 
HETATM   19  O5  UNL     1      43.524  55.039   2.282  1.00  0.00    -0.199 OA
HETATM   20  O6  UNL     1      44.450  56.911   1.036  1.00  0.00    -0.199 OA
ENDBRANCH  16  17
ENDBRANCH  15  16
ENDBRANCH  11  15
BRANCH   5  21
HETATM   21  O3  UNL     1      41.519  58.486   7.909  1.00  0.00    -0.394 OA
ATOM     22  H3  UNL     1      41.113  58.854   7.133  1.00  0.00     0.210 HD
ENDBRANCH   5  21
BRANCH  14  23
HETATM   23  O7  UNL     1      45.136  60.795  10.049  1.00  0.00    -0.390 OA
ATOM     24  H7  UNL     1      45.070  61.116   9.157  1.00  0.00     0.210 HD
ENDBRANCH  14  23
BRANCH   1  25
HETATM   25  O1  UNL     1      45.849  57.641  11.432  1.00  0.00    -0.357 OA
BRANCH  25  26
HETATM   26  C3  UNL     1      45.672  57.072  12.694  1.00  0.00     0.170 C 
BRANCH  26  27
HETATM   27  C2  UNL     1      45.671  55.562  12.630  1.00  0.00     0.022 C 
HETATM   28  C1  UNL     1      45.047  55.050  11.360  1.00  0.00     0.007 C 
ENDBRANCH  26  27
ENDBRANCH  25  26
ENDBRANCH   1  25
TORSDOF 8
ENDMDL
MODEL 2
REMARK VINA RESULT: -7.318885425      1.890      2.654
REMARK  8 active torsions:
REMARK  status: ('A' for Active; 'I' for Inactive)
REMARK    1  A    between atoms: C2_2  and  C3_3 
REMARK    2  A    between atoms: C3_3  and  O1_4 
REMARK    3  A    between atoms: O1_4  and  C4_5 
REMARK    4  A    between atoms: C6_9  and  O3_10 
REMARK    5  A    between atoms: C12_17  and  C13_18 
REMARK    6  A    between atoms: C13_18  and  O4_19 
REMARK    7  A    between atoms: O4_19  and  S1_20 
REMARK    8  A    between atoms: C17_26  and  O7_27 
ROOT
HETATM    1  C4  UNL     1      43.596  58.530   8.704  1.00  0.00     0.312 C 
HETATM    2  O2  UNL     1      42.333  58.434   8.186  1.00  0.00    -0.251 OA
HETATM    3  N1  UNL     1      42.216  57.734   7.067  1.00  0.00    -0.090 NA
HETATM    4  C5  UNL     1      43.040  58.309   6.049  1.00  0.00     0.142 C 
HETATM    5  C6  UNL     1      42.813  57.797   4.677  1.00  0.00     0.141 C 
HETATM    6  C7  UNL     1      43.712  58.630   3.755  1.00  0.00     0.043 C 
HETATM    7  C8  UNL     1      45.131  58.216   4.033  1.00  0.00    -0.032 C 
HETATM    8  C9  UNL     1      46.109  58.961   3.163  1.00  0.00     0.010 C 
HETATM    9  C10 UNL     1      47.304  58.074   3.144  1.00  0.00     0.001 C 
HETATM   10  C11 UNL     1      46.929  56.741   3.687  1.00  0.00     0.007 C 
HETATM   11  C12 UNL     1      45.409  56.787   3.744  1.00  0.00     0.019 C 
HETATM   12  C15 UNL     1      45.465  58.570   5.457  1.00  0.00     0.019 C 
HETATM   13  C16 UNL     1      44.473  58.140   6.459  1.00  0.00     0.044 C 
HETATM   14  C17 UNL     1      44.636  58.984   7.708  1.00  0.00     0.181 C 
ENDROOT
BRANCH  11  15
HETATM   15  C13 UNL     1      44.898  56.275   2.445  1.00  0.00     0.195 C 
BRANCH  15  16
HETATM   16  O4  UNL     1      43.947  55.273   2.588  1.00  0.00    -0.276 OA
BRANCH  16  17
HETATM   17  S1  UNL     1      42.685  55.403   1.533  1.00  0.00     0.261 S 
HETATM   18  C14 UNL     1      43.056  56.682   0.350  1.00  0.00     0.194 C 
HETATM   19  O5  UNL     1      41.465  55.878   2.308  1.00  0.00    -0.199 OA
HETATM   20  O6  UNL     1      42.319  54.116   0.865  1.00  0.00    -0.199 OA
ENDBRANCH  16  17
ENDBRANCH  15  16
ENDBRANCH  11  15
BRANCH   5  21
HETATM   21  O3  UNL     1      41.481  58.028   4.330  1.00  0.00    -0.394 OA
ATOM     22  H3  UNL     1      41.169  57.291   3.818  1.00  0.00     0.210 HD
ENDBRANCH   5  21
BRANCH  14  23
HETATM   23  O7  UNL     1      44.411  60.298   7.370  1.00  0.00    -0.390 OA
ATOM     24  H7  UNL     1      44.203  60.360   6.446  1.00  0.00     0.210 HD
ENDBRANCH  14  23
BRANCH   1  25
HETATM   25  O1  UNL     1      44.059  57.387   9.311  1.00  0.00    -0.357 OA
BRANCH  25  26
HETATM   26  C3  UNL     1      44.543  57.624  10.598  1.00  0.00     0.170 C 
BRANCH  26  27
HETATM   27  C2  UNL     1      44.826  56.335  11.336  1.00  0.00     0.022 C 
HETATM   28  C1  UNL     1      44.836  55.147  10.412  1.00  0.00     0.007 C 
ENDBRANCH  26  27
ENDBRANCH  25  26
ENDBRANCH   1  25
TORSDOF 8
ENDMDL
MODEL 3
REMARK VINA RESULT: -6.994889743      2.972      7.837
REMARK  8 active torsions:
REMARK  status: ('A' for Active; 'I' for Inactive)
REMARK    1  A    between atoms: C2_2  and  C3_3 
REMARK    2  A    between atoms: C3_3  and  O1_4 
REMARK    3  A    between atoms: O1_4  and  C4_5 
REMARK    4  A    between atoms: C6_9  and  O3_10 
REMARK    5  A    between atoms: C12_17  and  C13_18 
REMARK    6  A    between atoms: C13_18  and  O4_19 
REMARK    7  A    between atoms: O4_19  and  S1_20 
REMARK    8  A    between atoms: C17_26  and  O7_27 
ROOT
HETATM    1  C4  UNL     1      44.255  57.026   1.556  1.00  0.00     0.312 C 
HETATM    2  O2  UNL     1      45.549  56.614   1.722  1.00  0.00    -0.251 OA
HETATM    3  N1  UNL     1      45.895  56.270   2.954  1.00  0.00    -0.090 NA
HETATM    4  C5  UNL     1      45.695  57.375   3.839  1.00  0.00     0.142 C 
HETATM    5  C6  UNL     1      46.283  57.228   5.191  1.00  0.00     0.141 C 
HETATM    6  C7  UNL     1      46.048  58.563   5.908  1.00  0.00     0.043 C 
HETATM    7  C8  UNL     1      44.574  58.653   6.196  1.00  0.00    -0.032 C 
HETATM    8  C9  UNL     1      44.226  59.925   6.923  1.00  0.00     0.010 C 
HETATM    9  C10 UNL     1      42.941  59.599   7.601  1.00  0.00     0.001 C 
HETATM   10  C11 UNL     1      42.725  58.127   7.551  1.00  0.00     0.007 C 
HETATM   11  C12 UNL     1      44.067  57.580   7.087  1.00  0.00     0.019 C 
HETATM   12  C15 UNL     1      43.830  58.687   4.888  1.00  0.00     0.019 C 
HETATM   13  C16 UNL     1      44.223  57.650   3.917  1.00  0.00     0.044 C 
HETATM   14  C17 UNL     1      43.823  58.102   2.526  1.00  0.00     0.181 C 
ENDROOT
BRANCH  11  15
HETATM   15  C13 UNL     1      44.880  57.304   8.301  1.00  0.00     0.195 C 
BRANCH  15  16
HETATM   16  O4  UNL     1      44.112  57.013   9.420  1.00  0.00    -0.276 OA
BRANCH  16  17
HETATM   17  S1  UNL     1      44.555  57.859  10.766  1.00  0.00     0.261 S 
HETATM   18  C14 UNL     1      45.767  59.080  10.302  1.00  0.00     0.194 C 
HETATM   19  O5  UNL     1      45.256  56.902  11.719  1.00  0.00    -0.199 OA
HETATM   20  O6  UNL     1      43.407  58.467  11.505  1.00  0.00    -0.199 OA
ENDBRANCH  16  17
ENDBRANCH  15  16
ENDBRANCH  11  15
BRANCH   5  21
HETATM   21  O3  UNL     1      47.659  57.029   5.060  1.00  0.00    -0.394 OA
ATOM     22  H3  UNL     1      47.886  56.201   5.467  1.00  0.00     0.210 HD
ENDBRANCH   5  21
BRANCH  14  23
HETATM   23  O7  UNL     1      44.490  59.272   2.246  1.00  0.00    -0.390 OA
ATOM     24  H7  UNL     1      44.000  60.009   2.590  1.00  0.00     0.210 HD
ENDBRANCH  14  23
BRANCH   1  25
HETATM   25  O1  UNL     1      43.318  56.021   1.593  1.00  0.00    -0.357 OA
BRANCH  25  26
HETATM   26  C3  UNL     1      42.266  56.238   0.702  1.00  0.00     0.170 C 
BRANCH  26  27
HETATM   27  C2  UNL     1      42.717  56.114  -0.736  1.00  0.00     0.022 C 
HETATM   28  C1  UNL     1      42.330  54.789  -1.336  1.00  0.00     0.007 C 
ENDBRANCH  26  27
ENDBRANCH  25  26
ENDBRANCH   1  25
TORSDOF 8
ENDMDL
MODEL 4
REMARK VINA RESULT: -6.958614761      3.734      6.963
REMARK  8 active torsions:
REMARK  status: ('A' for Active; 'I' for Inactive)
REMARK    1  A    between atoms: C2_2  and  C3_3 
REMARK    2  A    between atoms: C3_3  and  O1_4 
REMARK    3  A    between atoms: O1_4  and  C4_5 
REMARK    4  A    between atoms: C6_9  and  O3_10 
REMARK    5  A    between atoms: C12_17  and  C13_18 
REMARK    6  A    between atoms: C13_18  and  O4_19 
REMARK    7  A    between atoms: O4_19  and  S1_20 
REMARK    8  A    between atoms: C17_26  and  O7_27 
ROOT
HETATM    1  C4  UNL     1      43.046  57.594   5.084  1.00  0.00     0.312 C 
HETATM    2  O2  UNL     1      42.582  57.839   6.348  1.00  0.00    -0.251 OA
HETATM    3  N1  UNL     1      42.767  59.068   6.807  1.00  0.00    -0.090 NA
HETATM    4  C5  UNL     1      44.164  59.377   6.811  1.00  0.00     0.142 C 
HETATM    5  C6  UNL     1      44.545  60.609   7.541  1.00  0.00     0.141 C 
HETATM    6  C7  UNL     1      46.076  60.668   7.509  1.00  0.00     0.043 C 
HETATM    7  C8  UNL     1      46.476  60.985   6.094  1.00  0.00    -0.032 C 
HETATM    8  C9  UNL     1      47.971  61.088   5.947  1.00  0.00     0.010 C 
HETATM    9  C10 UNL     1      48.145  61.926   4.728  1.00  0.00     0.001 C 
HETATM   10  C11 UNL     1      46.841  62.553   4.381  1.00  0.00     0.007 C 
HETATM   11  C12 UNL     1      45.976  62.293   5.605  1.00  0.00     0.019 C 
HETATM   12  C15 UNL     1      46.033  59.853   5.206  1.00  0.00     0.019 C 
HETATM   13  C16 UNL     1      44.635  59.423   5.388  1.00  0.00     0.044 C 
HETATM   14  C17 UNL     1      44.484  58.007   4.867  1.00  0.00     0.181 C 
ENDROOT
BRANCH  11  15
HETATM   15  C13 UNL     1      46.152  63.444   6.529  1.00  0.00     0.195 C 
BRANCH  15  16
HETATM   16  O4  UNL     1      44.951  63.976   6.976  1.00  0.00    -0.276 OA
BRANCH  16  17
HETATM   17  S1  UNL     1      45.003  64.511   8.537  1.00  0.00     0.261 S 
HETATM   18  C14 UNL     1      46.702  64.554   9.071  1.00  0.00     0.194 C 
HETATM   19  O5  UNL     1      44.305  63.483   9.414  1.00  0.00    -0.199 OA
HETATM   20  O6  UNL     1      44.318  65.822   8.751  1.00  0.00    -0.199 OA
ENDBRANCH  16  17
ENDBRANCH  15  16
ENDBRANCH  11  15
BRANCH   5  21
HETATM   21  O3  UNL     1      44.129  60.488   8.868  1.00  0.00    -0.394 OA
ATOM     22  H3  UNL     1      44.013  61.358   9.230  1.00  0.00     0.210 HD
ENDBRANCH   5  21
BRANCH  14  23
HETATM   23  O7  UNL     1      45.316  57.190   5.596  1.00  0.00    -0.390 OA
ATOM     24  H7  UNL     1      46.135  57.071   5.130  1.00  0.00     0.210 HD
ENDBRANCH  14  23
BRANCH   1  25
HETATM   25  O1  UNL     1      42.290  58.139   4.075  1.00  0.00    -0.357 OA
BRANCH  25  26
HETATM   26  C3  UNL     1      42.754  57.782   2.808  1.00  0.00     0.170 C 
BRANCH  26  27
HETATM   27  C2  UNL     1      41.930  56.668   2.204  1.00  0.00     0.022 C 
HETATM   28  C1  UNL     1      42.395  56.308   0.819  1.00  0.00     0.007 C 
ENDBRANCH  26  27
ENDBRANCH  25  26
ENDBRANCH   1  25
TORSDOF 8
ENDMDL
MODEL 5
REMARK VINA RESULT: -6.918958332      3.459      7.390
REMARK  8 active torsions:
REMARK  status: ('A' for Active; 'I' for Inactive)
REMARK    1  A    between atoms: C2_2  and  C3_3 
REMARK    2  A    between atoms: C3_3  and  O1_4 
REMARK    3  A    between atoms: O1_4  and  C4_5 
REMARK    4  A    between atoms: C6_9  and  O3_10 
REMARK    5  A    between atoms: C12_17  and  C13_18 
REMARK    6  A    between atoms: C13_18  and  O4_19 
REMARK    7  A    between atoms: O4_19  and  S1_20 
REMARK    8  A    between atoms: C17_26  and  O7_27 
ROOT
HETATM    1  C4  UNL     1      43.592  57.828   6.658  1.00  0.00     0.312 C 
HETATM    2  O2  UNL     1      42.837  57.441   7.731  1.00  0.00    -0.251 OA
HETATM    3  N1  UNL     1      42.877  58.239   8.788  1.00  0.00    -0.090 NA
HETATM    4  C5  UNL     1      44.225  58.359   9.251  1.00  0.00     0.142 C 
HETATM    5  C6  UNL     1      44.392  59.002  10.576  1.00  0.00     0.141 C 
HETATM    6  C7  UNL     1      45.885  58.914  10.909  1.00  0.00     0.043 C 
HETATM    7  C8  UNL     1      46.599  59.865   9.987  1.00  0.00    -0.032 C 
HETATM    8  C9  UNL     1      48.084  59.876  10.240  1.00  0.00     0.010 C 
HETATM    9  C10 UNL     1      48.519  61.195   9.703  1.00  0.00     0.001 C 
HETATM   10  C11 UNL     1      47.318  62.041   9.461  1.00  0.00     0.007 C 
HETATM   11  C12 UNL     1      46.195  61.282  10.154  1.00  0.00     0.019 C 
HETATM   12  C15 UNL     1      46.408  59.395   8.571  1.00  0.00     0.019 C 
HETATM   13  C16 UNL     1      45.017  59.076   8.198  1.00  0.00     0.044 C 
HETATM   14  C17 UNL     1      45.029  58.146   7.001  1.00  0.00     0.181 C 
ENDROOT
BRANCH  11  15
HETATM   15  C13 UNL     1      46.120  61.778  11.554  1.00  0.00     0.195 C 
BRANCH  15  16
HETATM   16  O4  UNL     1      44.820  61.860  12.036  1.00  0.00    -0.276 OA
BRANCH  16  17
HETATM   17  S1  UNL     1      44.676  61.439  13.625  1.00  0.00     0.261 S 
HETATM   18  C14 UNL     1      46.250  60.838  14.204  1.00  0.00     0.194 C 
HETATM   19  O5  UNL     1      43.710  60.267  13.720  1.00  0.00    -0.199 OA
HETATM   20  O6  UNL     1      44.142  62.531  14.494  1.00  0.00    -0.199 OA
ENDBRANCH  16  17
ENDBRANCH  15  16
ENDBRANCH  11  15
BRANCH   5  21
HETATM   21  O3  UNL     1      43.678  58.265  11.522  1.00  0.00    -0.394 OA
ATOM     22  H3  UNL     1      43.100  58.854  11.993  1.00  0.00     0.210 HD
ENDBRANCH   5  21
BRANCH  14  23
HETATM   23  O7  UNL     1      45.687  56.993   7.358  1.00  0.00    -0.390 OA
ATOM     24  H7  UNL     1      46.470  56.894   6.831  1.00  0.00     0.210 HD
ENDBRANCH  14  23
BRANCH   1  25
HETATM   25  O1  UNL     1      43.082  58.885   5.942  1.00  0.00    -0.357 OA
BRANCH  25  26
HETATM   26  C3  UNL     1      43.224  58.715   4.565  1.00  0.00     0.170 C 
BRANCH  26  27
HETATM   27  C2  UNL     1      42.259  57.682   4.027  1.00  0.00     0.022 C 
HETATM   28  C1  UNL     1      42.618  57.246   2.632  1.00  0.00     0.007 C 
ENDBRANCH  26  27
ENDBRANCH  25  26
ENDBRANCH   1  25
TORSDOF 8
ENDMDL
