MODEL 1
REMARK VINA RESULT: -6.864550511      0.000      0.000
REMARK  7 active torsions:
REMARK  status: ('A' for Active; 'I' for Inactive)
REMARK    1  A    between atoms: C2_2  and  C3_3 
REMARK    2  A    between atoms: C3_3  and  C4_4 
REMARK    3  A    between atoms: C4_4  and  C5_5 
REMARK    4  A    between atoms: C5_5  and  C6_6 
REMARK    5  A    between atoms: N3_12  and  C9_13 
REMARK    6  A    between atoms: C10_15  and  C11_16 
REMARK    7  A    between atoms: C11_16  and  O2_18 
ROOT
HETATM    1  C9  UNL     1      44.641  57.748   4.258  1.00  0.00     0.258 C 
HETATM    2  O1  UNL     1      43.530  58.548   4.501  1.00  0.00    -0.355 OA
HETATM    3  C10 UNL     1      43.590  58.832   5.875  1.00  0.00     0.173 C 
HETATM    4  C13 UNL     1      44.985  58.509   6.350  1.00  0.00     0.177 C 
HETATM    5  C14 UNL     1      45.703  58.500   4.978  1.00  0.00     0.257 C 
HETATM    6  N4  UNL     1      45.729  59.909   4.650  1.00  0.00    -0.043 N 
ATOM      7  H41 UNL     1      44.796  60.310   4.556  1.00  0.00     0.279 HD
ATOM      8  H42 UNL     1      46.051  60.089   3.699  1.00  0.00     0.279 HD
HETATM    9  C15 UNL     1      46.527  60.578   5.643  1.00  0.00     0.221 C 
HETATM   10  C16 UNL     1      46.241  62.056   5.631  1.00  0.00     0.063 C 
HETATM   11  C17 UNL     1      47.986  60.280   5.561  1.00  0.00     0.063 C 
HETATM   12  S1  UNL     1      45.796  59.870   7.131  1.00  0.00     0.187 S 
HETATM   13  O3  UNL     1      44.811  60.794   7.744  1.00  0.00    -0.225 OA
HETATM   14  O4  UNL     1      46.852  59.407   8.080  1.00  0.00    -0.225 OA
ENDROOT
BRANCH   1  15
HETATM   15  N3  UNL     1      44.849  57.330   2.953  1.00  0.00    -0.321 N 
HETATM   16  C6  UNL     1      46.136  57.471   2.231  1.00  0.00     0.107 C 
HETATM   17  C7  UNL     1      45.616  57.846   0.861  1.00  0.00     0.147 C 
HETATM   18  N1  UNL     1      44.434  56.991   0.786  1.00  0.00    -0.362 N 
HETATM   19  C8  UNL     1      44.015  56.710   1.982  1.00  0.00     0.188 C 
ATOM     20  H1  UNL     1      44.001  56.664  -0.079  1.00  0.00     0.162 HD
HETATM   21  N2  UNL     1      42.893  55.906   2.322  1.00  0.00    -0.064 NA
BRANCH  16  22
HETATM   22  C5  UNL     1      46.736  56.075   2.244  1.00  0.00     0.027 C 
BRANCH  22  23
HETATM   23  C4  UNL     1      47.794  55.924   3.297  1.00  0.00     0.002 C 
BRANCH  23  24
HETATM   24  C3  UNL     1      48.839  56.990   3.134  1.00  0.00    -0.000 C 
BRANCH  24  25
HETATM   25  C2  UNL     1      49.741  57.164   4.332  1.00  0.00    -0.005 C 
HETATM   26  C1  UNL     1      50.490  55.866   4.608  1.00  0.00     0.005 C 
ENDBRANCH  24  25
ENDBRANCH  23  24
ENDBRANCH  22  23
ENDBRANCH  16  22
ENDBRANCH   1  15
BRANCH   3  27
HETATM   27  C11 UNL     1      42.616  57.982   6.661  1.00  0.00     0.144 C 
HETATM   28  C12 UNL     1      42.022  58.842   7.785  1.00  0.00     0.042 C 
BRANCH  27  29
HETATM   29  O2  UNL     1      43.366  56.991   7.294  1.00  0.00    -0.393 OA
ATOM     30  H2  UNL     1      43.872  57.422   7.973  1.00  0.00     0.210 HD
ENDBRANCH  27  29
ENDBRANCH   3  27
TORSDOF 7
ENDMDL
MODEL 2
REMARK VINA RESULT: -6.725842312      3.030      6.060
REMARK  7 active torsions:
REMARK  status: ('A' for Active; 'I' for Inactive)
REMARK    1  A    between atoms: C2_2  and  C3_3 
REMARK    2  A    between atoms: C3_3  and  C4_4 
REMARK    3  A    between atoms: C4_4  and  C5_5 
REMARK    4  A    between atoms: C5_5  and  C6_6 
REMARK    5  A    between atoms: N3_12  and  C9_13 
REMARK    6  A    between atoms: C10_15  and  C11_16 
REMARK    7  A    between atoms: C11_16  and  O2_18 
ROOT
HETATM    1  C9  UNL     1      44.625  58.661   6.514  1.00  0.00     0.258 C 
HETATM    2  O1  UNL     1      43.974  57.612   5.876  1.00  0.00    -0.355 OA
HETATM    3  C10 UNL     1      44.326  57.745   4.523  1.00  0.00     0.173 C 
HETATM    4  C13 UNL     1      45.521  58.661   4.447  1.00  0.00     0.177 C 
HETATM    5  C14 UNL     1      45.986  58.562   5.921  1.00  0.00     0.257 C 
HETATM    6  N4  UNL     1      46.534  57.224   5.968  1.00  0.00    -0.043 N 
ATOM      7  H41 UNL     1      45.839  56.505   5.769  1.00  0.00     0.279 HD
ATOM      8  H42 UNL     1      46.771  56.925   6.914  1.00  0.00     0.279 HD
HETATM    9  C15 UNL     1      47.658  57.177   5.070  1.00  0.00     0.221 C 
HETATM   10  C16 UNL     1      47.994  55.748   4.731  1.00  0.00     0.063 C 
HETATM   11  C17 UNL     1      48.848  57.945   5.536  1.00  0.00     0.063 C 
HETATM   12  S1  UNL     1      46.908  57.943   3.621  1.00  0.00     0.187 S 
HETATM   13  O3  UNL     1      46.470  56.926   2.634  1.00  0.00    -0.225 OA
HETATM   14  O4  UNL     1      47.804  58.990   3.044  1.00  0.00    -0.225 OA
ENDROOT
BRANCH   1  15
HETATM   15  N3  UNL     1      44.473  58.762   7.888  1.00  0.00    -0.321 N 
HETATM   16  C6  UNL     1      45.554  59.167   8.817  1.00  0.00     0.107 C 
HETATM   17  C7  UNL     1      45.269  58.223   9.963  1.00  0.00     0.147 C 
HETATM   18  N1  UNL     1      43.808  58.230   9.952  1.00  0.00    -0.362 N 
HETATM   19  C8  UNL     1      43.377  58.539   8.767  1.00  0.00     0.188 C 
ATOM     20  H1  UNL     1      43.215  58.023  10.756  1.00  0.00     0.162 HD
HETATM   21  N2  UNL     1      42.020  58.649   8.359  1.00  0.00    -0.064 NA
BRANCH  16  22
HETATM   22  C5  UNL     1      45.229  60.607   9.178  1.00  0.00     0.027 C 
BRANCH  22  23
HETATM   23  C4  UNL     1      46.095  61.585   8.440  1.00  0.00     0.002 C 
BRANCH  23  24
HETATM   24  C3  UNL     1      45.285  62.312   7.405  1.00  0.00    -0.000 C 
BRANCH  24  25
HETATM   25  C2  UNL     1      45.407  63.816   7.465  1.00  0.00    -0.005 C 
HETATM   26  C1  UNL     1      44.918  64.319   8.817  1.00  0.00     0.005 C 
ENDBRANCH  24  25
ENDBRANCH  23  24
ENDBRANCH  22  23
ENDBRANCH  16  22
ENDBRANCH   1  15
BRANCH   3  27
HETATM   27  C11 UNL     1      43.205  58.364   3.717  1.00  0.00     0.144 C 
HETATM   28  C12 UNL     1      42.111  57.306   3.517  1.00  0.00     0.042 C 
BRANCH  27  29
HETATM   29  O2  UNL     1      43.719  58.626   2.447  1.00  0.00    -0.393 OA
ATOM     30  H2  UNL     1      43.079  59.167   1.998  1.00  0.00     0.210 HD
ENDBRANCH  27  29
ENDBRANCH   3  27
TORSDOF 7
ENDMDL
MODEL 3
REMARK VINA RESULT: -6.709964785      3.078      5.814
REMARK  7 active torsions:
REMARK  status: ('A' for Active; 'I' for Inactive)
REMARK    1  A    between atoms: C2_2  and  C3_3 
REMARK    2  A    between atoms: C3_3  and  C4_4 
REMARK    3  A    between atoms: C4_4  and  C5_5 
REMARK    4  A    between atoms: C5_5  and  C6_6 
REMARK    5  A    between atoms: N3_12  and  C9_13 
REMARK    6  A    between atoms: C10_15  and  C11_16 
REMARK    7  A    between atoms: C11_16  and  O2_18 
ROOT
HETATM    1  C9  UNL     1      46.321  57.676   5.622  1.00  0.00     0.258 C 
HETATM    2  O1  UNL     1      47.594  58.019   6.063  1.00  0.00    -0.355 OA
HETATM    3  C10 UNL     1      48.465  57.429   5.132  1.00  0.00     0.173 C 
HETATM    4  C13 UNL     1      47.655  57.070   3.911  1.00  0.00     0.177 C 
HETATM    5  C14 UNL     1      46.426  57.977   4.170  1.00  0.00     0.257 C 
HETATM    6  N4  UNL     1      46.968  59.291   3.895  1.00  0.00    -0.043 N 
ATOM      7  H41 UNL     1      47.730  59.544   4.524  1.00  0.00     0.279 HD
ATOM      8  H42 UNL     1      46.328  60.044   4.148  1.00  0.00     0.279 HD
HETATM    9  C15 UNL     1      47.351  59.328   2.509  1.00  0.00     0.221 C 
HETATM   10  C16 UNL     1      48.305  60.467   2.264  1.00  0.00     0.063 C 
HETATM   11  C17 UNL     1      46.206  59.331   1.554  1.00  0.00     0.063 C 
HETATM   12  S1  UNL     1      48.276  57.784   2.419  1.00  0.00     0.187 S 
HETATM   13  O3  UNL     1      49.738  58.020   2.512  1.00  0.00    -0.225 OA
HETATM   14  O4  UNL     1      47.874  56.986   1.222  1.00  0.00    -0.225 OA
ENDROOT
BRANCH   1  15
HETATM   15  N3  UNL     1      45.245  58.154   6.354  1.00  0.00    -0.321 N 
HETATM   16  C6  UNL     1      44.309  59.196   5.871  1.00  0.00     0.107 C 
HETATM   17  C7  UNL     1      44.110  59.971   7.155  1.00  0.00     0.147 C 
HETATM   18  N1  UNL     1      44.088  58.876   8.121  1.00  0.00    -0.362 N 
HETATM   19  C8  UNL     1      44.736  57.855   7.648  1.00  0.00     0.188 C 
ATOM     20  H1  UNL     1      43.631  58.909   9.033  1.00  0.00     0.162 HD
HETATM   21  N2  UNL     1      44.935  56.604   8.291  1.00  0.00    -0.064 NA
BRANCH  16  22
HETATM   22  C5  UNL     1      43.057  58.432   5.474  1.00  0.00     0.027 C 
BRANCH  22  23
HETATM   23  C4  UNL     1      43.014  58.143   4.002  1.00  0.00     0.002 C 
BRANCH  23  24
HETATM   24  C3  UNL     1      41.907  57.174   3.699  1.00  0.00    -0.000 C 
BRANCH  24  25
HETATM   25  C2  UNL     1      41.927  56.629   2.292  1.00  0.00    -0.005 C 
HETATM   26  C1  UNL     1      43.254  56.969   1.625  1.00  0.00     0.005 C 
ENDBRANCH  24  25
ENDBRANCH  23  24
ENDBRANCH  22  23
ENDBRANCH  16  22
ENDBRANCH   1  15
BRANCH   3  27
HETATM   27  C11 UNL     1      49.083  56.161   5.677  1.00  0.00     0.144 C 
HETATM   28  C12 UNL     1      50.602  56.233   5.463  1.00  0.00     0.042 C 
BRANCH  27  29
HETATM   29  O2  UNL     1      48.634  55.115   4.871  1.00  0.00    -0.393 OA
ATOM     30  H2  UNL     1      49.170  55.123   4.087  1.00  0.00     0.210 HD
ENDBRANCH  27  29
ENDBRANCH   3  27
TORSDOF 7
ENDMDL
MODEL 4
REMARK VINA RESULT: -6.698399684      1.367      1.522
REMARK  7 active torsions:
REMARK  status: ('A' for Active; 'I' for Inactive)
REMARK    1  A    between atoms: C2_2  and  C3_3 
REMARK    2  A    between atoms: C3_3  and  C4_4 
REMARK    3  A    between atoms: C4_4  and  C5_5 
REMARK    4  A    between atoms: C5_5  and  C6_6 
REMARK    5  A    between atoms: N3_12  and  C9_13 
REMARK    6  A    between atoms: C10_15  and  C11_16 
REMARK    7  A    between atoms: C11_16  and  O2_18 
ROOT
HETATM    1  C9  UNL     1      44.623  58.316   5.289  1.00  0.00     0.258 C 
HETATM    2  O1  UNL     1      43.746  59.239   5.848  1.00  0.00    -0.355 OA
HETATM    3  C10 UNL     1      44.171  59.371   7.181  1.00  0.00     0.173 C 
HETATM    4  C13 UNL     1      45.565  58.804   7.276  1.00  0.00     0.177 C 
HETATM    5  C14 UNL     1      45.932  58.831   5.772  1.00  0.00     0.257 C 
HETATM    6  N4  UNL     1      46.112  60.248   5.538  1.00  0.00    -0.043 N 
ATOM      7  H41 UNL     1      45.262  60.786   5.703  1.00  0.00     0.279 HD
ATOM      8  H42 UNL     1      46.228  60.475   4.551  1.00  0.00     0.279 HD
HETATM    9  C15 UNL     1      47.218  60.690   6.346  1.00  0.00     0.221 C 
HETATM   10  C16 UNL     1      47.184  62.188   6.499  1.00  0.00     0.063 C 
HETATM   11  C17 UNL     1      48.548  60.196   5.888  1.00  0.00     0.063 C 
HETATM   12  S1  UNL     1      46.748  59.948   7.920  1.00  0.00     0.187 S 
HETATM   13  O3  UNL     1      46.098  60.937   8.814  1.00  0.00    -0.225 OA
HETATM   14  O4  UNL     1      47.906  59.244   8.547  1.00  0.00    -0.225 OA
ENDROOT
BRANCH   1  15
HETATM   15  N3  UNL     1      44.451  58.008   3.949  1.00  0.00    -0.321 N 
HETATM   16  C6  UNL     1      45.564  57.813   2.991  1.00  0.00     0.107 C 
HETATM   17  C7  UNL     1      44.972  58.490   1.775  1.00  0.00     0.147 C 
HETATM   18  N1  UNL     1      43.577  58.072   1.895  1.00  0.00    -0.362 N 
HETATM   19  C8  UNL     1      43.302  57.803   3.135  1.00  0.00     0.188 C 
ATOM     20  H1  UNL     1      42.917  58.003   1.120  1.00  0.00     0.162 HD
HETATM   21  N2  UNL     1      42.052  57.366   3.651  1.00  0.00    -0.064 NA
BRANCH  16  22
HETATM   22  C5  UNL     1      45.654  56.307   2.810  1.00  0.00     0.027 C 
BRANCH  22  23
HETATM   23  C4  UNL     1      47.068  55.844   2.618  1.00  0.00     0.002 C 
BRANCH  23  24
HETATM   24  C3  UNL     1      47.919  56.295   3.769  1.00  0.00    -0.000 C 
BRANCH  24  25
HETATM   25  C2  UNL     1      49.330  56.674   3.388  1.00  0.00    -0.005 C 
HETATM   26  C1  UNL     1      49.322  58.002   2.641  1.00  0.00     0.005 C 
ENDBRANCH  24  25
ENDBRANCH  23  24
ENDBRANCH  22  23
ENDBRANCH  16  22
ENDBRANCH   1  15
BRANCH   3  27
HETATM   27  C11 UNL     1      43.280  58.594   8.126  1.00  0.00     0.144 C 
HETATM   28  C12 UNL     1      41.822  58.978   7.841  1.00  0.00     0.042 C 
BRANCH  27  29
HETATM   29  O2  UNL     1      43.554  59.060   9.412  1.00  0.00    -0.393 OA
ATOM     30  H2  UNL     1      42.758  58.949   9.919  1.00  0.00     0.210 HD
ENDBRANCH  27  29
ENDBRANCH   3  27
TORSDOF 7
ENDMDL
MODEL 5
REMARK VINA RESULT: -6.607605502      2.761      3.974
REMARK  7 active torsions:
REMARK  status: ('A' for Active; 'I' for Inactive)
REMARK    1  A    between atoms: C2_2  and  C3_3 
REMARK    2  A    between atoms: C3_3  and  C4_4 
REMARK    3  A    between atoms: C4_4  and  C5_5 
REMARK    4  A    between atoms: C5_5  and  C6_6 
REMARK    5  A    between atoms: N3_12  and  C9_13 
REMARK    6  A    between atoms: C10_15  and  C11_16 
REMARK    7  A    between atoms: C11_16  and  O2_18 
ROOT
HETATM    1  C9  UNL     1      47.449  57.980   5.582  1.00  0.00     0.258 C 
HETATM    2  O1  UNL     1      46.415  58.615   4.903  1.00  0.00    -0.355 OA
HETATM    3  C10 UNL     1      45.452  58.881   5.890  1.00  0.00     0.173 C 
HETATM    4  C13 UNL     1      46.123  58.745   7.234  1.00  0.00     0.177 C 
HETATM    5  C14 UNL     1      47.597  58.858   6.773  1.00  0.00     0.257 C 
HETATM    6  N4  UNL     1      47.693  60.263   6.440  1.00  0.00    -0.043 N 
ATOM      7  H41 UNL     1      47.066  60.534   5.683  1.00  0.00     0.279 HD
ATOM      8  H42 UNL     1      48.572  60.502   5.980  1.00  0.00     0.279 HD
HETATM    9  C15 UNL     1      47.472  61.018   7.645  1.00  0.00     0.221 C 
HETATM   10  C16 UNL     1      47.120  62.443   7.309  1.00  0.00     0.063 C 
HETATM   11  C17 UNL     1      48.579  60.925   8.639  1.00  0.00     0.063 C 
HETATM   12  S1  UNL     1      45.985  60.191   8.240  1.00  0.00     0.187 S 
HETATM   13  O3  UNL     1      44.763  60.960   7.900  1.00  0.00    -0.225 OA
HETATM   14  O4  UNL     1      46.100  59.861   9.692  1.00  0.00    -0.225 OA
ENDROOT
BRANCH   1  15
HETATM   15  N3  UNL     1      48.565  57.618   4.844  1.00  0.00    -0.321 N 
HETATM   16  C6  UNL     1      49.017  58.322   3.621  1.00  0.00     0.107 C 
HETATM   17  C7  UNL     1      49.448  57.133   2.790  1.00  0.00     0.147 C 
HETATM   18  N1  UNL     1      50.045  56.293   3.825  1.00  0.00    -0.362 N 
HETATM   19  C8  UNL     1      49.532  56.584   4.982  1.00  0.00     0.188 C 
ATOM     20  H1  UNL     1      50.760  55.583   3.663  1.00  0.00     0.162 HD
HETATM   21  N2  UNL     1      49.856  55.985   6.229  1.00  0.00    -0.064 NA
BRANCH  16  22
HETATM   22  C5  UNL     1      50.206  59.153   4.074  1.00  0.00     0.027 C 
BRANCH  22  23
HETATM   23  C4  UNL     1      50.265  60.481   3.379  1.00  0.00     0.002 C 
BRANCH  23  24
HETATM   24  C3  UNL     1      50.260  61.593   4.389  1.00  0.00    -0.000 C 
BRANCH  24  25
HETATM   25  C2  UNL     1      51.346  61.488   5.432  1.00  0.00    -0.005 C 
HETATM   26  C1  UNL     1      51.155  62.572   6.486  1.00  0.00     0.005 C 
ENDBRANCH  24  25
ENDBRANCH  23  24
ENDBRANCH  22  23
ENDBRANCH  16  22
ENDBRANCH   1  15
BRANCH   3  27
HETATM   27  C11 UNL     1      44.309  57.892   5.831  1.00  0.00     0.144 C 
HETATM   28  C12 UNL     1      42.991  58.666   5.967  1.00  0.00     0.042 C 
BRANCH  27  29
HETATM   29  O2  UNL     1      44.405  57.097   6.973  1.00  0.00    -0.393 OA
ATOM     30  H2  UNL     1      43.772  57.435   7.596  1.00  0.00     0.210 HD
ENDBRANCH  27  29
ENDBRANCH   3  27
TORSDOF 7
ENDMDL
