MODEL 1
REMARK VINA RESULT: -6.581179734      0.000      0.000
REMARK  10 active torsions:
REMARK  status: ('A' for Active; 'I' for Inactive)
REMARK    1  A    between atoms: O1_2  and  C2_3 
REMARK    2  A    between atoms: C2_3  and  C3_4 
REMARK    3  A    between atoms: C3_4  and  C4_5 
REMARK    4  A    between atoms: C3_4  and  C7_9 
REMARK    5  A    between atoms: C4_5  and  O2_7 
REMARK    6  A    between atoms: C9_11  and  C10_12 
REMARK    7  A    between atoms: C10_12  and  C11_14 
REMARK    8  A    between atoms: C11_14  and  O4_15 
REMARK    9  A    between atoms: C14_19  and  O5_20 
REMARK   10  A    between atoms: C19_27  and  O7_29 
ROOT
HETATM    1  C7  UNL     1      46.180  60.015   5.491  1.00  0.00     0.008 C 
HETATM    2  C8  UNL     1      45.862  61.365   4.814  1.00  0.00     0.020 C 
HETATM    3  C9  UNL     1      45.852  60.242   6.954  1.00  0.00     0.104 C 
HETATM    4  C12 UNL     1      44.615  59.505   7.299  1.00  0.00     0.085 C 
HETATM    5  C13 UNL     1      44.823  58.225   8.052  1.00  0.00     0.077 C 
HETATM    6  C14 UNL     1      43.757  58.288   9.170  1.00  0.00     0.186 C 
HETATM    7  C15 UNL     1      42.794  59.077   8.342  1.00  0.00     0.218 A 
HETATM    8  O6  UNL     1      41.541  58.907   8.048  1.00  0.00    -0.340 OA
HETATM    9  C16 UNL     1      42.324  58.195   7.214  1.00  0.00     0.191 A 
HETATM   10  C17 UNL     1      42.788  58.567   5.870  1.00  0.00     0.048 C 
HETATM   11  C18 UNL     1      44.004  59.365   5.946  1.00  0.00     0.059 C 
HETATM   12  C19 UNL     1      45.160  59.044   5.019  1.00  0.00     0.069 C 
HETATM   13  C20 UNL     1      44.535  59.193   3.683  1.00  0.00     0.047 C 
HETATM   14  O8  UNL     1      43.619  60.126   8.005  1.00  0.00    -0.338 OA
ENDROOT
BRANCH   1  15
HETATM   15  C3  UNL     1      47.612  59.779   5.176  1.00  0.00     0.050 C 
BRANCH  15  16
HETATM   16  C2  UNL     1      48.335  59.202   6.374  1.00  0.00     0.175 C 
BRANCH  16  17
HETATM   17  O1  UNL     1      48.404  57.815   6.420  1.00  0.00    -0.395 OA
HETATM   18  C1  UNL     1      49.253  57.259   5.512  1.00  0.00     0.201 C 
ENDBRANCH  16  17
ENDBRANCH  15  16
BRANCH  15  19
HETATM   19  C4  UNL     1      48.504  60.691   4.510  1.00  0.00     0.123 C 
HETATM   20  C5  UNL     1      49.704  61.002   5.451  1.00  0.00     0.040 C 
BRANCH  19  21
HETATM   21  O2  UNL     1      49.106  60.485   3.330  1.00  0.00    -0.391 OA
HETATM   22  C6  UNL     1      48.517  59.517   2.578  1.00  0.00     0.202 C 
ENDBRANCH  19  21
ENDBRANCH  15  19
ENDBRANCH   1  15
BRANCH   3  23
HETATM   23  C10 UNL     1      45.745  61.648   7.397  1.00  0.00     0.158 C 
HETATM   24  O3  UNL     1      45.299  62.539   6.648  1.00  0.00    -0.295 OA
BRANCH  23  25
HETATM   25  C11 UNL     1      46.133  62.177   8.733  1.00  0.00     0.242 C 
BRANCH  25  26
HETATM   26  O4  UNL     1      45.149  61.897   9.707  1.00  0.00    -0.394 OA
ATOM     27  H4  UNL     1      45.523  61.457  10.462  1.00  0.00     0.209 HD
ENDBRANCH  25  26
ENDBRANCH  23  25
ENDBRANCH   3  23
BRANCH  12  28
HETATM   28  O7  UNL     1      45.603  57.719   5.223  1.00  0.00    -0.389 OA
ATOM     29  H7  UNL     1      44.878  57.160   5.478  1.00  0.00     0.210 HD
ENDBRANCH  12  28
BRANCH   6  30
HETATM   30  O5  UNL     1      44.206  59.014  10.251  1.00  0.00    -0.390 OA
ATOM     31  H5  UNL     1      43.759  58.759  11.050  1.00  0.00     0.210 HD
ENDBRANCH   6  30
TORSDOF 10
ENDMDL
MODEL 2
REMARK VINA RESULT: -6.499724227      2.194      4.296
REMARK  10 active torsions:
REMARK  status: ('A' for Active; 'I' for Inactive)
REMARK    1  A    between atoms: O1_2  and  C2_3 
REMARK    2  A    between atoms: C2_3  and  C3_4 
REMARK    3  A    between atoms: C3_4  and  C4_5 
REMARK    4  A    between atoms: C3_4  and  C7_9 
REMARK    5  A    between atoms: C4_5  and  O2_7 
REMARK    6  A    between atoms: C9_11  and  C10_12 
REMARK    7  A    between atoms: C10_12  and  C11_14 
REMARK    8  A    between atoms: C11_14  and  O4_15 
REMARK    9  A    between atoms: C14_19  and  O5_20 
REMARK   10  A    between atoms: C19_27  and  O7_29 
ROOT
HETATM    1  C7  UNL     1      46.477  58.575   3.944  1.00  0.00     0.008 C 
HETATM    2  C8  UNL     1      47.909  59.142   3.849  1.00  0.00     0.020 C 
HETATM    3  C9  UNL     1      46.532  57.611   5.114  1.00  0.00     0.104 C 
HETATM    4  C12 UNL     1      45.795  58.191   6.261  1.00  0.00     0.085 C 
HETATM    5  C13 UNL     1      44.426  57.623   6.492  1.00  0.00     0.077 C 
HETATM    6  C14 UNL     1      44.383  57.403   8.022  1.00  0.00     0.186 C 
HETATM    7  C15 UNL     1      45.297  58.551   8.312  1.00  0.00     0.218 A 
HETATM    8  O6  UNL     1      45.202  59.571   9.108  1.00  0.00    -0.340 OA
HETATM    9  C16 UNL     1      44.575  59.820   7.942  1.00  0.00     0.191 A 
HETATM   10  C17 UNL     1      45.096  60.538   6.770  1.00  0.00     0.048 C 
HETATM   11  C18 UNL     1      45.841  59.637   5.902  1.00  0.00     0.059 C 
HETATM   12  C19 UNL     1      45.602  59.683   4.406  1.00  0.00     0.069 C 
HETATM   13  C20 UNL     1      45.933  61.092   4.083  1.00  0.00     0.047 C 
HETATM   14  O8  UNL     1      46.354  58.183   7.512  1.00  0.00    -0.338 OA
ENDROOT
BRANCH   1  15
HETATM   15  C3  UNL     1      46.238  57.964   2.611  1.00  0.00     0.050 C 
BRANCH  15  16
HETATM   16  C2  UNL     1      45.537  56.630   2.752  1.00  0.00     0.175 C 
BRANCH  16  17
HETATM   17  O1  UNL     1      44.150  56.685   2.794  1.00  0.00    -0.395 OA
HETATM   18  C1  UNL     1      43.559  57.017   1.613  1.00  0.00     0.201 C 
ENDBRANCH  16  17
ENDBRANCH  15  16
BRANCH  15  19
HETATM   19  C4  UNL     1      47.188  57.860   1.535  1.00  0.00     0.123 C 
HETATM   20  C5  UNL     1      47.279  56.374   1.082  1.00  0.00     0.040 C 
BRANCH  19  21
HETATM   21  O2  UNL     1      47.131  58.517   0.368  1.00  0.00    -0.391 OA
HETATM   22  C6  UNL     1      46.337  59.620   0.399  1.00  0.00     0.202 C 
ENDBRANCH  19  21
ENDBRANCH  15  19
ENDBRANCH   1  15
BRANCH   3  23
HETATM   23  C10 UNL     1      47.875  57.170   5.545  1.00  0.00     0.158 C 
HETATM   24  O3  UNL     1      48.579  57.861   6.307  1.00  0.00    -0.295 OA
BRANCH  23  25
HETATM   25  C11 UNL     1      48.548  55.902   5.151  1.00  0.00     0.242 C 
BRANCH  25  26
HETATM   26  O4  UNL     1      49.548  55.537   6.079  1.00  0.00    -0.394 OA
ATOM     27  H4  UNL     1      49.523  54.607   6.271  1.00  0.00     0.209 HD
ENDBRANCH  25  26
ENDBRANCH  23  25
ENDBRANCH   3  23
BRANCH  12  28
HETATM   28  O7  UNL     1      44.250  59.404   4.112  1.00  0.00    -0.389 OA
ATOM     29  H7  UNL     1      44.057  59.603   3.204  1.00  0.00     0.210 HD
ENDBRANCH  12  28
BRANCH   6  30
HETATM   30  O5  UNL     1      44.957  56.200   8.372  1.00  0.00    -0.390 OA
ATOM     31  H5  UNL     1      44.374  55.472   8.188  1.00  0.00     0.210 HD
ENDBRANCH   6  30
TORSDOF 10
ENDMDL
MODEL 3
REMARK VINA RESULT: -6.398108241      1.101      1.178
REMARK  10 active torsions:
REMARK  status: ('A' for Active; 'I' for Inactive)
REMARK    1  A    between atoms: O1_2  and  C2_3 
REMARK    2  A    between atoms: C2_3  and  C3_4 
REMARK    3  A    between atoms: C3_4  and  C4_5 
REMARK    4  A    between atoms: C3_4  and  C7_9 
REMARK    5  A    between atoms: C4_5  and  O2_7 
REMARK    6  A    between atoms: C9_11  and  C10_12 
REMARK    7  A    between atoms: C10_12  and  C11_14 
REMARK    8  A    between atoms: C11_14  and  O4_15 
REMARK    9  A    between atoms: C14_19  and  O5_20 
REMARK   10  A    between atoms: C19_27  and  O7_29 
ROOT
HETATM    1  C7  UNL     1      46.232  59.218   4.897  1.00  0.00     0.008 C 
HETATM    2  C8  UNL     1      46.009  60.422   3.957  1.00  0.00     0.020 C 
HETATM    3  C9  UNL     1      46.148  59.809   6.291  1.00  0.00     0.104 C 
HETATM    4  C12 UNL     1      44.883  59.379   6.930  1.00  0.00     0.085 C 
HETATM    5  C13 UNL     1      45.020  58.277   7.938  1.00  0.00     0.077 C 
HETATM    6  C14 UNL     1      44.141  58.757   9.116  1.00  0.00     0.186 C 
HETATM    7  C15 UNL     1      43.187  59.495   8.232  1.00  0.00     0.218 A 
HETATM    8  O6  UNL     1      41.894  59.474   8.122  1.00  0.00    -0.340 OA
HETATM    9  C16 UNL     1      42.447  58.479   7.401  1.00  0.00     0.191 A 
HETATM   10  C17 UNL     1      42.762  58.468   5.966  1.00  0.00     0.048 C 
HETATM   11  C18 UNL     1      44.074  59.051   5.722  1.00  0.00     0.059 C 
HETATM   12  C19 UNL     1      45.033  58.350   4.780  1.00  0.00     0.069 C 
HETATM   13  C20 UNL     1      44.251  58.305   3.520  1.00  0.00     0.047 C 
HETATM   14  O8  UNL     1      44.091  60.294   7.571  1.00  0.00    -0.338 OA
ENDROOT
BRANCH   1  15
HETATM   15  C3  UNL     1      47.560  58.685   4.496  1.00  0.00     0.050 C 
BRANCH  15  16
HETATM   16  C2  UNL     1      48.460  58.530   5.703  1.00  0.00     0.175 C 
BRANCH  16  17
HETATM   17  O1  UNL     1      48.660  57.225   6.135  1.00  0.00    -0.395 OA
HETATM   18  C1  UNL     1      49.739  56.604   5.584  1.00  0.00     0.201 C 
ENDBRANCH  16  17
ENDBRANCH  15  16
BRANCH  15  19
HETATM   19  C4  UNL     1      48.365  59.135   3.392  1.00  0.00     0.123 C 
HETATM   20  C5  UNL     1      49.637  59.839   3.946  1.00  0.00     0.040 C 
BRANCH  19  21
HETATM   21  O2  UNL     1      48.862  58.365   2.413  1.00  0.00    -0.391 OA
HETATM   22  C6  UNL     1      48.158  57.220   2.209  1.00  0.00     0.202 C 
ENDBRANCH  19  21
ENDBRANCH  15  19
ENDBRANCH   1  15
BRANCH   3  23
HETATM   23  C10 UNL     1      46.298  61.275   6.398  1.00  0.00     0.158 C 
HETATM   24  O3  UNL     1      45.750  62.050   5.589  1.00  0.00    -0.295 OA
BRANCH  23  25
HETATM   25  C11 UNL     1      47.082  62.002   7.432  1.00  0.00     0.242 C 
BRANCH  25  26
HETATM   26  O4  UNL     1      46.516  61.846   8.717  1.00  0.00    -0.394 OA
ATOM     27  H4  UNL     1      47.074  62.217   9.391  1.00  0.00     0.209 HD
ENDBRANCH  25  26
ENDBRANCH  23  25
ENDBRANCH   3  23
BRANCH  12  28
HETATM   28  O7  UNL     1      45.315  57.046   5.242  1.00  0.00    -0.389 OA
ATOM     29  H7  UNL     1      44.518  56.609   5.517  1.00  0.00     0.210 HD
ENDBRANCH  12  28
BRANCH   6  30
HETATM   30  O5  UNL     1      44.833  59.616   9.941  1.00  0.00    -0.390 OA
ATOM     31  H5  UNL     1      44.309  59.874  10.690  1.00  0.00     0.210 HD
ENDBRANCH   6  30
TORSDOF 10
ENDMDL
MODEL 4
REMARK VINA RESULT: -6.224200171      2.112      5.964
REMARK  10 active torsions:
REMARK  status: ('A' for Active; 'I' for Inactive)
REMARK    1  A    between atoms: O1_2  and  C2_3 
REMARK    2  A    between atoms: C2_3  and  C3_4 
REMARK    3  A    between atoms: C3_4  and  C4_5 
REMARK    4  A    between atoms: C3_4  and  C7_9 
REMARK    5  A    between atoms: C4_5  and  O2_7 
REMARK    6  A    between atoms: C9_11  and  C10_12 
REMARK    7  A    between atoms: C10_12  and  C11_14 
REMARK    8  A    between atoms: C11_14  and  O4_15 
REMARK    9  A    between atoms: C14_19  and  O5_20 
REMARK   10  A    between atoms: C19_27  and  O7_29 
ROOT
HETATM    1  C7  UNL     1      45.980  59.374   5.798  1.00  0.00     0.008 C 
HETATM    2  C8  UNL     1      45.702  60.811   5.308  1.00  0.00     0.020 C 
HETATM    3  C9  UNL     1      45.620  58.497   4.613  1.00  0.00     0.104 C 
HETATM    4  C12 UNL     1      46.860  57.951   4.014  1.00  0.00     0.085 C 
HETATM    5  C13 UNL     1      47.157  56.521   4.355  1.00  0.00     0.077 C 
HETATM    6  C14 UNL     1      47.568  55.906   2.998  1.00  0.00     0.186 C 
HETATM    7  C15 UNL     1      48.144  57.186   2.481  1.00  0.00     0.218 A 
HETATM    8  O6  UNL     1      49.294  57.485   1.958  1.00  0.00    -0.340 OA
HETATM    9  C16 UNL     1      49.364  57.509   3.303  1.00  0.00     0.191 A 
HETATM   10  C17 UNL     1      49.249  58.671   4.196  1.00  0.00     0.048 C 
HETATM   11  C18 UNL     1      47.853  58.950   4.502  1.00  0.00     0.059 C 
HETATM   12  C19 UNL     1      47.453  59.241   5.935  1.00  0.00     0.069 C 
HETATM   13  C20 UNL     1      48.292  60.420   6.257  1.00  0.00     0.047 C 
HETATM   14  O8  UNL     1      47.045  57.995   2.658  1.00  0.00    -0.338 OA
ENDROOT
BRANCH   1  15
HETATM   15  C3  UNL     1      45.119  59.227   6.999  1.00  0.00     0.050 C 
BRANCH  15  16
HETATM   16  C2  UNL     1      44.509  57.842   7.054  1.00  0.00     0.175 C 
BRANCH  16  17
HETATM   17  O1  UNL     1      45.173  56.928   7.861  1.00  0.00    -0.395 OA
HETATM   18  C1  UNL     1      44.654  56.796   9.113  1.00  0.00     0.201 C 
ENDBRANCH  16  17
ENDBRANCH  15  16
BRANCH  15  19
HETATM   19  C4  UNL     1      44.137  60.168   7.469  1.00  0.00     0.123 C 
HETATM   20  C5  UNL     1      42.774  59.436   7.639  1.00  0.00     0.040 C 
BRANCH  19  21
HETATM   21  O2  UNL     1      44.218  60.896   8.592  1.00  0.00    -0.391 OA
HETATM   22  C6  UNL     1      45.438  60.846   9.189  1.00  0.00     0.202 C 
ENDBRANCH  19  21
ENDBRANCH  15  19
ENDBRANCH   1  15
BRANCH   3  23
HETATM   23  C10 UNL     1      44.780  59.113   3.566  1.00  0.00     0.158 C 
HETATM   24  O3  UNL     1      43.579  58.810   3.426  1.00  0.00    -0.295 OA
BRANCH  23  25
HETATM   25  C11 UNL     1      45.221  60.134   2.577  1.00  0.00     0.242 C 
BRANCH  25  26
HETATM   26  O4  UNL     1      45.161  59.637   1.257  1.00  0.00    -0.394 OA
ATOM     27  H4  UNL     1      44.619  58.858   1.202  1.00  0.00     0.209 HD
ENDBRANCH  25  26
ENDBRANCH  23  25
ENDBRANCH   3  23
BRANCH  12  28
HETATM   28  O7  UNL     1      47.778  58.150   6.770  1.00  0.00    -0.389 OA
ATOM     29  H7  UNL     1      48.522  58.361   7.322  1.00  0.00     0.210 HD
ENDBRANCH  12  28
BRANCH   6  30
HETATM   30  O5  UNL     1      46.465  55.518   2.269  1.00  0.00    -0.390 OA
ATOM     31  H5  UNL     1      45.751  56.137   2.365  1.00  0.00     0.210 HD
ENDBRANCH   6  30
TORSDOF 10
ENDMDL
MODEL 5
REMARK VINA RESULT: -6.083733829      1.203      1.998
REMARK  10 active torsions:
REMARK  status: ('A' for Active; 'I' for Inactive)
REMARK    1  A    between atoms: O1_2  and  C2_3 
REMARK    2  A    between atoms: C2_3  and  C3_4 
REMARK    3  A    between atoms: C3_4  and  C4_5 
REMARK    4  A    between atoms: C3_4  and  C7_9 
REMARK    5  A    between atoms: C4_5  and  O2_7 
REMARK    6  A    between atoms: C9_11  and  C10_12 
REMARK    7  A    between atoms: C10_12  and  C11_14 
REMARK    8  A    between atoms: C11_14  and  O4_15 
REMARK    9  A    between atoms: C14_19  and  O5_20 
REMARK   10  A    between atoms: C19_27  and  O7_29 
ROOT
HETATM    1  C7  UNL     1      46.732  59.495   6.233  1.00  0.00     0.008 C 
HETATM    2  C8  UNL     1      46.576  60.766   5.371  1.00  0.00     0.020 C 
HETATM    3  C9  UNL     1      46.148  59.880   7.579  1.00  0.00     0.104 C 
HETATM    4  C12 UNL     1      44.851  59.189   7.765  1.00  0.00     0.085 C 
HETATM    5  C13 UNL     1      44.888  57.997   8.674  1.00  0.00     0.077 C 
HETATM    6  C14 UNL     1      43.637  58.184   9.564  1.00  0.00     0.186 C 
HETATM    7  C15 UNL     1      42.861  58.884   8.494  1.00  0.00     0.218 A 
HETATM    8  O6  UNL     1      41.679  58.688   7.995  1.00  0.00    -0.340 OA
HETATM    9  C16 UNL     1      42.584  57.888   7.398  1.00  0.00     0.191 A 
HETATM   10  C17 UNL     1      43.294  58.111   6.131  1.00  0.00     0.048 C 
HETATM   11  C18 UNL     1      44.494  58.907   6.346  1.00  0.00     0.059 C 
HETATM   12  C19 UNL     1      45.792  58.483   5.686  1.00  0.00     0.069 C 
HETATM   13  C20 UNL     1      45.425  58.490   4.250  1.00  0.00     0.047 C 
HETATM   14  O8  UNL     1      43.758  59.887   8.207  1.00  0.00    -0.338 OA
ENDROOT
BRANCH   1  15
HETATM   15  C3  UNL     1      48.191  59.220   6.214  1.00  0.00     0.050 C 
BRANCH  15  16
HETATM   16  C2  UNL     1      48.971  60.487   5.934  1.00  0.00     0.175 C 
BRANCH  16  17
HETATM   17  O1  UNL     1      49.434  61.164   7.055  1.00  0.00    -0.395 OA
HETATM   18  C1  UNL     1      49.522  62.515   6.905  1.00  0.00     0.201 C 
ENDBRANCH  16  17
ENDBRANCH  15  16
BRANCH  15  19
HETATM   19  C4  UNL     1      48.848  58.131   5.539  1.00  0.00     0.123 C 
HETATM   20  C5  UNL     1      50.085  58.683   4.772  1.00  0.00     0.040 C 
BRANCH  19  21
HETATM   21  O2  UNL     1      49.335  57.024   6.118  1.00  0.00    -0.391 OA
HETATM   22  C6  UNL     1      50.362  56.456   5.432  1.00  0.00     0.202 C 
ENDBRANCH  19  21
ENDBRANCH  15  19
ENDBRANCH   1  15
BRANCH   3  23
HETATM   23  C10 UNL     1      45.996  61.325   7.844  1.00  0.00     0.158 C 
HETATM   24  O3  UNL     1      45.594  62.114   6.966  1.00  0.00    -0.295 OA
BRANCH  23  25
HETATM   25  C11 UNL     1      46.284  62.014   9.132  1.00  0.00     0.242 C 
BRANCH  25  26
HETATM   26  O4  UNL     1      45.336  61.676  10.123  1.00  0.00    -0.394 OA
ATOM     27  H4  UNL     1      45.706  61.089  10.773  1.00  0.00     0.209 HD
ENDBRANCH  25  26
ENDBRANCH  23  25
ENDBRANCH   3  23
BRANCH  12  28
HETATM   28  O7  UNL     1      46.158  57.186   6.106  1.00  0.00    -0.389 OA
ATOM     29  H7  UNL     1      47.075  57.021   5.918  1.00  0.00     0.210 HD
ENDBRANCH  12  28
BRANCH   6  30
HETATM   30  O5  UNL     1      43.899  59.021  10.627  1.00  0.00    -0.390 OA
ATOM     31  H5  UNL     1      43.593  58.647  11.445  1.00  0.00     0.210 HD
ENDBRANCH   6  30
TORSDOF 10
ENDMDL
