MODEL 1
REMARK VINA RESULT: -7.487301389      0.000      0.000
REMARK  14 active torsions:
REMARK  status: ('A' for Active; 'I' for Inactive)
REMARK    1  A    between atoms: C2_2  and  C3_3 
REMARK    2  A    between atoms: C3_3  and  O1_4 
REMARK    3  A    between atoms: O1_4  and  C4_5 
REMARK    4  A    between atoms: C4_5  and  C5_6 
REMARK    5  A    between atoms: C4_5  and  C13_18 
REMARK    6  A    between atoms: C5_6  and  O2_7 
REMARK    7  A    between atoms: C5_6  and  C6_9 
REMARK    8  A    between atoms: C6_9  and  C8_11 
REMARK    9  A    between atoms: C8_11  and  O3_12 
REMARK   10  A    between atoms: C8_11  and  C9_14 
REMARK   11  A    between atoms: C21_26  and  O4_27 
REMARK   12  A    between atoms: C21_26  and  C24_31 
REMARK   13  A    between atoms: O4_27  and  C22_28 
REMARK   14  A    between atoms: C25_34  and  N1_35 
ROOT
HETATM    1  C13 UNL     1      18.122  24.608  17.241  1.00  0.00    -0.038 C 
HETATM    2  C14 UNL     1      18.712  23.342  16.775  1.00  0.00    -0.060 C 
HETATM    3  C15 UNL     1      18.901  22.104  17.567  1.00  0.00     0.048 C 
HETATM    4  C16 UNL     1      19.145  23.378  15.489  1.00  0.00    -0.019 C 
HETATM    5  C17 UNL     1      18.969  24.645  14.769  1.00  0.00     0.035 C 
HETATM    6  C18 UNL     1      19.379  25.857  15.556  1.00  0.00     0.032 C 
HETATM    7  C19 UNL     1      19.103  25.686  17.072  1.00  0.00     0.028 C 
HETATM    8  C20 UNL     1      20.469  25.424  17.593  1.00  0.00     0.062 C 
HETATM    9  C21 UNL     1      21.432  26.304  16.781  1.00  0.00     0.187 C 
HETATM   10  C25 UNL     1      20.808  26.257  15.434  1.00  0.00     0.239 C 
ENDROOT
BRANCH   1  11
HETATM   11  C4  UNL     1      17.237  24.535  18.435  1.00  0.00     0.180 C 
BRANCH  11  12
HETATM   12  O1  UNL     1      17.999  23.726  19.316  1.00  0.00    -0.375 OA
BRANCH  12  13
HETATM   13  C3  UNL     1      18.253  24.176  20.547  1.00  0.00     0.195 C 
BRANCH  13  14
HETATM   14  C2  UNL     1      19.682  23.770  20.892  1.00  0.00    -0.011 C 
HETATM   15  C1  UNL     1      20.596  24.632  21.216  1.00  0.00     0.009 C 
ENDBRANCH  13  14
ENDBRANCH  12  13
ENDBRANCH  11  12
BRANCH  11  16
HETATM   16  C5  UNL     1      15.923  23.797  18.119  1.00  0.00     0.158 C 
BRANCH  16  17
HETATM   17  O2  UNL     1      14.806  24.474  18.591  1.00  0.00    -0.392 OA
ATOM     18  H2  UNL     1      14.519  25.160  18.001  1.00  0.00     0.210 HD
ENDBRANCH  16  17
BRANCH  16  19
HETATM   19  C6  UNL     1      15.898  22.357  18.308  1.00  0.00     0.046 C 
HETATM   20  C7  UNL     1      15.179  22.025  19.678  1.00  0.00     0.015 C 
BRANCH  19  21
HETATM   21  C8  UNL     1      15.084  21.482  17.382  1.00  0.00     0.152 C 
BRANCH  21  22
HETATM   22  O3  UNL     1      13.744  21.625  17.952  1.00  0.00    -0.391 OA
ATOM     23  H3  UNL     1      13.198  21.462  17.192  1.00  0.00     0.210 HD
ENDBRANCH  21  22
BRANCH  21  24
HETATM   24  C9  UNL     1      14.960  22.012  15.993  1.00  0.00    -0.059 C 
HETATM   25  C10 UNL     1      13.878  22.884  15.507  1.00  0.00     0.046 C 
HETATM   26  C11 UNL     1      15.890  21.689  15.065  1.00  0.00    -0.026 C 
HETATM   27  C12 UNL     1      15.806  22.188  13.687  1.00  0.00     0.036 C 
ENDBRANCH  21  24
ENDBRANCH  19  21
ENDBRANCH  16  19
ENDBRANCH  11  16
ENDBRANCH   1  11
BRANCH  10  28
HETATM   28  N1  UNL     1      21.071  27.289  14.509  1.00  0.00    -0.070 N 
HETATM   29  C26 UNL     1      20.016  28.320  14.678  1.00  0.00     0.272 C 
HETATM   30  C27 UNL     1      22.301  27.990  14.560  1.00  0.00     0.272 C 
HETATM   31  C28 UNL     1      20.777  26.867  13.121  1.00  0.00     0.272 C 
ENDBRANCH  10  28
BRANCH   9  32
HETATM   32  O4  UNL     1      22.754  25.922  16.889  1.00  0.00    -0.297 OA
BRANCH  32  33
HETATM   33  C22 UNL     1      23.686  26.151  17.841  1.00  0.00     0.256 C 
HETATM   34  C23 UNL     1      23.631  25.505  19.191  1.00  0.00     0.126 C 
HETATM   35  O5  UNL     1      24.598  26.928  17.544  1.00  0.00    -0.266 OA
ENDBRANCH  32  33
ENDBRANCH   9  32
BRANCH   9  36
HETATM   36  C24 UNL     1      21.376  27.628  17.484  1.00  0.00     0.212 C 
HETATM   37  O6  UNL     1      21.861  28.694  17.052  1.00  0.00    -0.646 OA
HETATM   38  O7  UNL     1      20.765  27.819  18.721  1.00  0.00    -0.646 OA
ENDBRANCH   9  36
TORSDOF 14
ENDMDL
MODEL 2
REMARK VINA RESULT: -7.477949877      2.418      7.709
REMARK  14 active torsions:
REMARK  status: ('A' for Active; 'I' for Inactive)
REMARK    1  A    between atoms: C2_2  and  C3_3 
REMARK    2  A    between atoms: C3_3  and  O1_4 
REMARK    3  A    between atoms: O1_4  and  C4_5 
REMARK    4  A    between atoms: C4_5  and  C5_6 
REMARK    5  A    between atoms: C4_5  and  C13_18 
REMARK    6  A    between atoms: C5_6  and  O2_7 
REMARK    7  A    between atoms: C5_6  and  C6_9 
REMARK    8  A    between atoms: C6_9  and  C8_11 
REMARK    9  A    between atoms: C8_11  and  O3_12 
REMARK   10  A    between atoms: C8_11  and  C9_14 
REMARK   11  A    between atoms: C21_26  and  O4_27 
REMARK   12  A    between atoms: C21_26  and  C24_31 
REMARK   13  A    between atoms: O4_27  and  C22_28 
REMARK   14  A    between atoms: C25_34  and  N1_35 
ROOT
HETATM    1  C13 UNL     1      18.712  24.917  16.325  1.00  0.00    -0.038 C 
HETATM    2  C14 UNL     1      19.719  23.891  16.005  1.00  0.00    -0.060 C 
HETATM    3  C15 UNL     1      20.664  23.898  14.864  1.00  0.00     0.048 C 
HETATM    4  C16 UNL     1      19.713  22.833  16.854  1.00  0.00    -0.019 C 
HETATM    5  C17 UNL     1      18.725  22.863  17.939  1.00  0.00     0.035 C 
HETATM    6  C18 UNL     1      17.347  23.263  17.500  1.00  0.00     0.032 C 
HETATM    7  C19 UNL     1      17.383  24.295  16.343  1.00  0.00     0.028 C 
HETATM    8  C20 UNL     1      17.035  23.445  15.177  1.00  0.00     0.062 C 
HETATM    9  C21 UNL     1      15.988  22.429  15.662  1.00  0.00     0.187 C 
HETATM   10  C25 UNL     1      16.464  22.155  17.043  1.00  0.00     0.239 C 
ENDROOT
BRANCH   1  11
HETATM   11  C4  UNL     1      18.934  26.273  15.756  1.00  0.00     0.180 C 
BRANCH  11  12
HETATM   12  O1  UNL     1      19.459  25.971  14.473  1.00  0.00    -0.375 OA
BRANCH  12  13
HETATM   13  C3  UNL     1      19.164  26.776  13.450  1.00  0.00     0.195 C 
BRANCH  13  14
HETATM   14  C2  UNL     1      20.432  26.935  12.618  1.00  0.00    -0.011 C 
HETATM   15  C1  UNL     1      21.177  27.997  12.674  1.00  0.00     0.009 C 
ENDBRANCH  13  14
ENDBRANCH  12  13
ENDBRANCH  11  12
BRANCH  11  16
HETATM   16  C5  UNL     1      20.005  27.048  16.545  1.00  0.00     0.158 C 
BRANCH  16  17
HETATM   17  O2  UNL     1      20.312  28.272  15.965  1.00  0.00    -0.392 OA
ATOM     18  H2  UNL     1      21.197  28.302  15.623  1.00  0.00     0.210 HD
ENDBRANCH  16  17
BRANCH  16  19
HETATM   19  C6  UNL     1      21.144  26.299  17.045  1.00  0.00     0.046 C 
HETATM   20  C7  UNL     1      22.434  26.704  16.223  1.00  0.00     0.015 C 
BRANCH  19  21
HETATM   21  C8  UNL     1      21.657  26.541  18.446  1.00  0.00     0.152 C 
BRANCH  21  22
HETATM   22  O3  UNL     1      20.772  27.615  18.898  1.00  0.00    -0.391 OA
ATOM     23  H3  UNL     1      20.273  27.175  19.577  1.00  0.00     0.210 HD
ENDBRANCH  21  22
BRANCH  21  24
HETATM   24  C9  UNL     1      21.400  25.418  19.394  1.00  0.00    -0.059 C 
HETATM   25  C10 UNL     1      22.299  24.276  19.626  1.00  0.00     0.046 C 
HETATM   26  C11 UNL     1      20.259  25.400  20.121  1.00  0.00    -0.026 C 
HETATM   27  C12 UNL     1      19.966  24.314  21.064  1.00  0.00     0.036 C 
ENDBRANCH  21  24
ENDBRANCH  19  21
ENDBRANCH  16  19
ENDBRANCH  11  16
ENDBRANCH   1  11
BRANCH  10  28
HETATM   28  N1  UNL     1      15.557  21.666  18.007  1.00  0.00    -0.070 N 
HETATM   29  C26 UNL     1      16.351  21.006  19.073  1.00  0.00     0.272 C 
HETATM   30  C27 UNL     1      14.686  22.559  18.678  1.00  0.00     0.272 C 
HETATM   31  C28 UNL     1      14.805  20.495  17.504  1.00  0.00     0.272 C 
ENDBRANCH  10  28
BRANCH   9  32
HETATM   32  O4  UNL     1      15.827  21.353  14.814  1.00  0.00    -0.297 OA
BRANCH  32  33
HETATM   33  C22 UNL     1      15.272  21.245  13.586  1.00  0.00     0.256 C 
HETATM   34  C23 UNL     1      14.160  20.286  13.288  1.00  0.00     0.126 C 
HETATM   35  O5  UNL     1      15.728  21.983  12.708  1.00  0.00    -0.266 OA
ENDBRANCH  32  33
ENDBRANCH   9  32
BRANCH   9  36
HETATM   36  C24 UNL     1      14.694  23.178  15.551  1.00  0.00     0.212 C 
HETATM   37  O6  UNL     1      14.586  24.417  15.441  1.00  0.00    -0.646 OA
HETATM   38  O7  UNL     1      13.443  22.564  15.559  1.00  0.00    -0.646 OA
ENDBRANCH   9  36
TORSDOF 14
ENDMDL
MODEL 3
REMARK VINA RESULT: -7.206049998      3.397      6.258
REMARK  14 active torsions:
REMARK  status: ('A' for Active; 'I' for Inactive)
REMARK    1  A    between atoms: C2_2  and  C3_3 
REMARK    2  A    between atoms: C3_3  and  O1_4 
REMARK    3  A    between atoms: O1_4  and  C4_5 
REMARK    4  A    between atoms: C4_5  and  C5_6 
REMARK    5  A    between atoms: C4_5  and  C13_18 
REMARK    6  A    between atoms: C5_6  and  O2_7 
REMARK    7  A    between atoms: C5_6  and  C6_9 
REMARK    8  A    between atoms: C6_9  and  C8_11 
REMARK    9  A    between atoms: C8_11  and  O3_12 
REMARK   10  A    between atoms: C8_11  and  C9_14 
REMARK   11  A    between atoms: C21_26  and  O4_27 
REMARK   12  A    between atoms: C21_26  and  C24_31 
REMARK   13  A    between atoms: O4_27  and  C22_28 
REMARK   14  A    between atoms: C25_34  and  N1_35 
ROOT
HETATM    1  C13 UNL     1      21.938  25.360  19.282  1.00  0.00    -0.038 C 
HETATM    2  C14 UNL     1      22.044  25.943  20.631  1.00  0.00    -0.060 C 
HETATM    3  C15 UNL     1      21.158  26.968  21.229  1.00  0.00     0.048 C 
HETATM    4  C16 UNL     1      23.103  25.485  21.345  1.00  0.00    -0.019 C 
HETATM    5  C17 UNL     1      23.970  24.502  20.683  1.00  0.00     0.035 C 
HETATM    6  C18 UNL     1      24.332  24.859  19.271  1.00  0.00     0.032 C 
HETATM    7  C19 UNL     1      23.185  25.615  18.551  1.00  0.00     0.028 C 
HETATM    8  C20 UNL     1      23.691  27.010  18.572  1.00  0.00     0.062 C 
HETATM    9  C21 UNL     1      25.211  26.937  18.360  1.00  0.00     0.187 C 
HETATM   10  C25 UNL     1      25.551  25.697  19.105  1.00  0.00     0.239 C 
ENDROOT
BRANCH   1  11
HETATM   11  C4  UNL     1      20.610  25.446  18.618  1.00  0.00     0.180 C 
BRANCH  11  12
HETATM   12  O1  UNL     1      20.364  24.091  18.278  1.00  0.00    -0.375 OA
BRANCH  12  13
HETATM   13  C3  UNL     1      19.996  23.242  19.241  1.00  0.00     0.195 C 
BRANCH  13  14
HETATM   14  C2  UNL     1      18.816  23.870  19.972  1.00  0.00    -0.011 C 
HETATM   15  C1  UNL     1      18.789  24.017  21.262  1.00  0.00     0.009 C 
ENDBRANCH  13  14
ENDBRANCH  12  13
ENDBRANCH  11  12
BRANCH  11  16
HETATM   16  C5  UNL     1      20.682  26.263  17.315  1.00  0.00     0.158 C 
BRANCH  16  17
HETATM   17  O2  UNL     1      20.078  27.508  17.434  1.00  0.00    -0.392 OA
ATOM     18  H2  UNL     1      19.132  27.462  17.373  1.00  0.00     0.210 HD
ENDBRANCH  16  17
BRANCH  16  19
HETATM   19  C6  UNL     1      20.419  25.566  16.069  1.00  0.00     0.046 C 
HETATM   20  C7  UNL     1      19.143  26.198  15.379  1.00  0.00     0.015 C 
BRANCH  19  21
HETATM   21  C8  UNL     1      21.398  25.665  14.921  1.00  0.00     0.152 C 
BRANCH  21  22
HETATM   22  O3  UNL     1      20.695  24.921  13.875  1.00  0.00    -0.391 OA
ATOM     23  H3  UNL     1      20.687  25.554  13.167  1.00  0.00     0.210 HD
ENDBRANCH  21  22
BRANCH  21  24
HETATM   24  C9  UNL     1      21.550  27.042  14.364  1.00  0.00    -0.059 C 
HETATM   25  C10 UNL     1      20.874  27.554  13.160  1.00  0.00     0.046 C 
HETATM   26  C11 UNL     1      22.367  27.928  14.977  1.00  0.00    -0.026 C 
HETATM   27  C12 UNL     1      22.545  29.291  14.463  1.00  0.00     0.036 C 
ENDBRANCH  21  24
ENDBRANCH  19  21
ENDBRANCH  16  19
ENDBRANCH  11  16
ENDBRANCH   1  11
BRANCH  10  28
HETATM   28  N1  UNL     1      26.731  24.994  18.782  1.00  0.00    -0.070 N 
HETATM   29  C26 UNL     1      26.337  23.614  18.401  1.00  0.00     0.272 C 
HETATM   30  C27 UNL     1      27.567  25.454  17.736  1.00  0.00     0.272 C 
HETATM   31  C28 UNL     1      27.534  24.692  19.988  1.00  0.00     0.272 C 
ENDBRANCH  10  28
BRANCH   9  32
HETATM   32  O4  UNL     1      25.874  28.096  18.707  1.00  0.00    -0.297 OA
BRANCH  32  33
HETATM   33  C22 UNL     1      26.970  28.317  19.469  1.00  0.00     0.256 C 
HETATM   34  C23 UNL     1      28.280  28.748  18.886  1.00  0.00     0.126 C 
HETATM   35  O5  UNL     1      26.840  28.146  20.685  1.00  0.00    -0.266 OA
ENDBRANCH  32  33
ENDBRANCH   9  32
BRANCH   9  36
HETATM   36  C24 UNL     1      25.355  26.866  16.869  1.00  0.00     0.212 C 
HETATM   37  O6  UNL     1      24.949  25.930  16.150  1.00  0.00    -0.646 OA
HETATM   38  O7  UNL     1      25.969  27.856  16.105  1.00  0.00    -0.646 OA
ENDBRANCH   9  36
TORSDOF 14
ENDMDL
MODEL 4
REMARK VINA RESULT: -7.148464275      1.073      1.285
REMARK  14 active torsions:
REMARK  status: ('A' for Active; 'I' for Inactive)
REMARK    1  A    between atoms: C2_2  and  C3_3 
REMARK    2  A    between atoms: C3_3  and  O1_4 
REMARK    3  A    between atoms: O1_4  and  C4_5 
REMARK    4  A    between atoms: C4_5  and  C5_6 
REMARK    5  A    between atoms: C4_5  and  C13_18 
REMARK    6  A    between atoms: C5_6  and  O2_7 
REMARK    7  A    between atoms: C5_6  and  C6_9 
REMARK    8  A    between atoms: C6_9  and  C8_11 
REMARK    9  A    between atoms: C8_11  and  O3_12 
REMARK   10  A    between atoms: C8_11  and  C9_14 
REMARK   11  A    between atoms: C21_26  and  O4_27 
REMARK   12  A    between atoms: C21_26  and  C24_31 
REMARK   13  A    between atoms: O4_27  and  C22_28 
REMARK   14  A    between atoms: C25_34  and  N1_35 
ROOT
HETATM    1  C13 UNL     1      18.310  24.542  17.358  1.00  0.00    -0.038 C 
HETATM    2  C14 UNL     1      18.912  23.382  16.679  1.00  0.00    -0.060 C 
HETATM    3  C15 UNL     1      19.009  21.999  17.199  1.00  0.00     0.048 C 
HETATM    4  C16 UNL     1      19.454  23.675  15.470  1.00  0.00    -0.019 C 
HETATM    5  C17 UNL     1      19.365  25.071  15.027  1.00  0.00     0.035 C 
HETATM    6  C18 UNL     1      19.731  26.072  16.085  1.00  0.00     0.032 C 
HETATM    7  C19 UNL     1      19.323  25.594  17.502  1.00  0.00     0.028 C 
HETATM    8  C20 UNL     1      20.634  25.176  18.061  1.00  0.00     0.062 C 
HETATM    9  C21 UNL     1      21.681  26.172  17.536  1.00  0.00     0.187 C 
HETATM   10  C25 UNL     1      21.172  26.435  16.165  1.00  0.00     0.239 C 
ENDROOT
BRANCH   1  11
HETATM   11  C4  UNL     1      17.325  24.251  18.434  1.00  0.00     0.180 C 
BRANCH  11  12
HETATM   12  O1  UNL     1      17.815  23.026  18.956  1.00  0.00    -0.375 OA
BRANCH  12  13
HETATM   13  C3  UNL     1      17.914  22.884  20.280  1.00  0.00     0.195 C 
BRANCH  13  14
HETATM   14  C2  UNL     1      18.576  24.147  20.822  1.00  0.00    -0.011 C 
HETATM   15  C1  UNL     1      19.689  24.122  21.490  1.00  0.00     0.009 C 
ENDBRANCH  13  14
ENDBRANCH  12  13
ENDBRANCH  11  12
BRANCH  11  16
HETATM   16  C5  UNL     1      15.918  24.002  17.860  1.00  0.00     0.158 C 
BRANCH  16  17
HETATM   17  O2  UNL     1      14.929  24.675  18.564  1.00  0.00    -0.392 OA
ATOM     18  H2  UNL     1      14.787  25.556  18.242  1.00  0.00     0.210 HD
ENDBRANCH  16  17
BRANCH  16  19
HETATM   19  C6  UNL     1      15.583  22.644  17.469  1.00  0.00     0.046 C 
HETATM   20  C7  UNL     1      14.912  21.900  18.694  1.00  0.00     0.015 C 
BRANCH  19  21
HETATM   21  C8  UNL     1      14.526  22.394  16.418  1.00  0.00     0.152 C 
BRANCH  21  22
HETATM   22  O3  UNL     1      13.971  23.736  16.239  1.00  0.00    -0.391 OA
ATOM     23  H3  UNL     1      13.040  23.568  16.322  1.00  0.00     0.210 HD
ENDBRANCH  21  22
BRANCH  21  24
HETATM   24  C9  UNL     1      15.070  22.031  15.077  1.00  0.00    -0.059 C 
HETATM   25  C10 UNL     1      16.319  22.551  14.495  1.00  0.00     0.046 C 
HETATM   26  C11 UNL     1      14.396  21.161  14.290  1.00  0.00    -0.026 C 
HETATM   27  C12 UNL     1      14.895  20.777  12.965  1.00  0.00     0.036 C 
ENDBRANCH  21  24
ENDBRANCH  19  21
ENDBRANCH  16  19
ENDBRANCH  11  16
ENDBRANCH   1  11
BRANCH  10  28
HETATM   28  N1  UNL     1      21.534  27.629  15.507  1.00  0.00    -0.070 N 
HETATM   29  C26 UNL     1      20.293  28.417  15.298  1.00  0.00     0.272 C 
HETATM   30  C27 UNL     1      22.455  28.520  16.110  1.00  0.00     0.272 C 
HETATM   31  C28 UNL     1      21.905  27.384  14.095  1.00  0.00     0.272 C 
ENDBRANCH  10  28
BRANCH   9  32
HETATM   32  O4  UNL     1      22.980  25.726  17.663  1.00  0.00    -0.297 OA
BRANCH  32  33
HETATM   33  C22 UNL     1      23.646  25.165  18.698  1.00  0.00     0.256 C 
HETATM   34  C23 UNL     1      22.975  24.274  19.697  1.00  0.00     0.126 C 
HETATM   35  O5  UNL     1      24.850  25.425  18.784  1.00  0.00    -0.266 OA
ENDBRANCH  32  33
ENDBRANCH   9  32
BRANCH   9  36
HETATM   36  C24 UNL     1      21.591  27.317  18.500  1.00  0.00     0.212 C 
HETATM   37  O6  UNL     1      20.595  28.055  18.651  1.00  0.00    -0.646 OA
HETATM   38  O7  UNL     1      22.628  27.692  19.351  1.00  0.00    -0.646 OA
ENDBRANCH   9  36
TORSDOF 14
ENDMDL
MODEL 5
REMARK VINA RESULT: -7.102097994      2.846      5.511
REMARK  14 active torsions:
REMARK  status: ('A' for Active; 'I' for Inactive)
REMARK    1  A    between atoms: C2_2  and  C3_3 
REMARK    2  A    between atoms: C3_3  and  O1_4 
REMARK    3  A    between atoms: O1_4  and  C4_5 
REMARK    4  A    between atoms: C4_5  and  C5_6 
REMARK    5  A    between atoms: C4_5  and  C13_18 
REMARK    6  A    between atoms: C5_6  and  O2_7 
REMARK    7  A    between atoms: C5_6  and  C6_9 
REMARK    8  A    between atoms: C6_9  and  C8_11 
REMARK    9  A    between atoms: C8_11  and  O3_12 
REMARK   10  A    between atoms: C8_11  and  C9_14 
REMARK   11  A    between atoms: C21_26  and  O4_27 
REMARK   12  A    between atoms: C21_26  and  C24_31 
REMARK   13  A    between atoms: O4_27  and  C22_28 
REMARK   14  A    between atoms: C25_34  and  N1_35 
ROOT
HETATM    1  C13 UNL     1      21.823  25.187  19.583  1.00  0.00    -0.038 C 
HETATM    2  C14 UNL     1      22.104  25.818  20.884  1.00  0.00    -0.060 C 
HETATM    3  C15 UNL     1      21.225  26.748  21.629  1.00  0.00     0.048 C 
HETATM    4  C16 UNL     1      23.324  25.510  21.391  1.00  0.00    -0.019 C 
HETATM    5  C17 UNL     1      24.167  24.617  20.586  1.00  0.00     0.035 C 
HETATM    6  C18 UNL     1      24.216  24.972  19.129  1.00  0.00     0.032 C 
HETATM    7  C19 UNL     1      22.873  25.565  18.630  1.00  0.00     0.028 C 
HETATM    8  C20 UNL     1      23.201  27.010  18.546  1.00  0.00     0.062 C 
HETATM    9  C21 UNL     1      24.654  27.111  18.055  1.00  0.00     0.187 C 
HETATM   10  C25 UNL     1      25.273  25.943  18.733  1.00  0.00     0.239 C 
ENDROOT
BRANCH   1  11
HETATM   11  C4  UNL     1      20.395  25.095  19.178  1.00  0.00     0.180 C 
BRANCH  11  12
HETATM   12  O1  UNL     1      20.164  23.697  19.229  1.00  0.00    -0.375 OA
BRANCH  12  13
HETATM   13  C3  UNL     1      19.455  23.198  20.245  1.00  0.00     0.195 C 
BRANCH  13  14
HETATM   14  C2  UNL     1      18.944  21.829  19.810  1.00  0.00    -0.011 C 
HETATM   15  C1  UNL     1      18.179  21.664  18.773  1.00  0.00     0.009 C 
ENDBRANCH  13  14
ENDBRANCH  12  13
ENDBRANCH  11  12
BRANCH  11  16
HETATM   16  C5  UNL     1      20.189  25.564  17.725  1.00  0.00     0.158 C 
BRANCH  16  17
HETATM   17  O2  UNL     1      19.933  26.926  17.636  1.00  0.00    -0.392 OA
ATOM     18  H2  UNL     1      19.362  27.235  18.328  1.00  0.00     0.210 HD
ENDBRANCH  16  17
BRANCH  16  19
HETATM   19  C6  UNL     1      19.381  24.725  16.857  1.00  0.00     0.046 C 
HETATM   20  C7  UNL     1      17.932  25.349  16.733  1.00  0.00     0.015 C 
BRANCH  19  21
HETATM   21  C8  UNL     1      19.723  24.598  15.389  1.00  0.00     0.152 C 
BRANCH  21  22
HETATM   22  O3  UNL     1      18.464  24.095  14.840  1.00  0.00    -0.391 OA
ATOM     23  H3  UNL     1      18.167  24.842  14.334  1.00  0.00     0.210 HD
ENDBRANCH  21  22
BRANCH  21  24
HETATM   24  C9  UNL     1      19.941  25.902  14.697  1.00  0.00    -0.059 C 
HETATM   25  C10 UNL     1      18.880  26.761  14.144  1.00  0.00     0.046 C 
HETATM   26  C11 UNL     1      21.197  26.376  14.534  1.00  0.00    -0.026 C 
HETATM   27  C12 UNL     1      21.455  27.652  13.859  1.00  0.00     0.036 C 
ENDBRANCH  21  24
ENDBRANCH  19  21
ENDBRANCH  16  19
ENDBRANCH  11  16
ENDBRANCH   1  11
BRANCH  10  28
HETATM   28  N1  UNL     1      26.449  25.374  18.201  1.00  0.00    -0.070 N 
HETATM   29  C26 UNL     1      26.209  23.917  18.042  1.00  0.00     0.272 C 
HETATM   30  C27 UNL     1      26.949  25.816  16.951  1.00  0.00     0.272 C 
HETATM   31  C28 UNL     1      27.537  25.332  19.203  1.00  0.00     0.272 C 
ENDBRANCH  10  28
BRANCH   9  32
HETATM   32  O4  UNL     1      25.224  28.350  18.264  1.00  0.00    -0.297 OA
BRANCH  32  33
HETATM   33  C22 UNL     1      26.444  28.719  18.714  1.00  0.00     0.256 C 
HETATM   34  C23 UNL     1      27.545  29.145  17.793  1.00  0.00     0.126 C 
HETATM   35  O5  UNL     1      26.613  28.690  19.937  1.00  0.00    -0.266 OA
ENDBRANCH  32  33
ENDBRANCH   9  32
BRANCH   9  36
HETATM   36  C24 UNL     1      24.528  27.014  16.563  1.00  0.00     0.212 C 
HETATM   37  O6  UNL     1      24.191  25.989  15.935  1.00  0.00    -0.646 OA
HETATM   38  O7  UNL     1      24.778  28.075  15.697  1.00  0.00    -0.646 OA
ENDBRANCH   9  36
TORSDOF 14
ENDMDL
