MODEL 1
REMARK VINA RESULT: -8.341040079      0.000      0.000
REMARK  13 active torsions:
REMARK  status: ('A' for Active; 'I' for Inactive)
REMARK       I    between atoms: N1_7  and  C7_8 
REMARK    1  A    between atoms: C7_8  and  C8_10 
REMARK    2  A    between atoms: C8_10  and  C9_11 
REMARK    3  A    between atoms: C9_11  and  C10_12 
REMARK    4  A    between atoms: C10_12  and  C11_13 
REMARK    5  A    between atoms: C11_13  and  C12_14 
REMARK    6  A    between atoms: C12_14  and  C13_15 
REMARK    7  A    between atoms: C13_15  and  C14_16 
REMARK    8  A    between atoms: C14_16  and  C15_18 
REMARK    9  A    between atoms: C15_18  and  C16_19 
REMARK   10  A    between atoms: C16_19  and  O3_21 
REMARK   11  A    between atoms: C16_19  and  C18_23 
REMARK   12  A    between atoms: C23_29  and  N2_30 
REMARK   13  A    between atoms: C28_36  and  O6_37 
ROOT
HETATM    1  C1  UNL     1      15.392   7.798  17.888  1.00  0.00     0.017 C 
HETATM    2  C2  UNL     1      15.956   8.159  19.063  1.00  0.00    -0.058 C 
HETATM    3  C3  UNL     1      16.489   9.555  18.942  1.00  0.00     0.041 C 
HETATM    4  C4  UNL     1      17.815   9.638  19.668  1.00  0.00    -0.003 C 
HETATM    5  C5  UNL     1      18.834   8.988  18.819  1.00  0.00     0.025 C 
HETATM    6  C6  UNL     1      19.102   7.521  19.103  1.00  0.00     0.127 C 
HETATM    7  N1  UNL     1      19.134   7.323  20.564  1.00  0.00    -0.344 N 
HETATM    8  C7  UNL     1      20.273   6.737  21.130  1.00  0.00     0.220 C 
HETATM    9  O1  UNL     1      20.370   6.569  22.368  1.00  0.00    -0.273 OA
HETATM   10  C19 UNL     1      18.032   7.757  21.329  1.00  0.00     0.122 C 
HETATM   11  C20 UNL     1      17.725   9.239  21.085  1.00  0.00     0.015 C 
HETATM   12  C21 UNL     1      16.407   9.389  21.750  1.00  0.00     0.010 C 
HETATM   13  C22 UNL     1      15.991   8.037  22.286  1.00  0.00     0.036 C 
HETATM   14  C23 UNL     1      16.722   7.110  21.272  1.00  0.00     0.079 C 
HETATM   15  C28 UNL     1      15.888   7.145  20.065  1.00  0.00     0.176 C 
ENDROOT
BRANCH   8  16
HETATM   16  C8  UNL     1      21.386   6.302  20.276  1.00  0.00     0.103 C 
BRANCH  16  17
HETATM   17  C9  UNL     1      22.759   6.600  20.805  1.00  0.00     0.009 C 
BRANCH  17  18
HETATM   18  C10 UNL     1      22.887   7.869  21.585  1.00  0.00     0.000 C 
BRANCH  18  19
HETATM   19  C11 UNL     1      23.741   8.868  20.803  1.00  0.00     0.000 C 
BRANCH  19  20
HETATM   20  C12 UNL     1      22.984   9.696  19.840  1.00  0.00     0.007 C 
BRANCH  20  21
HETATM   21  C13 UNL     1      21.630  10.165  20.291  1.00  0.00     0.078 C 
BRANCH  21  22
HETATM   22  C14 UNL     1      21.391  11.591  20.100  1.00  0.00     0.130 C 
HETATM   23  O2  UNL     1      20.718  12.239  20.858  1.00  0.00    -0.298 OA
BRANCH  22  24
HETATM   24  C15 UNL     1      21.989  12.302  18.938  1.00  0.00     0.123 C 
BRANCH  24  25
HETATM   25  C16 UNL     1      20.914  12.481  17.890  1.00  0.00     0.113 C 
HETATM   26  C17 UNL     1      21.112  13.793  17.188  1.00  0.00     0.054 C 
BRANCH  25  27
HETATM   27  O3  UNL     1      19.669  12.489  18.550  1.00  0.00    -0.383 OA
ATOM     28  H3  UNL     1      19.058  12.973  18.007  1.00  0.00     0.211 HD
ENDBRANCH  25  27
BRANCH  25  29
HETATM   29  C18 UNL     1      20.995  11.326  16.959  1.00  0.00     0.269 C 
HETATM   30  O4  UNL     1      22.079  10.874  16.678  1.00  0.00    -0.304 OA
ENDBRANCH  25  29
ENDBRANCH  24  25
ENDBRANCH  22  24
ENDBRANCH  21  22
ENDBRANCH  20  21
ENDBRANCH  19  20
ENDBRANCH  18  19
ENDBRANCH  17  18
ENDBRANCH  16  17
ENDBRANCH   8  16
BRANCH  14  31
HETATM   31  N2  UNL     1      16.724   5.844  21.905  1.00  0.00    -0.395 N 
HETATM   32  C24 UNL     1      16.527   4.655  21.215  1.00  0.00     0.144 C 
HETATM   33  C25 UNL     1      15.594   3.704  21.998  1.00  0.00     0.187 C 
HETATM   34  O5  UNL     1      16.310   3.335  23.134  1.00  0.00    -0.388 OA
HETATM   35  C26 UNL     1      16.886   4.393  23.780  1.00  0.00     0.187 C 
HETATM   36  C27 UNL     1      16.401   5.760  23.276  1.00  0.00     0.144 C 
ENDBRANCH  14  31
BRANCH  15  37
HETATM   37  O6  UNL     1      14.537   7.052  20.499  1.00  0.00    -0.389 OA
ATOM     38  H6  UNL     1      14.533   7.083  21.448  1.00  0.00     0.210 HD
ENDBRANCH  15  37
TORSDOF 13
ENDMDL
MODEL 2
REMARK VINA RESULT: -8.287745486      0.799      1.532
REMARK  13 active torsions:
REMARK  status: ('A' for Active; 'I' for Inactive)
REMARK       I    between atoms: N1_7  and  C7_8 
REMARK    1  A    between atoms: C7_8  and  C8_10 
REMARK    2  A    between atoms: C8_10  and  C9_11 
REMARK    3  A    between atoms: C9_11  and  C10_12 
REMARK    4  A    between atoms: C10_12  and  C11_13 
REMARK    5  A    between atoms: C11_13  and  C12_14 
REMARK    6  A    between atoms: C12_14  and  C13_15 
REMARK    7  A    between atoms: C13_15  and  C14_16 
REMARK    8  A    between atoms: C14_16  and  C15_18 
REMARK    9  A    between atoms: C15_18  and  C16_19 
REMARK   10  A    between atoms: C16_19  and  O3_21 
REMARK   11  A    between atoms: C16_19  and  C18_23 
REMARK   12  A    between atoms: C23_29  and  N2_30 
REMARK   13  A    between atoms: C28_36  and  O6_37 
ROOT
HETATM    1  C1  UNL     1      15.435   7.765  17.931  1.00  0.00     0.017 C 
HETATM    2  C2  UNL     1      16.000   8.136  19.102  1.00  0.00    -0.058 C 
HETATM    3  C3  UNL     1      16.531   9.531  18.970  1.00  0.00     0.041 C 
HETATM    4  C4  UNL     1      17.857   9.621  19.695  1.00  0.00    -0.003 C 
HETATM    5  C5  UNL     1      18.877   8.965  18.851  1.00  0.00     0.025 C 
HETATM    6  C6  UNL     1      19.146   7.501  19.148  1.00  0.00     0.127 C 
HETATM    7  N1  UNL     1      19.178   7.315  20.610  1.00  0.00    -0.344 N 
HETATM    8  C7  UNL     1      20.318   6.735  21.180  1.00  0.00     0.220 C 
HETATM    9  O1  UNL     1      20.416   6.577  22.420  1.00  0.00    -0.273 OA
HETATM   10  C19 UNL     1      18.076   7.754  21.372  1.00  0.00     0.122 C 
HETATM   11  C20 UNL     1      17.768   9.234  21.115  1.00  0.00     0.015 C 
HETATM   12  C21 UNL     1      16.449   9.389  21.779  1.00  0.00     0.010 C 
HETATM   13  C22 UNL     1      16.035   8.040  22.327  1.00  0.00     0.036 C 
HETATM   14  C23 UNL     1      16.767   7.106  21.320  1.00  0.00     0.079 C 
HETATM   15  C28 UNL     1      15.933   7.130  20.113  1.00  0.00     0.176 C 
ENDROOT
BRANCH   8  16
HETATM   16  C8  UNL     1      21.432   6.294  20.330  1.00  0.00     0.103 C 
BRANCH  16  17
HETATM   17  C9  UNL     1      22.700   7.085  20.467  1.00  0.00     0.009 C 
BRANCH  17  18
HETATM   18  C10 UNL     1      22.757   8.352  19.675  1.00  0.00     0.000 C 
BRANCH  18  19
HETATM   19  C11 UNL     1      22.662   9.551  20.619  1.00  0.00     0.000 C 
BRANCH  19  20
HETATM   20  C12 UNL     1      21.742  10.615  20.164  1.00  0.00     0.007 C 
BRANCH  20  21
HETATM   21  C13 UNL     1      22.369  11.757  19.417  1.00  0.00     0.078 C 
BRANCH  21  22
HETATM   22  C14 UNL     1      22.454  11.560  17.974  1.00  0.00     0.130 C 
HETATM   23  O2  UNL     1      23.460  11.779  17.351  1.00  0.00    -0.298 OA
BRANCH  22  24
HETATM   24  C15 UNL     1      21.273  11.069  17.214  1.00  0.00     0.123 C 
BRANCH  24  25
HETATM   25  C16 UNL     1      20.578  12.262  16.598  1.00  0.00     0.113 C 
HETATM   26  C17 UNL     1      19.490  11.788  15.678  1.00  0.00     0.054 C 
BRANCH  25  27
HETATM   27  O3  UNL     1      21.536  12.979  15.854  1.00  0.00    -0.383 OA
ATOM     28  H3  UNL     1      22.048  13.496  16.466  1.00  0.00     0.211 HD
ENDBRANCH  25  27
BRANCH  25  29
HETATM   29  C18 UNL     1      20.053  13.101  17.706  1.00  0.00     0.269 C 
HETATM   30  O4  UNL     1      19.082  12.724  18.317  1.00  0.00    -0.304 OA
ENDBRANCH  25  29
ENDBRANCH  24  25
ENDBRANCH  22  24
ENDBRANCH  21  22
ENDBRANCH  20  21
ENDBRANCH  19  20
ENDBRANCH  18  19
ENDBRANCH  17  18
ENDBRANCH  16  17
ENDBRANCH   8  16
BRANCH  14  31
HETATM   31  N2  UNL     1      16.770   5.845  21.964  1.00  0.00    -0.395 N 
HETATM   32  C24 UNL     1      16.604   4.648  21.279  1.00  0.00     0.144 C 
HETATM   33  C25 UNL     1      15.665   3.692  22.049  1.00  0.00     0.187 C 
HETATM   34  O5  UNL     1      16.359   3.341  23.204  1.00  0.00    -0.388 OA
HETATM   35  C26 UNL     1      16.907   4.411  23.855  1.00  0.00     0.187 C 
HETATM   36  C27 UNL     1      16.416   5.768  23.328  1.00  0.00     0.144 C 
ENDBRANCH  14  31
BRANCH  15  37
HETATM   37  O6  UNL     1      14.581   7.039  20.548  1.00  0.00    -0.389 OA
ATOM     38  H6  UNL     1      14.510   7.501  21.375  1.00  0.00     0.210 HD
ENDBRANCH  15  37
TORSDOF 13
ENDMDL
MODEL 3
REMARK VINA RESULT: -8.168276313      1.257      2.176
REMARK  13 active torsions:
REMARK  status: ('A' for Active; 'I' for Inactive)
REMARK       I    between atoms: N1_7  and  C7_8 
REMARK    1  A    between atoms: C7_8  and  C8_10 
REMARK    2  A    between atoms: C8_10  and  C9_11 
REMARK    3  A    between atoms: C9_11  and  C10_12 
REMARK    4  A    between atoms: C10_12  and  C11_13 
REMARK    5  A    between atoms: C11_13  and  C12_14 
REMARK    6  A    between atoms: C12_14  and  C13_15 
REMARK    7  A    between atoms: C13_15  and  C14_16 
REMARK    8  A    between atoms: C14_16  and  C15_18 
REMARK    9  A    between atoms: C15_18  and  C16_19 
REMARK   10  A    between atoms: C16_19  and  O3_21 
REMARK   11  A    between atoms: C16_19  and  C18_23 
REMARK   12  A    between atoms: C23_29  and  N2_30 
REMARK   13  A    between atoms: C28_36  and  O6_37 
ROOT
HETATM    1  C1  UNL     1      15.494   7.917  17.832  1.00  0.00     0.017 C 
HETATM    2  C2  UNL     1      16.062   8.241  19.015  1.00  0.00    -0.058 C 
HETATM    3  C3  UNL     1      16.342   9.714  19.038  1.00  0.00     0.041 C 
HETATM    4  C4  UNL     1      17.677   9.949  19.710  1.00  0.00    -0.003 C 
HETATM    5  C5  UNL     1      18.737   9.584  18.748  1.00  0.00     0.025 C 
HETATM    6  C6  UNL     1      19.267   8.165  18.845  1.00  0.00     0.127 C 
HETATM    7  N1  UNL     1      19.423   7.818  20.269  1.00  0.00    -0.344 N 
HETATM    8  C7  UNL     1      20.679   7.383  20.712  1.00  0.00     0.220 C 
HETATM    9  O1  UNL     1      20.881   7.101  21.917  1.00  0.00    -0.273 OA
HETATM   10  C19 UNL     1      18.314   7.965  21.127  1.00  0.00     0.122 C 
HETATM   11  C20 UNL     1      17.746   9.388  21.073  1.00  0.00     0.015 C 
HETATM   12  C21 UNL     1      16.465   9.231  21.807  1.00  0.00     0.010 C 
HETATM   13  C22 UNL     1      16.319   7.777  22.198  1.00  0.00     0.036 C 
HETATM   14  C23 UNL     1      17.132   7.109  21.050  1.00  0.00     0.079 C 
HETATM   15  C28 UNL     1      16.230   7.128  19.893  1.00  0.00     0.176 C 
ENDROOT
BRANCH   8  16
HETATM   16  C8  UNL     1      21.794   7.246  19.766  1.00  0.00     0.103 C 
BRANCH  16  17
HETATM   17  C9  UNL     1      22.884   8.268  19.902  1.00  0.00     0.009 C 
BRANCH  17  18
HETATM   18  C10 UNL     1      22.656   9.553  19.174  1.00  0.00     0.000 C 
BRANCH  18  19
HETATM   19  C11 UNL     1      22.074  10.591  20.135  1.00  0.00     0.000 C 
BRANCH  19  20
HETATM   20  C12 UNL     1      21.699  11.871  19.498  1.00  0.00     0.007 C 
BRANCH  20  21
HETATM   21  C13 UNL     1      22.739  12.501  18.617  1.00  0.00     0.078 C 
BRANCH  21  22
HETATM   22  C14 UNL     1      22.338  12.651  17.223  1.00  0.00     0.130 C 
HETATM   23  O2  UNL     1      23.125  12.905  16.349  1.00  0.00    -0.298 OA
BRANCH  22  24
HETATM   24  C15 UNL     1      20.912  12.488  16.831  1.00  0.00     0.123 C 
BRANCH  24  25
HETATM   25  C16 UNL     1      20.348  13.855  16.522  1.00  0.00     0.113 C 
HETATM   26  C17 UNL     1      20.140  13.988  15.041  1.00  0.00     0.054 C 
BRANCH  25  27
HETATM   27  O3  UNL     1      21.289  14.813  16.947  1.00  0.00    -0.383 OA
ATOM     28  H3  UNL     1      21.142  15.606  16.443  1.00  0.00     0.211 HD
ENDBRANCH  25  27
BRANCH  25  29
HETATM   29  C18 UNL     1      19.081  14.005  17.285  1.00  0.00     0.269 C 
HETATM   30  O4  UNL     1      18.765  13.142  18.069  1.00  0.00    -0.304 OA
ENDBRANCH  25  29
ENDBRANCH  24  25
ENDBRANCH  22  24
ENDBRANCH  21  22
ENDBRANCH  20  21
ENDBRANCH  19  20
ENDBRANCH  18  19
ENDBRANCH  17  18
ENDBRANCH  16  17
ENDBRANCH   8  16
BRANCH  14  31
HETATM   31  N2  UNL     1      17.388   5.802  21.528  1.00  0.00    -0.395 N 
HETATM   32  C24 UNL     1      17.481   5.497  22.881  1.00  0.00     0.144 C 
HETATM   33  C25 UNL     1      18.653   4.528  23.154  1.00  0.00     0.187 C 
HETATM   34  O5  UNL     1      18.290   3.327  22.550  1.00  0.00    -0.388 OA
HETATM   35  C26 UNL     1      17.830   3.480  21.272  1.00  0.00     0.187 C 
HETATM   36  C27 UNL     1      18.067   4.885  20.697  1.00  0.00     0.144 C 
ENDBRANCH  14  31
BRANCH  15  37
HETATM   37  O6  UNL     1      14.944   6.752  20.370  1.00  0.00    -0.389 OA
ATOM     38  H6  UNL     1      14.812   5.836  20.158  1.00  0.00     0.210 HD
ENDBRANCH  15  37
TORSDOF 13
ENDMDL
MODEL 4
REMARK VINA RESULT: -8.047527485      1.303      1.598
REMARK  13 active torsions:
REMARK  status: ('A' for Active; 'I' for Inactive)
REMARK       I    between atoms: N1_7  and  C7_8 
REMARK    1  A    between atoms: C7_8  and  C8_10 
REMARK    2  A    between atoms: C8_10  and  C9_11 
REMARK    3  A    between atoms: C9_11  and  C10_12 
REMARK    4  A    between atoms: C10_12  and  C11_13 
REMARK    5  A    between atoms: C11_13  and  C12_14 
REMARK    6  A    between atoms: C12_14  and  C13_15 
REMARK    7  A    between atoms: C13_15  and  C14_16 
REMARK    8  A    between atoms: C14_16  and  C15_18 
REMARK    9  A    between atoms: C15_18  and  C16_19 
REMARK   10  A    between atoms: C16_19  and  O3_21 
REMARK   11  A    between atoms: C16_19  and  C18_23 
REMARK   12  A    between atoms: C23_29  and  N2_30 
REMARK   13  A    between atoms: C28_36  and  O6_37 
ROOT
HETATM    1  C1  UNL     1      15.405   7.737  17.906  1.00  0.00     0.017 C 
HETATM    2  C2  UNL     1      15.987   8.133  19.060  1.00  0.00    -0.058 C 
HETATM    3  C3  UNL     1      16.500   9.533  18.894  1.00  0.00     0.041 C 
HETATM    4  C4  UNL     1      17.838   9.650  19.593  1.00  0.00    -0.003 C 
HETATM    5  C5  UNL     1      18.849   8.991  18.741  1.00  0.00     0.025 C 
HETATM    6  C6  UNL     1      19.141   7.535  19.056  1.00  0.00     0.127 C 
HETATM    7  N1  UNL     1      19.202   7.374  20.520  1.00  0.00    -0.344 N 
HETATM    8  C7  UNL     1      20.360   6.816  21.079  1.00  0.00     0.220 C 
HETATM    9  O1  UNL     1      20.482   6.680  22.319  1.00  0.00    -0.273 OA
HETATM   10  C19 UNL     1      18.110   7.813  21.296  1.00  0.00     0.122 C 
HETATM   11  C20 UNL     1      17.780   9.284  21.020  1.00  0.00     0.015 C 
HETATM   12  C21 UNL     1      16.472   9.435  21.706  1.00  0.00     0.010 C 
HETATM   13  C22 UNL     1      16.083   8.092  22.284  1.00  0.00     0.036 C 
HETATM   14  C23 UNL     1      16.808   7.149  21.279  1.00  0.00     0.079 C 
HETATM   15  C28 UNL     1      15.951   7.144  20.088  1.00  0.00     0.176 C 
ENDROOT
BRANCH   8  16
HETATM   16  C8  UNL     1      21.462   6.374  20.215  1.00  0.00     0.103 C 
BRANCH  16  17
HETATM   17  C9  UNL     1      22.725   7.177  20.320  1.00  0.00     0.009 C 
BRANCH  17  18
HETATM   18  C10 UNL     1      22.759   8.432  19.508  1.00  0.00     0.000 C 
BRANCH  18  19
HETATM   19  C11 UNL     1      22.774   9.645  20.440  1.00  0.00     0.000 C 
BRANCH  19  20
HETATM   20  C12 UNL     1      21.601  10.534  20.304  1.00  0.00     0.007 C 
BRANCH  20  21
HETATM   21  C13 UNL     1      21.869  11.902  19.743  1.00  0.00     0.078 C 
BRANCH  21  22
HETATM   22  C14 UNL     1      21.686  12.009  18.300  1.00  0.00     0.130 C 
HETATM   23  O2  UNL     1      20.599  12.108  17.794  1.00  0.00    -0.298 OA
BRANCH  22  24
HETATM   24  C15 UNL     1      22.864  12.001  17.392  1.00  0.00     0.123 C 
BRANCH  24  25
HETATM   25  C16 UNL     1      23.304  13.431  17.177  1.00  0.00     0.113 C 
HETATM   26  C17 UNL     1      24.365  13.785  18.179  1.00  0.00     0.054 C 
BRANCH  25  27
HETATM   27  O3  UNL     1      22.182  14.260  17.378  1.00  0.00    -0.383 OA
ATOM     28  H3  UNL     1      22.017  14.723  16.565  1.00  0.00     0.211 HD
ENDBRANCH  25  27
BRANCH  25  29
HETATM   29  C18 UNL     1      23.788  13.550  15.778  1.00  0.00     0.269 C 
HETATM   30  O4  UNL     1      24.910  13.949  15.578  1.00  0.00    -0.304 OA
ENDBRANCH  25  29
ENDBRANCH  24  25
ENDBRANCH  22  24
ENDBRANCH  21  22
ENDBRANCH  20  21
ENDBRANCH  19  20
ENDBRANCH  18  19
ENDBRANCH  17  18
ENDBRANCH  16  17
ENDBRANCH   8  16
BRANCH  14  31
HETATM   31  N2  UNL     1      16.837   5.900  21.943  1.00  0.00    -0.395 N 
HETATM   32  C24 UNL     1      16.744   4.686  21.273  1.00  0.00     0.144 C 
HETATM   33  C25 UNL     1      15.816   3.705  22.024  1.00  0.00     0.187 C 
HETATM   34  O5  UNL     1      16.481   3.400  23.209  1.00  0.00    -0.388 OA
HETATM   35  C26 UNL     1      16.962   4.501  23.861  1.00  0.00     0.187 C 
HETATM   36  C27 UNL     1      16.438   5.829  23.295  1.00  0.00     0.144 C 
ENDBRANCH  14  31
BRANCH  15  37
HETATM   37  O6  UNL     1      14.609   7.045  20.549  1.00  0.00    -0.389 OA
ATOM     38  H6  UNL     1      14.105   6.592  19.883  1.00  0.00     0.210 HD
ENDBRANCH  15  37
TORSDOF 13
ENDMDL
MODEL 5
REMARK VINA RESULT: -7.847619876      2.003      2.561
REMARK  13 active torsions:
REMARK  status: ('A' for Active; 'I' for Inactive)
REMARK       I    between atoms: N1_7  and  C7_8 
REMARK    1  A    between atoms: C7_8  and  C8_10 
REMARK    2  A    between atoms: C8_10  and  C9_11 
REMARK    3  A    between atoms: C9_11  and  C10_12 
REMARK    4  A    between atoms: C10_12  and  C11_13 
REMARK    5  A    between atoms: C11_13  and  C12_14 
REMARK    6  A    between atoms: C12_14  and  C13_15 
REMARK    7  A    between atoms: C13_15  and  C14_16 
REMARK    8  A    between atoms: C14_16  and  C15_18 
REMARK    9  A    between atoms: C15_18  and  C16_19 
REMARK   10  A    between atoms: C16_19  and  O3_21 
REMARK   11  A    between atoms: C16_19  and  C18_23 
REMARK   12  A    between atoms: C23_29  and  N2_30 
REMARK   13  A    between atoms: C28_36  and  O6_37 
ROOT
HETATM    1  C1  UNL     1      15.663   7.854  17.789  1.00  0.00     0.017 C 
HETATM    2  C2  UNL     1      16.166   8.202  18.995  1.00  0.00    -0.058 C 
HETATM    3  C3  UNL     1      16.464   9.672  18.995  1.00  0.00     0.041 C 
HETATM    4  C4  UNL     1      17.761   9.908  19.738  1.00  0.00    -0.003 C 
HETATM    5  C5  UNL     1      18.869   9.506  18.848  1.00  0.00     0.025 C 
HETATM    6  C6  UNL     1      19.374   8.083  19.012  1.00  0.00     0.127 C 
HETATM    7  N1  UNL     1      19.444   7.772  20.451  1.00  0.00    -0.344 N 
HETATM    8  C7  UNL     1      20.666   7.334  20.977  1.00  0.00     0.220 C 
HETATM    9  O1  UNL     1      20.794   7.081  22.198  1.00  0.00    -0.273 OA
HETATM   10  C19 UNL     1      18.289   7.955  21.239  1.00  0.00     0.122 C 
HETATM   11  C20 UNL     1      17.744   9.382  21.116  1.00  0.00     0.015 C 
HETATM   12  C21 UNL     1      16.422   9.261  21.779  1.00  0.00     0.010 C 
HETATM   13  C22 UNL     1      16.234   7.818  22.197  1.00  0.00     0.036 C 
HETATM   14  C23 UNL     1      17.102   7.111  21.116  1.00  0.00     0.079 C 
HETATM   15  C28 UNL     1      16.268   7.111  19.909  1.00  0.00     0.176 C 
ENDROOT
BRANCH   8  16
HETATM   16  C8  UNL     1      21.831   7.159  20.101  1.00  0.00     0.103 C 
BRANCH  16  17
HETATM   17  C9  UNL     1      23.000   8.053  20.395  1.00  0.00     0.009 C 
BRANCH  17  18
HETATM   18  C10 UNL     1      22.673   9.501  20.576  1.00  0.00     0.000 C 
BRANCH  18  19
HETATM   19  C11 UNL     1      22.539  10.171  19.209  1.00  0.00     0.000 C 
BRANCH  19  20
HETATM   20  C12 UNL     1      22.491  11.648  19.254  1.00  0.00     0.007 C 
BRANCH  20  21
HETATM   21  C13 UNL     1      21.732  12.320  18.146  1.00  0.00     0.078 C 
BRANCH  21  22
HETATM   22  C14 UNL     1      22.561  13.087  17.225  1.00  0.00     0.130 C 
HETATM   23  O2  UNL     1      22.200  14.132  16.749  1.00  0.00    -0.298 OA
BRANCH  22  24
HETATM   24  C15 UNL     1      23.911  12.592  16.840  1.00  0.00     0.123 C 
BRANCH  24  25
HETATM   25  C16 UNL     1      24.924  13.654  17.199  1.00  0.00     0.113 C 
HETATM   26  C17 UNL     1      26.172  13.001  17.718  1.00  0.00     0.054 C 
BRANCH  25  27
HETATM   27  O3  UNL     1      24.364  14.456  18.213  1.00  0.00    -0.383 OA
ATOM     28  H3  UNL     1      24.479  14.000  19.038  1.00  0.00     0.211 HD
ENDBRANCH  25  27
BRANCH  25  29
HETATM   29  C18 UNL     1      25.178  14.466  15.981  1.00  0.00     0.269 C 
HETATM   30  O4  UNL     1      26.179  14.259  15.337  1.00  0.00    -0.304 OA
ENDBRANCH  25  29
ENDBRANCH  24  25
ENDBRANCH  22  24
ENDBRANCH  21  22
ENDBRANCH  20  21
ENDBRANCH  19  20
ENDBRANCH  18  19
ENDBRANCH  17  18
ENDBRANCH  16  17
ENDBRANCH   8  16
BRANCH  14  31
HETATM   31  N2  UNL     1      17.313   5.814  21.642  1.00  0.00    -0.395 N 
HETATM   32  C24 UNL     1      17.268   5.534  23.002  1.00  0.00     0.144 C 
HETATM   33  C25 UNL     1      18.409   4.576  23.411  1.00  0.00     0.187 C 
HETATM   34  O5  UNL     1      18.114   3.363  22.795  1.00  0.00    -0.388 OA
HETATM   35  C26 UNL     1      17.787   3.491  21.474  1.00  0.00     0.187 C 
HETATM   36  C27 UNL     1      18.075   4.886  20.901  1.00  0.00     0.144 C 
ENDBRANCH  14  31
BRANCH  15  37
HETATM   37  O6  UNL     1      14.952   6.762  20.320  1.00  0.00    -0.389 OA
ATOM     38  H6  UNL     1      15.003   6.435  21.211  1.00  0.00     0.210 HD
ENDBRANCH  15  37
TORSDOF 13
ENDMDL
