MODEL 1
REMARK VINA RESULT: -8.181542581      0.000      0.000
REMARK  14 active torsions:
REMARK  status: ('A' for Active; 'I' for Inactive)
REMARK    1  A    between atoms: C2_2  and  C3_3 
REMARK    2  A    between atoms: C3_3  and  N1_4 
REMARK    3  A    between atoms: N1_4  and  C4_5 
REMARK    4  A    between atoms: N1_4  and  C8_10 
REMARK    5  A    between atoms: C4_5  and  C5_6 
REMARK    6  A    between atoms: C5_6  and  N2_7 
REMARK    7  A    between atoms: C11_13  and  N3_14 
REMARK    8  A    between atoms: N3_14  and  C12_16 
REMARK    9  A    between atoms: C15_21  and  N5_22 
REMARK   10  A    between atoms: N5_22  and  C16_24 
REMARK   11  A    between atoms: C20_30  and  N7_31 
REMARK   12  A    between atoms: N7_31  and  C21_33 
REMARK   13  A    between atoms: C21_33  and  C22_34 
REMARK   14  A    between atoms: C22_34  and  N8_35 
ROOT
HETATM    1  C12 UNL     1      19.848  12.110  16.547  1.00  0.00     0.684 A 
HETATM    2  N4  UNL     1      19.222  13.062  17.282  1.00  0.00    -0.202 N 
ATOM      3  H4  UNL     1      18.426  12.779  17.855  1.00  0.00     0.183 HD
HETATM    4  C13 UNL     1      19.582  14.341  17.302  1.00  0.00     0.110 A 
HETATM    5  C14 UNL     1      20.647  14.723  16.535  1.00  0.00     0.067 A 
HETATM    6  C15 UNL     1      21.325  13.780  15.759  1.00  0.00     0.123 A 
HETATM    7  N10 UNL     1      20.897  12.506  15.797  1.00  0.00    -0.176 N 
ATOM      8  H10 UNL     1      21.387  11.809  15.235  1.00  0.00     0.186 HD
ENDROOT
BRANCH   1   9
HETATM    9  N3  UNL     1      19.417  10.877  16.563  1.00  0.00    -0.192 N 
ATOM     10  H3  UNL     1      18.934  10.480  15.757  1.00  0.00     0.184 HD
BRANCH   9  11
HETATM   11  C11 UNL     1      19.638  10.108  17.727  1.00  0.00     0.049 A 
HETATM   12  C10 UNL     1      20.746   9.261  17.707  1.00  0.00     0.032 A 
HETATM   13  C9  UNL     1      20.968   8.491  18.800  1.00  0.00     0.032 A 
HETATM   14  C8  UNL     1      20.153   8.496  19.947  1.00  0.00     0.036 A 
HETATM   15  C26 UNL     1      19.074   9.335  19.943  1.00  0.00    -0.033 A 
HETATM   16  C25 UNL     1      18.836  10.131  18.827  1.00  0.00     0.039 A 
HETATM   17  C27 UNL     1      18.106   9.424  21.074  1.00  0.00     0.050 C 
BRANCH  14  18
HETATM   18  N1  UNL     1      20.524   7.638  20.990  1.00  0.00    -0.379 N 
BRANCH  18  19
HETATM   19  C3  UNL     1      21.364   7.997  22.075  1.00  0.00     0.122 C 
BRANCH  19  20
HETATM   20  C2  UNL     1      22.583   8.789  21.872  1.00  0.00     0.015 C 
HETATM   21  C1  UNL     1      23.730   8.038  21.335  1.00  0.00     0.006 C 
ENDBRANCH  19  20
ENDBRANCH  18  19
BRANCH  18  22
HETATM   22  C4  UNL     1      20.060   6.265  20.955  1.00  0.00     0.153 C 
BRANCH  22  23
HETATM   23  C5  UNL     1      19.188   5.812  22.053  1.00  0.00     0.291 C 
BRANCH  23  24
HETATM   24  N2  UNL     1      18.112   5.013  21.412  1.00  0.00     0.081 N 
HETATM   25  C6  UNL     1      18.616   3.764  20.923  1.00  0.00     0.309 C 
HETATM   26  C7  UNL     1      17.474   5.777  20.360  1.00  0.00     0.309 C 
ENDBRANCH  23  24
ENDBRANCH  22  23
ENDBRANCH  18  22
ENDBRANCH  14  18
ENDBRANCH   9  11
ENDBRANCH   1   9
BRANCH   6  27
HETATM   27  N5  UNL     1      22.381  14.274  14.986  1.00  0.00    -0.328 N 
ATOM     28  H5  UNL     1      22.233  14.436  13.989  1.00  0.00     0.169 HD
BRANCH  27  29
HETATM   29  C16 UNL     1      23.532  14.529  15.494  1.00  0.00     0.124 A 
HETATM   30  C17 UNL     1      24.384  13.600  16.031  1.00  0.00     0.074 A 
HETATM   31  C18 UNL     1      25.589  14.053  16.543  1.00  0.00     0.026 A 
HETATM   32  C19 UNL     1      26.539  13.082  17.126  1.00  0.00     0.069 C 
HETATM   33  N6  UNL     1      25.913  15.359  16.516  1.00  0.00    -0.196 N 
HETATM   34  C20 UNL     1      25.083  16.249  15.995  1.00  0.00     0.679 A 
ATOM     35  H6  UNL     1      26.808  15.666  16.900  1.00  0.00     0.184 HD
HETATM   36  N9  UNL     1      23.913  15.844  15.493  1.00  0.00    -0.177 N 
ATOM     37  H9  UNL     1      23.281  16.539  15.095  1.00  0.00     0.186 HD
BRANCH  34  38
HETATM   38  N7  UNL     1      25.325  17.543  15.945  1.00  0.00    -0.224 N 
ATOM     39  H7  UNL     1      26.071  17.967  16.496  1.00  0.00     0.177 HD
BRANCH  38  40
HETATM   40  C21 UNL     1      24.491  18.332  15.079  1.00  0.00     0.168 C 
BRANCH  40  41
HETATM   41  C22 UNL     1      24.013  19.540  15.872  1.00  0.00     0.291 C 
BRANCH  41  42
HETATM   42  N8  UNL     1      22.640  19.409  16.280  1.00  0.00     0.081 N 
HETATM   43  C23 UNL     1      21.774  18.835  15.291  1.00  0.00     0.309 C 
HETATM   44  C24 UNL     1      22.151  20.773  16.547  1.00  0.00     0.309 C 
ENDBRANCH  41  42
ENDBRANCH  40  41
ENDBRANCH  38  40
ENDBRANCH  34  38
ENDBRANCH  27  29
ENDBRANCH   6  27
TORSDOF 14
ENDMDL
MODEL 2
REMARK VINA RESULT: -7.958053453      2.464      3.838
REMARK  14 active torsions:
REMARK  status: ('A' for Active; 'I' for Inactive)
REMARK    1  A    between atoms: C2_2  and  C3_3 
REMARK    2  A    between atoms: C3_3  and  N1_4 
REMARK    3  A    between atoms: N1_4  and  C4_5 
REMARK    4  A    between atoms: N1_4  and  C8_10 
REMARK    5  A    between atoms: C4_5  and  C5_6 
REMARK    6  A    between atoms: C5_6  and  N2_7 
REMARK    7  A    between atoms: C11_13  and  N3_14 
REMARK    8  A    between atoms: N3_14  and  C12_16 
REMARK    9  A    between atoms: C15_21  and  N5_22 
REMARK   10  A    between atoms: N5_22  and  C16_24 
REMARK   11  A    between atoms: C20_30  and  N7_31 
REMARK   12  A    between atoms: N7_31  and  C21_33 
REMARK   13  A    between atoms: C21_33  and  C22_34 
REMARK   14  A    between atoms: C22_34  and  N8_35 
ROOT
HETATM    1  C12 UNL     1      19.335  10.946  18.111  1.00  0.00     0.684 A 
HETATM    2  N4  UNL     1      19.722  10.055  17.163  1.00  0.00    -0.202 N 
ATOM      3  H4  UNL     1      19.025   9.398  16.811  1.00  0.00     0.183 HD
HETATM    4  C13 UNL     1      20.952   9.988  16.666  1.00  0.00     0.110 A 
HETATM    5  C14 UNL     1      21.887  10.866  17.137  1.00  0.00     0.067 A 
HETATM    6  C15 UNL     1      21.540  11.802  18.113  1.00  0.00     0.123 A 
HETATM    7  N10 UNL     1      20.273  11.805  18.562  1.00  0.00    -0.176 N 
ATOM      8  H10 UNL     1      20.008  12.487  19.274  1.00  0.00     0.186 HD
ENDROOT
BRANCH   1   9
HETATM    9  N3  UNL     1      18.111  10.934  18.565  1.00  0.00    -0.192 N 
ATOM     10  H3  UNL     1      17.500  11.741  18.445  1.00  0.00     0.184 HD
BRANCH   9  11
HETATM   11  C11 UNL     1      17.656   9.772  19.226  1.00  0.00     0.049 A 
HETATM   12  C10 UNL     1      18.380   9.376  20.350  1.00  0.00     0.032 A 
HETATM   13  C9  UNL     1      17.982   8.250  20.990  1.00  0.00     0.032 A 
HETATM   14  C8  UNL     1      16.889   7.460  20.591  1.00  0.00     0.036 A 
HETATM   15  C26 UNL     1      16.194   7.869  19.487  1.00  0.00    -0.033 A 
HETATM   16  C25 UNL     1      16.592   9.025  18.822  1.00  0.00     0.039 A 
HETATM   17  C27 UNL     1      15.033   7.116  18.929  1.00  0.00     0.050 C 
BRANCH  14  18
HETATM   18  N1  UNL     1      16.611   6.326  21.364  1.00  0.00    -0.379 N 
BRANCH  18  19
HETATM   19  C3  UNL     1      15.919   6.338  22.601  1.00  0.00     0.122 C 
BRANCH  19  20
HETATM   20  C2  UNL     1      15.102   5.198  23.034  1.00  0.00     0.015 C 
HETATM   21  C1  UNL     1      15.027   5.005  24.492  1.00  0.00     0.006 C 
ENDBRANCH  19  20
ENDBRANCH  18  19
BRANCH  18  22
HETATM   22  C4  UNL     1      17.096   5.039  20.903  1.00  0.00     0.153 C 
BRANCH  22  23
HETATM   23  C5  UNL     1      18.511   4.713  21.155  1.00  0.00     0.291 C 
BRANCH  23  24
HETATM   24  N2  UNL     1      18.522   3.312  21.647  1.00  0.00     0.081 N 
HETATM   25  C6  UNL     1      18.472   3.265  23.078  1.00  0.00     0.309 C 
HETATM   26  C7  UNL     1      19.675   2.604  21.131  1.00  0.00     0.309 C 
ENDBRANCH  23  24
ENDBRANCH  22  23
ENDBRANCH  18  22
ENDBRANCH  14  18
ENDBRANCH   9  11
ENDBRANCH   1   9
BRANCH   6  27
HETATM   27  N5  UNL     1      22.574  12.636  18.552  1.00  0.00    -0.328 N 
ATOM     28  H5  UNL     1      22.689  12.798  19.553  1.00  0.00     0.169 HD
BRANCH  27  29
HETATM   29  C16 UNL     1      23.381  13.205  17.732  1.00  0.00     0.124 A 
HETATM   30  C17 UNL     1      24.732  12.988  17.672  1.00  0.00     0.074 A 
HETATM   31  C18 UNL     1      25.455  13.695  16.725  1.00  0.00     0.026 A 
HETATM   32  C19 UNL     1      26.915  13.486  16.624  1.00  0.00     0.069 C 
HETATM   33  N6  UNL     1      24.854  14.564  15.892  1.00  0.00    -0.196 N 
HETATM   34  C20 UNL     1      23.547  14.767  15.958  1.00  0.00     0.679 A 
ATOM     35  H6  UNL     1      25.410  15.072  15.203  1.00  0.00     0.184 HD
HETATM   36  N9  UNL     1      22.822  14.101  16.862  1.00  0.00    -0.177 N 
ATOM     37  H9  UNL     1      21.816  14.266  16.903  1.00  0.00     0.186 HD
BRANCH  34  38
HETATM   38  N7  UNL     1      22.891  15.610  15.187  1.00  0.00    -0.224 N 
ATOM     39  H7  UNL     1      23.336  16.451  14.819  1.00  0.00     0.177 HD
BRANCH  38  40
HETATM   40  C21 UNL     1      21.521  15.294  14.888  1.00  0.00     0.168 C 
BRANCH  40  41
HETATM   41  C22 UNL     1      20.666  16.469  15.338  1.00  0.00     0.291 C 
BRANCH  41  42
HETATM   42  N8  UNL     1      20.354  16.405  16.740  1.00  0.00     0.081 N 
HETATM   43  C23 UNL     1      19.280  15.515  17.074  1.00  0.00     0.309 C 
HETATM   44  C24 UNL     1      19.936  17.760  17.139  1.00  0.00     0.309 C 
ENDBRANCH  41  42
ENDBRANCH  40  41
ENDBRANCH  38  40
ENDBRANCH  34  38
ENDBRANCH  27  29
ENDBRANCH   6  27
TORSDOF 14
ENDMDL
MODEL 3
REMARK VINA RESULT: -7.934967550      2.425      3.689
REMARK  14 active torsions:
REMARK  status: ('A' for Active; 'I' for Inactive)
REMARK    1  A    between atoms: C2_2  and  C3_3 
REMARK    2  A    between atoms: C3_3  and  N1_4 
REMARK    3  A    between atoms: N1_4  and  C4_5 
REMARK    4  A    between atoms: N1_4  and  C8_10 
REMARK    5  A    between atoms: C4_5  and  C5_6 
REMARK    6  A    between atoms: C5_6  and  N2_7 
REMARK    7  A    between atoms: C11_13  and  N3_14 
REMARK    8  A    between atoms: N3_14  and  C12_16 
REMARK    9  A    between atoms: C15_21  and  N5_22 
REMARK   10  A    between atoms: N5_22  and  C16_24 
REMARK   11  A    between atoms: C20_30  and  N7_31 
REMARK   12  A    between atoms: N7_31  and  C21_33 
REMARK   13  A    between atoms: C21_33  and  C22_34 
REMARK   14  A    between atoms: C22_34  and  N8_35 
ROOT
HETATM    1  C12 UNL     1      19.400  10.947  18.100  1.00  0.00     0.684 A 
HETATM    2  N4  UNL     1      19.776  10.108  17.102  1.00  0.00    -0.202 N 
ATOM      3  H4  UNL     1      19.079   9.461  16.732  1.00  0.00     0.183 HD
HETATM    4  C13 UNL     1      20.996  10.078  16.578  1.00  0.00     0.110 A 
HETATM    5  C14 UNL     1      21.932  10.943  17.073  1.00  0.00     0.067 A 
HETATM    6  C15 UNL     1      21.595  11.827  18.100  1.00  0.00     0.123 A 
HETATM    7  N10 UNL     1      20.337  11.794  18.574  1.00  0.00    -0.176 N 
ATOM      8  H10 UNL     1      20.080  12.437  19.323  1.00  0.00     0.186 HD
ENDROOT
BRANCH   1   9
HETATM    9  N3  UNL     1      18.185  10.899  18.577  1.00  0.00    -0.192 N 
ATOM     10  H3  UNL     1      17.522  11.653  18.400  1.00  0.00     0.184 HD
BRANCH   9  11
HETATM   11  C11 UNL     1      17.814   9.774  19.346  1.00  0.00     0.049 A 
HETATM   12  C10 UNL     1      18.593   9.510  20.472  1.00  0.00     0.032 A 
HETATM   13  C9  UNL     1      18.276   8.421  21.215  1.00  0.00     0.032 A 
HETATM   14  C8  UNL     1      17.215   7.547  20.919  1.00  0.00     0.036 A 
HETATM   15  C26 UNL     1      16.466   7.826  19.811  1.00  0.00    -0.033 A 
HETATM   16  C25 UNL     1      16.780   8.942  19.041  1.00  0.00     0.039 A 
HETATM   17  C27 UNL     1      15.331   6.971  19.356  1.00  0.00     0.050 C 
BRANCH  14  18
HETATM   18  N1  UNL     1      17.023   6.468  21.791  1.00  0.00    -0.379 N 
BRANCH  18  19
HETATM   19  C3  UNL     1      17.903   5.363  21.919  1.00  0.00     0.122 C 
BRANCH  19  20
HETATM   20  C2  UNL     1      18.179   4.467  20.790  1.00  0.00     0.015 C 
HETATM   21  C1  UNL     1      19.029   3.308  21.110  1.00  0.00     0.006 C 
ENDBRANCH  19  20
ENDBRANCH  18  19
BRANCH  18  22
HETATM   22  C4  UNL     1      15.821   6.438  22.602  1.00  0.00     0.153 C 
BRANCH  22  23
HETATM   23  C5  UNL     1      15.817   5.558  23.784  1.00  0.00     0.291 C 
BRANCH  23  24
HETATM   24  N2  UNL     1      14.631   4.677  23.628  1.00  0.00     0.081 N 
HETATM   25  C6  UNL     1      13.943   4.510  24.874  1.00  0.00     0.309 C 
HETATM   26  C7  UNL     1      15.019   3.403  23.060  1.00  0.00     0.309 C 
ENDBRANCH  23  24
ENDBRANCH  22  23
ENDBRANCH  18  22
ENDBRANCH  14  18
ENDBRANCH   9  11
ENDBRANCH   1   9
BRANCH   6  27
HETATM   27  N5  UNL     1      22.629  12.651  18.559  1.00  0.00    -0.328 N 
ATOM     28  H5  UNL     1      22.734  12.801  19.563  1.00  0.00     0.169 HD
BRANCH  27  29
HETATM   29  C16 UNL     1      23.448  13.223  17.753  1.00  0.00     0.124 A 
HETATM   30  C17 UNL     1      24.792  12.969  17.678  1.00  0.00     0.074 A 
HETATM   31  C18 UNL     1      25.530  13.685  16.751  1.00  0.00     0.026 A 
HETATM   32  C19 UNL     1      26.984  13.438  16.634  1.00  0.00     0.069 C 
HETATM   33  N6  UNL     1      24.951  14.599  15.951  1.00  0.00    -0.196 N 
HETATM   34  C20 UNL     1      23.651  14.837  16.031  1.00  0.00     0.679 A 
ATOM     35  H6  UNL     1      25.518  15.113  15.276  1.00  0.00     0.184 HD
HETATM   36  N9  UNL     1      22.911  14.163  16.916  1.00  0.00    -0.177 N 
ATOM     37  H9  UNL     1      21.910  14.356  16.969  1.00  0.00     0.186 HD
BRANCH  34  38
HETATM   38  N7  UNL     1      23.016  15.724  15.293  1.00  0.00    -0.224 N 
ATOM     39  H7  UNL     1      23.464  16.593  15.001  1.00  0.00     0.177 HD
BRANCH  38  40
HETATM   40  C21 UNL     1      21.663  15.415  14.915  1.00  0.00     0.168 C 
BRANCH  40  41
HETATM   41  C22 UNL     1      20.786  16.583  15.339  1.00  0.00     0.291 C 
BRANCH  41  42
HETATM   42  N8  UNL     1      20.373  16.479  16.712  1.00  0.00     0.081 N 
HETATM   43  C23 UNL     1      19.274  15.586  16.941  1.00  0.00     0.309 C 
HETATM   44  C24 UNL     1      19.934  17.824  17.121  1.00  0.00     0.309 C 
ENDBRANCH  41  42
ENDBRANCH  40  41
ENDBRANCH  38  40
ENDBRANCH  34  38
ENDBRANCH  27  29
ENDBRANCH   6  27
TORSDOF 14
ENDMDL
MODEL 4
REMARK VINA RESULT: -7.772951143      2.188      4.458
REMARK  14 active torsions:
REMARK  status: ('A' for Active; 'I' for Inactive)
REMARK    1  A    between atoms: C2_2  and  C3_3 
REMARK    2  A    between atoms: C3_3  and  N1_4 
REMARK    3  A    between atoms: N1_4  and  C4_5 
REMARK    4  A    between atoms: N1_4  and  C8_10 
REMARK    5  A    between atoms: C4_5  and  C5_6 
REMARK    6  A    between atoms: C5_6  and  N2_7 
REMARK    7  A    between atoms: C11_13  and  N3_14 
REMARK    8  A    between atoms: N3_14  and  C12_16 
REMARK    9  A    between atoms: C15_21  and  N5_22 
REMARK   10  A    between atoms: N5_22  and  C16_24 
REMARK   11  A    between atoms: C20_30  and  N7_31 
REMARK   12  A    between atoms: N7_31  and  C21_33 
REMARK   13  A    between atoms: C21_33  and  C22_34 
REMARK   14  A    between atoms: C22_34  and  N8_35 
ROOT
HETATM    1  C12 UNL     1      24.359  13.777  17.773  1.00  0.00     0.684 A 
HETATM    2  N4  UNL     1      25.408  12.916  17.768  1.00  0.00    -0.202 N 
ATOM      3  H4  UNL     1      25.370  12.111  18.393  1.00  0.00     0.183 HD
HETATM    4  C13 UNL     1      26.482  13.060  16.999  1.00  0.00     0.110 A 
HETATM    5  C14 UNL     1      26.536  14.139  16.163  1.00  0.00     0.067 A 
HETATM    6  C15 UNL     1      25.482  15.055  16.130  1.00  0.00     0.123 A 
HETATM    7  N10 UNL     1      24.430  14.835  16.939  1.00  0.00    -0.176 N 
ATOM      8  H10 UNL     1      23.654  15.496  16.922  1.00  0.00     0.186 HD
ENDROOT
BRANCH   1   9
HETATM    9  N3  UNL     1      23.349  13.578  18.576  1.00  0.00    -0.192 N 
ATOM     10  H3  UNL     1      22.964  14.341  19.133  1.00  0.00     0.184 HD
BRANCH   9  11
HETATM   11  C11 UNL     1      22.803  12.278  18.653  1.00  0.00     0.049 A 
HETATM   12  C10 UNL     1      22.988  11.462  17.538  1.00  0.00     0.032 A 
HETATM   13  C9  UNL     1      22.452  10.217  17.573  1.00  0.00     0.032 A 
HETATM   14  C8  UNL     1      21.724   9.703  18.661  1.00  0.00     0.036 A 
HETATM   15  C26 UNL     1      21.556  10.521  19.743  1.00  0.00    -0.033 A 
HETATM   16  C25 UNL     1      22.103  11.800  19.720  1.00  0.00     0.039 A 
HETATM   17  C27 UNL     1      20.781  10.124  20.954  1.00  0.00     0.050 C 
BRANCH  14  18
HETATM   18  N1  UNL     1      21.238   8.396  18.535  1.00  0.00    -0.379 N 
BRANCH  18  19
HETATM   19  C3  UNL     1      21.936   7.229  18.937  1.00  0.00     0.122 C 
BRANCH  19  20
HETATM   20  C2  UNL     1      22.023   6.834  20.348  1.00  0.00     0.015 C 
HETATM   21  C1  UNL     1      23.201   7.350  21.066  1.00  0.00     0.006 C 
ENDBRANCH  19  20
ENDBRANCH  18  19
BRANCH  18  22
HETATM   22  C4  UNL     1      19.943   8.196  17.912  1.00  0.00     0.153 C 
BRANCH  22  23
HETATM   23  C5  UNL     1      18.800   7.900  18.794  1.00  0.00     0.291 C 
BRANCH  23  24
HETATM   24  N2  UNL     1      17.703   8.796  18.347  1.00  0.00     0.081 N 
HETATM   25  C6  UNL     1      17.978  10.161  18.688  1.00  0.00     0.309 C 
HETATM   26  C7  UNL     1      16.437   8.357  18.894  1.00  0.00     0.309 C 
ENDBRANCH  23  24
ENDBRANCH  22  23
ENDBRANCH  18  22
ENDBRANCH  14  18
ENDBRANCH   9  11
ENDBRANCH   1   9
BRANCH   6  27
HETATM   27  N5  UNL     1      25.644  16.141  15.264  1.00  0.00    -0.328 N 
ATOM     28  H5  UNL     1      26.270  16.047  14.463  1.00  0.00     0.169 HD
BRANCH  27  29
HETATM   29  C16 UNL     1      25.030  17.253  15.448  1.00  0.00     0.124 A 
HETATM   30  C17 UNL     1      25.625  18.441  15.778  1.00  0.00     0.074 A 
HETATM   31  C18 UNL     1      24.806  19.546  15.945  1.00  0.00     0.026 A 
HETATM   32  C19 UNL     1      25.409  20.849  16.296  1.00  0.00     0.069 C 
HETATM   33  N6  UNL     1      23.472  19.457  15.789  1.00  0.00    -0.196 N 
HETATM   34  C20 UNL     1      22.906  18.303  15.470  1.00  0.00     0.679 A 
ATOM     35  H6  UNL     1      22.892  20.286  15.918  1.00  0.00     0.184 HD
HETATM   36  N9  UNL     1      23.669  17.219  15.303  1.00  0.00    -0.177 N 
ATOM     37  H9  UNL     1      23.222  16.336  15.058  1.00  0.00     0.186 HD
BRANCH  34  38
HETATM   38  N7  UNL     1      21.609  18.136  15.314  1.00  0.00    -0.224 N 
ATOM     39  H7  UNL     1      20.969  18.930  15.286  1.00  0.00     0.177 HD
BRANCH  38  40
HETATM   40  C21 UNL     1      21.134  16.785  15.186  1.00  0.00     0.168 C 
BRANCH  40  41
HETATM   41  C22 UNL     1      20.282  16.476  16.408  1.00  0.00     0.291 C 
BRANCH  41  42
HETATM   42  N8  UNL     1      20.447  15.118  16.852  1.00  0.00     0.081 N 
HETATM   43  C23 UNL     1      20.980  14.225  15.863  1.00  0.00     0.309 C 
HETATM   44  C24 UNL     1      19.104  14.626  17.203  1.00  0.00     0.309 C 
ENDBRANCH  41  42
ENDBRANCH  40  41
ENDBRANCH  38  40
ENDBRANCH  34  38
ENDBRANCH  27  29
ENDBRANCH   6  27
TORSDOF 14
ENDMDL
MODEL 5
REMARK VINA RESULT: -7.760500429      2.087      4.543
REMARK  14 active torsions:
REMARK  status: ('A' for Active; 'I' for Inactive)
REMARK    1  A    between atoms: C2_2  and  C3_3 
REMARK    2  A    between atoms: C3_3  and  N1_4 
REMARK    3  A    between atoms: N1_4  and  C4_5 
REMARK    4  A    between atoms: N1_4  and  C8_10 
REMARK    5  A    between atoms: C4_5  and  C5_6 
REMARK    6  A    between atoms: C5_6  and  N2_7 
REMARK    7  A    between atoms: C11_13  and  N3_14 
REMARK    8  A    between atoms: N3_14  and  C12_16 
REMARK    9  A    between atoms: C15_21  and  N5_22 
REMARK   10  A    between atoms: N5_22  and  C16_24 
REMARK   11  A    between atoms: C20_30  and  N7_31 
REMARK   12  A    between atoms: N7_31  and  C21_33 
REMARK   13  A    between atoms: C21_33  and  C22_34 
REMARK   14  A    between atoms: C22_34  and  N8_35 
ROOT
HETATM    1  C12 UNL     1      20.210  11.283  17.885  1.00  0.00     0.684 A 
HETATM    2  N4  UNL     1      19.991  10.845  16.620  1.00  0.00    -0.202 N 
ATOM      3  H4  UNL     1      20.181   9.864  16.413  1.00  0.00     0.183 HD
HETATM    4  C13 UNL     1      19.544  11.616  15.634  1.00  0.00     0.110 A 
HETATM    5  C14 UNL     1      19.290  12.931  15.909  1.00  0.00     0.067 A 
HETATM    6  C15 UNL     1      19.501  13.431  17.195  1.00  0.00     0.123 A 
HETATM    7  N10 UNL     1      19.953  12.583  18.136  1.00  0.00    -0.176 N 
ATOM      8  H10 UNL     1      20.108  12.938  19.080  1.00  0.00     0.186 HD
ENDROOT
BRANCH   1   9
HETATM    9  N3  UNL     1      20.673  10.467  18.793  1.00  0.00    -0.192 N 
ATOM     10  H3  UNL     1      21.646  10.517  19.096  1.00  0.00     0.184 HD
BRANCH   9  11
HETATM   11  C11 UNL     1      19.792   9.511  19.344  1.00  0.00     0.049 A 
HETATM   12  C10 UNL     1      20.006   8.185  18.972  1.00  0.00     0.032 A 
HETATM   13  C9  UNL     1      19.159   7.248  19.465  1.00  0.00     0.032 A 
HETATM   14  C8  UNL     1      18.083   7.534  20.325  1.00  0.00     0.036 A 
HETATM   15  C26 UNL     1      17.893   8.841  20.676  1.00  0.00    -0.033 A 
HETATM   16  C25 UNL     1      18.757   9.811  20.178  1.00  0.00     0.039 A 
HETATM   17  C27 UNL     1      16.776   9.297  21.554  1.00  0.00     0.050 C 
BRANCH  14  18
HETATM   18  N1  UNL     1      17.303   6.449  20.744  1.00  0.00    -0.379 N 
BRANCH  18  19
HETATM   19  C3  UNL     1      16.228   5.890  20.007  1.00  0.00     0.122 C 
BRANCH  19  20
HETATM   20  C2  UNL     1      14.978   6.630  19.793  1.00  0.00     0.015 C 
HETATM   21  C1  UNL     1      13.929   6.379  20.794  1.00  0.00     0.006 C 
ENDBRANCH  19  20
ENDBRANCH  18  19
BRANCH  18  22
HETATM   22  C4  UNL     1      17.571   5.865  22.044  1.00  0.00     0.153 C 
BRANCH  22  23
HETATM   23  C5  UNL     1      16.892   4.600  22.377  1.00  0.00     0.291 C 
BRANCH  23  24
HETATM   24  N2  UNL     1      17.966   3.661  22.790  1.00  0.00     0.081 N 
HETATM   25  C6  UNL     1      18.756   4.212  23.851  1.00  0.00     0.309 C 
HETATM   26  C7  UNL     1      18.784   3.296  21.652  1.00  0.00     0.309 C 
ENDBRANCH  23  24
ENDBRANCH  22  23
ENDBRANCH  18  22
ENDBRANCH  14  18
ENDBRANCH   9  11
ENDBRANCH   1   9
BRANCH   6  27
HETATM   27  N5  UNL     1      19.241  14.795  17.369  1.00  0.00    -0.328 N 
ATOM     28  H5  UNL     1      18.453  15.079  17.952  1.00  0.00     0.169 HD
BRANCH  27  29
HETATM   29  C16 UNL     1      19.965  15.699  16.815  1.00  0.00     0.124 A 
HETATM   30  C17 UNL     1      19.614  17.014  16.668  1.00  0.00     0.074 A 
HETATM   31  C18 UNL     1      20.517  17.854  16.038  1.00  0.00     0.026 A 
HETATM   32  C19 UNL     1      20.179  19.283  15.865  1.00  0.00     0.069 C 
HETATM   33  N6  UNL     1      21.699  17.396  15.585  1.00  0.00    -0.196 N 
HETATM   34  C20 UNL     1      22.029  16.122  15.731  1.00  0.00     0.679 A 
ATOM     35  H6  UNL     1      22.347  18.036  15.124  1.00  0.00     0.184 HD
HETATM   36  N9  UNL     1      21.178  15.286  16.334  1.00  0.00    -0.177 N 
ATOM     37  H9  UNL     1      21.443  14.307  16.441  1.00  0.00     0.186 HD
BRANCH  34  38
HETATM   38  N7  UNL     1      23.159  15.599  15.303  1.00  0.00    -0.224 N 
ATOM     39  H7  UNL     1      23.877  16.172  14.860  1.00  0.00     0.177 HD
BRANCH  38  40
HETATM   40  C21 UNL     1      23.336  14.183  15.485  1.00  0.00     0.168 C 
BRANCH  40  41
HETATM   41  C22 UNL     1      24.753  13.956  15.990  1.00  0.00     0.291 C 
BRANCH  41  42
HETATM   42  N8  UNL     1      24.791  13.038  17.097  1.00  0.00     0.081 N 
HETATM   43  C23 UNL     1      23.697  13.165  18.017  1.00  0.00     0.309 C 
HETATM   44  C24 UNL     1      26.025  13.334  17.845  1.00  0.00     0.309 C 
ENDBRANCH  41  42
ENDBRANCH  40  41
ENDBRANCH  38  40
ENDBRANCH  34  38
ENDBRANCH  27  29
ENDBRANCH   6  27
TORSDOF 14
ENDMDL
