MODEL 1
REMARK VINA RESULT: -8.293007827      0.000      0.000
REMARK  15 active torsions:
REMARK  status: ('A' for Active; 'I' for Inactive)
REMARK    1  A    between atoms: C2_2  and  N1_3 
REMARK    2  A    between atoms: N1_3  and  C3_5 
REMARK    3  A    between atoms: C4_8  and  N3_9 
REMARK    4  A    between atoms: N3_9  and  C5_11 
REMARK    5  A    between atoms: C5_11  and  C6_12 
REMARK    6  A    between atoms: C6_12  and  C7_13 
REMARK    7  A    between atoms: C7_13  and  N4_14 
REMARK    8  A    between atoms: N5_17  and  C10_18 
REMARK    9  A    between atoms: C10_18  and  C11_19 
REMARK   10  A    between atoms: C10_18  and  C13_22 
REMARK   11  A    between atoms: C10_18  and  C16_26 
REMARK   12  A    between atoms: C13_22  and  C14_23 
REMARK   13  A    between atoms: C16_26  and  C17_27 
REMARK   14  A    between atoms: C17_27  and  C19_29 
REMARK   15  A    between atoms: C26_38  and  O1_39 
ROOT
HETATM    1  C11 UNL     1      20.916  11.824  16.113  1.00  0.00     0.154 C 
HETATM    2  C12 UNL     1      19.747  11.186  16.654  1.00  0.00     0.061 C 
HETATM    3  N6  UNL     1      18.813  10.686  17.094  1.00  0.00    -0.197 NA
ENDROOT
BRANCH   1   4
HETATM    4  C10 UNL     1      21.780  12.489  17.219  1.00  0.00     0.041 C 
BRANCH   4   5
HETATM    5  N5  UNL     1      21.816  11.520  18.283  1.00  0.00    -0.399 N 
HETATM    6  C9  UNL     1      21.460  11.904  19.559  1.00  0.00     0.148 C 
HETATM    7  C8  UNL     1      20.688  10.773  20.250  1.00  0.00     0.291 C 
HETATM    8  N4  UNL     1      21.486   9.598  20.283  1.00  0.00     0.091 N 
HETATM    9  C22 UNL     1      21.793   9.221  18.918  1.00  0.00     0.291 C 
HETATM   10  C21 UNL     1      22.535  10.350  18.172  1.00  0.00     0.148 C 
BRANCH   8  11
HETATM   11  C7  UNL     1      22.689   9.629  21.023  1.00  0.00     0.274 C 
BRANCH  11  12
HETATM   12  C6  UNL     1      22.769   8.799  22.251  1.00  0.00     0.050 C 
BRANCH  12  13
HETATM   13  C5  UNL     1      22.238   7.381  22.058  1.00  0.00     0.140 C 
BRANCH  13  14
HETATM   14  N3  UNL     1      20.894   7.388  22.568  1.00  0.00    -0.226 N 
ATOM     15  H3  UNL     1      20.766   7.748  23.515  1.00  0.00     0.177 HD
BRANCH  14  16
HETATM   16  C4  UNL     1      19.845   6.989  21.957  1.00  0.00     0.680 A 
HETATM   17  N2  UNL     1      19.792   5.688  21.556  1.00  0.00    -0.176 N 
HETATM   18  C3  UNL     1      18.719   5.218  20.917  1.00  0.00     0.129 A 
ATOM     19  H2  UNL     1      20.579   5.068  21.745  1.00  0.00     0.186 HD
HETATM   20  C28 UNL     1      17.663   6.082  20.672  1.00  0.00     0.038 A 
HETATM   21  C23 UNL     1      17.731   7.379  21.080  1.00  0.00     0.063 A 
HETATM   22  C27 UNL     1      16.554   5.591  20.013  1.00  0.00     0.054 A 
HETATM   23  N8  UNL     1      18.836   7.836  21.730  1.00  0.00    -0.191 N 
HETATM   24  C24 UNL     1      16.682   8.249  20.843  1.00  0.00     0.034 A 
ATOM     25  H8  UNL     1      18.892   8.806  22.038  1.00  0.00     0.184 HD
HETATM   26  C25 UNL     1      15.583   7.745  20.185  1.00  0.00     0.039 A 
HETATM   27  C26 UNL     1      15.518   6.446  19.777  1.00  0.00     0.066 A 
BRANCH  18  28
HETATM   28  N1  UNL     1      18.665   4.001  20.535  1.00  0.00    -0.376 N 
ATOM     29  H1  UNL     1      18.193   3.780  19.658  1.00  0.00     0.161 HD
BRANCH  28  30
HETATM   30  C2  UNL     1      19.248   2.927  21.300  1.00  0.00     0.116 C 
HETATM   31  C1  UNL     1      20.365   2.224  20.558  1.00  0.00     0.026 C 
ENDBRANCH  28  30
ENDBRANCH  18  28
BRANCH  27  32
HETATM   32  O1  UNL     1      14.382   5.968  19.109  1.00  0.00    -0.361 OA
ATOM     33  H1  UNL     1      14.464   5.554  18.258  1.00  0.00     0.217 HD
ENDBRANCH  27  32
ENDBRANCH  14  16
ENDBRANCH  13  14
ENDBRANCH  12  13
ENDBRANCH  11  12
ENDBRANCH   8  11
ENDBRANCH   4   5
BRANCH   4  34
HETATM   34  C13 UNL     1      20.953  13.656  17.623  1.00  0.00     0.045 C 
BRANCH  34  35
HETATM   35  C14 UNL     1      20.351  14.532  16.618  1.00  0.00     0.126 C 
HETATM   36  C15 UNL     1      20.129  15.913  16.876  1.00  0.00     0.059 C 
HETATM   37  N7  UNL     1      19.950  17.027  17.107  1.00  0.00    -0.197 NA
ENDBRANCH  34  35
ENDBRANCH   4  34
BRANCH   4  38
HETATM   38  C16 UNL     1      23.104  12.659  16.632  1.00  0.00     0.036 C 
BRANCH  38  39
HETATM   39  C17 UNL     1      24.164  13.519  17.111  1.00  0.00    -0.017 C 
HETATM   40  C18 UNL     1      24.552  14.395  15.855  1.00  0.00     0.010 C 
BRANCH  39  41
HETATM   41  C19 UNL     1      25.471  13.059  17.604  1.00  0.00    -0.000 C 
HETATM   42  C20 UNL     1      26.599  13.421  16.607  1.00  0.00     0.005 C 
ENDBRANCH  39  41
ENDBRANCH  38  39
ENDBRANCH   4  38
ENDBRANCH   1   4
TORSDOF 15
ENDMDL
MODEL 2
REMARK VINA RESULT: -8.034068993      3.198     10.006
REMARK  15 active torsions:
REMARK  status: ('A' for Active; 'I' for Inactive)
REMARK    1  A    between atoms: C2_2  and  N1_3 
REMARK    2  A    between atoms: N1_3  and  C3_5 
REMARK    3  A    between atoms: C4_8  and  N3_9 
REMARK    4  A    between atoms: N3_9  and  C5_11 
REMARK    5  A    between atoms: C5_11  and  C6_12 
REMARK    6  A    between atoms: C6_12  and  C7_13 
REMARK    7  A    between atoms: C7_13  and  N4_14 
REMARK    8  A    between atoms: N5_17  and  C10_18 
REMARK    9  A    between atoms: C10_18  and  C11_19 
REMARK   10  A    between atoms: C10_18  and  C13_22 
REMARK   11  A    between atoms: C10_18  and  C16_26 
REMARK   12  A    between atoms: C13_22  and  C14_23 
REMARK   13  A    between atoms: C16_26  and  C17_27 
REMARK   14  A    between atoms: C17_27  and  C19_29 
REMARK   15  A    between atoms: C26_38  and  O1_39 
ROOT
HETATM    1  C11 UNL     1      17.700   4.920  20.404  1.00  0.00     0.154 C 
HETATM    2  C12 UNL     1      18.601   3.890  20.843  1.00  0.00     0.061 C 
HETATM    3  N6  UNL     1      19.319   3.073  21.206  1.00  0.00    -0.197 NA
ENDROOT
BRANCH   1   4
HETATM    4  C10 UNL     1      17.730   6.160  21.339  1.00  0.00     0.041 C 
BRANCH   4   5
HETATM    5  N5  UNL     1      19.053   6.702  21.180  1.00  0.00    -0.399 N 
HETATM    6  C9  UNL     1      19.980   6.530  22.188  1.00  0.00     0.148 C 
HETATM    7  C8  UNL     1      21.369   6.287  21.587  1.00  0.00     0.291 C 
HETATM    8  N4  UNL     1      21.730   7.380  20.753  1.00  0.00     0.091 N 
HETATM    9  C22 UNL     1      20.747   7.484  19.694  1.00  0.00     0.291 C 
HETATM   10  C21 UNL     1      19.325   7.689  20.257  1.00  0.00     0.148 C 
BRANCH   8  11
HETATM   11  C7  UNL     1      21.885   8.650  21.350  1.00  0.00     0.274 C 
BRANCH  11  12
HETATM   12  C6  UNL     1      22.668   9.673  20.611  1.00  0.00     0.050 C 
BRANCH  12  13
HETATM   13  C5  UNL     1      21.810  10.812  20.065  1.00  0.00     0.140 C 
BRANCH  13  14
HETATM   14  N3  UNL     1      21.992  10.796  18.640  1.00  0.00    -0.226 N 
ATOM     15  H3  UNL     1      21.623   9.986  18.139  1.00  0.00     0.177 HD
BRANCH  14  16
HETATM   16  C4  UNL     1      22.568  11.693  17.935  1.00  0.00     0.680 A 
HETATM   17  N2  UNL     1      21.808  12.406  17.057  1.00  0.00    -0.176 N 
HETATM   18  C3  UNL     1      22.357  13.357  16.300  1.00  0.00     0.129 A 
ATOM     19  H2  UNL     1      20.810  12.211  16.978  1.00  0.00     0.186 HD
HETATM   20  C28 UNL     1      23.715  13.603  16.427  1.00  0.00     0.038 A 
HETATM   21  C23 UNL     1      24.461  12.883  17.309  1.00  0.00     0.063 A 
HETATM   22  C27 UNL     1      24.279  14.589  15.643  1.00  0.00     0.054 A 
HETATM   23  N8  UNL     1      23.879  11.917  18.071  1.00  0.00    -0.191 N 
HETATM   24  C24 UNL     1      25.817  13.122  17.446  1.00  0.00     0.034 A 
ATOM     25  H8  UNL     1      24.433  11.375  18.734  1.00  0.00     0.184 HD
HETATM   26  C25 UNL     1      26.365  14.108  16.658  1.00  0.00     0.039 A 
HETATM   27  C26 UNL     1      25.615  14.827  15.775  1.00  0.00     0.066 A 
BRANCH  18  28
HETATM   28  N1  UNL     1      21.650  14.026  15.472  1.00  0.00    -0.376 N 
ATOM     29  H1  UNL     1      22.056  14.283  14.572  1.00  0.00     0.161 HD
BRANCH  28  30
HETATM   30  C2  UNL     1      20.298  14.431  15.766  1.00  0.00     0.116 C 
HETATM   31  C1  UNL     1      20.238  15.674  16.629  1.00  0.00     0.026 C 
ENDBRANCH  28  30
ENDBRANCH  18  28
BRANCH  27  32
HETATM   32  O1  UNL     1      26.208  15.824  14.988  1.00  0.00    -0.361 OA
ATOM     33  H1  UNL     1      25.807  16.682  14.916  1.00  0.00     0.217 HD
ENDBRANCH  27  32
ENDBRANCH  14  16
ENDBRANCH  13  14
ENDBRANCH  12  13
ENDBRANCH  11  12
ENDBRANCH   8  11
ENDBRANCH   4   5
BRANCH   4  34
HETATM   34  C13 UNL     1      17.588   5.553  22.688  1.00  0.00     0.045 C 
BRANCH  34  35
HETATM   35  C14 UNL     1      16.293   5.528  23.367  1.00  0.00     0.126 C 
HETATM   36  C15 UNL     1      16.199   5.549  24.786  1.00  0.00     0.059 C 
HETATM   37  N7  UNL     1      16.143   5.560  25.936  1.00  0.00    -0.197 NA
ENDBRANCH  34  35
ENDBRANCH   4  34
BRANCH   4  38
HETATM   38  C16 UNL     1      16.729   7.077  20.806  1.00  0.00     0.036 C 
BRANCH  38  39
HETATM   39  C17 UNL     1      16.031   6.965  19.544  1.00  0.00    -0.017 C 
HETATM   40  C18 UNL     1      15.975   8.447  18.999  1.00  0.00     0.010 C 
BRANCH  39  41
HETATM   41  C19 UNL     1      14.644   6.505  19.381  1.00  0.00    -0.000 C 
HETATM   42  C20 UNL     1      13.959   6.307  20.755  1.00  0.00     0.005 C 
ENDBRANCH  39  41
ENDBRANCH  38  39
ENDBRANCH   4  38
ENDBRANCH   1   4
TORSDOF 15
ENDMDL
MODEL 3
REMARK VINA RESULT: -7.951895324      3.347     10.685
REMARK  15 active torsions:
REMARK  status: ('A' for Active; 'I' for Inactive)
REMARK    1  A    between atoms: C2_2  and  N1_3 
REMARK    2  A    between atoms: N1_3  and  C3_5 
REMARK    3  A    between atoms: C4_8  and  N3_9 
REMARK    4  A    between atoms: N3_9  and  C5_11 
REMARK    5  A    between atoms: C5_11  and  C6_12 
REMARK    6  A    between atoms: C6_12  and  C7_13 
REMARK    7  A    between atoms: C7_13  and  N4_14 
REMARK    8  A    between atoms: N5_17  and  C10_18 
REMARK    9  A    between atoms: C10_18  and  C11_19 
REMARK   10  A    between atoms: C10_18  and  C13_22 
REMARK   11  A    between atoms: C10_18  and  C16_26 
REMARK   12  A    between atoms: C13_22  and  C14_23 
REMARK   13  A    between atoms: C16_26  and  C17_27 
REMARK   14  A    between atoms: C17_27  and  C19_29 
REMARK   15  A    between atoms: C26_38  and  O1_39 
ROOT
HETATM    1  C11 UNL     1      17.748   4.102  21.216  1.00  0.00     0.154 C 
HETATM    2  C12 UNL     1      18.954   3.362  20.958  1.00  0.00     0.061 C 
HETATM    3  N6  UNL     1      19.919   2.775  20.765  1.00  0.00    -0.197 NA
ENDROOT
BRANCH   1   4
HETATM    4  C10 UNL     1      17.980   5.263  22.221  1.00  0.00     0.041 C 
BRANCH   4   5
HETATM    5  N5  UNL     1      18.776   6.217  21.495  1.00  0.00    -0.399 N 
HETATM    6  C9  UNL     1      20.077   6.452  21.891  1.00  0.00     0.148 C 
HETATM    7  C8  UNL     1      20.969   6.662  20.661  1.00  0.00     0.291 C 
HETATM    8  N4  UNL     1      20.474   7.747  19.888  1.00  0.00     0.091 N 
HETATM    9  C22 UNL     1      19.125   7.426  19.469  1.00  0.00     0.291 C 
HETATM   10  C21 UNL     1      18.202   7.166  20.677  1.00  0.00     0.148 C 
BRANCH   8  11
HETATM   11  C7  UNL     1      20.470   9.033  20.472  1.00  0.00     0.274 C 
BRANCH  11  12
HETATM   12  C6  UNL     1      21.781   9.672  20.751  1.00  0.00     0.050 C 
BRANCH  12  13
HETATM   13  C5  UNL     1      22.710   9.700  19.540  1.00  0.00     0.140 C 
BRANCH  13  14
HETATM   14  N3  UNL     1      22.060  10.529  18.562  1.00  0.00    -0.226 N 
ATOM     15  H3  UNL     1      21.072  10.343  18.387  1.00  0.00     0.177 HD
BRANCH  14  16
HETATM   16  C4  UNL     1      22.595  11.476  17.891  1.00  0.00     0.680 A 
HETATM   17  N2  UNL     1      21.795  12.209  17.067  1.00  0.00    -0.176 N 
HETATM   18  C3  UNL     1      22.300  13.212  16.346  1.00  0.00     0.129 A 
ATOM     19  H2  UNL     1      20.802  11.990  17.000  1.00  0.00     0.186 HD
HETATM   20  C28 UNL     1      23.653  13.490  16.455  1.00  0.00     0.038 A 
HETATM   21  C23 UNL     1      24.440  12.749  17.283  1.00  0.00     0.063 A 
HETATM   22  C27 UNL     1      24.172  14.529  15.709  1.00  0.00     0.054 A 
HETATM   23  N8  UNL     1      23.902  11.731  18.009  1.00  0.00    -0.191 N 
HETATM   24  C24 UNL     1      25.791  13.019  17.402  1.00  0.00     0.034 A 
ATOM     25  H8  UNL     1      24.486  11.173  18.632  1.00  0.00     0.184 HD
HETATM   26  C25 UNL     1      26.294  14.058  16.652  1.00  0.00     0.039 A 
HETATM   27  C26 UNL     1      25.504  14.798  15.823  1.00  0.00     0.066 A 
BRANCH  18  28
HETATM   28  N1  UNL     1      21.556  13.900  15.569  1.00  0.00    -0.376 N 
ATOM     29  H1  UNL     1      21.930  14.202  14.668  1.00  0.00     0.161 HD
BRANCH  28  30
HETATM   30  C2  UNL     1      20.207  14.266  15.919  1.00  0.00     0.116 C 
HETATM   31  C1  UNL     1      20.145  15.520  16.765  1.00  0.00     0.026 C 
ENDBRANCH  28  30
ENDBRANCH  18  28
BRANCH  27  32
HETATM   32  O1  UNL     1      26.051  15.849  15.074  1.00  0.00    -0.361 OA
ATOM     33  H1  UNL     1      26.838  16.292  15.369  1.00  0.00     0.217 HD
ENDBRANCH  27  32
ENDBRANCH  14  16
ENDBRANCH  13  14
ENDBRANCH  12  13
ENDBRANCH  11  12
ENDBRANCH   8  11
ENDBRANCH   4   5
BRANCH   4  34
HETATM   34  C13 UNL     1      18.800   4.618  23.280  1.00  0.00     0.045 C 
BRANCH  34  35
HETATM   35  C14 UNL     1      18.169   4.004  24.448  1.00  0.00     0.126 C 
HETATM   36  C15 UNL     1      17.972   2.598  24.530  1.00  0.00     0.059 C 
HETATM   37  N7  UNL     1      17.815   1.458  24.575  1.00  0.00    -0.197 NA
ENDBRANCH  34  35
ENDBRANCH   4  34
BRANCH   4  38
HETATM   38  C16 UNL     1      16.657   5.806  22.505  1.00  0.00     0.036 C 
BRANCH  38  39
HETATM   39  C17 UNL     1      15.388   5.129  22.351  1.00  0.00    -0.017 C 
HETATM   40  C18 UNL     1      14.539   6.099  21.437  1.00  0.00     0.010 C 
BRANCH  39  41
HETATM   41  C19 UNL     1      14.457   4.814  23.445  1.00  0.00    -0.000 C 
HETATM   42  C20 UNL     1      14.446   3.295  23.745  1.00  0.00     0.005 C 
ENDBRANCH  39  41
ENDBRANCH  38  39
ENDBRANCH   4  38
ENDBRANCH   1   4
TORSDOF 15
ENDMDL
MODEL 4
REMARK VINA RESULT: -7.912053706      1.411      2.223
REMARK  15 active torsions:
REMARK  status: ('A' for Active; 'I' for Inactive)
REMARK    1  A    between atoms: C2_2  and  N1_3 
REMARK    2  A    between atoms: N1_3  and  C3_5 
REMARK    3  A    between atoms: C4_8  and  N3_9 
REMARK    4  A    between atoms: N3_9  and  C5_11 
REMARK    5  A    between atoms: C5_11  and  C6_12 
REMARK    6  A    between atoms: C6_12  and  C7_13 
REMARK    7  A    between atoms: C7_13  and  N4_14 
REMARK    8  A    between atoms: N5_17  and  C10_18 
REMARK    9  A    between atoms: C10_18  and  C11_19 
REMARK   10  A    between atoms: C10_18  and  C13_22 
REMARK   11  A    between atoms: C10_18  and  C16_26 
REMARK   12  A    between atoms: C13_22  and  C14_23 
REMARK   13  A    between atoms: C16_26  and  C17_27 
REMARK   14  A    between atoms: C17_27  and  C19_29 
REMARK   15  A    between atoms: C26_38  and  O1_39 
ROOT
HETATM    1  C11 UNL     1      21.252  12.296  15.901  1.00  0.00     0.154 C 
HETATM    2  C12 UNL     1      19.996  11.762  16.352  1.00  0.00     0.061 C 
HETATM    3  N6  UNL     1      18.993  11.346  16.722  1.00  0.00    -0.197 NA
ENDROOT
BRANCH   1   4
HETATM    4  C10 UNL     1      22.083  12.898  17.067  1.00  0.00     0.041 C 
BRANCH   4   5
HETATM    5  N5  UNL     1      22.070  11.881  18.084  1.00  0.00    -0.399 N 
HETATM    6  C9  UNL     1      21.829  12.239  19.395  1.00  0.00     0.148 C 
HETATM    7  C8  UNL     1      20.976  11.166  20.083  1.00  0.00     0.291 C 
HETATM    8  N4  UNL     1      21.640   9.911  20.018  1.00  0.00     0.091 N 
HETATM    9  C22 UNL     1      21.828   9.570  18.623  1.00  0.00     0.291 C 
HETATM   10  C21 UNL     1      22.648  10.646  17.881  1.00  0.00     0.148 C 
BRANCH   8  11
HETATM   11  C7  UNL     1      22.878   9.776  20.686  1.00  0.00     0.274 C 
BRANCH  11  12
HETATM   12  C6  UNL     1      22.886   9.084  21.999  1.00  0.00     0.050 C 
BRANCH  12  13
HETATM   13  C5  UNL     1      22.659   7.578  21.889  1.00  0.00     0.140 C 
BRANCH  13  14
HETATM   14  N3  UNL     1      21.450   7.306  22.616  1.00  0.00    -0.226 N 
ATOM     15  H3  UNL     1      21.462   7.503  23.617  1.00  0.00     0.177 HD
BRANCH  14  16
HETATM   16  C4  UNL     1      20.360   6.842  22.135  1.00  0.00     0.680 A 
HETATM   17  N2  UNL     1      20.004   7.218  20.875  1.00  0.00    -0.176 N 
HETATM   18  C3  UNL     1      18.878   6.762  20.323  1.00  0.00     0.129 A 
ATOM     19  H2  UNL     1      20.602   7.854  20.349  1.00  0.00     0.186 HD
HETATM   20  C28 UNL     1      18.083   5.898  21.058  1.00  0.00     0.038 A 
HETATM   21  C23 UNL     1      18.452   5.531  22.316  1.00  0.00     0.063 A 
HETATM   22  C27 UNL     1      16.920   5.427  20.482  1.00  0.00     0.054 A 
HETATM   23  N8  UNL     1      19.605   6.010  22.859  1.00  0.00    -0.191 N 
HETATM   24  C24 UNL     1      17.667   4.668  23.059  1.00  0.00     0.034 A 
ATOM     25  H8  UNL     1      19.887   5.738  23.801  1.00  0.00     0.184 HD
HETATM   26  C25 UNL     1      16.511   4.206  22.472  1.00  0.00     0.039 A 
HETATM   27  C26 UNL     1      16.143   4.575  21.212  1.00  0.00     0.066 A 
BRANCH  18  28
HETATM   28  N1  UNL     1      18.538   7.113  19.143  1.00  0.00    -0.376 N 
ATOM     29  H1  UNL     1      18.383   6.391  18.439  1.00  0.00     0.161 HD
BRANCH  28  30
HETATM   30  C2  UNL     1      18.363   8.495  18.771  1.00  0.00     0.116 C 
HETATM   31  C1  UNL     1      16.938   8.814  18.369  1.00  0.00     0.026 C 
ENDBRANCH  28  30
ENDBRANCH  18  28
BRANCH  27  32
HETATM   32  O1  UNL     1      14.958   4.085  20.646  1.00  0.00    -0.361 OA
ATOM     33  H1  UNL     1      14.952   3.752  19.756  1.00  0.00     0.217 HD
ENDBRANCH  27  32
ENDBRANCH  14  16
ENDBRANCH  13  14
ENDBRANCH  12  13
ENDBRANCH  11  12
ENDBRANCH   8  11
ENDBRANCH   4   5
BRANCH   4  34
HETATM   34  C13 UNL     1      21.253  14.055  17.494  1.00  0.00     0.045 C 
BRANCH  34  35
HETATM   35  C14 UNL     1      20.745  15.016  16.516  1.00  0.00     0.126 C 
HETATM   36  C15 UNL     1      20.218  16.274  16.917  1.00  0.00     0.059 C 
HETATM   37  N7  UNL     1      19.789  17.285  17.263  1.00  0.00    -0.197 NA
ENDBRANCH  34  35
ENDBRANCH   4  34
BRANCH   4  38
HETATM   38  C16 UNL     1      23.429  13.080  16.536  1.00  0.00     0.036 C 
BRANCH  38  39
HETATM   39  C17 UNL     1      24.500  13.851  17.128  1.00  0.00    -0.017 C 
HETATM   40  C18 UNL     1      25.148  14.615  15.907  1.00  0.00     0.010 C 
BRANCH  39  41
HETATM   41  C19 UNL     1      25.670  13.286  17.816  1.00  0.00    -0.000 C 
HETATM   42  C20 UNL     1      26.886  13.195  16.862  1.00  0.00     0.005 C 
ENDBRANCH  39  41
ENDBRANCH  38  39
ENDBRANCH   4  38
ENDBRANCH   1   4
TORSDOF 15
ENDMDL
MODEL 5
REMARK VINA RESULT: -7.877074655      3.510     10.686
REMARK  15 active torsions:
REMARK  status: ('A' for Active; 'I' for Inactive)
REMARK    1  A    between atoms: C2_2  and  N1_3 
REMARK    2  A    between atoms: N1_3  and  C3_5 
REMARK    3  A    between atoms: C4_8  and  N3_9 
REMARK    4  A    between atoms: N3_9  and  C5_11 
REMARK    5  A    between atoms: C5_11  and  C6_12 
REMARK    6  A    between atoms: C6_12  and  C7_13 
REMARK    7  A    between atoms: C7_13  and  N4_14 
REMARK    8  A    between atoms: N5_17  and  C10_18 
REMARK    9  A    between atoms: C10_18  and  C11_19 
REMARK   10  A    between atoms: C10_18  and  C13_22 
REMARK   11  A    between atoms: C10_18  and  C16_26 
REMARK   12  A    between atoms: C13_22  and  C14_23 
REMARK   13  A    between atoms: C16_26  and  C17_27 
REMARK   14  A    between atoms: C17_27  and  C19_29 
REMARK   15  A    between atoms: C26_38  and  O1_39 
ROOT
HETATM    1  C11 UNL     1      16.754   4.406  21.205  1.00  0.00     0.154 C 
HETATM    2  C12 UNL     1      15.686   4.858  20.354  1.00  0.00     0.061 C 
HETATM    3  N6  UNL     1      14.840   5.232  19.677  1.00  0.00    -0.197 NA
ENDROOT
BRANCH   1   4
HETATM    4  C10 UNL     1      17.186   5.494  22.225  1.00  0.00     0.041 C 
BRANCH   4   5
HETATM    5  N5  UNL     1      17.446   6.661  21.424  1.00  0.00    -0.399 N 
HETATM    6  C9  UNL     1      18.672   6.798  20.807  1.00  0.00     0.148 C 
HETATM    7  C8  UNL     1      18.494   7.431  19.422  1.00  0.00     0.291 C 
HETATM    8  N4  UNL     1      17.852   8.692  19.549  1.00  0.00     0.091 N 
HETATM    9  C22 UNL     1      16.557   8.480  20.163  1.00  0.00     0.291 C 
HETATM   10  C21 UNL     1      16.688   7.805  21.545  1.00  0.00     0.148 C 
BRANCH   8  11
HETATM   11  C7  UNL     1      18.524   9.714  20.256  1.00  0.00     0.274 C 
BRANCH  11  12
HETATM   12  C6  UNL     1      19.160  10.799  19.468  1.00  0.00     0.050 C 
BRANCH  12  13
HETATM   13  C5  UNL     1      20.558  11.165  19.962  1.00  0.00     0.140 C 
BRANCH  13  14
HETATM   14  N3  UNL     1      21.460  10.801  18.904  1.00  0.00    -0.226 N 
ATOM     15  H3  UNL     1      21.588   9.803  18.733  1.00  0.00     0.177 HD
BRANCH  14  16
HETATM   16  C4  UNL     1      22.118  11.601  18.155  1.00  0.00     0.680 A 
HETATM   17  N2  UNL     1      21.433  12.305  17.210  1.00  0.00    -0.176 N 
HETATM   18  C3  UNL     1      22.069  13.157  16.404  1.00  0.00     0.129 A 
ATOM     19  H2  UNL     1      20.425  12.180  17.118  1.00  0.00     0.186 HD
HETATM   20  C28 UNL     1      23.438  13.309  16.550  1.00  0.00     0.038 A 
HETATM   21  C23 UNL     1      24.109  12.599  17.499  1.00  0.00     0.063 A 
HETATM   22  C27 UNL     1      24.093  14.193  15.716  1.00  0.00     0.054 A 
HETATM   23  N8  UNL     1      23.439  11.736  18.310  1.00  0.00    -0.191 N 
HETATM   24  C24 UNL     1      25.476  12.746  17.656  1.00  0.00     0.034 A 
ATOM     25  H8  UNL     1      23.935  11.202  19.023  1.00  0.00     0.184 HD
HETATM   26  C25 UNL     1      26.114  13.630  16.816  1.00  0.00     0.039 A 
HETATM   27  C26 UNL     1      25.440  14.339  15.867  1.00  0.00     0.066 A 
BRANCH  18  28
HETATM   28  N1  UNL     1      21.433  13.817  15.514  1.00  0.00    -0.376 N 
ATOM     29  H1  UNL     1      21.839  13.906  14.583  1.00  0.00     0.161 HD
BRANCH  28  30
HETATM   30  C2  UNL     1      20.161  14.439  15.781  1.00  0.00     0.116 C 
HETATM   31  C1  UNL     1      20.278  15.626  16.714  1.00  0.00     0.026 C 
ENDBRANCH  28  30
ENDBRANCH  18  28
BRANCH  27  32
HETATM   32  O1  UNL     1      26.124  15.231  15.029  1.00  0.00    -0.361 OA
ATOM     33  H1  UNL     1      26.135  15.096  14.089  1.00  0.00     0.217 HD
ENDBRANCH  27  32
ENDBRANCH  14  16
ENDBRANCH  13  14
ENDBRANCH  12  13
ENDBRANCH  11  12
ENDBRANCH   8  11
ENDBRANCH   4   5
BRANCH   4  34
HETATM   34  C13 UNL     1      18.462   4.951  22.760  1.00  0.00     0.045 C 
BRANCH  34  35
HETATM   35  C14 UNL     1      18.817   3.544  22.570  1.00  0.00     0.126 C 
HETATM   36  C15 UNL     1      18.821   2.628  23.657  1.00  0.00     0.059 C 
HETATM   37  N7  UNL     1      18.825   1.902  24.552  1.00  0.00    -0.197 NA
ENDBRANCH  34  35
ENDBRANCH   4  34
BRANCH   4  38
HETATM   38  C16 UNL     1      16.028   5.707  23.086  1.00  0.00     0.036 C 
BRANCH  38  39
HETATM   39  C17 UNL     1      15.558   4.838  24.142  1.00  0.00    -0.017 C 
HETATM   40  C18 UNL     1      14.035   4.598  23.798  1.00  0.00     0.010 C 
BRANCH  39  41
HETATM   41  C19 UNL     1      15.519   5.185  25.571  1.00  0.00    -0.000 C 
HETATM   42  C20 UNL     1      16.891   4.932  26.242  1.00  0.00     0.005 C 
ENDBRANCH  39  41
ENDBRANCH  38  39
ENDBRANCH   4  38
ENDBRANCH   1   4
TORSDOF 15
ENDMDL
