MODEL 1
REMARK VINA RESULT: -6.945446497      0.000      0.000
REMARK  11 active torsions:
REMARK  status: ('A' for Active; 'I' for Inactive)
REMARK    1  A    between atoms: C2_2  and  C3_3 
REMARK    2  A    between atoms: C3_3  and  C4_4 
REMARK    3  A    between atoms: C3_3  and  C6_6 
REMARK    4  A    between atoms: C8_11  and  C9_12 
REMARK    5  A    between atoms: C9_12  and  C10_13 
REMARK    6  A    between atoms: C10_13  and  C11_14 
REMARK    7  A    between atoms: C11_14  and  N2_15 
REMARK       I    between atoms: N2_15  and  C12_17 
REMARK    8  A    between atoms: C20_34  and  C21_35 
REMARK    9  A    between atoms: C21_35  and  C22_36 
REMARK   10  A    between atoms: C22_36  and  S1_37 
REMARK   11  A    between atoms: N9_39  and  C24_40 
ROOT
HETATM    1  C6  UNL     1      17.442  23.109  17.643  1.00  0.00     0.069 C 
HETATM    2  N1  UNL     1      17.977  21.782  17.864  1.00  0.00    -0.320 N 
ATOM      3  H1  UNL     1      18.897  21.675  18.291  1.00  0.00     0.169 HD
HETATM    4  C7  UNL     1      17.223  20.602  17.487  1.00  0.00     0.268 C 
HETATM    5  O1  UNL     1      17.809  19.671  16.889  1.00  0.00    -0.266 OA
HETATM    6  C8  UNL     1      15.790  20.488  17.799  1.00  0.00     0.078 C 
HETATM    7  N5  UNL     1      14.847  20.692  16.835  1.00  0.00    -0.351 N 
ATOM      8  H5  UNL     1      14.143  20.014  17.128  1.00  0.00     0.166 HD
HETATM    9  C13 UNL     1      14.296  21.159  15.846  1.00  0.00     0.097 A 
HETATM   10  C14 UNL     1      13.031  20.651  15.519  1.00  0.00    -0.029 A 
HETATM   11  C15 UNL     1      12.358  19.552  16.298  1.00  0.00     0.050 C 
HETATM   12  C16 UNL     1      12.285  21.102  14.460  1.00  0.00     0.026 A 
HETATM   13  C17 UNL     1      12.841  22.110  13.699  1.00  0.00     0.091 A 
HETATM   14  N6  UNL     1      14.002  22.551  14.027  1.00  0.00    -0.339 N 
ATOM     15  H6  UNL     1      14.353  23.295  13.424  1.00  0.00     0.168 HD
HETATM   16  C18 UNL     1      14.847  22.204  15.034  1.00  0.00     0.208 A 
HETATM   17  N7  UNL     1      15.952  22.673  15.250  1.00  0.00    -0.364 NA
HETATM   18  C19 UNL     1      17.077  23.397  15.188  1.00  0.00     0.212 A 
HETATM   19  N8  UNL     1      17.763  24.000  14.188  1.00  0.00    -0.319 N 
ATOM     20  H8  UNL     1      17.470  24.014  13.211  1.00  0.00     0.169 HD
HETATM   21  C20 UNL     1      18.867  24.572  14.652  1.00  0.00     0.087 A 
HETATM   22  N9  UNL     1      18.954  24.364  15.973  1.00  0.00    -0.327 N 
HETATM   23  C27 UNL     1      17.884  23.656  16.349  1.00  0.00     0.122 A 
ENDROOT
BRANCH   6  24
HETATM   24  C9  UNL     1      15.535  19.256  18.695  1.00  0.00     0.064 C 
BRANCH  24  25
HETATM   25  C10 UNL     1      15.280  19.519  20.113  1.00  0.00     0.026 C 
BRANCH  25  26
HETATM   26  C11 UNL     1      13.747  19.444  20.321  1.00  0.00     0.122 C 
BRANCH  26  27
HETATM   27  N2  UNL     1      13.305  18.381  19.443  1.00  0.00    -0.367 N 
HETATM   28  C12 UNL     1      12.119  17.912  19.465  1.00  0.00     0.196 C 
HETATM   29  N3  UNL     1      11.188  18.456  20.390  1.00  0.00    -0.067 NA
HETATM   30  N4  UNL     1      11.697  16.870  18.601  1.00  0.00    -0.067 NA
ATOM     31  H2  UNL     1      13.971  17.989  18.778  1.00  0.00     0.161 HD
ENDBRANCH  26  27
ENDBRANCH  25  26
ENDBRANCH  24  25
ENDBRANCH   6  24
BRANCH   1  32
HETATM   32  C3  UNL     1      17.219  23.947  18.834  1.00  0.00    -0.051 C 
BRANCH  32  33
HETATM   33  C2  UNL     1      17.869  23.394  20.055  1.00  0.00     0.032 C 
HETATM   34  C1  UNL     1      18.599  24.419  20.881  1.00  0.00     0.010 C 
ENDBRANCH  32  33
BRANCH  32  35
HETATM   35  C4  UNL     1      15.952  24.697  18.968  1.00  0.00     0.032 C 
HETATM   36  C5  UNL     1      14.719  24.095  18.359  1.00  0.00     0.010 C 
ENDBRANCH  32  35
ENDBRANCH   1  32
BRANCH  22  37
HETATM   37  C24 UNL     1      20.096  24.716  16.831  1.00  0.00     0.083 C 
HETATM   38  C25 UNL     1      19.812  26.024  17.602  1.00  0.00     0.032 C 
HETATM   39  C26 UNL     1      20.491  23.684  17.816  1.00  0.00     0.032 C 
ENDBRANCH  22  37
BRANCH  21  40
HETATM   40  C21 UNL     1      19.845  25.252  13.732  1.00  0.00     0.087 C 
BRANCH  40  41
HETATM   41  C22 UNL     1      19.547  26.712  13.575  1.00  0.00     0.081 C 
BRANCH  41  42
HETATM   42  S1  UNL     1      20.585  27.891  14.382  1.00  0.00    -0.173 SA
HETATM   43  C23 UNL     1      22.162  27.231  14.926  1.00  0.00     0.089 C 
ENDBRANCH  41  42
ENDBRANCH  40  41
ENDBRANCH  21  40
TORSDOF 11
ENDMDL
MODEL 2
REMARK VINA RESULT: -6.356679846      5.954     10.203
REMARK  11 active torsions:
REMARK  status: ('A' for Active; 'I' for Inactive)
REMARK    1  A    between atoms: C2_2  and  C3_3 
REMARK    2  A    between atoms: C3_3  and  C4_4 
REMARK    3  A    between atoms: C3_3  and  C6_6 
REMARK    4  A    between atoms: C8_11  and  C9_12 
REMARK    5  A    between atoms: C9_12  and  C10_13 
REMARK    6  A    between atoms: C10_13  and  C11_14 
REMARK    7  A    between atoms: C11_14  and  N2_15 
REMARK       I    between atoms: N2_15  and  C12_17 
REMARK    8  A    between atoms: C20_34  and  C21_35 
REMARK    9  A    between atoms: C21_35  and  C22_36 
REMARK   10  A    between atoms: C22_36  and  S1_37 
REMARK   11  A    between atoms: N9_39  and  C24_40 
ROOT
HETATM    1  C6  UNL     1      24.592  24.753  19.476  1.00  0.00     0.069 C 
HETATM    2  N1  UNL     1      24.078  26.078  19.203  1.00  0.00    -0.320 N 
ATOM      3  H1  UNL     1      24.722  26.868  19.159  1.00  0.00     0.169 HD
HETATM    4  C7  UNL     1      22.661  26.299  18.992  1.00  0.00     0.268 C 
HETATM    5  O1  UNL     1      22.106  27.269  19.558  1.00  0.00    -0.266 OA
HETATM    6  C8  UNL     1      21.876  25.405  18.127  1.00  0.00     0.078 C 
HETATM    7  N5  UNL     1      21.059  24.454  18.663  1.00  0.00    -0.351 N 
ATOM      8  H5  UNL     1      20.302  24.463  17.980  1.00  0.00     0.166 HD
HETATM    9  C13 UNL     1      20.644  23.596  19.432  1.00  0.00     0.097 A 
HETATM   10  C14 UNL     1      19.414  22.999  19.120  1.00  0.00    -0.029 A 
HETATM   11  C15 UNL     1      18.588  23.391  17.924  1.00  0.00     0.050 C 
HETATM   12  C16 UNL     1      18.844  22.003  19.872  1.00  0.00     0.026 A 
HETATM   13  C17 UNL     1      19.547  21.593  20.986  1.00  0.00     0.091 A 
HETATM   14  N6  UNL     1      20.669  22.163  21.242  1.00  0.00    -0.339 N 
ATOM     15  H6  UNL     1      21.136  21.812  22.079  1.00  0.00     0.168 HD
HETATM   16  C18 UNL     1      21.347  23.149  20.598  1.00  0.00     0.208 A 
HETATM   17  N7  UNL     1      22.409  23.643  20.939  1.00  0.00    -0.364 NA
HETATM   18  C19 UNL     1      23.542  23.936  21.590  1.00  0.00     0.212 A 
HETATM   19  N8  UNL     1      23.939  23.861  22.883  1.00  0.00    -0.319 N 
ATOM     20  H8  UNL     1      23.365  23.500  23.645  1.00  0.00     0.169 HD
HETATM   21  C20 UNL     1      25.176  24.320  23.023  1.00  0.00     0.087 A 
HETATM   22  N9  UNL     1      25.641  24.719  21.832  1.00  0.00    -0.327 N 
HETATM   23  C27 UNL     1      24.683  24.500  20.924  1.00  0.00     0.122 A 
ENDROOT
BRANCH   6  24
HETATM   24  C9  UNL     1      21.251  26.203  16.961  1.00  0.00     0.064 C 
BRANCH  24  25
HETATM   25  C10 UNL     1      22.173  26.983  16.133  1.00  0.00     0.026 C 
BRANCH  25  26
HETATM   26  C11 UNL     1      21.336  28.087  15.439  1.00  0.00     0.122 C 
BRANCH  26  27
HETATM   27  N2  UNL     1      21.588  27.909  14.024  1.00  0.00    -0.367 N 
HETATM   28  C12 UNL     1      20.680  27.564  13.197  1.00  0.00     0.196 C 
HETATM   29  N3  UNL     1      19.364  27.344  13.682  1.00  0.00    -0.067 NA
HETATM   30  N4  UNL     1      20.939  27.393  11.813  1.00  0.00    -0.067 NA
ATOM     31  H2  UNL     1      22.532  28.067  13.674  1.00  0.00     0.161 HD
ENDBRANCH  26  27
ENDBRANCH  25  26
ENDBRANCH  24  25
ENDBRANCH   6  24
BRANCH   1  32
HETATM   32  C3  UNL     1      25.546  24.192  18.502  1.00  0.00    -0.051 C 
BRANCH  32  33
HETATM   33  C2  UNL     1      26.242  22.978  19.015  1.00  0.00     0.032 C 
HETATM   34  C1  UNL     1      25.517  21.690  18.731  1.00  0.00     0.010 C 
ENDBRANCH  32  33
BRANCH  32  35
HETATM   35  C4  UNL     1      26.261  25.100  17.581  1.00  0.00     0.032 C 
HETATM   36  C5  UNL     1      27.747  25.239  17.754  1.00  0.00     0.010 C 
ENDBRANCH  32  35
ENDBRANCH   1  32
BRANCH  22  37
HETATM   37  C24 UNL     1      26.914  25.413  21.586  1.00  0.00     0.083 C 
HETATM   38  C25 UNL     1      26.913  26.803  22.261  1.00  0.00     0.032 C 
HETATM   39  C26 UNL     1      28.127  24.691  22.031  1.00  0.00     0.032 C 
ENDBRANCH  22  37
BRANCH  21  40
HETATM   40  C21 UNL     1      25.831  24.412  24.375  1.00  0.00     0.087 C 
BRANCH  40  41
HETATM   41  C22 UNL     1      25.191  25.456  25.240  1.00  0.00     0.081 C 
BRANCH  41  42
HETATM   42  S1  UNL     1      26.216  26.641  26.054  1.00  0.00    -0.173 SA
HETATM   43  C23 UNL     1      27.975  26.320  25.903  1.00  0.00     0.089 C 
ENDBRANCH  41  42
ENDBRANCH  40  41
ENDBRANCH  21  40
TORSDOF 11
ENDMDL
MODEL 3
REMARK VINA RESULT: -6.350425155      1.174      1.415
REMARK  11 active torsions:
REMARK  status: ('A' for Active; 'I' for Inactive)
REMARK    1  A    between atoms: C2_2  and  C3_3 
REMARK    2  A    between atoms: C3_3  and  C4_4 
REMARK    3  A    between atoms: C3_3  and  C6_6 
REMARK    4  A    between atoms: C8_11  and  C9_12 
REMARK    5  A    between atoms: C9_12  and  C10_13 
REMARK    6  A    between atoms: C10_13  and  C11_14 
REMARK    7  A    between atoms: C11_14  and  N2_15 
REMARK       I    between atoms: N2_15  and  C12_17 
REMARK    8  A    between atoms: C20_34  and  C21_35 
REMARK    9  A    between atoms: C21_35  and  C22_36 
REMARK   10  A    between atoms: C22_36  and  S1_37 
REMARK   11  A    between atoms: N9_39  and  C24_40 
ROOT
HETATM    1  C6  UNL     1      17.786  23.188  17.745  1.00  0.00     0.069 C 
HETATM    2  N1  UNL     1      18.225  21.856  18.102  1.00  0.00    -0.320 N 
ATOM      3  H1  UNL     1      18.982  21.740  18.777  1.00  0.00     0.169 HD
HETATM    4  C7  UNL     1      17.605  20.684  17.516  1.00  0.00     0.268 C 
HETATM    5  O1  UNL     1      18.333  19.751  17.106  1.00  0.00    -0.266 OA
HETATM    6  C8  UNL     1      16.143  20.580  17.399  1.00  0.00     0.078 C 
HETATM    7  N5  UNL     1      15.520  20.796  16.205  1.00  0.00    -0.351 N 
ATOM      8  H5  UNL     1      14.757  20.123  16.278  1.00  0.00     0.166 HD
HETATM    9  C13 UNL     1      15.281  21.272  15.102  1.00  0.00     0.097 A 
HETATM   10  C14 UNL     1      14.162  20.776  14.420  1.00  0.00    -0.029 A 
HETATM   11  C15 UNL     1      13.285  19.678  14.963  1.00  0.00     0.050 C 
HETATM   12  C16 UNL     1      13.757  21.238  13.193  1.00  0.00     0.026 A 
HETATM   13  C17 UNL     1      14.516  22.244  12.633  1.00  0.00     0.091 A 
HETATM   14  N6  UNL     1      15.535  22.674  13.286  1.00  0.00    -0.339 N 
ATOM     15  H6  UNL     1      16.050  23.419  12.815  1.00  0.00     0.168 HD
HETATM   16  C18 UNL     1      16.050  22.316  14.491  1.00  0.00     0.208 A 
HETATM   17  N7  UNL     1      17.049  22.775  15.020  1.00  0.00    -0.364 NA
HETATM   18  C19 UNL     1      18.148  23.490  15.292  1.00  0.00     0.212 A 
HETATM   19  N8  UNL     1      19.098  24.093  14.537  1.00  0.00    -0.319 N 
ATOM     20  H8  UNL     1      19.100  24.113  13.517  1.00  0.00     0.169 HD
HETATM   21  C20 UNL     1      20.024  24.653  15.304  1.00  0.00     0.087 A 
HETATM   22  N9  UNL     1      19.724  24.438  16.592  1.00  0.00    -0.327 N 
HETATM   23  C27 UNL     1      18.586  23.738  16.638  1.00  0.00     0.122 A 
ENDROOT
BRANCH   6  24
HETATM   24  C9  UNL     1      15.631  19.346  18.175  1.00  0.00     0.064 C 
BRANCH  24  25
HETATM   25  C10 UNL     1      14.182  19.243  18.360  1.00  0.00     0.026 C 
BRANCH  25  26
HETATM   26  C11 UNL     1      13.857  19.852  19.748  1.00  0.00     0.122 C 
BRANCH  26  27
HETATM   27  N2  UNL     1      14.013  18.755  20.679  1.00  0.00    -0.367 N 
HETATM   28  C12 UNL     1      13.023  18.126  21.180  1.00  0.00     0.196 C 
HETATM   29  N3  UNL     1      11.709  18.517  20.810  1.00  0.00    -0.067 NA
HETATM   30  N4  UNL     1      13.187  17.052  22.093  1.00  0.00    -0.067 NA
ATOM     31  H2  UNL     1      14.955  18.472  20.946  1.00  0.00     0.161 HD
ENDBRANCH  26  27
ENDBRANCH  25  26
ENDBRANCH  24  25
ENDBRANCH   6  24
BRANCH   1  32
HETATM   32  C3  UNL     1      17.233  24.023  18.827  1.00  0.00    -0.051 C 
BRANCH  32  33
HETATM   33  C2  UNL     1      17.535  23.481  20.182  1.00  0.00     0.032 C 
HETATM   34  C1  UNL     1      18.160  24.481  21.117  1.00  0.00     0.010 C 
ENDBRANCH  32  33
BRANCH  32  35
HETATM   35  C4  UNL     1      15.965  24.751  18.607  1.00  0.00     0.032 C 
HETATM   36  C5  UNL     1      14.767  23.951  18.182  1.00  0.00     0.010 C 
ENDBRANCH  32  35
ENDBRANCH   1  32
BRANCH  22  37
HETATM   37  C24 UNL     1      20.571  24.777  17.747  1.00  0.00     0.083 C 
HETATM   38  C25 UNL     1      20.026  26.029  18.470  1.00  0.00     0.032 C 
HETATM   39  C26 UNL     1      20.731  23.703  18.753  1.00  0.00     0.032 C 
ENDBRANCH  22  37
BRANCH  21  40
HETATM   40  C21 UNL     1      21.230  25.329  14.711  1.00  0.00     0.087 C 
BRANCH  40  41
HETATM   41  C22 UNL     1      21.335  26.764  15.132  1.00  0.00     0.081 C 
BRANCH  41  42
HETATM   42  S1  UNL     1      20.270  27.957  14.383  1.00  0.00    -0.173 SA
HETATM   43  C23 UNL     1      20.344  27.986  12.591  1.00  0.00     0.089 C 
ENDBRANCH  41  42
ENDBRANCH  40  41
ENDBRANCH  21  40
TORSDOF 11
ENDMDL
MODEL 4
REMARK VINA RESULT: -6.316698219      1.318      1.607
REMARK  11 active torsions:
REMARK  status: ('A' for Active; 'I' for Inactive)
REMARK    1  A    between atoms: C2_2  and  C3_3 
REMARK    2  A    between atoms: C3_3  and  C4_4 
REMARK    3  A    between atoms: C3_3  and  C6_6 
REMARK    4  A    between atoms: C8_11  and  C9_12 
REMARK    5  A    between atoms: C9_12  and  C10_13 
REMARK    6  A    between atoms: C10_13  and  C11_14 
REMARK    7  A    between atoms: C11_14  and  N2_15 
REMARK       I    between atoms: N2_15  and  C12_17 
REMARK    8  A    between atoms: C20_34  and  C21_35 
REMARK    9  A    between atoms: C21_35  and  C22_36 
REMARK   10  A    between atoms: C22_36  and  S1_37 
REMARK   11  A    between atoms: N9_39  and  C24_40 
ROOT
HETATM    1  C6  UNL     1      17.673  23.278  18.322  1.00  0.00     0.069 C 
HETATM    2  N1  UNL     1      18.372  22.050  18.008  1.00  0.00    -0.320 N 
ATOM      3  H1  UNL     1      19.340  21.932  18.309  1.00  0.00     0.169 HD
HETATM    4  C7  UNL     1      17.717  20.986  17.273  1.00  0.00     0.268 C 
HETATM    5  O1  UNL     1      18.334  20.423  16.339  1.00  0.00    -0.266 OA
HETATM    6  C8  UNL     1      16.349  20.566  17.609  1.00  0.00     0.078 C 
HETATM    7  N5  UNL     1      15.289  20.961  16.847  1.00  0.00    -0.351 N 
ATOM      8  H5  UNL     1      14.700  20.130  16.915  1.00  0.00     0.166 HD
HETATM    9  C13 UNL     1      14.584  21.665  16.135  1.00  0.00     0.097 A 
HETATM   10  C14 UNL     1      13.355  21.131  15.723  1.00  0.00    -0.029 A 
HETATM   11  C15 UNL     1      12.897  19.743  16.084  1.00  0.00     0.050 C 
HETATM   12  C16 UNL     1      12.452  21.818  14.952  1.00  0.00     0.026 A 
HETATM   13  C17 UNL     1      12.806  23.098  14.580  1.00  0.00     0.091 A 
HETATM   14  N6  UNL     1      13.940  23.555  14.975  1.00  0.00    -0.339 N 
ATOM     15  H6  UNL     1      14.139  24.507  14.666  1.00  0.00     0.168 HD
HETATM   16  C18 UNL     1      14.923  22.997  15.730  1.00  0.00     0.208 A 
HETATM   17  N7  UNL     1      15.987  23.512  16.033  1.00  0.00    -0.364 NA
HETATM   18  C19 UNL     1      17.011  24.364  16.172  1.00  0.00     0.212 A 
HETATM   19  N8  UNL     1      17.512  25.375  15.423  1.00  0.00    -0.319 N 
ATOM     20  H8  UNL     1      17.114  25.693  14.539  1.00  0.00     0.169 HD
HETATM   21  C20 UNL     1      18.590  25.896  15.995  1.00  0.00     0.087 A 
HETATM   22  N9  UNL     1      18.844  25.247  17.139  1.00  0.00    -0.327 N 
HETATM   23  C27 UNL     1      17.907  24.307  17.295  1.00  0.00     0.122 A 
ENDROOT
BRANCH   6  24
HETATM   24  C9  UNL     1      16.331  19.073  18.005  1.00  0.00     0.064 C 
BRANCH  24  25
HETATM   25  C10 UNL     1      15.027  18.501  18.348  1.00  0.00     0.026 C 
BRANCH  25  26
HETATM   26  C11 UNL     1      14.582  19.154  19.681  1.00  0.00     0.122 C 
BRANCH  26  27
HETATM   27  N2  UNL     1      13.135  19.102  19.654  1.00  0.00    -0.367 N 
HETATM   28  C12 UNL     1      12.452  18.411  20.480  1.00  0.00     0.196 C 
HETATM   29  N3  UNL     1      13.137  17.660  21.472  1.00  0.00    -0.067 NA
HETATM   30  N4  UNL     1      11.034  18.367  20.445  1.00  0.00    -0.067 NA
ATOM     31  H2  UNL     1      12.641  19.641  18.944  1.00  0.00     0.161 HD
ENDBRANCH  26  27
ENDBRANCH  25  26
ENDBRANCH  24  25
ENDBRANCH   6  24
BRANCH   1  32
HETATM   32  C3  UNL     1      17.490  23.597  19.750  1.00  0.00    -0.051 C 
BRANCH  32  33
HETATM   33  C2  UNL     1      18.730  24.131  20.381  1.00  0.00     0.032 C 
HETATM   34  C1  UNL     1      19.649  23.070  20.923  1.00  0.00     0.010 C 
ENDBRANCH  32  33
BRANCH  32  35
HETATM   35  C4  UNL     1      16.558  22.787  20.562  1.00  0.00     0.032 C 
HETATM   36  C5  UNL     1      15.238  22.419  19.947  1.00  0.00     0.010 C 
ENDBRANCH  32  35
ENDBRANCH   1  32
BRANCH  22  37
HETATM   37  C24 UNL     1      20.027  25.430  17.994  1.00  0.00     0.083 C 
HETATM   38  C25 UNL     1      21.143  24.438  17.598  1.00  0.00     0.032 C 
HETATM   39  C26 UNL     1      20.606  26.792  17.993  1.00  0.00     0.032 C 
ENDBRANCH  22  37
BRANCH  21  40
HETATM   40  C21 UNL     1      19.380  26.991  15.329  1.00  0.00     0.087 C 
BRANCH  40  41
HETATM   41  C22 UNL     1      19.242  26.956  13.837  1.00  0.00     0.081 C 
BRANCH  41  42
HETATM   42  S1  UNL     1      20.247  25.839  12.909  1.00  0.00    -0.173 SA
HETATM   43  C23 UNL     1      21.181  24.682  13.913  1.00  0.00     0.089 C 
ENDBRANCH  41  42
ENDBRANCH  40  41
ENDBRANCH  21  40
TORSDOF 11
ENDMDL
MODEL 5
REMARK VINA RESULT: -6.238396326      5.941      9.888
REMARK  11 active torsions:
REMARK  status: ('A' for Active; 'I' for Inactive)
REMARK    1  A    between atoms: C2_2  and  C3_3 
REMARK    2  A    between atoms: C3_3  and  C4_4 
REMARK    3  A    between atoms: C3_3  and  C6_6 
REMARK    4  A    between atoms: C8_11  and  C9_12 
REMARK    5  A    between atoms: C9_12  and  C10_13 
REMARK    6  A    between atoms: C10_13  and  C11_14 
REMARK    7  A    between atoms: C11_14  and  N2_15 
REMARK       I    between atoms: N2_15  and  C12_17 
REMARK    8  A    between atoms: C20_34  and  C21_35 
REMARK    9  A    between atoms: C21_35  and  C22_36 
REMARK   10  A    between atoms: C22_36  and  S1_37 
REMARK   11  A    between atoms: N9_39  and  C24_40 
ROOT
HETATM    1  C6  UNL     1      24.636  25.047  19.284  1.00  0.00     0.069 C 
HETATM    2  N1  UNL     1      24.082  26.338  18.938  1.00  0.00    -0.320 N 
ATOM      3  H1  UNL     1      24.699  27.149  18.873  1.00  0.00     0.169 HD
HETATM    4  C7  UNL     1      22.664  26.498  18.684  1.00  0.00     0.268 C 
HETATM    5  O1  UNL     1      22.061  27.471  19.192  1.00  0.00    -0.266 OA
HETATM    6  C8  UNL     1      21.934  25.537  17.844  1.00  0.00     0.078 C 
HETATM    7  N5  UNL     1      21.138  24.581  18.404  1.00  0.00    -0.351 N 
ATOM      8  H5  UNL     1      20.398  24.531  17.703  1.00  0.00     0.166 HD
HETATM    9  C13 UNL     1      20.735  23.744  19.202  1.00  0.00     0.097 A 
HETATM   10  C14 UNL     1      19.535  23.089  18.889  1.00  0.00    -0.029 A 
HETATM   11  C15 UNL     1      18.725  23.396  17.658  1.00  0.00     0.050 C 
HETATM   12  C16 UNL     1      18.982  22.108  19.672  1.00  0.00     0.026 A 
HETATM   13  C17 UNL     1      19.671  21.775  20.821  1.00  0.00     0.091 A 
HETATM   14  N6  UNL     1      20.766  22.397  21.077  1.00  0.00    -0.339 N 
ATOM     15  H6  UNL     1      21.223  22.101  21.939  1.00  0.00     0.168 HD
HETATM   16  C18 UNL     1      21.424  23.377  20.404  1.00  0.00     0.208 A 
HETATM   17  N7  UNL     1      22.458  23.925  20.746  1.00  0.00    -0.364 NA
HETATM   18  C19 UNL     1      23.564  24.288  21.409  1.00  0.00     0.212 A 
HETATM   19  N8  UNL     1      23.931  24.287  22.713  1.00  0.00    -0.319 N 
ATOM     20  H8  UNL     1      23.351  23.940  23.477  1.00  0.00     0.169 HD
HETATM   21  C20 UNL     1      25.147  24.797  22.861  1.00  0.00     0.087 A 
HETATM   22  N9  UNL     1      25.626  25.158  21.663  1.00  0.00    -0.327 N 
HETATM   23  C27 UNL     1      24.701  24.864  20.744  1.00  0.00     0.122 A 
ENDROOT
BRANCH   6  24
HETATM   24  C9  UNL     1      21.310  26.257  16.628  1.00  0.00     0.064 C 
BRANCH  24  25
HETATM   25  C10 UNL     1      22.081  26.229  15.383  1.00  0.00     0.026 C 
BRANCH  25  26
HETATM   26  C11 UNL     1      21.070  26.387  14.219  1.00  0.00     0.122 C 
BRANCH  26  27
HETATM   27  N2  UNL     1      20.148  25.282  14.376  1.00  0.00    -0.367 N 
HETATM   28  C12 UNL     1      18.889  25.401  14.208  1.00  0.00     0.196 C 
HETATM   29  N3  UNL     1      18.366  26.672  13.851  1.00  0.00    -0.067 NA
HETATM   30  N4  UNL     1      17.995  24.310  14.365  1.00  0.00    -0.067 NA
ATOM     31  H2  UNL     1      20.521  24.368  14.632  1.00  0.00     0.161 HD
ENDBRANCH  26  27
ENDBRANCH  25  26
ENDBRANCH  24  25
ENDBRANCH   6  24
BRANCH   1  32
HETATM   32  C3  UNL     1      25.634  24.477  18.360  1.00  0.00    -0.051 C 
BRANCH  32  33
HETATM   33  C2  UNL     1      26.351  23.307  18.939  1.00  0.00     0.032 C 
HETATM   34  C1  UNL     1      25.609  22.004  18.804  1.00  0.00     0.010 C 
ENDBRANCH  32  33
BRANCH  32  35
HETATM   35  C4  UNL     1      26.348  25.370  17.423  1.00  0.00     0.032 C 
HETATM   36  C5  UNL     1      27.838  25.485  17.569  1.00  0.00     0.010 C 
ENDBRANCH  32  35
ENDBRANCH   1  32
BRANCH  22  37
HETATM   37  C24 UNL     1      26.880  25.887  21.415  1.00  0.00     0.083 C 
HETATM   38  C25 UNL     1      27.025  27.067  22.402  1.00  0.00     0.032 C 
HETATM   39  C26 UNL     1      28.113  25.073  21.493  1.00  0.00     0.032 C 
ENDBRANCH  22  37
BRANCH  21  40
HETATM   40  C21 UNL     1      25.764  24.975  24.222  1.00  0.00     0.087 C 
BRANCH  40  41
HETATM   41  C22 UNL     1      26.719  23.869  24.555  1.00  0.00     0.081 C 
BRANCH  41  42
HETATM   42  S1  UNL     1      27.138  23.578  26.246  1.00  0.00    -0.173 SA
HETATM   43  C23 UNL     1      27.711  21.912  26.585  1.00  0.00     0.089 C 
ENDBRANCH  41  42
ENDBRANCH  40  41
ENDBRANCH  21  40
TORSDOF 11
ENDMDL
