MODEL 1
REMARK VINA RESULT: -9.802558131      0.000      0.000
REMARK  13 active torsions:
REMARK  status: ('A' for Active; 'I' for Inactive)
REMARK    1  A    between atoms: C7_7  and  C8_8 
REMARK    2  A    between atoms: C8_8  and  C9_9 
REMARK       I    between atoms: C9_9  and  N1_11 
REMARK    3  A    between atoms: N1_11  and  C10_13 
REMARK    4  A    between atoms: C11_18  and  C12_19 
REMARK    5  A    between atoms: C12_19  and  C13_20 
REMARK    6  A    between atoms: C13_20  and  C14_21 
REMARK    7  A    between atoms: C14_21  and  C15_22 
REMARK    8  A    between atoms: C15_22  and  C16_23 
REMARK    9  A    between atoms: C19_26  and  N4_27 
REMARK       I    between atoms: N4_27  and  C20_29 
REMARK   10  A    between atoms: C20_29  and  C21_31 
REMARK   11  A    between atoms: C21_31  and  S1_32 
REMARK   12  A    between atoms: S1_32  and  C22_33 
REMARK   13  A    between atoms: C22_33  and  C23_34 
ROOT
HETATM    1  C15 UNL     1      17.138  22.271  19.701  1.00  0.00     0.058 C 
ENDROOT
BRANCH   1   2
HETATM    2  C14 UNL     1      18.523  21.734  19.500  1.00  0.00     0.006 C 
BRANCH   2   3
HETATM    3  C13 UNL     1      19.574  22.156  20.429  1.00  0.00     0.007 C 
BRANCH   3   4
HETATM    4  C12 UNL     1      19.531  23.477  21.066  1.00  0.00     0.066 C 
BRANCH   4   5
HETATM    5  C11 UNL     1      20.095  24.574  20.205  1.00  0.00     0.069 A 
HETATM    6  N3  UNL     1      19.509  25.177  19.179  1.00  0.00    -0.296 N 
HETATM    7  N2  UNL     1      20.098  26.098  18.548  1.00  0.00    -0.279 N 
ATOM      8  H3  UNL     1      18.571  24.892  18.896  1.00  0.00     0.187 HD
HETATM    9  C10 UNL     1      21.333  26.456  18.937  1.00  0.00     0.167 A 
ATOM     10  H2  UNL     1      19.646  26.560  17.760  1.00  0.00     0.189 HD
HETATM   11  S2  UNL     1      21.591  25.398  20.251  1.00  0.00    -0.038 SA
BRANCH   9  12
HETATM   12  N1  UNL     1      22.026  27.375  18.361  1.00  0.00    -0.306 N 
HETATM   13  C9  UNL     1      22.256  27.566  17.011  1.00  0.00     0.227 C 
HETATM   14  O1  UNL     1      22.001  28.716  16.508  1.00  0.00    -0.273 OA
ATOM     15  H1  UNL     1      22.466  28.052  18.985  1.00  0.00     0.171 HD
BRANCH  13  16
HETATM   16  C8  UNL     1      22.780  26.575  16.039  1.00  0.00     0.141 C 
BRANCH  16  17
HETATM   17  C7  UNL     1      21.693  26.353  15.044  1.00  0.00    -0.048 A 
HETATM   18  C6  UNL     1      20.646  25.505  15.269  1.00  0.00     0.014 A 
HETATM   19  C4  UNL     1      19.641  25.317  14.322  1.00  0.00    -0.061 A 
HETATM   20  C3  UNL     1      19.736  26.023  13.134  1.00  0.00     0.013 A 
HETATM   21  C5  UNL     1      18.488  24.406  14.536  1.00  0.00     0.048 C 
HETATM   22  C2  UNL     1      20.797  26.892  12.891  1.00  0.00    -0.061 A 
HETATM   23  C1  UNL     1      20.865  27.636  11.598  1.00  0.00     0.048 C 
HETATM   24  C25 UNL     1      21.772  27.053  13.846  1.00  0.00     0.014 A 
ENDBRANCH  16  17
ENDBRANCH  13  16
ENDBRANCH   9  12
ENDBRANCH   4   5
ENDBRANCH   3   4
ENDBRANCH   2   3
ENDBRANCH   1   2
BRANCH   1  25
HETATM   25  C16 UNL     1      16.103  21.357  19.106  1.00  0.00     0.026 A 
HETATM   26  C17 UNL     1      16.435  20.200  18.448  1.00  0.00     0.030 A 
HETATM   27  C18 UNL     1      15.428  19.400  17.901  1.00  0.00     0.052 A 
HETATM   28  C19 UNL     1      14.104  19.735  18.002  1.00  0.00     0.122 A 
HETATM   29  N8  UNL     1      13.829  20.884  18.660  1.00  0.00    -0.285 N 
HETATM   30  N9  UNL     1      14.779  21.641  19.177  1.00  0.00    -0.303 N 
ATOM     31  H8  UNL     1      12.856  21.174  18.760  1.00  0.00     0.188 HD
ATOM     32  H9  UNL     1      14.499  22.494  19.660  1.00  0.00     0.186 HD
BRANCH  28  33
HETATM   33  N4  UNL     1      13.149  18.998  17.484  1.00  0.00    -0.311 N 
HETATM   34  C20 UNL     1      11.793  19.361  17.702  1.00  0.00     0.232 C 
HETATM   35  O2  UNL     1      11.278  19.307  18.873  1.00  0.00    -0.272 OA
ATOM     36  H4  UNL     1      13.379  18.172  16.930  1.00  0.00     0.170 HD
BRANCH  34  37
HETATM   37  C21 UNL     1      10.865  19.823  16.642  1.00  0.00     0.177 C 
BRANCH  37  38
HETATM   38  S1  UNL     1      11.772  20.013  15.091  1.00  0.00    -0.152 SA
BRANCH  38  39
HETATM   39  C22 UNL     1      11.924  21.773  14.712  1.00  0.00     0.152 C 
BRANCH  39  40
HETATM   40  C23 UNL     1      13.178  22.334  15.230  1.00  0.00     0.106 A 
HETATM   41  N5  UNL     1      14.389  21.761  15.009  1.00  0.00    -0.339 N 
HETATM   42  C24 UNL     1      15.324  22.499  15.607  1.00  0.00     0.198 A 
ATOM     43  H5  UNL     1      14.554  20.908  14.474  1.00  0.00     0.168 HD
HETATM   44  N6  UNL     1      14.707  23.526  16.198  1.00  0.00    -0.295 N 
HETATM   45  N7  UNL     1      13.407  23.415  15.961  1.00  0.00    -0.287 N 
ATOM     46  H6  UNL     1      15.157  24.266  16.737  1.00  0.00     0.187 HD
ATOM     47  H7  UNL     1      12.692  24.063  16.293  1.00  0.00     0.188 HD
ENDBRANCH  39  40
ENDBRANCH  38  39
ENDBRANCH  37  38
ENDBRANCH  34  37
ENDBRANCH  28  33
ENDBRANCH   1  25
TORSDOF 13
ENDMDL
MODEL 2
REMARK VINA RESULT: -9.720671635      0.099      1.384
REMARK  13 active torsions:
REMARK  status: ('A' for Active; 'I' for Inactive)
REMARK    1  A    between atoms: C7_7  and  C8_8 
REMARK    2  A    between atoms: C8_8  and  C9_9 
REMARK       I    between atoms: C9_9  and  N1_11 
REMARK    3  A    between atoms: N1_11  and  C10_13 
REMARK    4  A    between atoms: C11_18  and  C12_19 
REMARK    5  A    between atoms: C12_19  and  C13_20 
REMARK    6  A    between atoms: C13_20  and  C14_21 
REMARK    7  A    between atoms: C14_21  and  C15_22 
REMARK    8  A    between atoms: C15_22  and  C16_23 
REMARK    9  A    between atoms: C19_26  and  N4_27 
REMARK       I    between atoms: N4_27  and  C20_29 
REMARK   10  A    between atoms: C20_29  and  C21_31 
REMARK   11  A    between atoms: C21_31  and  S1_32 
REMARK   12  A    between atoms: S1_32  and  C22_33 
REMARK   13  A    between atoms: C22_33  and  C23_34 
ROOT
HETATM    1  C15 UNL     1      17.205  22.270  19.668  1.00  0.00     0.058 C 
ENDROOT
BRANCH   1   2
HETATM    2  C14 UNL     1      18.582  21.718  19.457  1.00  0.00     0.006 C 
BRANCH   2   3
HETATM    3  C13 UNL     1      19.642  22.124  20.383  1.00  0.00     0.007 C 
BRANCH   3   4
HETATM    4  C12 UNL     1      19.604  23.430  21.048  1.00  0.00     0.066 C 
BRANCH   4   5
HETATM    5  C11 UNL     1      20.168  24.544  20.208  1.00  0.00     0.069 A 
HETATM    6  N3  UNL     1      19.544  25.240  19.267  1.00  0.00    -0.296 N 
HETATM    7  N2  UNL     1      20.139  26.163  18.645  1.00  0.00    -0.279 N 
ATOM      8  H3  UNL     1      18.572  25.026  19.042  1.00  0.00     0.187 HD
HETATM    9  C10 UNL     1      21.419  26.428  18.955  1.00  0.00     0.167 A 
ATOM     10  H2  UNL     1      19.658  26.697  17.921  1.00  0.00     0.189 HD
HETATM   11  S2  UNL     1      21.710  25.279  20.184  1.00  0.00    -0.038 SA
BRANCH   9  12
HETATM   12  N1  UNL     1      22.122  27.339  18.380  1.00  0.00    -0.306 N 
HETATM   13  C9  UNL     1      22.339  27.539  17.029  1.00  0.00     0.227 C 
HETATM   14  O1  UNL     1      22.098  28.698  16.539  1.00  0.00    -0.273 OA
ATOM     15  H1  UNL     1      22.581  28.003  19.004  1.00  0.00     0.171 HD
BRANCH  13  16
HETATM   16  C8  UNL     1      22.834  26.547  16.041  1.00  0.00     0.141 C 
BRANCH  16  17
HETATM   17  C7  UNL     1      21.768  26.423  15.007  1.00  0.00    -0.048 A 
HETATM   18  C6  UNL     1      21.768  27.152  13.853  1.00  0.00     0.014 A 
HETATM   19  C4  UNL     1      20.760  27.015  12.901  1.00  0.00    -0.061 A 
HETATM   20  C3  UNL     1      19.747  26.108  13.163  1.00  0.00     0.013 A 
HETATM   21  C5  UNL     1      20.732  27.790  11.634  1.00  0.00     0.048 C 
HETATM   22  C2  UNL     1      19.734  25.356  14.336  1.00  0.00    -0.061 A 
HETATM   23  C1  UNL     1      18.625  24.387  14.583  1.00  0.00     0.048 C 
HETATM   24  C25 UNL     1      20.744  25.516  15.254  1.00  0.00     0.014 A 
ENDBRANCH  16  17
ENDBRANCH  13  16
ENDBRANCH   9  12
ENDBRANCH   4   5
ENDBRANCH   3   4
ENDBRANCH   2   3
ENDBRANCH   1   2
BRANCH   1  25
HETATM   25  C16 UNL     1      16.156  21.371  19.073  1.00  0.00     0.026 A 
HETATM   26  C17 UNL     1      16.467  20.186  18.455  1.00  0.00     0.030 A 
HETATM   27  C18 UNL     1      15.450  19.402  17.906  1.00  0.00     0.052 A 
HETATM   28  C19 UNL     1      14.135  19.780  17.964  1.00  0.00     0.122 A 
HETATM   29  N8  UNL     1      13.880  20.955  18.584  1.00  0.00    -0.285 N 
HETATM   30  N9  UNL     1      14.840  21.697  19.103  1.00  0.00    -0.303 N 
ATOM     31  H8  UNL     1      12.914  21.277  18.652  1.00  0.00     0.188 HD
ATOM     32  H9  UNL     1      14.575  22.572  19.555  1.00  0.00     0.186 HD
BRANCH  28  33
HETATM   33  N4  UNL     1      13.171  19.057  17.444  1.00  0.00    -0.311 N 
HETATM   34  C20 UNL     1      11.819  19.407  17.706  1.00  0.00     0.232 C 
HETATM   35  O2  UNL     1      11.332  19.312  18.886  1.00  0.00    -0.272 OA
ATOM     36  H4  UNL     1      13.390  18.252  16.857  1.00  0.00     0.170 HD
BRANCH  34  37
HETATM   37  C21 UNL     1      10.865  19.902  16.684  1.00  0.00     0.177 C 
BRANCH  37  38
HETATM   38  S1  UNL     1      11.704  20.025  15.088  1.00  0.00    -0.152 SA
BRANCH  38  39
HETATM   39  C22 UNL     1      11.885  21.769  14.653  1.00  0.00     0.152 C 
BRANCH  39  40
HETATM   40  C23 UNL     1      13.144  22.328  15.160  1.00  0.00     0.106 A 
HETATM   41  N5  UNL     1      14.356  21.776  14.894  1.00  0.00    -0.339 N 
HETATM   42  C24 UNL     1      15.296  22.506  15.494  1.00  0.00     0.198 A 
ATOM     43  H5  UNL     1      14.519  20.943  14.328  1.00  0.00     0.168 HD
HETATM   44  N6  UNL     1      14.681  23.506  16.132  1.00  0.00    -0.295 N 
HETATM   45  N7  UNL     1      13.378  23.387  15.921  1.00  0.00    -0.287 N 
ATOM     46  H6  UNL     1      15.135  24.234  16.685  1.00  0.00     0.187 HD
ATOM     47  H7  UNL     1      12.663  24.016  16.290  1.00  0.00     0.188 HD
ENDBRANCH  39  40
ENDBRANCH  38  39
ENDBRANCH  37  38
ENDBRANCH  34  37
ENDBRANCH  28  33
ENDBRANCH   1  25
TORSDOF 13
ENDMDL
MODEL 3
REMARK VINA RESULT: -9.540680517      1.058      1.113
REMARK  13 active torsions:
REMARK  status: ('A' for Active; 'I' for Inactive)
REMARK    1  A    between atoms: C7_7  and  C8_8 
REMARK    2  A    between atoms: C8_8  and  C9_9 
REMARK       I    between atoms: C9_9  and  N1_11 
REMARK    3  A    between atoms: N1_11  and  C10_13 
REMARK    4  A    between atoms: C11_18  and  C12_19 
REMARK    5  A    between atoms: C12_19  and  C13_20 
REMARK    6  A    between atoms: C13_20  and  C14_21 
REMARK    7  A    between atoms: C14_21  and  C15_22 
REMARK    8  A    between atoms: C15_22  and  C16_23 
REMARK    9  A    between atoms: C19_26  and  N4_27 
REMARK       I    between atoms: N4_27  and  C20_29 
REMARK   10  A    between atoms: C20_29  and  C21_31 
REMARK   11  A    between atoms: C21_31  and  S1_32 
REMARK   12  A    between atoms: S1_32  and  C22_33 
REMARK   13  A    between atoms: C22_33  and  C23_34 
ROOT
HETATM    1  C15 UNL     1      16.766  22.460  19.187  1.00  0.00     0.058 C 
ENDROOT
BRANCH   1   2
HETATM    2  C14 UNL     1      18.157  21.906  19.268  1.00  0.00     0.006 C 
BRANCH   2   3
HETATM    3  C13 UNL     1      19.009  22.332  20.380  1.00  0.00     0.007 C 
BRANCH   3   4
HETATM    4  C12 UNL     1      20.466  22.178  20.317  1.00  0.00     0.066 C 
BRANCH   4   5
HETATM    5  C11 UNL     1      21.175  23.402  19.805  1.00  0.00     0.069 A 
HETATM    6  N3  UNL     1      22.480  23.571  19.644  1.00  0.00    -0.296 N 
HETATM    7  N2  UNL     1      22.941  24.655  19.190  1.00  0.00    -0.279 N 
ATOM      8  H3  UNL     1      23.120  22.815  19.890  1.00  0.00     0.187 HD
HETATM    9  C10 UNL     1      22.081  25.637  18.873  1.00  0.00     0.167 A 
ATOM     10  H2  UNL     1      23.945  24.782  19.066  1.00  0.00     0.189 HD
HETATM   11  S2  UNL     1      20.586  24.912  19.264  1.00  0.00    -0.038 SA
BRANCH   9  12
HETATM   12  N1  UNL     1      22.441  26.783  18.411  1.00  0.00    -0.306 N 
HETATM   13  C9  UNL     1      22.372  27.252  17.112  1.00  0.00     0.227 C 
HETATM   14  O1  UNL     1      21.785  28.371  16.901  1.00  0.00    -0.273 OA
ATOM     15  H1  UNL     1      22.830  27.431  19.096  1.00  0.00     0.171 HD
BRANCH  13  16
HETATM   16  C8  UNL     1      22.911  26.603  15.891  1.00  0.00     0.141 C 
BRANCH  16  17
HETATM   17  C7  UNL     1      21.752  26.416  14.974  1.00  0.00    -0.048 A 
HETATM   18  C6  UNL     1      20.752  25.520  15.218  1.00  0.00     0.014 A 
HETATM   19  C4  UNL     1      19.678  25.366  14.343  1.00  0.00    -0.061 A 
HETATM   20  C3  UNL     1      19.654  26.159  13.207  1.00  0.00     0.013 A 
HETATM   21  C5  UNL     1      18.572  24.403  14.580  1.00  0.00     0.048 C 
HETATM   22  C2  UNL     1      20.667  27.079  12.945  1.00  0.00    -0.061 A 
HETATM   23  C1  UNL     1      20.607  27.916  11.711  1.00  0.00     0.048 C 
HETATM   24  C25 UNL     1      21.712  27.204  13.829  1.00  0.00     0.014 A 
ENDBRANCH  16  17
ENDBRANCH  13  16
ENDBRANCH   9  12
ENDBRANCH   4   5
ENDBRANCH   3   4
ENDBRANCH   2   3
ENDBRANCH   1   2
BRANCH   1  25
HETATM   25  C16 UNL     1      15.764  21.381  18.877  1.00  0.00     0.026 A 
HETATM   26  C17 UNL     1      16.134  20.144  18.412  1.00  0.00     0.030 A 
HETATM   27  C18 UNL     1      15.155  19.190  18.125  1.00  0.00     0.052 A 
HETATM   28  C19 UNL     1      13.822  19.449  18.295  1.00  0.00     0.122 A 
HETATM   29  N8  UNL     1      13.508  20.682  18.755  1.00  0.00    -0.285 N 
HETATM   30  N9  UNL     1      14.432  21.585  19.027  1.00  0.00    -0.303 N 
ATOM     31  H8  UNL     1      12.526  20.920  18.898  1.00  0.00     0.188 HD
ATOM     32  H9  UNL     1      14.123  22.494  19.371  1.00  0.00     0.186 HD
BRANCH  28  33
HETATM   33  N4  UNL     1      12.891  18.565  18.019  1.00  0.00    -0.311 N 
HETATM   34  C20 UNL     1      11.689  18.990  17.393  1.00  0.00     0.232 C 
HETATM   35  O2  UNL     1      10.863  19.754  18.005  1.00  0.00    -0.272 OA
ATOM     36  H4  UNL     1      13.030  17.581  18.253  1.00  0.00     0.170 HD
BRANCH  34  37
HETATM   37  C21 UNL     1      11.278  18.614  16.019  1.00  0.00     0.177 C 
BRANCH  37  38
HETATM   38  S1  UNL     1      11.593  19.994  14.898  1.00  0.00    -0.152 SA
BRANCH  38  39
HETATM   39  C22 UNL     1      13.377  20.264  14.786  1.00  0.00     0.152 C 
BRANCH  39  40
HETATM   40  C23 UNL     1      13.758  21.586  15.298  1.00  0.00     0.106 A 
HETATM   41  N5  UNL     1      15.044  22.024  15.323  1.00  0.00    -0.339 N 
HETATM   42  C24 UNL     1      15.065  23.251  15.843  1.00  0.00     0.198 A 
ATOM     43  H5  UNL     1      15.857  21.500  14.998  1.00  0.00     0.168 HD
HETATM   44  N6  UNL     1      13.805  23.581  16.142  1.00  0.00    -0.295 N 
HETATM   45  N7  UNL     1      13.023  22.564  15.806  1.00  0.00    -0.287 N 
ATOM     46  H6  UNL     1      13.499  24.462  16.557  1.00  0.00     0.187 HD
ATOM     47  H7  UNL     1      12.010  22.539  15.922  1.00  0.00     0.188 HD
ENDBRANCH  39  40
ENDBRANCH  38  39
ENDBRANCH  37  38
ENDBRANCH  34  37
ENDBRANCH  28  33
ENDBRANCH   1  25
TORSDOF 13
ENDMDL
MODEL 4
REMARK VINA RESULT: -9.540432645      1.036      1.248
REMARK  13 active torsions:
REMARK  status: ('A' for Active; 'I' for Inactive)
REMARK    1  A    between atoms: C7_7  and  C8_8 
REMARK    2  A    between atoms: C8_8  and  C9_9 
REMARK       I    between atoms: C9_9  and  N1_11 
REMARK    3  A    between atoms: N1_11  and  C10_13 
REMARK    4  A    between atoms: C11_18  and  C12_19 
REMARK    5  A    between atoms: C12_19  and  C13_20 
REMARK    6  A    between atoms: C13_20  and  C14_21 
REMARK    7  A    between atoms: C14_21  and  C15_22 
REMARK    8  A    between atoms: C15_22  and  C16_23 
REMARK    9  A    between atoms: C19_26  and  N4_27 
REMARK       I    between atoms: N4_27  and  C20_29 
REMARK   10  A    between atoms: C20_29  and  C21_31 
REMARK   11  A    between atoms: C21_31  and  S1_32 
REMARK   12  A    between atoms: S1_32  and  C22_33 
REMARK   13  A    between atoms: C22_33  and  C23_34 
ROOT
HETATM    1  C15 UNL     1      16.951  22.296  19.498  1.00  0.00     0.058 C 
ENDROOT
BRANCH   1   2
HETATM    2  C14 UNL     1      18.327  21.939  19.021  1.00  0.00     0.006 C 
BRANCH   2   3
HETATM    3  C13 UNL     1      19.412  21.896  20.005  1.00  0.00     0.007 C 
BRANCH   3   4
HETATM    4  C12 UNL     1      19.702  23.052  20.859  1.00  0.00     0.066 C 
BRANCH   4   5
HETATM    5  C11 UNL     1      20.198  24.249  20.096  1.00  0.00     0.069 A 
HETATM    6  N3  UNL     1      19.493  25.060  19.319  1.00  0.00    -0.296 N 
HETATM    7  N2  UNL     1      20.039  26.042  18.744  1.00  0.00    -0.279 N 
ATOM      8  H3  UNL     1      18.497  24.887  19.183  1.00  0.00     0.187 HD
HETATM    9  C10 UNL     1      21.352  26.251  18.936  1.00  0.00     0.167 A 
ATOM     10  H2  UNL     1      19.495  26.664  18.147  1.00  0.00     0.189 HD
HETATM   11  S2  UNL     1      21.747  24.961  19.982  1.00  0.00    -0.038 SA
BRANCH   9  12
HETATM   12  N1  UNL     1      22.011  27.215  18.394  1.00  0.00    -0.306 N 
HETATM   13  C9  UNL     1      22.217  27.472  17.051  1.00  0.00     0.227 C 
HETATM   14  O1  UNL     1      21.922  28.635  16.603  1.00  0.00    -0.273 OA
ATOM     15  H1  UNL     1      22.437  27.877  19.042  1.00  0.00     0.171 HD
BRANCH  13  16
HETATM   16  C8  UNL     1      22.759  26.541  16.030  1.00  0.00     0.141 C 
BRANCH  16  17
HETATM   17  C7  UNL     1      21.668  26.330  15.039  1.00  0.00    -0.048 A 
HETATM   18  C6  UNL     1      20.626  25.475  15.256  1.00  0.00     0.014 A 
HETATM   19  C4  UNL     1      19.616  25.298  14.311  1.00  0.00    -0.061 A 
HETATM   20  C3  UNL     1      19.701  26.023  13.135  1.00  0.00     0.013 A 
HETATM   21  C5  UNL     1      18.468  24.378  14.517  1.00  0.00     0.048 C 
HETATM   22  C2  UNL     1      20.757  26.900  12.900  1.00  0.00    -0.061 A 
HETATM   23  C1  UNL     1      20.814  27.666  11.619  1.00  0.00     0.048 C 
HETATM   24  C25 UNL     1      21.737  27.051  13.852  1.00  0.00     0.014 A 
ENDBRANCH  16  17
ENDBRANCH  13  16
ENDBRANCH   9  12
ENDBRANCH   4   5
ENDBRANCH   3   4
ENDBRANCH   2   3
ENDBRANCH   1   2
BRANCH   1  25
HETATM   25  C16 UNL     1      16.001  21.139  19.348  1.00  0.00     0.026 A 
HETATM   26  C17 UNL     1      16.222  20.115  18.462  1.00  0.00     0.030 A 
HETATM   27  C18 UNL     1      15.294  19.076  18.357  1.00  0.00     0.052 A 
HETATM   28  C19 UNL     1      14.157  19.044  19.119  1.00  0.00     0.122 A 
HETATM   29  N8  UNL     1      13.985  20.075  19.977  1.00  0.00    -0.285 N 
HETATM   30  N9  UNL     1      14.861  21.058  20.077  1.00  0.00    -0.303 N 
ATOM     31  H8  UNL     1      13.152  20.094  20.566  1.00  0.00     0.188 HD
ATOM     32  H9  UNL     1      14.667  21.803  20.746  1.00  0.00     0.186 HD
BRANCH  28  33
HETATM   33  N4  UNL     1      13.271  18.079  19.022  1.00  0.00    -0.311 N 
HETATM   34  C20 UNL     1      11.907  18.355  19.309  1.00  0.00     0.232 C 
HETATM   35  O2  UNL     1      11.533  18.658  20.496  1.00  0.00    -0.272 OA
ATOM     36  H4  UNL     1      13.561  17.141  18.744  1.00  0.00     0.170 HD
BRANCH  34  37
HETATM   37  C21 UNL     1      10.815  18.323  18.307  1.00  0.00     0.177 C 
BRANCH  37  38
HETATM   38  S1  UNL     1      10.876  19.823  17.303  1.00  0.00    -0.152 SA
BRANCH  38  39
HETATM   39  C22 UNL     1      11.914  19.518  15.856  1.00  0.00     0.152 C 
BRANCH  39  40
HETATM   40  C23 UNL     1      13.045  20.452  15.792  1.00  0.00     0.106 A 
HETATM   41  N5  UNL     1      13.106  21.588  16.532  1.00  0.00    -0.339 N 
HETATM   42  C24 UNL     1      14.246  22.219  16.251  1.00  0.00     0.198 A 
ATOM     43  H5  UNL     1      12.397  21.906  17.194  1.00  0.00     0.168 HD
HETATM   44  N6  UNL     1      14.896  21.486  15.342  1.00  0.00    -0.295 N 
HETATM   45  N7  UNL     1      14.158  20.418  15.073  1.00  0.00    -0.287 N 
ATOM     46  H6  UNL     1      15.801  21.709  14.927  1.00  0.00     0.187 HD
ATOM     47  H7  UNL     1      14.409  19.681  14.412  1.00  0.00     0.188 HD
ENDBRANCH  39  40
ENDBRANCH  38  39
ENDBRANCH  37  38
ENDBRANCH  34  37
ENDBRANCH  28  33
ENDBRANCH   1  25
TORSDOF 13
ENDMDL
MODEL 5
REMARK VINA RESULT: -9.539378956      2.081      6.509
REMARK  13 active torsions:
REMARK  status: ('A' for Active; 'I' for Inactive)
REMARK    1  A    between atoms: C7_7  and  C8_8 
REMARK    2  A    between atoms: C8_8  and  C9_9 
REMARK       I    between atoms: C9_9  and  N1_11 
REMARK    3  A    between atoms: N1_11  and  C10_13 
REMARK    4  A    between atoms: C11_18  and  C12_19 
REMARK    5  A    between atoms: C12_19  and  C13_20 
REMARK    6  A    between atoms: C13_20  and  C14_21 
REMARK    7  A    between atoms: C14_21  and  C15_22 
REMARK    8  A    between atoms: C15_22  and  C16_23 
REMARK    9  A    between atoms: C19_26  and  N4_27 
REMARK       I    between atoms: N4_27  and  C20_29 
REMARK   10  A    between atoms: C20_29  and  C21_31 
REMARK   11  A    between atoms: C21_31  and  S1_32 
REMARK   12  A    between atoms: S1_32  and  C22_33 
REMARK   13  A    between atoms: C22_33  and  C23_34 
ROOT
HETATM    1  C15 UNL     1      11.798  19.797  17.651  1.00  0.00     0.058 C 
ENDROOT
BRANCH   1   2
HETATM    2  C14 UNL     1      11.776  19.642  16.160  1.00  0.00     0.006 C 
BRANCH   2   3
HETATM    3  C13 UNL     1      11.347  20.784  15.350  1.00  0.00     0.007 C 
BRANCH   3   4
HETATM    4  C12 UNL     1      12.214  21.336  14.304  1.00  0.00     0.066 C 
BRANCH   4   5
HETATM    5  C11 UNL     1      13.417  22.059  14.845  1.00  0.00     0.069 A 
HETATM    6  N3  UNL     1      13.439  23.007  15.772  1.00  0.00    -0.296 N 
HETATM    7  N2  UNL     1      14.529  23.523  16.144  1.00  0.00    -0.279 N 
ATOM      8  H3  UNL     1      12.564  23.324  16.190  1.00  0.00     0.187 HD
HETATM    9  C10 UNL     1      15.670  23.092  15.580  1.00  0.00     0.167 A 
ATOM     10  H2  UNL     1      14.544  24.252  16.856  1.00  0.00     0.189 HD
HETATM   11  S2  UNL     1      15.083  21.913  14.495  1.00  0.00    -0.038 SA
BRANCH   9  12
HETATM   12  N1  UNL     1      16.834  23.553  15.877  1.00  0.00    -0.306 N 
HETATM   13  C9  UNL     1      17.232  24.870  16.018  1.00  0.00     0.227 C 
HETATM   14  O1  UNL     1      17.824  25.213  17.100  1.00  0.00    -0.273 OA
ATOM     15  H1  UNL     1      17.560  22.853  16.028  1.00  0.00     0.171 HD
BRANCH  13  16
HETATM   16  C8  UNL     1      17.056  25.972  15.039  1.00  0.00     0.141 C 
BRANCH  16  17
HETATM   17  C7  UNL     1      18.356  26.104  14.324  1.00  0.00    -0.048 A 
HETATM   18  C6  UNL     1      18.690  27.208  13.593  1.00  0.00     0.014 A 
HETATM   19  C4  UNL     1      19.915  27.306  12.934  1.00  0.00    -0.061 A 
HETATM   20  C3  UNL     1      20.792  26.240  13.044  1.00  0.00     0.013 A 
HETATM   21  C5  UNL     1      20.310  28.493  12.135  1.00  0.00     0.048 C 
HETATM   22  C2  UNL     1      20.465  25.107  13.787  1.00  0.00    -0.061 A 
HETATM   23  C1  UNL     1      21.437  23.978  13.882  1.00  0.00     0.048 C 
HETATM   24  C25 UNL     1      19.249  25.043  14.423  1.00  0.00     0.014 A 
ENDBRANCH  16  17
ENDBRANCH  13  16
ENDBRANCH   9  12
ENDBRANCH   4   5
ENDBRANCH   3   4
ENDBRANCH   2   3
ENDBRANCH   1   2
BRANCH   1  25
HETATM   25  C16 UNL     1      13.191  20.056  18.155  1.00  0.00     0.026 A 
HETATM   26  C17 UNL     1      14.202  19.137  18.030  1.00  0.00     0.030 A 
HETATM   27  C18 UNL     1      15.471  19.430  18.534  1.00  0.00     0.052 A 
HETATM   28  C19 UNL     1      15.745  20.618  19.157  1.00  0.00     0.122 A 
HETATM   29  N8  UNL     1      14.717  21.491  19.254  1.00  0.00    -0.285 N 
HETATM   30  N9  UNL     1      13.517  21.216  18.779  1.00  0.00    -0.303 N 
ATOM     31  H8  UNL     1      14.874  22.390  19.710  1.00  0.00     0.188 HD
ATOM     32  H9  UNL     1      12.787  21.921  18.887  1.00  0.00     0.186 HD
BRANCH  28  33
HETATM   33  N4  UNL     1      16.931  20.901  19.644  1.00  0.00    -0.311 N 
HETATM   34  C20 UNL     1      17.664  21.992  19.104  1.00  0.00     0.232 C 
HETATM   35  O2  UNL     1      18.102  21.960  17.901  1.00  0.00    -0.272 OA
ATOM     36  H4  UNL     1      17.323  20.343  20.402  1.00  0.00     0.170 HD
BRANCH  34  37
HETATM   37  C21 UNL     1      17.986  23.237  19.843  1.00  0.00     0.177 C 
BRANCH  37  38
HETATM   38  S1  UNL     1      19.609  23.072  20.619  1.00  0.00    -0.152 SA
BRANCH  38  39
HETATM   39  C22 UNL     1      20.390  24.699  20.699  1.00  0.00     0.152 C 
BRANCH  39  40
HETATM   40  C23 UNL     1      20.639  25.249  19.361  1.00  0.00     0.106 A 
HETATM   41  N5  UNL     1      20.656  26.581  19.103  1.00  0.00    -0.339 N 
HETATM   42  C24 UNL     1      20.902  26.760  17.805  1.00  0.00     0.198 A 
ATOM     43  H5  UNL     1      20.506  27.322  19.788  1.00  0.00     0.168 HD
HETATM   44  N6  UNL     1      21.038  25.551  17.252  1.00  0.00    -0.295 N 
HETATM   45  N7  UNL     1      20.877  24.644  18.206  1.00  0.00    -0.287 N 
ATOM     46  H6  UNL     1      21.232  25.359  16.269  1.00  0.00     0.187 HD
ATOM     47  H7  UNL     1      20.928  23.634  18.071  1.00  0.00     0.188 HD
ENDBRANCH  39  40
ENDBRANCH  38  39
ENDBRANCH  37  38
ENDBRANCH  34  37
ENDBRANCH  28  33
ENDBRANCH   1  25
TORSDOF 13
ENDMDL
