MODEL 1
REMARK VINA RESULT: -9.118025473      0.000      0.000
REMARK  10 active torsions:
REMARK  status: ('A' for Active; 'I' for Inactive)
REMARK    1  A    between atoms: C2_2  and  C3_3 
REMARK    2  A    between atoms: C3_3  and  C4_4 
REMARK    3  A    between atoms: C4_4  and  C5_5 
REMARK    4  A    between atoms: C5_5  and  C6_6 
REMARK    5  A    between atoms: C7_7  and  C8_8 
REMARK    6  A    between atoms: C8_8  and  C9_9 
REMARK    7  A    between atoms: C9_9  and  C10_10 
REMARK    8  A    between atoms: C10_10  and  N1_11 
REMARK    9  A    between atoms: C20_27  and  C21_28 
REMARK   10  A    between atoms: C21_28  and  C22_29 
ROOT
HETATM    1  N1  UNL     1      18.914  22.431  20.265  1.00  0.00    -0.332 N 
HETATM    2  C11 UNL     1      18.189  21.279  19.767  1.00  0.00     0.153 C 
HETATM    3  C12 UNL     1      16.820  21.553  19.265  1.00  0.00     0.187 C 
HETATM    4  O1  UNL     1      15.965  20.478  19.566  1.00  0.00    -0.387 OA
HETATM    5  C13 UNL     1      15.488  20.031  18.337  1.00  0.00     0.193 C 
HETATM    6  C14 UNL     1      14.217  19.262  18.389  1.00  0.00     0.193 C 
HETATM    7  O2  UNL     1      13.362  19.740  17.397  1.00  0.00    -0.387 OA
HETATM    8  C15 UNL     1      13.973  19.856  16.152  1.00  0.00     0.193 C 
HETATM    9  C16 UNL     1      13.781  21.195  15.514  1.00  0.00     0.193 C 
HETATM   10  O3  UNL     1      14.996  21.565  14.900  1.00  0.00    -0.387 OA
HETATM   11  C17 UNL     1      15.323  22.878  15.184  1.00  0.00     0.187 C 
HETATM   12  C18 UNL     1      16.828  23.126  15.215  1.00  0.00     0.148 C 
HETATM   13  N2  UNL     1      16.993  24.509  15.607  1.00  0.00    -0.357 N 
ATOM     14  H2  UNL     1      16.902  25.209  14.871  1.00  0.00     0.162 HD
HETATM   15  C19 UNL     1      17.264  24.983  16.898  1.00  0.00     0.240 C 
HETATM   16  O4  UNL     1      16.557  25.932  17.393  1.00  0.00    -0.271 OA
HETATM   17  C20 UNL     1      18.333  24.483  17.805  1.00  0.00     0.182 C 
HETATM   18  N3  UNL     1      17.834  24.439  19.142  1.00  0.00    -0.329 N 
ATOM     19  H3  UNL     1      16.960  24.935  19.322  1.00  0.00     0.165 HD
HETATM   20  C29 UNL     1      18.435  23.771  20.250  1.00  0.00     0.319 C 
HETATM   21  O7  UNL     1      18.558  24.445  21.349  1.00  0.00    -0.247 OA
ENDROOT
BRANCH   1  22
HETATM   22  C10 UNL     1      20.227  22.176  20.825  1.00  0.00     0.128 C 
BRANCH  22  23
HETATM   23  C9  UNL     1      21.317  22.907  20.034  1.00  0.00     0.023 C 
BRANCH  23  24
HETATM   24  C8  UNL     1      22.152  23.613  21.052  1.00  0.00     0.028 C 
BRANCH  24  25
HETATM   25  C7  UNL     1      21.934  24.997  21.391  1.00  0.00    -0.031 C 
HETATM   26  C6  UNL     1      21.494  26.127  20.625  1.00  0.00    -0.031 C 
BRANCH  26  27
HETATM   27  C5  UNL     1      22.010  26.693  19.386  1.00  0.00     0.027 C 
BRANCH  27  28
HETATM   28  C4  UNL     1      23.136  25.994  18.746  1.00  0.00     0.004 C 
BRANCH  28  29
HETATM   29  C3  UNL     1      24.071  26.900  17.954  1.00  0.00    -0.000 C 
BRANCH  29  30
HETATM   30  C2  UNL     1      23.310  27.504  16.821  1.00  0.00    -0.005 C 
HETATM   31  C1  UNL     1      23.801  26.864  15.522  1.00  0.00     0.005 C 
ENDBRANCH  29  30
ENDBRANCH  28  29
ENDBRANCH  27  28
ENDBRANCH  26  27
ENDBRANCH  24  25
ENDBRANCH  23  24
ENDBRANCH  22  23
ENDBRANCH   1  22
BRANCH  17  32
HETATM   32  C21 UNL     1      19.620  25.275  17.643  1.00  0.00     0.073 C 
BRANCH  32  33
HETATM   33  C22 UNL     1      19.958  25.589  16.253  1.00  0.00    -0.053 A 
HETATM   34  C23 UNL     1      20.290  24.622  15.342  1.00  0.00     0.010 A 
HETATM   35  C24 UNL     1      20.615  24.898  14.031  1.00  0.00     0.040 A 
HETATM   36  C25 UNL     1      20.607  26.193  13.611  1.00  0.00     0.105 A 
HETATM   37  C26 UNL     1      20.276  27.197  14.503  1.00  0.00     0.105 A 
HETATM   38  O6  UNL     1      20.882  26.785  12.375  1.00  0.00    -0.323 OA
HETATM   39  C27 UNL     1      19.949  26.901  15.833  1.00  0.00     0.047 A 
HETATM   40  O5  UNL     1      20.350  28.394  13.815  1.00  0.00    -0.323 OA
HETATM   41  C28 UNL     1      20.337  28.070  12.422  1.00  0.00     0.352 C 
ENDBRANCH  32  33
ENDBRANCH  17  32
TORSDOF 10
ENDMDL
MODEL 2
REMARK VINA RESULT: -8.923747369      2.091      5.231
REMARK  10 active torsions:
REMARK  status: ('A' for Active; 'I' for Inactive)
REMARK    1  A    between atoms: C2_2  and  C3_3 
REMARK    2  A    between atoms: C3_3  and  C4_4 
REMARK    3  A    between atoms: C4_4  and  C5_5 
REMARK    4  A    between atoms: C5_5  and  C6_6 
REMARK    5  A    between atoms: C7_7  and  C8_8 
REMARK    6  A    between atoms: C8_8  and  C9_9 
REMARK    7  A    between atoms: C9_9  and  C10_10 
REMARK    8  A    between atoms: C10_10  and  N1_11 
REMARK    9  A    between atoms: C20_27  and  C21_28 
REMARK   10  A    between atoms: C21_28  and  C22_29 
ROOT
HETATM    1  N1  UNL     1      18.078  24.266  15.701  1.00  0.00    -0.332 N 
HETATM    2  C11 UNL     1      16.875  23.818  15.030  1.00  0.00     0.153 C 
HETATM    3  C12 UNL     1      16.474  22.416  15.304  1.00  0.00     0.187 C 
HETATM    4  O1  UNL     1      15.913  21.834  14.155  1.00  0.00    -0.387 OA
HETATM    5  C13 UNL     1      14.625  21.456  14.523  1.00  0.00     0.193 C 
HETATM    6  C14 UNL     1      14.008  20.395  13.685  1.00  0.00     0.193 C 
HETATM    7  O2  UNL     1      13.431  19.440  14.520  1.00  0.00    -0.387 OA
HETATM    8  C15 UNL     1      12.633  19.992  15.519  1.00  0.00     0.193 C 
HETATM    9  C16 UNL     1      12.957  19.490  16.889  1.00  0.00     0.193 C 
HETATM   10  O3  UNL     1      12.886  20.580  17.782  1.00  0.00    -0.387 OA
HETATM   11  C17 UNL     1      13.973  20.602  18.637  1.00  0.00     0.187 C 
HETATM   12  C18 UNL     1      14.359  22.010  19.078  1.00  0.00     0.148 C 
HETATM   13  N2  UNL     1      15.550  21.859  19.886  1.00  0.00    -0.357 N 
ATOM     14  H2  UNL     1      15.413  21.601  20.863  1.00  0.00     0.162 HD
HETATM   15  C19 UNL     1      16.874  22.032  19.459  1.00  0.00     0.240 C 
HETATM   16  O4  UNL     1      17.752  21.133  19.717  1.00  0.00    -0.271 OA
HETATM   17  C20 UNL     1      17.402  23.199  18.701  1.00  0.00     0.182 C 
HETATM   18  N3  UNL     1      18.330  22.740  17.718  1.00  0.00    -0.329 N 
ATOM     19  H3  UNL     1      18.660  21.779  17.810  1.00  0.00     0.165 HD
HETATM   20  C29 UNL     1      18.843  23.493  16.619  1.00  0.00     0.319 C 
HETATM   21  O7  UNL     1      20.124  23.474  16.438  1.00  0.00    -0.247 OA
ENDROOT
BRANCH   1  22
HETATM   22  C10 UNL     1      18.528  25.610  15.393  1.00  0.00     0.128 C 
BRANCH  22  23
HETATM   23  C9  UNL     1      18.303  25.944  13.914  1.00  0.00     0.023 C 
BRANCH  23  24
HETATM   24  C8  UNL     1      19.602  25.661  13.233  1.00  0.00     0.028 C 
BRANCH  24  25
HETATM   25  C7  UNL     1      20.590  26.689  13.016  1.00  0.00    -0.031 C 
HETATM   26  C6  UNL     1      21.462  27.400  13.904  1.00  0.00    -0.031 C 
BRANCH  26  27
HETATM   27  C5  UNL     1      21.170  28.179  15.101  1.00  0.00     0.027 C 
BRANCH  27  28
HETATM   28  C4  UNL     1      21.747  27.704  16.368  1.00  0.00     0.004 C 
BRANCH  28  29
HETATM   29  C3  UNL     1      23.010  26.865  16.209  1.00  0.00    -0.000 C 
BRANCH  29  30
HETATM   30  C2  UNL     1      24.199  27.746  16.395  1.00  0.00    -0.005 C 
HETATM   31  C1  UNL     1      25.186  27.460  15.262  1.00  0.00     0.005 C 
ENDBRANCH  29  30
ENDBRANCH  28  29
ENDBRANCH  27  28
ENDBRANCH  26  27
ENDBRANCH  24  25
ENDBRANCH  23  24
ENDBRANCH  22  23
ENDBRANCH   1  22
BRANCH  17  32
HETATM   32  C21 UNL     1      17.951  24.268  19.630  1.00  0.00     0.073 C 
BRANCH  32  33
HETATM   33  C22 UNL     1      19.392  24.165  19.875  1.00  0.00    -0.053 A 
HETATM   34  C23 UNL     1      19.959  23.067  20.465  1.00  0.00     0.010 A 
HETATM   35  C24 UNL     1      21.311  22.953  20.707  1.00  0.00     0.040 A 
HETATM   36  C25 UNL     1      22.132  23.977  20.344  1.00  0.00     0.105 A 
HETATM   37  C26 UNL     1      21.595  25.102  19.745  1.00  0.00     0.105 A 
HETATM   38  O6  UNL     1      23.513  24.161  20.451  1.00  0.00    -0.323 OA
HETATM   39  C27 UNL     1      20.218  25.204  19.507  1.00  0.00     0.047 A 
HETATM   40  O5  UNL     1      22.642  25.967  19.490  1.00  0.00    -0.323 OA
HETATM   41  C28 UNL     1      23.844  25.195  19.573  1.00  0.00     0.352 C 
ENDBRANCH  32  33
ENDBRANCH  17  32
TORSDOF 10
ENDMDL
MODEL 3
REMARK VINA RESULT: -8.916780780      2.288      9.561
REMARK  10 active torsions:
REMARK  status: ('A' for Active; 'I' for Inactive)
REMARK    1  A    between atoms: C2_2  and  C3_3 
REMARK    2  A    between atoms: C3_3  and  C4_4 
REMARK    3  A    between atoms: C4_4  and  C5_5 
REMARK    4  A    between atoms: C5_5  and  C6_6 
REMARK    5  A    between atoms: C7_7  and  C8_8 
REMARK    6  A    between atoms: C8_8  and  C9_9 
REMARK    7  A    between atoms: C9_9  and  C10_10 
REMARK    8  A    between atoms: C10_10  and  N1_11 
REMARK    9  A    between atoms: C20_27  and  C21_28 
REMARK   10  A    between atoms: C21_28  and  C22_29 
ROOT
HETATM    1  N1  UNL     1      16.724  22.884  15.734  1.00  0.00    -0.332 N 
HETATM    2  C11 UNL     1      17.638  23.760  15.028  1.00  0.00     0.153 C 
HETATM    3  C12 UNL     1      18.031  24.993  15.755  1.00  0.00     0.187 C 
HETATM    4  O1  UNL     1      18.180  26.063  14.856  1.00  0.00    -0.387 OA
HETATM    5  C13 UNL     1      19.497  26.488  15.003  1.00  0.00     0.193 C 
HETATM    6  C14 UNL     1      19.771  27.880  14.561  1.00  0.00     0.193 C 
HETATM    7  O2  UNL     1      20.527  28.522  15.541  1.00  0.00    -0.387 OA
HETATM    8  C15 UNL     1      21.621  27.775  15.970  1.00  0.00     0.193 C 
HETATM    9  C16 UNL     1      21.708  27.642  17.456  1.00  0.00     0.193 C 
HETATM   10  O3  UNL     1      22.107  26.322  17.754  1.00  0.00    -0.387 OA
HETATM   11  C17 UNL     1      21.339  25.782  18.769  1.00  0.00     0.187 C 
HETATM   12  C18 UNL     1      21.181  24.269  18.659  1.00  0.00     0.148 C 
HETATM   13  N2  UNL     1      20.290  23.884  19.732  1.00  0.00    -0.357 N 
ATOM     14  H2  UNL     1      20.708  23.763  20.654  1.00  0.00     0.162 HD
HETATM   15  C19 UNL     1      18.910  23.662  19.631  1.00  0.00     0.240 C 
HETATM   16  O4  UNL     1      18.108  24.222  20.461  1.00  0.00    -0.271 OA
HETATM   17  C20 UNL     1      18.236  22.806  18.616  1.00  0.00     0.182 C 
HETATM   18  N3  UNL     1      17.027  23.440  18.195  1.00  0.00    -0.329 N 
ATOM     19  H3  UNL     1      16.693  24.217  18.766  1.00  0.00     0.165 HD
HETATM   20  C29 UNL     1      16.241  23.094  17.056  1.00  0.00     0.319 C 
HETATM   21  O7  UNL     1      14.966  22.958  17.238  1.00  0.00    -0.247 OA
ENDROOT
BRANCH   1  22
HETATM   22  C10 UNL     1      16.272  21.708  15.015  1.00  0.00     0.128 C 
BRANCH  22  23
HETATM   23  C9  UNL     1      15.791  22.071  13.606  1.00  0.00     0.023 C 
BRANCH  23  24
HETATM   24  C8  UNL     1      14.393  21.555  13.510  1.00  0.00     0.028 C 
BRANCH  24  25
HETATM   25  C7  UNL     1      13.336  22.052  14.355  1.00  0.00    -0.031 C 
HETATM   26  C6  UNL     1      12.307  21.398  15.109  1.00  0.00    -0.031 C 
BRANCH  26  27
HETATM   27  C5  UNL     1      11.288  20.442  14.695  1.00  0.00     0.027 C 
BRANCH  27  28
HETATM   28  C4  UNL     1      11.741  19.084  14.353  1.00  0.00     0.004 C 
BRANCH  28  29
HETATM   29  C3  UNL     1      11.890  18.828  12.858  1.00  0.00    -0.000 C 
BRANCH  29  30
HETATM   30  C2  UNL     1      10.933  19.704  12.122  1.00  0.00    -0.005 C 
HETATM   31  C1  UNL     1      10.585  19.024  10.798  1.00  0.00     0.005 C 
ENDBRANCH  29  30
ENDBRANCH  28  29
ENDBRANCH  27  28
ENDBRANCH  26  27
ENDBRANCH  24  25
ENDBRANCH  23  24
ENDBRANCH  22  23
ENDBRANCH   1  22
BRANCH  17  32
HETATM   32  C21 UNL     1      18.055  21.383  19.115  1.00  0.00     0.073 C 
BRANCH  32  33
HETATM   33  C22 UNL     1      16.656  20.969  19.249  1.00  0.00    -0.053 A 
HETATM   34  C23 UNL     1      15.845  21.434  20.249  1.00  0.00     0.010 A 
HETATM   35  C24 UNL     1      14.529  21.054  20.394  1.00  0.00     0.040 A 
HETATM   36  C25 UNL     1      13.998  20.173  19.501  1.00  0.00     0.105 A 
HETATM   37  C26 UNL     1      14.786  19.681  18.477  1.00  0.00     0.105 A 
HETATM   38  O6  UNL     1      12.726  19.606  19.380  1.00  0.00    -0.323 OA
HETATM   39  C27 UNL     1      16.123  20.077  18.344  1.00  0.00     0.047 A 
HETATM   40  O5  UNL     1      14.000  18.819  17.735  1.00  0.00    -0.323 OA
HETATM   41  C28 UNL     1      12.641  19.101  18.080  1.00  0.00     0.352 C 
ENDBRANCH  32  33
ENDBRANCH  17  32
TORSDOF 10
ENDMDL
MODEL 4
REMARK VINA RESULT: -8.808154164      3.198      6.650
REMARK  10 active torsions:
REMARK  status: ('A' for Active; 'I' for Inactive)
REMARK    1  A    between atoms: C2_2  and  C3_3 
REMARK    2  A    between atoms: C3_3  and  C4_4 
REMARK    3  A    between atoms: C4_4  and  C5_5 
REMARK    4  A    between atoms: C5_5  and  C6_6 
REMARK    5  A    between atoms: C7_7  and  C8_8 
REMARK    6  A    between atoms: C8_8  and  C9_9 
REMARK    7  A    between atoms: C9_9  and  C10_10 
REMARK    8  A    between atoms: C10_10  and  N1_11 
REMARK    9  A    between atoms: C20_27  and  C21_28 
REMARK   10  A    between atoms: C21_28  and  C22_29 
ROOT
HETATM    1  N1  UNL     1      15.308  21.827  15.300  1.00  0.00    -0.332 N 
HETATM    2  C11 UNL     1      14.295  21.304  14.406  1.00  0.00     0.153 C 
HETATM    3  C12 UNL     1      14.004  19.856  14.546  1.00  0.00     0.187 C 
HETATM    4  O1  UNL     1      13.719  19.291  13.291  1.00  0.00    -0.387 OA
HETATM    5  C13 UNL     1      12.434  18.768  13.406  1.00  0.00     0.193 C 
HETATM    6  C14 UNL     1      12.090  17.703  12.427  1.00  0.00     0.193 C 
HETATM    7  O2  UNL     1      11.480  16.649  13.106  1.00  0.00    -0.387 OA
HETATM    8  C15 UNL     1      10.465  17.061  13.965  1.00  0.00     0.193 C 
HETATM    9  C16 UNL     1      10.596  16.513  15.350  1.00  0.00     0.193 C 
HETATM   10  O3  UNL     1      10.253  17.537  16.259  1.00  0.00    -0.387 OA
HETATM   11  C17 UNL     1      11.164  17.614  17.296  1.00  0.00     0.187 C 
HETATM   12  C18 UNL     1      11.315  19.024  17.857  1.00  0.00     0.148 C 
HETATM   13  N2  UNL     1      12.356  18.943  18.859  1.00  0.00    -0.357 N 
ATOM     14  H2  UNL     1      12.077  18.616  19.784  1.00  0.00     0.162 HD
HETATM   15  C19 UNL     1      13.708  19.269  18.686  1.00  0.00     0.240 C 
HETATM   16  O4  UNL     1      14.618  18.446  19.062  1.00  0.00    -0.271 OA
HETATM   17  C20 UNL     1      14.233  20.524  18.083  1.00  0.00     0.182 C 
HETATM   18  N3  UNL     1      15.363  20.217  17.266  1.00  0.00    -0.329 N 
ATOM     19  H3  UNL     1      15.771  19.289  17.378  1.00  0.00     0.165 HD
HETATM   20  C29 UNL     1      15.977  21.080  16.310  1.00  0.00     0.319 C 
HETATM   21  O7  UNL     1      17.266  21.196  16.362  1.00  0.00    -0.247 OA
ENDROOT
BRANCH   1  22
HETATM   22  C10 UNL     1      15.659  23.225  15.133  1.00  0.00     0.128 C 
BRANCH  22  23
HETATM   23  C9  UNL     1      16.922  23.379  14.280  1.00  0.00     0.023 C 
BRANCH  23  24
HETATM   24  C8  UNL     1      17.783  24.361  15.005  1.00  0.00     0.028 C 
BRANCH  24  25
HETATM   25  C7  UNL     1      19.113  24.027  15.452  1.00  0.00    -0.031 C 
HETATM   26  C6  UNL     1      20.406  24.557  15.133  1.00  0.00    -0.031 C 
BRANCH  26  27
HETATM   27  C5  UNL     1      21.071  24.732  13.848  1.00  0.00     0.027 C 
BRANCH  27  28
HETATM   28  C4  UNL     1      20.348  25.491  12.816  1.00  0.00     0.004 C 
BRANCH  28  29
HETATM   29  C3  UNL     1      20.762  26.953  12.703  1.00  0.00    -0.000 C 
BRANCH  29  30
HETATM   30  C2  UNL     1      19.788  27.789  13.464  1.00  0.00    -0.005 C 
HETATM   31  C1  UNL     1      20.445  28.211  14.778  1.00  0.00     0.005 C 
ENDBRANCH  29  30
ENDBRANCH  28  29
ENDBRANCH  27  28
ENDBRANCH  26  27
ENDBRANCH  24  25
ENDBRANCH  23  24
ENDBRANCH  22  23
ENDBRANCH   1  22
BRANCH  17  32
HETATM   32  C21 UNL     1      14.494  21.585  19.139  1.00  0.00     0.073 C 
BRANCH  32  33
HETATM   33  C22 UNL     1      15.875  22.072  19.170  1.00  0.00    -0.053 A 
HETATM   34  C23 UNL     1      16.223  23.322  18.732  1.00  0.00     0.010 A 
HETATM   35  C24 UNL     1      17.517  23.796  18.749  1.00  0.00     0.040 A 
HETATM   36  C25 UNL     1      18.505  22.989  19.225  1.00  0.00     0.105 A 
HETATM   37  C26 UNL     1      18.193  21.720  19.677  1.00  0.00     0.105 A 
HETATM   38  O6  UNL     1      19.883  23.174  19.371  1.00  0.00    -0.323 OA
HETATM   39  C27 UNL     1      16.873  21.252  19.652  1.00  0.00     0.047 A 
HETATM   40  O5  UNL     1      19.372  21.134  20.095  1.00  0.00    -0.323 OA
HETATM   41  C28 UNL     1      20.321  22.191  20.262  1.00  0.00     0.352 C 
ENDBRANCH  32  33
ENDBRANCH  17  32
TORSDOF 10
ENDMDL
MODEL 5
REMARK VINA RESULT: -8.804237107      2.902      8.086
REMARK  10 active torsions:
REMARK  status: ('A' for Active; 'I' for Inactive)
REMARK    1  A    between atoms: C2_2  and  C3_3 
REMARK    2  A    between atoms: C3_3  and  C4_4 
REMARK    3  A    between atoms: C4_4  and  C5_5 
REMARK    4  A    between atoms: C5_5  and  C6_6 
REMARK    5  A    between atoms: C7_7  and  C8_8 
REMARK    6  A    between atoms: C8_8  and  C9_9 
REMARK    7  A    between atoms: C9_9  and  C10_10 
REMARK    8  A    between atoms: C10_10  and  N1_11 
REMARK    9  A    between atoms: C20_27  and  C21_28 
REMARK   10  A    between atoms: C21_28  and  C22_29 
ROOT
HETATM    1  N1  UNL     1      18.818  23.183  19.238  1.00  0.00    -0.332 N 
HETATM    2  C11 UNL     1      18.810  23.346  17.799  1.00  0.00     0.153 C 
HETATM    3  C12 UNL     1      18.767  24.748  17.313  1.00  0.00     0.187 C 
HETATM    4  O1  UNL     1      17.996  24.836  16.142  1.00  0.00    -0.387 OA
HETATM    5  C13 UNL     1      18.854  25.345  15.172  1.00  0.00     0.193 C 
HETATM    6  C14 UNL     1      18.191  25.997  14.013  1.00  0.00     0.193 C 
HETATM    7  O2  UNL     1      18.826  27.211  13.756  1.00  0.00    -0.387 OA
HETATM    8  C15 UNL     1      20.213  27.107  13.705  1.00  0.00     0.193 C 
HETATM    9  C16 UNL     1      20.919  28.104  14.567  1.00  0.00     0.193 C 
HETATM   10  O3  UNL     1      22.010  27.455  15.183  1.00  0.00    -0.387 OA
HETATM   11  C17 UNL     1      22.080  27.758  16.530  1.00  0.00     0.187 C 
HETATM   12  C18 UNL     1      22.682  26.633  17.366  1.00  0.00     0.148 C 
HETATM   13  N2  UNL     1      22.601  27.075  18.742  1.00  0.00    -0.357 N 
ATOM     14  H2  UNL     1      23.339  27.699  19.068  1.00  0.00     0.162 HD
HETATM   15  C19 UNL     1      21.609  26.732  19.671  1.00  0.00     0.240 C 
HETATM   16  O4  UNL     1      21.026  27.649  20.353  1.00  0.00    -0.271 OA
HETATM   17  C20 UNL     1      21.132  25.354  19.969  1.00  0.00     0.182 C 
HETATM   18  N3  UNL     1      19.716  25.377  20.156  1.00  0.00    -0.329 N 
ATOM     19  H3  UNL     1      19.284  26.293  20.281  1.00  0.00     0.165 HD
HETATM   20  C29 UNL     1      18.846  24.246  20.185  1.00  0.00     0.319 C 
HETATM   21  O7  UNL     1      18.001  24.177  21.163  1.00  0.00    -0.247 OA
ENDROOT
BRANCH   1  22
HETATM   22  C10 UNL     1      18.788  21.821  19.736  1.00  0.00     0.128 C 
BRANCH  22  23
HETATM   23  C9  UNL     1      17.689  21.004  19.047  1.00  0.00     0.023 C 
BRANCH  23  24
HETATM   24  C8  UNL     1      16.409  21.427  19.689  1.00  0.00     0.028 C 
BRANCH  24  25
HETATM   25  C7  UNL     1      15.271  21.855  18.913  1.00  0.00    -0.031 C 
HETATM   26  C6  UNL     1      14.031  21.218  18.577  1.00  0.00    -0.031 C 
BRANCH  26  27
HETATM   27  C5  UNL     1      13.764  19.937  17.937  1.00  0.00     0.027 C 
BRANCH  27  28
HETATM   28  C4  UNL     1      13.813  18.738  18.789  1.00  0.00     0.004 C 
BRANCH  28  29
HETATM   29  C3  UNL     1      12.751  18.699  19.881  1.00  0.00    -0.000 C 
BRANCH  29  30
HETATM   30  C2  UNL     1      13.382  18.230  21.149  1.00  0.00    -0.005 C 
HETATM   31  C1  UNL     1      14.212  19.380  21.722  1.00  0.00     0.005 C 
ENDBRANCH  29  30
ENDBRANCH  28  29
ENDBRANCH  27  28
ENDBRANCH  26  27
ENDBRANCH  24  25
ENDBRANCH  23  24
ENDBRANCH  22  23
ENDBRANCH   1  22
BRANCH  17  32
HETATM   32  C21 UNL     1      21.904  24.731  21.119  1.00  0.00     0.073 C 
BRANCH  32  33
HETATM   33  C22 UNL     1      23.244  24.264  20.756  1.00  0.00    -0.053 A 
HETATM   34  C23 UNL     1      24.383  24.842  21.251  1.00  0.00     0.010 A 
HETATM   35  C24 UNL     1      25.652  24.419  20.918  1.00  0.00     0.040 A 
HETATM   36  C25 UNL     1      25.791  23.374  20.057  1.00  0.00     0.105 A 
HETATM   37  C26 UNL     1      24.664  22.764  19.536  1.00  0.00     0.105 A 
HETATM   38  O6  UNL     1      26.914  22.726  19.536  1.00  0.00    -0.323 OA
HETATM   39  C27 UNL     1      23.380  23.206  19.883  1.00  0.00     0.047 A 
HETATM   40  O5  UNL     1      25.097  21.751  18.703  1.00  0.00    -0.323 OA
HETATM   41  C28 UNL     1      26.466  21.501  19.034  1.00  0.00     0.352 C 
ENDBRANCH  32  33
ENDBRANCH  17  32
TORSDOF 10
ENDMDL
