MODEL 1
REMARK VINA RESULT: -9.706269472      0.000      0.000
REMARK  10 active torsions:
REMARK  status: ('A' for Active; 'I' for Inactive)
REMARK    1  A    between atoms: C2_2  and  C3_3 
REMARK    2  A    between atoms: C3_3  and  C4_4 
REMARK    3  A    between atoms: C4_4  and  C5_5 
REMARK    4  A    between atoms: C5_5  and  C6_6 
REMARK    5  A    between atoms: C6_6  and  N1_7 
REMARK    6  A    between atoms: C8_9  and  C9_10 
REMARK       I    between atoms: C9_10  and  N2_12 
REMARK    7  A    between atoms: N2_12  and  C10_14 
REMARK    8  A    between atoms: C11_15  and  N3_16 
REMARK       I    between atoms: N3_16  and  C12_18 
REMARK       I    between atoms: C12_18  and  N4_20 
REMARK    9  A    between atoms: C15_24  and  N5_25 
REMARK   10  A    between atoms: C20_34  and  N8_35 
ROOT
HETATM    1  N3  UNL     1      16.227  21.196  16.462  1.00  0.00    -0.318 N 
ATOM      2  H3  UNL     1      16.041  20.240  16.157  1.00  0.00     0.170 HD
HETATM    3  C12 UNL     1      15.461  22.208  15.768  1.00  0.00     0.324 C 
HETATM    4  O2  UNL     1      15.599  23.393  16.080  1.00  0.00    -0.247 OA
HETATM    5  N4  UNL     1      14.578  21.816  14.748  1.00  0.00    -0.308 N 
ATOM      6  H4  UNL     1      14.704  22.187  13.806  1.00  0.00     0.170 HD
HETATM    7  C13 UNL     1      13.623  21.007  14.979  1.00  0.00     0.043 A 
HETATM    8  C14 UNL     1      13.341  20.452  16.198  1.00  0.00     0.080 A 
HETATM    9  C15 UNL     1      12.395  19.438  16.358  1.00  0.00     0.130 A 
HETATM   10  N7  UNL     1      11.753  19.010  15.258  1.00  0.00    -0.324 N 
ATOM     11  H7  UNL     1      11.056  18.270  15.351  1.00  0.00     0.169 HD
HETATM   12  C20 UNL     1      11.998  19.525  14.029  1.00  0.00     0.149 A 
HETATM   13  C24 UNL     1      12.928  20.526  13.879  1.00  0.00     0.082 A 
ENDROOT
BRANCH   1  14
HETATM   14  C11 UNL     1      17.167  21.303  17.465  1.00  0.00     0.110 C 
HETATM   15  C10 UNL     1      17.983  21.920  18.404  1.00  0.00     0.108 C 
BRANCH  15  16
HETATM   16  N2  UNL     1      19.049  22.851  18.045  1.00  0.00    -0.332 N 
HETATM   17  C9  UNL     1      18.811  24.223  18.063  1.00  0.00     0.259 C 
HETATM   18  O1  UNL     1      17.665  24.696  18.341  1.00  0.00    -0.267 OA
ATOM     19  H2  UNL     1      19.968  22.497  17.781  1.00  0.00     0.168 HD
BRANCH  17  20
HETATM   20  C8  UNL     1      19.919  25.143  17.771  1.00  0.00     0.073 A 
HETATM   21  C7  UNL     1      19.899  26.166  16.798  1.00  0.00     0.129 A 
HETATM   22  N1  UNL     1      21.024  26.884  16.889  1.00  0.00    -0.300 N 
HETATM   23  N11 UNL     1      21.739  26.360  17.863  1.00  0.00    -0.298 N 
HETATM   24  C25 UNL     1      21.102  25.294  18.421  1.00  0.00     0.041 A 
HETATM   25  C27 UNL     1      23.010  26.948  18.307  1.00  0.00     0.178 C 
HETATM   26  C26 UNL     1      21.654  24.407  19.509  1.00  0.00     0.071 C 
BRANCH  22  27
HETATM   27  C6  UNL     1      21.369  28.038  16.064  1.00  0.00     0.148 C 
BRANCH  27  28
HETATM   28  C5  UNL     1      20.553  27.994  14.791  1.00  0.00     0.022 C 
BRANCH  28  29
HETATM   29  C4  UNL     1      21.330  27.504  13.601  1.00  0.00     0.002 C 
BRANCH  29  30
HETATM   30  C3  UNL     1      20.570  26.682  12.644  1.00  0.00    -0.000 C 
BRANCH  30  31
HETATM   31  C2  UNL     1      20.097  25.386  13.258  1.00  0.00    -0.005 C 
HETATM   32  C1  UNL     1      21.234  24.618  13.849  1.00  0.00     0.005 C 
ENDBRANCH  30  31
ENDBRANCH  29  30
ENDBRANCH  28  29
ENDBRANCH  27  28
ENDBRANCH  22  27
ENDBRANCH  17  20
ENDBRANCH  15  16
ENDBRANCH   1  14
BRANCH   9  33
HETATM   33  N5  UNL     1      12.167  18.944  17.676  1.00  0.00    -0.251 N 
HETATM   34  C16 UNL     1      11.021  18.301  18.050  1.00  0.00     0.120 A 
HETATM   35  C17 UNL     1      11.117  17.951  19.387  1.00  0.00     0.045 A 
HETATM   36  C18 UNL     1      12.365  18.415  19.778  1.00  0.00     0.024 A 
HETATM   37  C19 UNL     1      13.025  18.342  21.097  1.00  0.00     0.070 C 
HETATM   38  N6  UNL     1      12.928  18.990  18.709  1.00  0.00    -0.297 N 
ATOM     39  H6  UNL     1      13.854  19.415  18.714  1.00  0.00     0.187 HD
ENDBRANCH   9  33
BRANCH  12  40
HETATM   40  N8  UNL     1      11.349  19.039  12.852  1.00  0.00    -0.180 N 
HETATM   41  N9  UNL     1      11.482  17.745  12.408  1.00  0.00    -0.287 N 
HETATM   42  C21 UNL     1      10.757  17.717  11.253  1.00  0.00     0.135 A 
ATOM     43  H9  UNL     1      12.002  16.982  12.842  1.00  0.00     0.188 HD
HETATM   44  C22 UNL     1      10.214  18.962  11.034  1.00  0.00     0.041 A 
HETATM   45  C23 UNL     1       9.350  19.328   9.845  1.00  0.00     0.071 C 
HETATM   46  N10 UNL     1      10.613  19.708  12.040  1.00  0.00    -0.281 N 
ATOM     47  H10 UNL     1      10.368  20.691  12.161  1.00  0.00     0.189 HD
ENDBRANCH  12  40
TORSDOF 10
ENDMDL
MODEL 2
REMARK VINA RESULT: -9.686196880      2.997      6.545
REMARK  10 active torsions:
REMARK  status: ('A' for Active; 'I' for Inactive)
REMARK    1  A    between atoms: C2_2  and  C3_3 
REMARK    2  A    between atoms: C3_3  and  C4_4 
REMARK    3  A    between atoms: C4_4  and  C5_5 
REMARK    4  A    between atoms: C5_5  and  C6_6 
REMARK    5  A    between atoms: C6_6  and  N1_7 
REMARK    6  A    between atoms: C8_9  and  C9_10 
REMARK       I    between atoms: C9_10  and  N2_12 
REMARK    7  A    between atoms: N2_12  and  C10_14 
REMARK    8  A    between atoms: C11_15  and  N3_16 
REMARK       I    between atoms: N3_16  and  C12_18 
REMARK       I    between atoms: C12_18  and  N4_20 
REMARK    9  A    between atoms: C15_24  and  N5_25 
REMARK   10  A    between atoms: C20_34  and  N8_35 
ROOT
HETATM    1  N3  UNL     1      18.733  23.403  19.874  1.00  0.00    -0.318 N 
ATOM      2  H3  UNL     1      17.889  23.882  19.559  1.00  0.00     0.170 HD
HETATM    3  C12 UNL     1      18.750  21.980  19.615  1.00  0.00     0.324 C 
HETATM    4  O2  UNL     1      19.737  21.316  19.938  1.00  0.00    -0.247 OA
HETATM    5  N4  UNL     1      17.634  21.385  19.005  1.00  0.00    -0.308 N 
ATOM      6  H4  UNL     1      17.137  20.637  19.489  1.00  0.00     0.170 HD
HETATM    7  C13 UNL     1      17.232  21.762  17.857  1.00  0.00     0.043 A 
HETATM    8  C14 UNL     1      17.817  22.742  17.103  1.00  0.00     0.080 A 
HETATM    9  C15 UNL     1      17.234  23.237  15.935  1.00  0.00     0.130 A 
HETATM   10  N7  UNL     1      16.054  22.715  15.561  1.00  0.00    -0.324 N 
ATOM     11  H7  UNL     1      15.610  23.060  14.711  1.00  0.00     0.169 HD
HETATM   12  C20 UNL     1      15.433  21.745  16.275  1.00  0.00     0.149 A 
HETATM   13  C24 UNL     1      16.014  21.259  17.422  1.00  0.00     0.082 A 
ENDROOT
BRANCH   1  14
HETATM   14  C11 UNL     1      19.666  24.224  20.473  1.00  0.00     0.110 C 
HETATM   15  C10 UNL     1      20.533  25.299  20.614  1.00  0.00     0.108 C 
BRANCH  15  16
HETATM   16  N2  UNL     1      21.702  25.497  19.761  1.00  0.00    -0.332 N 
HETATM   17  C9  UNL     1      21.809  26.647  18.984  1.00  0.00     0.259 C 
HETATM   18  O1  UNL     1      20.887  27.521  18.956  1.00  0.00    -0.267 OA
ATOM     19  H2  UNL     1      22.440  24.794  19.735  1.00  0.00     0.168 HD
BRANCH  17  20
HETATM   20  C8  UNL     1      23.029  26.861  18.191  1.00  0.00     0.073 A 
HETATM   21  C7  UNL     1      24.329  26.458  18.564  1.00  0.00     0.129 A 
HETATM   22  N1  UNL     1      25.173  26.702  17.555  1.00  0.00    -0.300 N 
HETATM   23  N11 UNL     1      24.466  27.234  16.580  1.00  0.00    -0.298 N 
HETATM   24  C25 UNL     1      23.156  27.354  16.931  1.00  0.00     0.041 A 
HETATM   25  C27 UNL     1      25.052  27.556  15.272  1.00  0.00     0.178 C 
HETATM   26  C26 UNL     1      22.072  27.987  16.095  1.00  0.00     0.071 C 
BRANCH  22  27
HETATM   27  C6  UNL     1      26.604  26.410  17.550  1.00  0.00     0.148 C 
BRANCH  27  28
HETATM   28  C5  UNL     1      26.806  24.946  17.227  1.00  0.00     0.022 C 
BRANCH  28  29
HETATM   29  C4  UNL     1      27.059  24.097  18.440  1.00  0.00     0.002 C 
BRANCH  29  30
HETATM   30  C3  UNL     1      25.977  23.162  18.795  1.00  0.00    -0.000 C 
BRANCH  30  31
HETATM   31  C2  UNL     1      26.507  21.824  19.248  1.00  0.00    -0.005 C 
HETATM   32  C1  UNL     1      25.764  20.698  18.605  1.00  0.00     0.005 C 
ENDBRANCH  30  31
ENDBRANCH  29  30
ENDBRANCH  28  29
ENDBRANCH  27  28
ENDBRANCH  22  27
ENDBRANCH  17  20
ENDBRANCH  15  16
ENDBRANCH   1  14
BRANCH   9  33
HETATM   33  N5  UNL     1      17.940  24.247  15.216  1.00  0.00    -0.251 N 
HETATM   34  C16 UNL     1      17.461  25.513  15.034  1.00  0.00     0.120 A 
HETATM   35  C17 UNL     1      18.383  26.242  14.299  1.00  0.00     0.045 A 
HETATM   36  C18 UNL     1      19.418  25.349  14.060  1.00  0.00     0.024 A 
HETATM   37  C19 UNL     1      20.679  25.548  13.317  1.00  0.00     0.070 C 
HETATM   38  N6  UNL     1      19.084  24.189  14.636  1.00  0.00    -0.297 N 
ATOM     39  H6  UNL     1      19.670  23.355  14.617  1.00  0.00     0.187 HD
ENDBRANCH   9  33
BRANCH  12  40
HETATM   40  N8  UNL     1      14.156  21.220  15.904  1.00  0.00    -0.180 N 
HETATM   41  N9  UNL     1      13.796  19.912  16.119  1.00  0.00    -0.287 N 
HETATM   42  C21 UNL     1      12.546  19.820  15.583  1.00  0.00     0.135 A 
ATOM     43  H9  UNL     1      14.339  19.178  16.575  1.00  0.00     0.188 HD
HETATM   44  C22 UNL     1      12.187  21.047  15.072  1.00  0.00     0.041 A 
HETATM   45  C23 UNL     1      10.869  21.342  14.386  1.00  0.00     0.071 C 
HETATM   46  N10 UNL     1      13.207  21.843  15.303  1.00  0.00    -0.281 N 
ATOM     47  H10 UNL     1      13.241  22.828  15.039  1.00  0.00     0.189 HD
ENDBRANCH  12  40
TORSDOF 10
ENDMDL
MODEL 3
REMARK VINA RESULT: -9.659122759      2.309     11.890
REMARK  10 active torsions:
REMARK  status: ('A' for Active; 'I' for Inactive)
REMARK    1  A    between atoms: C2_2  and  C3_3 
REMARK    2  A    between atoms: C3_3  and  C4_4 
REMARK    3  A    between atoms: C4_4  and  C5_5 
REMARK    4  A    between atoms: C5_5  and  C6_6 
REMARK    5  A    between atoms: C6_6  and  N1_7 
REMARK    6  A    between atoms: C8_9  and  C9_10 
REMARK       I    between atoms: C9_10  and  N2_12 
REMARK    7  A    between atoms: N2_12  and  C10_14 
REMARK    8  A    between atoms: C11_15  and  N3_16 
REMARK       I    between atoms: N3_16  and  C12_18 
REMARK       I    between atoms: C12_18  and  N4_20 
REMARK    9  A    between atoms: C15_24  and  N5_25 
REMARK   10  A    between atoms: C20_34  and  N8_35 
ROOT
HETATM    1  N3  UNL     1      16.769  23.505  17.297  1.00  0.00    -0.318 N 
ATOM      2  H3  UNL     1      17.656  23.031  17.127  1.00  0.00     0.170 HD
HETATM    3  C12 UNL     1      16.791  24.444  18.399  1.00  0.00     0.324 C 
HETATM    4  O2  UNL     1      15.774  25.084  18.670  1.00  0.00    -0.247 OA
HETATM    5  N4  UNL     1      17.975  24.600  19.138  1.00  0.00    -0.308 N 
ATOM      6  H4  UNL     1      17.967  24.416  20.141  1.00  0.00     0.170 HD
HETATM    7  C13 UNL     1      19.058  24.968  18.577  1.00  0.00     0.043 A 
HETATM    8  C14 UNL     1      19.195  25.256  17.247  1.00  0.00     0.080 A 
HETATM    9  C15 UNL     1      20.439  25.483  16.654  1.00  0.00     0.130 A 
HETATM   10  N7  UNL     1      21.525  25.407  17.443  1.00  0.00    -0.324 N 
ATOM     11  H7  UNL     1      22.444  25.570  17.031  1.00  0.00     0.169 HD
HETATM   12  C20 UNL     1      21.442  25.122  18.764  1.00  0.00     0.149 A 
HETATM   13  C24 UNL     1      20.213  24.904  19.342  1.00  0.00     0.082 A 
ENDROOT
BRANCH   1  14
HETATM   14  C11 UNL     1      15.753  23.144  16.439  1.00  0.00     0.110 C 
HETATM   15  C10 UNL     1      14.456  22.885  16.016  1.00  0.00     0.108 C 
BRANCH  15  16
HETATM   16  N2  UNL     1      13.632  21.818  16.578  1.00  0.00    -0.332 N 
HETATM   17  C9  UNL     1      13.559  20.584  15.938  1.00  0.00     0.259 C 
HETATM   18  O1  UNL     1      14.160  20.367  14.840  1.00  0.00    -0.267 OA
ATOM     19  H2  UNL     1      13.109  21.977  17.439  1.00  0.00     0.168 HD
BRANCH  17  20
HETATM   20  C8  UNL     1      12.783  19.502  16.561  1.00  0.00     0.073 A 
HETATM   21  C7  UNL     1      12.833  19.139  17.925  1.00  0.00     0.129 A 
HETATM   22  N1  UNL     1      11.911  18.201  18.166  1.00  0.00    -0.300 N 
HETATM   23  N11 UNL     1      11.295  17.963  17.026  1.00  0.00    -0.298 N 
HETATM   24  C25 UNL     1      11.803  18.731  16.023  1.00  0.00     0.041 A 
HETATM   25  C27 UNL     1      10.155  17.041  16.928  1.00  0.00     0.178 C 
HETATM   26  C26 UNL     1      11.393  18.673  14.573  1.00  0.00     0.071 C 
BRANCH  22  27
HETATM   27  C6  UNL     1      11.642  17.581  19.460  1.00  0.00     0.148 C 
BRANCH  27  28
HETATM   28  C5  UNL     1      12.020  18.550  20.558  1.00  0.00     0.022 C 
BRANCH  28  29
HETATM   29  C4  UNL     1      13.359  18.259  21.176  1.00  0.00     0.002 C 
BRANCH  29  30
HETATM   30  C3  UNL     1      14.181  19.441  21.487  1.00  0.00    -0.000 C 
BRANCH  30  31
HETATM   31  C2  UNL     1      15.051  19.851  20.323  1.00  0.00    -0.005 C 
HETATM   32  C1  UNL     1      15.042  21.332  20.132  1.00  0.00     0.005 C 
ENDBRANCH  30  31
ENDBRANCH  29  30
ENDBRANCH  28  29
ENDBRANCH  27  28
ENDBRANCH  22  27
ENDBRANCH  17  20
ENDBRANCH  15  16
ENDBRANCH   1  14
BRANCH   9  33
HETATM   33  N5  UNL     1      20.465  25.793  15.263  1.00  0.00    -0.251 N 
HETATM   34  C16 UNL     1      20.371  24.849  14.280  1.00  0.00     0.120 A 
HETATM   35  C17 UNL     1      20.427  25.476  13.046  1.00  0.00     0.045 A 
HETATM   36  C18 UNL     1      20.557  26.824  13.348  1.00  0.00     0.024 A 
HETATM   37  C19 UNL     1      20.674  27.985  12.442  1.00  0.00     0.070 C 
HETATM   38  N6  UNL     1      20.570  26.933  14.681  1.00  0.00    -0.297 N 
ATOM     39  H6  UNL     1      20.653  27.820  15.179  1.00  0.00     0.187 HD
ENDBRANCH   9  33
BRANCH  12  40
HETATM   40  N8  UNL     1      22.598  24.997  19.594  1.00  0.00    -0.180 N 
HETATM   41  N9  UNL     1      23.880  25.099  19.108  1.00  0.00    -0.287 N 
HETATM   42  C21 UNL     1      24.666  24.871  20.199  1.00  0.00     0.135 A 
ATOM     43  H9  UNL     1      24.174  25.299  18.152  1.00  0.00     0.188 HD
HETATM   44  C22 UNL     1      23.861  24.647  21.292  1.00  0.00     0.041 A 
HETATM   45  C23 UNL     1      24.368  24.348  22.688  1.00  0.00     0.071 C 
HETATM   46  N10 UNL     1      22.626  24.739  20.852  1.00  0.00    -0.281 N 
ATOM     47  H10 UNL     1      21.796  24.622  21.434  1.00  0.00     0.189 HD
ENDBRANCH  12  40
TORSDOF 10
ENDMDL
MODEL 4
REMARK VINA RESULT: -9.541173661      2.093      2.969
REMARK  10 active torsions:
REMARK  status: ('A' for Active; 'I' for Inactive)
REMARK    1  A    between atoms: C2_2  and  C3_3 
REMARK    2  A    between atoms: C3_3  and  C4_4 
REMARK    3  A    between atoms: C4_4  and  C5_5 
REMARK    4  A    between atoms: C5_5  and  C6_6 
REMARK    5  A    between atoms: C6_6  and  N1_7 
REMARK    6  A    between atoms: C8_9  and  C9_10 
REMARK       I    between atoms: C9_10  and  N2_12 
REMARK    7  A    between atoms: N2_12  and  C10_14 
REMARK    8  A    between atoms: C11_15  and  N3_16 
REMARK       I    between atoms: N3_16  and  C12_18 
REMARK       I    between atoms: C12_18  and  N4_20 
REMARK    9  A    between atoms: C15_24  and  N5_25 
REMARK   10  A    between atoms: C20_34  and  N8_35 
ROOT
HETATM    1  N3  UNL     1      17.115  23.181  18.613  1.00  0.00    -0.318 N 
ATOM      2  H3  UNL     1      17.156  22.254  18.188  1.00  0.00     0.170 HD
HETATM    3  C12 UNL     1      16.046  24.022  18.119  1.00  0.00     0.324 C 
HETATM    4  O2  UNL     1      15.898  25.153  18.586  1.00  0.00    -0.247 OA
HETATM    5  N4  UNL     1      15.201  23.529  17.111  1.00  0.00    -0.308 N 
ATOM      6  H4  UNL     1      15.132  24.030  16.225  1.00  0.00     0.170 HD
HETATM    7  C13 UNL     1      14.518  22.468  17.285  1.00  0.00     0.043 A 
HETATM    8  C14 UNL     1      14.513  21.715  18.428  1.00  0.00     0.080 A 
HETATM    9  C15 UNL     1      13.885  20.470  18.501  1.00  0.00     0.130 A 
HETATM   10  N7  UNL     1      13.273  20.018  17.393  1.00  0.00    -0.324 N 
ATOM     11  H7  UNL     1      12.808  19.111  17.424  1.00  0.00     0.169 HD
HETATM   12  C20 UNL     1      13.253  20.723  16.237  1.00  0.00     0.149 A 
HETATM   13  C24 UNL     1      13.869  21.951  16.173  1.00  0.00     0.082 A 
ENDROOT
BRANCH   1  14
HETATM   14  C11 UNL     1      18.087  23.420  19.561  1.00  0.00     0.110 C 
HETATM   15  C10 UNL     1      18.954  24.154  20.359  1.00  0.00     0.108 C 
BRANCH  15  16
HETATM   16  N2  UNL     1      20.044  24.962  19.820  1.00  0.00    -0.332 N 
HETATM   17  C9  UNL     1      21.303  24.398  19.633  1.00  0.00     0.259 C 
HETATM   18  O1  UNL     1      21.550  23.197  19.965  1.00  0.00    -0.267 OA
ATOM     19  H2  UNL     1      19.883  25.940  19.580  1.00  0.00     0.168 HD
BRANCH  17  20
HETATM   20  C8  UNL     1      22.364  25.209  19.019  1.00  0.00     0.073 A 
HETATM   21  C7  UNL     1      22.196  26.085  17.924  1.00  0.00     0.129 A 
HETATM   22  N1  UNL     1      23.338  26.749  17.710  1.00  0.00    -0.300 N 
HETATM   23  N11 UNL     1      24.202  26.330  18.612  1.00  0.00    -0.298 N 
HETATM   24  C25 UNL     1      23.649  25.387  19.424  1.00  0.00     0.041 A 
HETATM   25  C27 UNL     1      25.547  26.907  18.734  1.00  0.00     0.178 C 
HETATM   26  C26 UNL     1      24.364  24.635  20.517  1.00  0.00     0.071 C 
BRANCH  22  27
HETATM   27  C6  UNL     1      23.558  27.755  16.676  1.00  0.00     0.148 C 
BRANCH  27  28
HETATM   28  C5  UNL     1      23.443  27.099  15.318  1.00  0.00     0.022 C 
BRANCH  28  29
HETATM   29  C4  UNL     1      22.113  27.329  14.656  1.00  0.00     0.002 C 
BRANCH  29  30
HETATM   30  C3  UNL     1      21.381  26.111  14.267  1.00  0.00    -0.000 C 
BRANCH  30  31
HETATM   31  C2  UNL     1      20.599  26.302  12.990  1.00  0.00    -0.005 C 
HETATM   32  C1  UNL     1      20.755  27.689  12.458  1.00  0.00     0.005 C 
ENDBRANCH  30  31
ENDBRANCH  29  30
ENDBRANCH  28  29
ENDBRANCH  27  28
ENDBRANCH  22  27
ENDBRANCH  17  20
ENDBRANCH  15  16
ENDBRANCH   1  14
BRANCH   9  33
HETATM   33  N5  UNL     1      13.926  19.778  19.748  1.00  0.00    -0.251 N 
HETATM   34  C16 UNL     1      14.537  20.276  20.863  1.00  0.00     0.120 A 
HETATM   35  C17 UNL     1      14.396  19.365  21.898  1.00  0.00     0.045 A 
HETATM   36  C18 UNL     1      13.678  18.317  21.341  1.00  0.00     0.024 A 
HETATM   37  C19 UNL     1      13.230  17.051  21.957  1.00  0.00     0.070 C 
HETATM   38  N6  UNL     1      13.434  18.636  20.065  1.00  0.00    -0.297 N 
ATOM     39  H6  UNL     1      12.917  18.040  19.418  1.00  0.00     0.187 HD
ENDBRANCH   9  33
BRANCH  12  40
HETATM   40  N8  UNL     1      12.642  20.223  15.046  1.00  0.00    -0.180 N 
HETATM   41  N9  UNL     1      11.581  20.847  14.434  1.00  0.00    -0.287 N 
HETATM   42  C21 UNL     1      11.279  20.031  13.384  1.00  0.00     0.135 A 
ATOM     43  H9  UNL     1      11.124  21.718  14.704  1.00  0.00     0.188 HD
HETATM   44  C22 UNL     1      12.148  18.962  13.383  1.00  0.00     0.041 A 
HETATM   45  C23 UNL     1      12.124  17.835  12.373  1.00  0.00     0.071 C 
HETATM   46  N10 UNL     1      12.941  19.147  14.414  1.00  0.00    -0.281 N 
ATOM     47  H10 UNL     1      13.698  18.516  14.678  1.00  0.00     0.189 HD
ENDBRANCH  12  40
TORSDOF 10
ENDMDL
MODEL 5
REMARK VINA RESULT: -9.464632606      1.248      1.582
REMARK  10 active torsions:
REMARK  status: ('A' for Active; 'I' for Inactive)
REMARK    1  A    between atoms: C2_2  and  C3_3 
REMARK    2  A    between atoms: C3_3  and  C4_4 
REMARK    3  A    between atoms: C4_4  and  C5_5 
REMARK    4  A    between atoms: C5_5  and  C6_6 
REMARK    5  A    between atoms: C6_6  and  N1_7 
REMARK    6  A    between atoms: C8_9  and  C9_10 
REMARK       I    between atoms: C9_10  and  N2_12 
REMARK    7  A    between atoms: N2_12  and  C10_14 
REMARK    8  A    between atoms: C11_15  and  N3_16 
REMARK       I    between atoms: N3_16  and  C12_18 
REMARK       I    between atoms: C12_18  and  N4_20 
REMARK    9  A    between atoms: C15_24  and  N5_25 
REMARK   10  A    between atoms: C20_34  and  N8_35 
ROOT
HETATM    1  N3  UNL     1      14.836  22.549  16.457  1.00  0.00    -0.318 N 
ATOM      2  H3  UNL     1      15.122  21.582  16.303  1.00  0.00     0.170 HD
HETATM    3  C12 UNL     1      13.842  23.037  15.526  1.00  0.00     0.324 C 
HETATM    4  O2  UNL     1      13.415  24.187  15.643  1.00  0.00    -0.247 OA
HETATM    5  N4  UNL     1      13.388  22.187  14.504  1.00  0.00    -0.308 N 
ATOM      6  H4  UNL     1      13.501  22.469  13.531  1.00  0.00     0.170 HD
HETATM    7  C13 UNL     1      12.838  21.070  14.773  1.00  0.00     0.043 A 
HETATM    8  C14 UNL     1      12.618  20.586  16.033  1.00  0.00     0.080 A 
HETATM    9  C15 UNL     1      12.174  19.283  16.268  1.00  0.00     0.130 A 
HETATM   10  N7  UNL     1      11.964  18.497  15.198  1.00  0.00    -0.324 N 
ATOM     11  H7  UNL     1      11.638  17.542  15.345  1.00  0.00     0.169 HD
HETATM   12  C20 UNL     1      12.170  18.929  13.930  1.00  0.00     0.149 A 
HETATM   13  C24 UNL     1      12.603  20.214  13.706  1.00  0.00     0.082 A 
ENDROOT
BRANCH   1  14
HETATM   14  C11 UNL     1      15.463  23.169  17.517  1.00  0.00     0.110 C 
HETATM   15  C10 UNL     1      16.001  24.207  18.267  1.00  0.00     0.108 C 
BRANCH  15  16
HETATM   16  N2  UNL     1      17.147  24.997  17.827  1.00  0.00    -0.332 N 
HETATM   17  C9  UNL     1      18.435  24.624  18.199  1.00  0.00     0.259 C 
HETATM   18  O1  UNL     1      18.646  23.628  18.960  1.00  0.00    -0.267 OA
ATOM     19  H2  UNL     1      17.004  25.823  17.246  1.00  0.00     0.168 HD
BRANCH  17  20
HETATM   20  C8  UNL     1      19.578  25.391  17.683  1.00  0.00     0.073 A 
HETATM   21  C7  UNL     1      19.524  26.336  16.635  1.00  0.00     0.129 A 
HETATM   22  N1  UNL     1      20.717  26.928  16.513  1.00  0.00    -0.300 N 
HETATM   23  N11 UNL     1      21.505  26.400  17.426  1.00  0.00    -0.298 N 
HETATM   24  C25 UNL     1      20.850  25.455  18.155  1.00  0.00     0.041 A 
HETATM   25  C27 UNL     1      22.879  26.873  17.644  1.00  0.00     0.178 C 
HETATM   26  C26 UNL     1      21.458  24.595  19.234  1.00  0.00     0.071 C 
BRANCH  22  27
HETATM   27  C6  UNL     1      21.056  27.973  15.551  1.00  0.00     0.148 C 
BRANCH  27  28
HETATM   28  C5  UNL     1      20.100  27.894  14.381  1.00  0.00     0.022 C 
BRANCH  28  29
HETATM   29  C4  UNL     1      20.792  27.753  13.054  1.00  0.00     0.002 C 
BRANCH  29  30
HETATM   30  C3  UNL     1      20.595  26.462  12.372  1.00  0.00    -0.000 C 
BRANCH  30  31
HETATM   31  C2  UNL     1      20.099  25.392  13.314  1.00  0.00    -0.005 C 
HETATM   32  C1  UNL     1      21.228  24.573  13.851  1.00  0.00     0.005 C 
ENDBRANCH  30  31
ENDBRANCH  29  30
ENDBRANCH  28  29
ENDBRANCH  27  28
ENDBRANCH  22  27
ENDBRANCH  17  20
ENDBRANCH  15  16
ENDBRANCH   1  14
BRANCH   9  33
HETATM   33  N5  UNL     1      11.960  18.887  17.621  1.00  0.00    -0.251 N 
HETATM   34  C16 UNL     1      10.842  18.225  18.042  1.00  0.00     0.120 A 
HETATM   35  C17 UNL     1      10.945  17.989  19.404  1.00  0.00     0.045 A 
HETATM   36  C18 UNL     1      12.168  18.541  19.759  1.00  0.00     0.024 A 
HETATM   37  C19 UNL     1      12.822  18.605  21.082  1.00  0.00     0.070 C 
HETATM   38  N6  UNL     1      12.711  19.052  18.649  1.00  0.00    -0.297 N 
ATOM     39  H6  UNL     1      13.617  19.518  18.623  1.00  0.00     0.187 HD
ENDBRANCH   9  33
BRANCH  12  40
HETATM   40  N8  UNL     1      11.991  18.081  12.794  1.00  0.00    -0.180 N 
HETATM   41  N9  UNL     1      11.009  18.290  11.855  1.00  0.00    -0.287 N 
HETATM   42  C21 UNL     1      11.154  17.247  10.988  1.00  0.00     0.135 A 
ATOM     43  H9  UNL     1      10.330  19.050  11.815  1.00  0.00     0.188 HD
HETATM   44  C22 UNL     1      12.197  16.454  11.412  1.00  0.00     0.041 A 
HETATM   45  C23 UNL     1      12.658  15.193  10.713  1.00  0.00     0.071 C 
HETATM   46  N10 UNL     1      12.654  17.020  12.507  1.00  0.00    -0.281 N 
ATOM     47  H10 UNL     1      13.435  16.662  13.057  1.00  0.00     0.189 HD
ENDBRANCH  12  40
TORSDOF 10
ENDMDL
