MODEL 1
REMARK VINA RESULT: -9.146771887      0.000      0.000
REMARK  12 active torsions:
REMARK  status: ('A' for Active; 'I' for Inactive)
REMARK    1  A    between atoms: C2_2  and  N1_3 
REMARK    2  A    between atoms: N1_3  and  C3_4 
REMARK    3  A    between atoms: N1_3  and  C5_6 
REMARK    4  A    between atoms: C5_6  and  C6_7 
REMARK    5  A    between atoms: C6_7  and  N2_8 
REMARK    6  A    between atoms: C9_14  and  C10_15 
REMARK    7  A    between atoms: C10_15  and  C11_16 
REMARK    8  A    between atoms: C14_25  and  O3_26 
REMARK    9  A    between atoms: C16_28  and  N6_29 
REMARK   10  A    between atoms: N6_29  and  C17_31 
REMARK   11  A    between atoms: C20_36  and  C21_37 
REMARK   12  A    between atoms: C23_39  and  O4_40 
ROOT
HETATM    1  N2  UNL     1      17.844  25.049  16.582  1.00  0.00    -0.373 N 
ATOM      2  H2  UNL     1      17.035  24.456  16.768  1.00  0.00     0.161 HD
HETATM    3  C7  UNL     1      18.780  25.069  17.447  1.00  0.00     0.131 A 
HETATM    4  N3  UNL     1      19.884  25.777  17.343  1.00  0.00    -0.350 N 
ATOM      5  H3  UNL     1      20.006  26.323  16.490  1.00  0.00     0.166 HD
HETATM    6  C8  UNL     1      20.877  25.848  18.266  1.00  0.00     0.100 A 
HETATM    7  C9  UNL     1      20.773  25.144  19.422  1.00  0.00    -0.001 A 
HETATM    8  C14 UNL     1      19.602  24.368  19.578  1.00  0.00     0.106 A 
HETATM    9  C16 UNL     1      18.611  24.311  18.631  1.00  0.00     0.112 A 
ENDROOT
BRANCH   9  10
HETATM   10  N6  UNL     1      17.432  23.565  18.792  1.00  0.00    -0.337 N 
ATOM     11  H6  UNL     1      16.691  24.037  19.309  1.00  0.00     0.167 HD
BRANCH  10  12
HETATM   12  C17 UNL     1      17.144  22.387  18.390  1.00  0.00     0.108 A 
HETATM   13  C18 UNL     1      18.020  21.669  17.567  1.00  0.00     0.065 A 
HETATM   14  C19 UNL     1      17.651  20.394  17.213  1.00  0.00     0.093 A 
HETATM   15  N7  UNL     1      16.490  19.875  17.650  1.00  0.00    -0.351 N 
HETATM   16  C20 UNL     1      15.627  20.562  18.451  1.00  0.00     0.117 A 
ATOM     17  H7  UNL     1      16.244  18.925  17.370  1.00  0.00     0.166 HD
HETATM   18  N8  UNL     1      16.006  21.784  18.776  1.00  0.00    -0.328 N 
ATOM     19  H8  UNL     1      15.378  22.320  19.375  1.00  0.00     0.169 HD
BRANCH  16  20
HETATM   20  C21 UNL     1      14.402  19.935  18.939  1.00  0.00     0.017 A 
HETATM   21  C22 UNL     1      14.323  19.311  20.162  1.00  0.00     0.052 A 
HETATM   22  C23 UNL     1      13.137  18.711  20.608  1.00  0.00     0.069 A 
HETATM   23  C25 UNL     1      12.015  18.721  19.844  1.00  0.00     0.037 A 
HETATM   24  C26 UNL     1      12.071  19.341  18.609  1.00  0.00     0.010 A 
HETATM   25  C27 UNL     1      13.264  19.946  18.161  1.00  0.00    -0.048 A 
HETATM   26  C28 UNL     1      13.276  20.555  16.810  1.00  0.00     0.049 C 
BRANCH  22  27
HETATM   27  O4  UNL     1      13.129  18.103  21.847  1.00  0.00    -0.356 OA
HETATM   28  C24 UNL     1      13.515  16.803  22.151  1.00  0.00     0.210 C 
ENDBRANCH  22  27
ENDBRANCH  16  20
ENDBRANCH  10  12
ENDBRANCH   9  10
BRANCH   8  29
HETATM   29  O3  UNL     1      19.475  23.638  20.773  1.00  0.00    -0.353 OA
HETATM   30  C15 UNL     1      19.872  22.286  20.894  1.00  0.00     0.210 C 
ENDBRANCH   8  29
BRANCH   1  31
HETATM   31  C6  UNL     1      17.855  25.797  15.379  1.00  0.00     0.151 C 
BRANCH  31  32
HETATM   32  C5  UNL     1      18.413  25.107  14.171  1.00  0.00     0.292 C 
BRANCH  32  33
HETATM   33  N1  UNL     1      19.185  25.915  13.285  1.00  0.00     0.089 N 
BRANCH  33  34
HETATM   34  C2  UNL     1      20.519  25.415  13.045  1.00  0.00     0.268 C 
HETATM   35  C1  UNL     1      21.053  24.517  14.112  1.00  0.00     0.037 C 
ENDBRANCH  33  34
BRANCH  33  36
HETATM   36  C3  UNL     1      19.265  27.242  13.927  1.00  0.00     0.268 C 
HETATM   37  C4  UNL     1      20.427  28.039  13.428  1.00  0.00     0.037 C 
ENDBRANCH  33  36
ENDBRANCH  32  33
ENDBRANCH  31  32
ENDBRANCH   1  31
BRANCH   7  38
HETATM   38  C10 UNL     1      21.712  25.065  20.525  1.00  0.00     0.106 C 
BRANCH  38  39
HETATM   39  C11 UNL     1      22.972  24.364  20.352  1.00  0.00     0.086 A 
HETATM   40  N4  UNL     1      23.301  23.467  19.509  1.00  0.00    -0.307 N 
HETATM   41  C12 UNL     1      24.626  23.030  19.667  1.00  0.00     0.327 A 
ATOM     42  H4  UNL     1      22.669  23.104  18.795  1.00  0.00     0.170 HD
HETATM   43  O1  UNL     1      25.308  22.166  19.033  1.00  0.00    -0.247 OA
HETATM   44  N5  UNL     1      25.198  23.750  20.750  1.00  0.00    -0.274 N 
HETATM   45  C13 UNL     1      24.160  24.614  21.211  1.00  0.00     0.272 A 
ATOM     46  H5  UNL     1      26.144  23.666  21.119  1.00  0.00     0.173 HD
HETATM   47  O2  UNL     1      24.213  25.434  22.155  1.00  0.00    -0.266 OA
ENDBRANCH  38  39
ENDBRANCH   7  38
TORSDOF 12
ENDMDL
MODEL 2
REMARK VINA RESULT: -9.021380646      1.831      2.659
REMARK  12 active torsions:
REMARK  status: ('A' for Active; 'I' for Inactive)
REMARK    1  A    between atoms: C2_2  and  N1_3 
REMARK    2  A    between atoms: N1_3  and  C3_4 
REMARK    3  A    between atoms: N1_3  and  C5_6 
REMARK    4  A    between atoms: C5_6  and  C6_7 
REMARK    5  A    between atoms: C6_7  and  N2_8 
REMARK    6  A    between atoms: C9_14  and  C10_15 
REMARK    7  A    between atoms: C10_15  and  C11_16 
REMARK    8  A    between atoms: C14_25  and  O3_26 
REMARK    9  A    between atoms: C16_28  and  N6_29 
REMARK   10  A    between atoms: N6_29  and  C17_31 
REMARK   11  A    between atoms: C20_36  and  C21_37 
REMARK   12  A    between atoms: C23_39  and  O4_40 
ROOT
HETATM    1  N2  UNL     1      17.284  25.633  14.822  1.00  0.00    -0.373 N 
ATOM      2  H2  UNL     1      16.393  25.261  14.493  1.00  0.00     0.161 HD
HETATM    3  C7  UNL     1      17.676  25.299  15.988  1.00  0.00     0.131 A 
HETATM    4  N3  UNL     1      18.802  25.692  16.544  1.00  0.00    -0.350 N 
ATOM      5  H3  UNL     1      19.415  26.283  15.981  1.00  0.00     0.166 HD
HETATM    6  C8  UNL     1      19.224  25.385  17.796  1.00  0.00     0.100 A 
HETATM    7  C9  UNL     1      18.454  24.601  18.593  1.00  0.00    -0.001 A 
HETATM    8  C14 UNL     1      17.233  24.154  18.038  1.00  0.00     0.106 A 
HETATM    9  C16 UNL     1      16.826  24.478  16.768  1.00  0.00     0.112 A 
ENDROOT
BRANCH   9  10
HETATM   10  N6  UNL     1      15.602  24.061  16.220  1.00  0.00    -0.337 N 
ATOM     11  H6  UNL     1      14.926  24.807  16.060  1.00  0.00     0.167 HD
BRANCH  10  12
HETATM   12  C17 UNL     1      15.205  22.892  15.891  1.00  0.00     0.108 A 
HETATM   13  C18 UNL     1      15.529  22.343  14.644  1.00  0.00     0.065 A 
HETATM   14  C19 UNL     1      15.095  21.065  14.386  1.00  0.00     0.093 A 
HETATM   15  N7  UNL     1      14.388  20.387  15.306  1.00  0.00    -0.351 N 
HETATM   16  C20 UNL     1      14.064  20.910  16.524  1.00  0.00     0.117 A 
ATOM     17  H7  UNL     1      14.080  19.440  15.084  1.00  0.00     0.166 HD
HETATM   18  N8  UNL     1      14.493  22.137  16.746  1.00  0.00    -0.328 N 
ATOM     19  H8  UNL     1      14.264  22.552  17.649  1.00  0.00     0.169 HD
BRANCH  16  20
HETATM   20  C21 UNL     1      13.336  20.112  17.507  1.00  0.00     0.017 A 
HETATM   21  C22 UNL     1      13.901  19.695  18.689  1.00  0.00     0.052 A 
HETATM   22  C23 UNL     1      13.184  18.927  19.617  1.00  0.00     0.069 A 
HETATM   23  C25 UNL     1      11.898  18.561  19.381  1.00  0.00     0.037 A 
HETATM   24  C26 UNL     1      11.310  18.968  18.198  1.00  0.00     0.010 A 
HETATM   25  C27 UNL     1      12.030  19.742  17.264  1.00  0.00    -0.048 A 
HETATM   26  C28 UNL     1      11.362  20.109  15.995  1.00  0.00     0.049 C 
BRANCH  22  27
HETATM   27  O4  UNL     1      13.813  18.543  20.785  1.00  0.00    -0.356 OA
HETATM   28  C24 UNL     1      13.382  17.590  21.700  1.00  0.00     0.210 C 
ENDBRANCH  22  27
ENDBRANCH  16  20
ENDBRANCH  10  12
ENDBRANCH   9  10
BRANCH   8  29
HETATM   29  O3  UNL     1      16.420  23.347  18.852  1.00  0.00    -0.353 OA
HETATM   30  C15 UNL     1      16.756  22.018  19.200  1.00  0.00     0.210 C 
ENDBRANCH   8  29
BRANCH   1  31
HETATM   31  C6  UNL     1      18.005  26.489  13.954  1.00  0.00     0.151 C 
BRANCH  31  32
HETATM   32  C5  UNL     1      19.152  25.871  13.211  1.00  0.00     0.292 C 
BRANCH  32  33
HETATM   33  N1  UNL     1      20.399  26.557  13.295  1.00  0.00     0.089 N 
BRANCH  33  34
HETATM   34  C2  UNL     1      21.410  25.851  14.048  1.00  0.00     0.268 C 
HETATM   35  C1  UNL     1      21.198  24.377  14.151  1.00  0.00     0.037 C 
ENDBRANCH  33  34
BRANCH  33  36
HETATM   36  C3  UNL     1      20.100  27.843  13.957  1.00  0.00     0.268 C 
HETATM   37  C4  UNL     1      20.987  28.088  15.136  1.00  0.00     0.037 C 
ENDBRANCH  33  36
ENDBRANCH  32  33
ENDBRANCH  31  32
ENDBRANCH   1  31
BRANCH   7  38
HETATM   38  C10 UNL     1      18.716  24.143  19.944  1.00  0.00     0.106 C 
BRANCH  38  39
HETATM   39  C11 UNL     1      20.071  24.179  20.468  1.00  0.00     0.086 A 
HETATM   40  N4  UNL     1      20.719  25.140  20.998  1.00  0.00    -0.307 N 
HETATM   41  C12 UNL     1      22.019  24.775  21.380  1.00  0.00     0.327 A 
ATOM     42  H4  UNL     1      20.333  26.075  21.131  1.00  0.00     0.170 HD
HETATM   43  O1  UNL     1      22.952  25.440  21.930  1.00  0.00    -0.247 OA
HETATM   44  N5  UNL     1      22.207  23.407  21.044  1.00  0.00    -0.274 N 
HETATM   45  C13 UNL     1      20.973  22.996  20.456  1.00  0.00     0.272 A 
ATOM     46  H5  UNL     1      23.042  22.842  21.190  1.00  0.00     0.173 HD
HETATM   47  O2  UNL     1      20.680  21.866  20.008  1.00  0.00    -0.266 OA
ENDBRANCH  38  39
ENDBRANCH   7  38
TORSDOF 12
ENDMDL
MODEL 3
REMARK VINA RESULT: -8.965555146      1.486      2.034
REMARK  12 active torsions:
REMARK  status: ('A' for Active; 'I' for Inactive)
REMARK    1  A    between atoms: C2_2  and  N1_3 
REMARK    2  A    between atoms: N1_3  and  C3_4 
REMARK    3  A    between atoms: N1_3  and  C5_6 
REMARK    4  A    between atoms: C5_6  and  C6_7 
REMARK    5  A    between atoms: C6_7  and  N2_8 
REMARK    6  A    between atoms: C9_14  and  C10_15 
REMARK    7  A    between atoms: C10_15  and  C11_16 
REMARK    8  A    between atoms: C14_25  and  O3_26 
REMARK    9  A    between atoms: C16_28  and  N6_29 
REMARK   10  A    between atoms: N6_29  and  C17_31 
REMARK   11  A    between atoms: C20_36  and  C21_37 
REMARK   12  A    between atoms: C23_39  and  O4_40 
ROOT
HETATM    1  N2  UNL     1      16.907  25.479  15.701  1.00  0.00    -0.373 N 
ATOM      2  H2  UNL     1      15.961  25.104  15.625  1.00  0.00     0.161 HD
HETATM    3  C7  UNL     1      17.626  25.086  16.677  1.00  0.00     0.131 A 
HETATM    4  N3  UNL     1      18.864  25.474  16.903  1.00  0.00    -0.350 N 
ATOM      5  H3  UNL     1      19.280  26.113  16.225  1.00  0.00     0.166 HD
HETATM    6  C8  UNL     1      19.638  25.104  17.954  1.00  0.00     0.100 A 
HETATM    7  C9  UNL     1      19.141  24.255  18.890  1.00  0.00    -0.001 A 
HETATM    8  C14 UNL     1      17.814  23.810  18.689  1.00  0.00     0.106 A 
HETATM    9  C16 UNL     1      17.050  24.199  17.618  1.00  0.00     0.112 A 
ENDROOT
BRANCH   9  10
HETATM   10  N6  UNL     1      15.721  23.784  17.427  1.00  0.00    -0.337 N 
ATOM     11  H6  UNL     1      15.014  24.476  17.676  1.00  0.00     0.167 HD
BRANCH  10  12
HETATM   12  C17 UNL     1      15.261  22.676  16.990  1.00  0.00     0.108 A 
HETATM   13  C18 UNL     1      15.532  22.245  15.685  1.00  0.00     0.065 A 
HETATM   14  C19 UNL     1      15.031  21.022  15.308  1.00  0.00     0.093 A 
HETATM   15  N7  UNL     1      14.312  20.285  16.172  1.00  0.00    -0.351 N 
HETATM   16  C20 UNL     1      14.041  20.692  17.445  1.00  0.00     0.117 A 
ATOM     17  H7  UNL     1      13.954  19.381  15.862  1.00  0.00     0.166 HD
HETATM   18  N8  UNL     1      14.533  21.869  17.781  1.00  0.00    -0.328 N 
ATOM     19  H8  UNL     1      14.344  22.197  18.728  1.00  0.00     0.169 HD
BRANCH  16  20
HETATM   20  C21 UNL     1      13.297  19.830  18.360  1.00  0.00     0.017 A 
HETATM   21  C22 UNL     1      13.834  19.355  19.533  1.00  0.00     0.052 A 
HETATM   22  C23 UNL     1      13.102  18.525  20.395  1.00  0.00     0.069 A 
HETATM   23  C25 UNL     1      11.829  18.156  20.100  1.00  0.00     0.037 A 
HETATM   24  C26 UNL     1      11.269  18.621  18.925  1.00  0.00     0.010 A 
HETATM   25  C27 UNL     1      12.004  19.457  18.058  1.00  0.00    -0.048 A 
HETATM   26  C28 UNL     1      11.368  19.885  16.792  1.00  0.00     0.049 C 
BRANCH  22  27
HETATM   27  O4  UNL     1      13.702  18.085  21.557  1.00  0.00    -0.356 OA
HETATM   28  C24 UNL     1      13.499  16.872  22.203  1.00  0.00     0.210 C 
ENDBRANCH  22  27
ENDBRANCH  16  20
ENDBRANCH  10  12
ENDBRANCH   9  10
BRANCH   8  29
HETATM   29  O3  UNL     1      17.281  22.937  19.653  1.00  0.00    -0.353 OA
HETATM   30  C15 UNL     1      17.467  21.535  19.607  1.00  0.00     0.210 C 
ENDBRANCH   8  29
BRANCH   1  31
HETATM   31  C6  UNL     1      17.335  26.402  14.717  1.00  0.00     0.151 C 
BRANCH  31  32
HETATM   32  C5  UNL     1      18.318  25.891  13.707  1.00  0.00     0.292 C 
BRANCH  32  33
HETATM   33  N1  UNL     1      19.652  26.381  13.822  1.00  0.00     0.089 N 
BRANCH  33  34
HETATM   34  C2  UNL     1      19.849  27.692  13.247  1.00  0.00     0.268 C 
HETATM   35  C1  UNL     1      20.901  27.760  12.189  1.00  0.00     0.037 C 
ENDBRANCH  33  34
BRANCH  33  36
HETATM   36  C3  UNL     1      20.498  25.401  13.112  1.00  0.00     0.268 C 
HETATM   37  C4  UNL     1      21.269  24.535  14.056  1.00  0.00     0.037 C 
ENDBRANCH  33  36
ENDBRANCH  32  33
ENDBRANCH  31  32
ENDBRANCH   1  31
BRANCH   7  38
HETATM   38  C10 UNL     1      19.792  23.724  20.073  1.00  0.00     0.106 C 
BRANCH  38  39
HETATM   39  C11 UNL     1      21.225  23.890  20.243  1.00  0.00     0.086 A 
HETATM   40  N4  UNL     1      22.191  23.220  19.750  1.00  0.00    -0.307 N 
HETATM   41  C12 UNL     1      23.448  23.695  20.159  1.00  0.00     0.327 A 
ATOM     42  H4  UNL     1      22.065  22.424  19.125  1.00  0.00     0.170 HD
HETATM   43  O1  UNL     1      24.624  23.301  19.887  1.00  0.00    -0.247 OA
HETATM   44  N5  UNL     1      23.237  24.806  21.019  1.00  0.00    -0.274 N 
HETATM   45  C13 UNL     1      21.820  24.956  21.092  1.00  0.00     0.272 A 
ATOM     46  H5  UNL     1      23.945  25.373  21.483  1.00  0.00     0.173 HD
HETATM   47  O2  UNL     1      21.175  25.810  21.740  1.00  0.00    -0.266 OA
ENDBRANCH  38  39
ENDBRANCH   7  38
TORSDOF 12
ENDMDL
MODEL 4
REMARK VINA RESULT: -8.957028565      1.039      1.960
REMARK  12 active torsions:
REMARK  status: ('A' for Active; 'I' for Inactive)
REMARK    1  A    between atoms: C2_2  and  N1_3 
REMARK    2  A    between atoms: N1_3  and  C3_4 
REMARK    3  A    between atoms: N1_3  and  C5_6 
REMARK    4  A    between atoms: C5_6  and  C6_7 
REMARK    5  A    between atoms: C6_7  and  N2_8 
REMARK    6  A    between atoms: C9_14  and  C10_15 
REMARK    7  A    between atoms: C10_15  and  C11_16 
REMARK    8  A    between atoms: C14_25  and  O3_26 
REMARK    9  A    between atoms: C16_28  and  N6_29 
REMARK   10  A    between atoms: N6_29  and  C17_31 
REMARK   11  A    between atoms: C20_36  and  C21_37 
REMARK   12  A    between atoms: C23_39  and  O4_40 
ROOT
HETATM    1  N2  UNL     1      17.393  24.978  16.732  1.00  0.00    -0.373 N 
ATOM      2  H2  UNL     1      16.582  24.375  16.871  1.00  0.00     0.161 HD
HETATM    3  C7  UNL     1      18.313  24.952  17.614  1.00  0.00     0.131 A 
HETATM    4  N3  UNL     1      19.418  25.665  17.568  1.00  0.00    -0.350 N 
ATOM      5  H3  UNL     1      19.555  26.255  16.748  1.00  0.00     0.166 HD
HETATM    6  C8  UNL     1      20.393  25.687  18.512  1.00  0.00     0.100 A 
HETATM    7  C9  UNL     1      20.270  24.922  19.626  1.00  0.00    -0.001 A 
HETATM    8  C14 UNL     1      19.097  24.138  19.719  1.00  0.00     0.106 A 
HETATM    9  C16 UNL     1      18.124  24.131  18.753  1.00  0.00     0.112 A 
ENDROOT
BRANCH   9  10
HETATM   10  N6  UNL     1      16.943  23.377  18.851  1.00  0.00    -0.337 N 
ATOM     11  H6  UNL     1      16.154  23.866  19.274  1.00  0.00     0.167 HD
BRANCH  10  12
HETATM   12  C17 UNL     1      16.704  22.175  18.494  1.00  0.00     0.108 A 
HETATM   13  C18 UNL     1      17.638  21.442  17.751  1.00  0.00     0.065 A 
HETATM   14  C19 UNL     1      17.317  20.142  17.443  1.00  0.00     0.093 A 
HETATM   15  N7  UNL     1      16.148  19.614  17.845  1.00  0.00    -0.351 N 
HETATM   16  C20 UNL     1      15.229  20.316  18.568  1.00  0.00     0.117 A 
ATOM     17  H7  UNL     1      15.939  18.646  17.600  1.00  0.00     0.166 HD
HETATM   18  N8  UNL     1      15.562  21.561  18.851  1.00  0.00    -0.328 N 
ATOM     19  H8  UNL     1      14.891  22.109  19.390  1.00  0.00     0.169 HD
BRANCH  16  20
HETATM   20  C21 UNL     1      13.996  19.680  19.023  1.00  0.00     0.017 A 
HETATM   21  C22 UNL     1      12.965  19.364  18.171  1.00  0.00     0.052 A 
HETATM   22  C23 UNL     1      11.788  18.757  18.631  1.00  0.00     0.069 A 
HETATM   23  C25 UNL     1      11.620  18.460  19.945  1.00  0.00     0.037 A 
HETATM   24  C26 UNL     1      12.643  18.770  20.822  1.00  0.00     0.010 A 
HETATM   25  C27 UNL     1      13.828  19.379  20.359  1.00  0.00    -0.048 A 
HETATM   26  C28 UNL     1      14.869  19.730  21.351  1.00  0.00     0.049 C 
BRANCH  22  27
HETATM   27  O4  UNL     1      10.793  18.466  17.720  1.00  0.00    -0.356 OA
HETATM   28  C24 UNL     1      10.848  17.550  16.676  1.00  0.00     0.210 C 
ENDBRANCH  22  27
ENDBRANCH  16  20
ENDBRANCH  10  12
ENDBRANCH   9  10
BRANCH   8  29
HETATM   29  O3  UNL     1      18.950  23.345  20.870  1.00  0.00    -0.353 OA
HETATM   30  C15 UNL     1      19.475  22.036  20.975  1.00  0.00     0.210 C 
ENDBRANCH   8  29
BRANCH   1  31
HETATM   31  C6  UNL     1      17.425  25.788  15.571  1.00  0.00     0.151 C 
BRANCH  31  32
HETATM   32  C5  UNL     1      18.303  25.315  14.452  1.00  0.00     0.292 C 
BRANCH  32  33
HETATM   33  N1  UNL     1      19.463  26.101  14.186  1.00  0.00     0.089 N 
BRANCH  33  34
HETATM   34  C2  UNL     1      19.182  27.376  13.569  1.00  0.00     0.268 C 
HETATM   35  C1  UNL     1      20.300  27.934  12.750  1.00  0.00     0.037 C 
ENDBRANCH  33  34
BRANCH  33  36
HETATM   36  C3  UNL     1      20.294  25.286  13.277  1.00  0.00     0.268 C 
HETATM   37  C4  UNL     1      21.328  24.498  14.016  1.00  0.00     0.037 C 
ENDBRANCH  33  36
ENDBRANCH  32  33
ENDBRANCH  31  32
ENDBRANCH   1  31
BRANCH   7  38
HETATM   38  C10 UNL     1      21.188  24.785  20.741  1.00  0.00     0.106 C 
BRANCH  38  39
HETATM   39  C11 UNL     1      22.519  24.248  20.517  1.00  0.00     0.086 A 
HETATM   40  N4  UNL     1      22.941  23.451  19.617  1.00  0.00    -0.307 N 
HETATM   41  C12 UNL     1      24.309  23.164  19.740  1.00  0.00     0.327 A 
ATOM     42  H4  UNL     1      22.347  23.063  18.884  1.00  0.00     0.170 HD
HETATM   43  O1  UNL     1      25.080  22.428  19.049  1.00  0.00    -0.247 OA
HETATM   44  N5  UNL     1      24.806  23.876  20.865  1.00  0.00    -0.274 N 
HETATM   45  C13 UNL     1      23.681  24.582  21.385  1.00  0.00     0.272 A 
ATOM     46  H5  UNL     1      25.761  23.881  21.223  1.00  0.00     0.173 HD
HETATM   47  O2  UNL     1      23.648  25.340  22.379  1.00  0.00    -0.266 OA
ENDBRANCH  38  39
ENDBRANCH   7  38
TORSDOF 12
ENDMDL
MODEL 5
REMARK VINA RESULT: -8.933594246      2.159      3.125
REMARK  12 active torsions:
REMARK  status: ('A' for Active; 'I' for Inactive)
REMARK    1  A    between atoms: C2_2  and  N1_3 
REMARK    2  A    between atoms: N1_3  and  C3_4 
REMARK    3  A    between atoms: N1_3  and  C5_6 
REMARK    4  A    between atoms: C5_6  and  C6_7 
REMARK    5  A    between atoms: C6_7  and  N2_8 
REMARK    6  A    between atoms: C9_14  and  C10_15 
REMARK    7  A    between atoms: C10_15  and  C11_16 
REMARK    8  A    between atoms: C14_25  and  O3_26 
REMARK    9  A    between atoms: C16_28  and  N6_29 
REMARK   10  A    between atoms: N6_29  and  C17_31 
REMARK   11  A    between atoms: C20_36  and  C21_37 
REMARK   12  A    between atoms: C23_39  and  O4_40 
ROOT
HETATM    1  N2  UNL     1      17.748  24.226  16.243  1.00  0.00    -0.373 N 
ATOM      2  H2  UNL     1      17.131  23.439  16.042  1.00  0.00     0.161 HD
HETATM    3  C7  UNL     1      18.627  24.078  17.154  1.00  0.00     0.131 A 
HETATM    4  N3  UNL     1      19.495  24.998  17.519  1.00  0.00    -0.350 N 
ATOM      5  H3  UNL     1      19.475  25.881  17.008  1.00  0.00     0.166 HD
HETATM    6  C8  UNL     1      20.413  24.881  18.511  1.00  0.00     0.100 A 
HETATM    7  C9  UNL     1      20.488  23.730  19.226  1.00  0.00    -0.001 A 
HETATM    8  C14 UNL     1      19.575  22.712  18.870  1.00  0.00     0.106 A 
HETATM    9  C16 UNL     1      18.655  22.852  17.863  1.00  0.00     0.112 A 
ENDROOT
BRANCH   9  10
HETATM   10  N6  UNL     1      17.725  21.855  17.522  1.00  0.00    -0.337 N 
ATOM     11  H6  UNL     1      18.083  21.125  16.907  1.00  0.00     0.167 HD
BRANCH  10  12
HETATM   12  C17 UNL     1      16.501  21.722  17.864  1.00  0.00     0.108 A 
HETATM   13  C18 UNL     1      16.096  21.917  19.190  1.00  0.00     0.065 A 
HETATM   14  C19 UNL     1      14.755  21.793  19.464  1.00  0.00     0.093 A 
HETATM   15  N7  UNL     1      13.884  21.494  18.484  1.00  0.00    -0.351 N 
HETATM   16  C20 UNL     1      14.265  21.301  17.189  1.00  0.00     0.117 A 
ATOM     17  H7  UNL     1      12.895  21.408  18.719  1.00  0.00     0.166 HD
HETATM   18  N8  UNL     1      15.557  21.427  16.954  1.00  0.00    -0.328 N 
ATOM     19  H8  UNL     1      15.869  21.287  15.992  1.00  0.00     0.169 HD
BRANCH  16  20
HETATM   20  C21 UNL     1      13.273  21.028  16.153  1.00  0.00     0.017 A 
HETATM   21  C22 UNL     1      12.665  19.803  16.011  1.00  0.00     0.052 A 
HETATM   22  C23 UNL     1      11.718  19.563  15.006  1.00  0.00     0.069 A 
HETATM   23  C25 UNL     1      11.364  20.536  14.128  1.00  0.00     0.037 A 
HETATM   24  C26 UNL     1      11.963  21.776  14.250  1.00  0.00     0.010 A 
HETATM   25  C27 UNL     1      12.915  22.019  15.262  1.00  0.00    -0.048 A 
HETATM   26  C28 UNL     1      13.557  23.353  15.315  1.00  0.00     0.049 C 
BRANCH  22  27
HETATM   27  O4  UNL     1      11.146  18.309  14.921  1.00  0.00    -0.356 OA
HETATM   28  C24 UNL     1      11.142  17.457  13.824  1.00  0.00     0.210 C 
ENDBRANCH  22  27
ENDBRANCH  16  20
ENDBRANCH  10  12
ENDBRANCH   9  10
BRANCH   8  29
HETATM   29  O3  UNL     1      19.635  21.515  19.606  1.00  0.00    -0.353 OA
HETATM   30  C15 UNL     1      19.200  21.415  20.948  1.00  0.00     0.210 C 
ENDBRANCH   8  29
BRANCH   1  31
HETATM   31  C6  UNL     1      17.572  25.413  15.491  1.00  0.00     0.151 C 
BRANCH  31  32
HETATM   32  C5  UNL     1      18.258  25.466  14.159  1.00  0.00     0.292 C 
BRANCH  32  33
HETATM   33  N1  UNL     1      19.494  26.177  14.115  1.00  0.00     0.089 N 
BRANCH  33  34
HETATM   34  C2  UNL     1      19.386  27.511  13.573  1.00  0.00     0.268 C 
HETATM   35  C1  UNL     1      20.517  27.921  12.688  1.00  0.00     0.037 C 
ENDBRANCH  33  34
BRANCH  33  36
HETATM   36  C3  UNL     1      20.385  25.368  13.259  1.00  0.00     0.268 C 
HETATM   37  C4  UNL     1      21.295  24.495  14.061  1.00  0.00     0.037 C 
ENDBRANCH  33  36
ENDBRANCH  32  33
ENDBRANCH  31  32
ENDBRANCH   1  31
BRANCH   7  38
HETATM   38  C10 UNL     1      21.393  23.390  20.308  1.00  0.00     0.106 C 
BRANCH  38  39
HETATM   39  C11 UNL     1      22.810  23.687  20.184  1.00  0.00     0.086 A 
HETATM   40  N4  UNL     1      23.693  23.164  19.430  1.00  0.00    -0.307 N 
HETATM   41  C12 UNL     1      24.966  23.729  19.607  1.00  0.00     0.327 A 
ATOM     42  H4  UNL     1      23.497  22.413  18.767  1.00  0.00     0.170 HD
HETATM   43  O1  UNL     1      26.081  23.482  19.051  1.00  0.00    -0.247 OA
HETATM   44  N5  UNL     1      24.862  24.737  20.603  1.00  0.00    -0.274 N 
HETATM   45  C13 UNL     1      23.489  24.734  20.993  1.00  0.00     0.272 A 
ATOM     46  H5  UNL     1      25.607  25.333  20.961  1.00  0.00     0.173 HD
HETATM   47  O2  UNL     1      22.938  25.461  21.848  1.00  0.00    -0.266 OA
ENDBRANCH  38  39
ENDBRANCH   7  38
TORSDOF 12
ENDMDL
