MODEL 1
REMARK VINA RESULT: -5.790229980      0.000      0.000
REMARK  2 active torsions:
REMARK  status: ('A' for Active; 'I' for Inactive)
REMARK    1  A    between atoms: N1_1  and  N2_4 
REMARK    2  A    between atoms: N2_4  and  C1_6 
ROOT
HETATM    1  C1  UNL     1      38.593  16.903  33.761  1.00  0.00     0.156 C 
HETATM    2  C2  UNL     1      38.928  16.741  32.503  1.00  0.00     0.140 A 
HETATM    3  N3  UNL     1      40.276  16.910  32.064  1.00  0.00    -0.281 N 
ATOM      4  H3  UNL     1      40.983  17.162  32.754  1.00  0.00     0.188 HD
HETATM    5  N4  UNL     1      40.671  16.746  30.734  1.00  0.00    -0.260 N 
ATOM      6  H4  UNL     1      41.648  16.877  30.472  1.00  0.00     0.190 HD
HETATM    7  C3  UNL     1      39.731  16.402  29.762  1.00  0.00     0.328 A 
HETATM    8  O1  UNL     1      40.026  16.239  28.535  1.00  0.00    -0.261 OA
HETATM    9  C4  UNL     1      38.341  16.213  30.127  1.00  0.00     0.316 A 
HETATM   10  O2  UNL     1      37.450  15.899  29.267  1.00  0.00    -0.262 OA
HETATM   11  N5  UNL     1      37.980  16.389  31.489  1.00  0.00    -0.303 N 
ATOM     12  H5  UNL     1      37.005  16.259  31.756  1.00  0.00     0.171 HD
ENDROOT
BRANCH   1  13
HETATM   13  N2  UNL     1      39.587  17.250  34.699  1.00  0.00    -0.315 N 
ATOM     14  H2  UNL     1      40.318  17.907  34.426  1.00  0.00     0.185 HD
BRANCH  13  15
HETATM   15  N1  UNL     1      39.598  16.715  36.007  1.00  0.00    -0.345 N 
ATOM     16  H12 UNL     1      40.157  15.879  36.177  1.00  0.00     0.176 HD
ATOM     17  H11 UNL     1      39.070  17.141  36.769  1.00  0.00     0.176 HD
ENDBRANCH  13  15
ENDBRANCH   1  13
TORSDOF 2
ENDMDL
MODEL 2
REMARK VINA RESULT: -5.470479889      3.256      4.514
REMARK  2 active torsions:
REMARK  status: ('A' for Active; 'I' for Inactive)
REMARK    1  A    between atoms: N1_1  and  N2_4 
REMARK    2  A    between atoms: N2_4  and  C1_6 
ROOT
HETATM    1  C1  UNL     1      38.566  15.821  31.008  1.00  0.00     0.156 C 
HETATM    2  C2  UNL     1      39.328  16.521  31.815  1.00  0.00     0.140 A 
HETATM    3  N3  UNL     1      40.705  16.757  31.521  1.00  0.00    -0.281 N 
ATOM      4  H3  UNL     1      41.092  16.368  30.662  1.00  0.00     0.188 HD
HETATM    5  N4  UNL     1      41.546  17.497  32.357  1.00  0.00    -0.260 N 
ATOM      6  H4  UNL     1      42.523  17.638  32.100  1.00  0.00     0.190 HD
HETATM    7  C3  UNL     1      41.053  18.044  33.542  1.00  0.00     0.328 A 
HETATM    8  O1  UNL     1      41.767  18.725  34.344  1.00  0.00    -0.261 OA
HETATM    9  C4  UNL     1      39.665  17.848  33.912  1.00  0.00     0.316 A 
HETATM   10  O2  UNL     1      39.175  18.331  34.988  1.00  0.00    -0.262 OA
HETATM   11  N5  UNL     1      38.843  17.091  33.037  1.00  0.00    -0.303 N 
ATOM     12  H5  UNL     1      37.865  16.947  33.288  1.00  0.00     0.171 HD
ENDROOT
BRANCH   1  13
HETATM   13  N2  UNL     1      39.121  15.293  29.823  1.00  0.00    -0.315 N 
ATOM     14  H2  UNL     1      40.110  15.447  29.628  1.00  0.00     0.185 HD
BRANCH  13  15
HETATM   15  N1  UNL     1      38.345  14.559  28.899  1.00  0.00    -0.345 N 
ATOM     16  H12 UNL     1      38.731  14.399  27.969  1.00  0.00     0.176 HD
ATOM     17  H11 UNL     1      37.423  14.192  29.139  1.00  0.00     0.176 HD
ENDBRANCH  13  15
ENDBRANCH   1  13
TORSDOF 2
ENDMDL
MODEL 3
REMARK VINA RESULT: -5.417884578      1.291      1.505
REMARK  2 active torsions:
REMARK  status: ('A' for Active; 'I' for Inactive)
REMARK    1  A    between atoms: N1_1  and  N2_4 
REMARK    2  A    between atoms: N2_4  and  C1_6 
ROOT
HETATM    1  C1  UNL     1      39.440  17.462  33.557  1.00  0.00     0.156 C 
HETATM    2  C2  UNL     1      39.322  16.857  32.399  1.00  0.00     0.140 A 
HETATM    3  N3  UNL     1      40.456  16.623  31.563  1.00  0.00    -0.281 N 
ATOM      4  H3  UNL     1      41.370  16.937  31.885  1.00  0.00     0.188 HD
HETATM    5  N4  UNL     1      40.369  15.982  30.324  1.00  0.00    -0.260 N 
ATOM      6  H4  UNL     1      41.210  15.837  29.765  1.00  0.00     0.190 HD
HETATM    7  C3  UNL     1      39.134  15.538  29.849  1.00  0.00     0.328 A 
HETATM    8  O1  UNL     1      38.989  14.950  28.731  1.00  0.00    -0.261 OA
HETATM    9  C4  UNL     1      37.936  15.740  30.639  1.00  0.00     0.316 A 
HETATM   10  O2  UNL     1      36.787  15.350  30.240  1.00  0.00    -0.262 OA
HETATM   11  N5  UNL     1      38.065  16.395  31.892  1.00  0.00    -0.303 N 
ATOM     12  H5  UNL     1      37.228  16.542  32.455  1.00  0.00     0.171 HD
ENDROOT
BRANCH   1  13
HETATM   13  N2  UNL     1      40.715  17.888  33.985  1.00  0.00    -0.315 N 
ATOM     14  H2  UNL     1      41.309  17.236  34.496  1.00  0.00     0.185 HD
BRANCH  13  15
HETATM   15  N1  UNL     1      41.192  19.193  33.727  1.00  0.00    -0.345 N 
ATOM     16  H12 UNL     1      40.647  19.788  33.102  1.00  0.00     0.176 HD
ATOM     17  H11 UNL     1      42.053  19.545  34.145  1.00  0.00     0.176 HD
ENDBRANCH  13  15
ENDBRANCH   1  13
TORSDOF 2
ENDMDL
MODEL 4
REMARK VINA RESULT: -4.990405377      1.878      1.988
REMARK  2 active torsions:
REMARK  status: ('A' for Active; 'I' for Inactive)
REMARK    1  A    between atoms: N1_1  and  N2_4 
REMARK    2  A    between atoms: N2_4  and  C1_6 
ROOT
HETATM    1  C1  UNL     1      40.072  18.307  34.790  1.00  0.00     0.156 C 
HETATM    2  C2  UNL     1      40.015  17.687  33.635  1.00  0.00     0.140 A 
HETATM    3  N3  UNL     1      41.138  17.650  32.755  1.00  0.00    -0.281 N 
ATOM      4  H3  UNL     1      41.996  18.121  33.041  1.00  0.00     0.188 HD
HETATM    5  N4  UNL     1      41.115  17.000  31.518  1.00  0.00    -0.260 N 
ATOM      6  H4  UNL     1      41.946  17.002  30.926  1.00  0.00     0.190 HD
HETATM    7  C3  UNL     1      39.959  16.347  31.091  1.00  0.00     0.328 A 
HETATM    8  O1  UNL     1      39.874  15.738  29.977  1.00  0.00    -0.261 OA
HETATM    9  C4  UNL     1      38.775  16.339  31.928  1.00  0.00     0.316 A 
HETATM   10  O2  UNL     1      37.697  15.753  31.574  1.00  0.00    -0.262 OA
HETATM   11  N5  UNL     1      38.838  17.010  33.177  1.00  0.00    -0.303 N 
ATOM     12  H5  UNL     1      38.011  17.011  33.774  1.00  0.00     0.171 HD
ENDROOT
BRANCH   1  13
HETATM   13  N2  UNL     1      41.268  18.950  35.169  1.00  0.00    -0.315 N 
ATOM     14  H2  UNL     1      41.503  19.849  34.746  1.00  0.00     0.185 HD
BRANCH  13  15
HETATM   15  N1  UNL     1      42.152  18.385  36.116  1.00  0.00    -0.345 N 
ATOM     16  H12 UNL     1      42.216  17.368  36.164  1.00  0.00     0.176 HD
ATOM     17  H11 UNL     1      42.716  18.963  36.739  1.00  0.00     0.176 HD
ENDBRANCH  13  15
ENDBRANCH   1  13
TORSDOF 2
ENDMDL
MODEL 5
REMARK VINA RESULT: -4.930447163      3.276      4.628
REMARK  2 active torsions:
REMARK  status: ('A' for Active; 'I' for Inactive)
REMARK    1  A    between atoms: N1_1  and  N2_4 
REMARK    2  A    between atoms: N2_4  and  C1_6 
ROOT
HETATM    1  C1  UNL     1      39.120  15.939  31.207  1.00  0.00     0.156 C 
HETATM    2  C2  UNL     1      39.420  16.717  32.221  1.00  0.00     0.140 A 
HETATM    3  N3  UNL     1      40.734  17.249  32.387  1.00  0.00    -0.281 N 
ATOM      4  H3  UNL     1      41.445  17.011  31.696  1.00  0.00     0.188 HD
HETATM    5  N4  UNL     1      41.091  18.081  33.452  1.00  0.00    -0.260 N 
ATOM      6  H4  UNL     1      42.044  18.435  33.524  1.00  0.00     0.190 HD
HETATM    7  C3  UNL     1      40.145  18.427  34.417  1.00  0.00     0.328 A 
HETATM    8  O1  UNL     1      40.406  19.178  35.410  1.00  0.00    -0.261 OA
HETATM    9  C4  UNL     1      38.788  17.927  34.320  1.00  0.00     0.316 A 
HETATM   10  O2  UNL     1      37.892  18.220  35.182  1.00  0.00    -0.262 OA
HETATM   11  N5  UNL     1      38.465  17.086  33.223  1.00  0.00    -0.303 N 
ATOM     12  H5  UNL     1      37.513  16.728  33.145  1.00  0.00     0.171 HD
ENDROOT
BRANCH   1  13
HETATM   13  N2  UNL     1      40.118  15.624  30.263  1.00  0.00    -0.315 N 
ATOM     14  H2  UNL     1      40.700  14.800  30.414  1.00  0.00     0.185 HD
BRANCH  13  15
HETATM   15  N1  UNL     1      40.335  16.416  29.113  1.00  0.00    -0.345 N 
ATOM     16  H12 UNL     1      39.896  16.123  28.239  1.00  0.00     0.176 HD
ATOM     17  H11 UNL     1      40.910  17.259  29.139  1.00  0.00     0.176 HD
ENDBRANCH  13  15
ENDBRANCH   1  13
TORSDOF 2
ENDMDL
