MODEL 1
REMARK VINA RESULT: -8.838753837      0.000      0.000
REMARK  8 active torsions:
REMARK  status: ('A' for Active; 'I' for Inactive)
REMARK    1  A    between atoms: C2_5  and  O2_6 
REMARK    2  A    between atoms: C3_8  and  C4_9 
REMARK    3  A    between atoms: C4_9  and  C5_10 
REMARK    4  A    between atoms: C7_15  and  N4_16 
REMARK    5  A    between atoms: N4_16  and  C8_18 
REMARK    6  A    between atoms: C11_23  and  N6_24 
REMARK    7  A    between atoms: N6_24  and  C12_26 
REMARK    8  A    between atoms: C12_26  and  C13_27 
ROOT
HETATM    1  C5  UNL     1      39.909  -1.162  12.794  1.00  0.00     0.030 A 
HETATM    2  C6  UNL     1      40.776  -1.876  13.592  1.00  0.00     0.123 A 
HETATM    3  N2  UNL     1      41.273  -1.028  14.529  1.00  0.00    -0.288 N 
ATOM      4  H2  UNL     1      41.942  -1.285  15.255  1.00  0.00     0.187 HD
HETATM    5  N3  UNL     1      40.762   0.184  14.359  1.00  0.00    -0.068 N 
HETATM    6  C7  UNL     1      40.946   1.337  15.026  1.00  0.00     0.716 A 
HETATM    7  N5  UNL     1      40.273   2.425  14.610  1.00  0.00    -0.021 N 
ATOM      8  H5  UNL     1      40.402   3.308  15.105  1.00  0.00     0.203 HD
HETATM    9  C11 UNL     1      39.434   2.381  13.559  1.00  0.00     0.694 A 
HETATM   10  N7  UNL     1      39.250   1.228  12.891  1.00  0.00    -0.173 N 
ATOM     11  H7  UNL     1      38.615   1.187  12.093  1.00  0.00     0.186 HD
HETATM   12  C14 UNL     1      39.919   0.122  13.295  1.00  0.00     0.172 A 
ENDROOT
BRANCH   1  13
HETATM   13  C4  UNL     1      39.217  -1.609  11.770  1.00  0.00     0.051 C 
BRANCH  13  14
HETATM   14  C3  UNL     1      39.643  -2.762  10.993  1.00  0.00     0.088 A 
HETATM   15  C2  UNL     1      39.652  -2.849   9.615  1.00  0.00     0.171 A 
HETATM   16  N1  UNL     1      40.111  -4.065   9.240  1.00  0.00    -0.287 N 
HETATM   17  C1  UNL     1      40.384  -4.726  10.385  1.00  0.00     0.326 A 
ATOM     18  H1  UNL     1      40.226  -4.412   8.287  1.00  0.00     0.172 HD
HETATM   19  O1  UNL     1      40.838  -5.911  10.433  1.00  0.00    -0.247 OA
HETATM   20  N8  UNL     1      40.103  -3.943  11.445  1.00  0.00    -0.305 N 
ATOM     21  H8  UNL     1      40.219  -4.202  12.424  1.00  0.00     0.171 HD
BRANCH  15  22
HETATM   22  O2  UNL     1      39.265  -1.880   8.699  1.00  0.00    -0.344 OA
ATOM     23  H2  UNL     1      39.790  -1.108   8.516  1.00  0.00     0.219 HD
ENDBRANCH  15  22
ENDBRANCH  13  14
ENDBRANCH   1  13
BRANCH   6  24
HETATM   24  N4  UNL     1      41.747   1.417  16.044  1.00  0.00    -0.219 N 
ATOM     25  H4  UNL     1      42.531   0.767  16.095  1.00  0.00     0.178 HD
BRANCH  24  26
HETATM   26  C8  UNL     1      41.586   2.372  17.098  1.00  0.00     0.099 A 
HETATM   27  C9  UNL     1      42.493   2.268  18.270  1.00  0.00     0.028 A 
HETATM   28  C10 UNL     1      41.021   1.932  18.424  1.00  0.00     0.028 A 
ENDBRANCH  24  26
ENDBRANCH   6  24
BRANCH   9  29
HETATM   29  N6  UNL     1      38.785   3.422  13.154  1.00  0.00    -0.225 N 
ATOM     30  H6  UNL     1      38.303   3.371  12.256  1.00  0.00     0.177 HD
BRANCH  29  31
HETATM   31  C12 UNL     1      38.702   4.650  13.901  1.00  0.00     0.149 C 
BRANCH  31  32
HETATM   32  C13 UNL     1      37.474   4.528  14.813  1.00  0.00     0.106 C 
HETATM   33  S1  UNL     1      37.891   4.845  16.530  1.00  0.00    -0.096 SA
ENDBRANCH  31  32
ENDBRANCH  29  31
ENDBRANCH   9  29
TORSDOF 8
ENDMDL
MODEL 2
REMARK VINA RESULT: -8.820469899      1.960      3.861
REMARK  8 active torsions:
REMARK  status: ('A' for Active; 'I' for Inactive)
REMARK    1  A    between atoms: C2_5  and  O2_6 
REMARK    2  A    between atoms: C3_8  and  C4_9 
REMARK    3  A    between atoms: C4_9  and  C5_10 
REMARK    4  A    between atoms: C7_15  and  N4_16 
REMARK    5  A    between atoms: N4_16  and  C8_18 
REMARK    6  A    between atoms: C11_23  and  N6_24 
REMARK    7  A    between atoms: N6_24  and  C12_26 
REMARK    8  A    between atoms: C12_26  and  C13_27 
ROOT
HETATM    1  C5  UNL     1      40.361  -0.503  13.053  1.00  0.00     0.030 A 
HETATM    2  C6  UNL     1      39.533   0.050  12.100  1.00  0.00     0.123 A 
HETATM    3  N2  UNL     1      39.250   1.322  12.483  1.00  0.00    -0.288 N 
ATOM      4  H2  UNL     1      38.657   1.970  11.966  1.00  0.00     0.187 HD
HETATM    5  N3  UNL     1      39.858   1.596  13.629  1.00  0.00    -0.068 N 
HETATM    6  C7  UNL     1      39.881   2.703  14.391  1.00  0.00     0.716 A 
HETATM    7  N5  UNL     1      40.605   2.678  15.525  1.00  0.00    -0.021 N 
ATOM      8  H5  UNL     1      40.632   3.511  16.114  1.00  0.00     0.203 HD
HETATM    9  C11 UNL     1      41.293   1.586  15.903  1.00  0.00     0.694 A 
HETATM   10  N7  UNL     1      41.271   0.478  15.142  1.00  0.00    -0.173 N 
ATOM     11  H7  UNL     1      41.791  -0.354  15.422  1.00  0.00     0.186 HD
HETATM   12  C14 UNL     1      40.548   0.484  13.997  1.00  0.00     0.172 A 
ENDROOT
BRANCH   1  13
HETATM   13  C4  UNL     1      40.867  -1.716  13.061  1.00  0.00     0.051 C 
BRANCH  13  14
HETATM   14  C3  UNL     1      40.899  -2.549  11.869  1.00  0.00     0.088 A 
HETATM   15  C2  UNL     1      41.603  -2.280  10.713  1.00  0.00     0.171 A 
HETATM   16  N1  UNL     1      41.400  -3.272   9.816  1.00  0.00    -0.287 N 
HETATM   17  C1  UNL     1      40.572  -4.151  10.419  1.00  0.00     0.326 A 
ATOM     18  H1  UNL     1      41.792  -3.341   8.876  1.00  0.00     0.172 HD
HETATM   19  O1  UNL     1      40.153  -5.222   9.879  1.00  0.00    -0.247 OA
HETATM   20  N8  UNL     1      40.267  -3.719  11.658  1.00  0.00    -0.305 N 
ATOM     21  H8  UNL     1      39.660  -4.197  12.324  1.00  0.00     0.171 HD
BRANCH  15  22
HETATM   22  O2  UNL     1      42.411  -1.183  10.446  1.00  0.00    -0.344 OA
ATOM     23  H2  UNL     1      42.097  -0.415   9.982  1.00  0.00     0.219 HD
ENDBRANCH  15  22
ENDBRANCH  13  14
ENDBRANCH   1  13
BRANCH   6  24
HETATM   24  N4  UNL     1      39.229   3.775  14.058  1.00  0.00    -0.219 N 
ATOM     25  H4  UNL     1      39.271   4.085  13.088  1.00  0.00     0.178 HD
BRANCH  24  26
HETATM   26  C8  UNL     1      38.454   4.543  14.984  1.00  0.00     0.099 A 
HETATM   27  C9  UNL     1      37.178   5.129  14.498  1.00  0.00     0.028 A 
HETATM   28  C10 UNL     1      38.352   6.037  14.813  1.00  0.00     0.028 A 
ENDBRANCH  24  26
ENDBRANCH   6  24
BRANCH   9  29
HETATM   29  N6  UNL     1      41.990   1.557  16.991  1.00  0.00    -0.225 N 
ATOM     30  H6  UNL     1      42.882   1.061  16.978  1.00  0.00     0.177 HD
BRANCH  29  31
HETATM   31  C12 UNL     1      41.580   2.185  18.219  1.00  0.00     0.149 C 
BRANCH  31  32
HETATM   32  C13 UNL     1      42.601   1.772  19.287  1.00  0.00     0.106 C 
HETATM   33  S1  UNL     1      44.271   1.743  18.630  1.00  0.00    -0.096 SA
ENDBRANCH  31  32
ENDBRANCH  29  31
ENDBRANCH   9  29
TORSDOF 8
ENDMDL
MODEL 3
REMARK VINA RESULT: -8.734213921      1.379      1.449
REMARK  8 active torsions:
REMARK  status: ('A' for Active; 'I' for Inactive)
REMARK    1  A    between atoms: C2_5  and  O2_6 
REMARK    2  A    between atoms: C3_8  and  C4_9 
REMARK    3  A    between atoms: C4_9  and  C5_10 
REMARK    4  A    between atoms: C7_15  and  N4_16 
REMARK    5  A    between atoms: N4_16  and  C8_18 
REMARK    6  A    between atoms: C11_23  and  N6_24 
REMARK    7  A    between atoms: N6_24  and  C12_26 
REMARK    8  A    between atoms: C12_26  and  C13_27 
ROOT
HETATM    1  C5  UNL     1      40.499  -0.478  13.133  1.00  0.00     0.030 A 
HETATM    2  C6  UNL     1      41.032  -1.413  13.994  1.00  0.00     0.123 A 
HETATM    3  N2  UNL     1      41.339  -0.780  15.156  1.00  0.00    -0.288 N 
ATOM      4  H2  UNL     1      41.750  -1.227  15.975  1.00  0.00     0.187 HD
HETATM    5  N3  UNL     1      41.025   0.506  15.068  1.00  0.00    -0.068 N 
HETATM    6  C7  UNL     1      41.139   1.520  15.943  1.00  0.00     0.716 A 
HETATM    7  N5  UNL     1      40.725   2.740  15.558  1.00  0.00    -0.021 N 
ATOM      8  H5  UNL     1      40.805   3.520  16.211  1.00  0.00     0.203 HD
HETATM    9  C11 UNL     1      40.209   2.961  14.336  1.00  0.00     0.694 A 
HETATM   10  N7  UNL     1      40.094   1.948  13.459  1.00  0.00    -0.173 N 
ATOM     11  H7  UNL     1      39.704   2.108  12.530  1.00  0.00     0.186 HD
HETATM   12  C14 UNL     1      40.506   0.711  13.829  1.00  0.00     0.172 A 
ENDROOT
BRANCH   1  13
HETATM   13  C4  UNL     1      40.072  -0.678  11.906  1.00  0.00     0.051 C 
BRANCH  13  14
HETATM   14  C3  UNL     1      40.478  -1.836  11.125  1.00  0.00     0.088 A 
HETATM   15  C2  UNL     1      41.663  -1.967  10.430  1.00  0.00     0.171 A 
HETATM   16  N1  UNL     1      41.701  -3.174   9.820  1.00  0.00    -0.287 N 
HETATM   17  C1  UNL     1      40.541  -3.785  10.140  1.00  0.00     0.326 A 
ATOM     18  H1  UNL     1      42.453  -3.546   9.238  1.00  0.00     0.172 HD
HETATM   19  O1  UNL     1      40.215  -4.948   9.745  1.00  0.00    -0.247 OA
HETATM   20  N8  UNL     1      39.800  -2.981  10.927  1.00  0.00    -0.305 N 
ATOM     21  H8  UNL     1      38.880  -3.203  11.308  1.00  0.00     0.171 HD
BRANCH  15  22
HETATM   22  O2  UNL     1      42.696  -1.044  10.330  1.00  0.00    -0.344 OA
ATOM     23  H2  UNL     1      42.547  -0.126  10.137  1.00  0.00     0.219 HD
ENDBRANCH  15  22
ENDBRANCH  13  14
ENDBRANCH   1  13
BRANCH   6  24
HETATM   24  N4  UNL     1      41.632   1.344  17.131  1.00  0.00    -0.219 N 
ATOM     25  H4  UNL     1      41.443   0.463  17.609  1.00  0.00     0.178 HD
BRANCH  24  26
HETATM   26  C8  UNL     1      42.429   2.324  17.805  1.00  0.00     0.099 A 
HETATM   27  C9  UNL     1      43.818   1.951  18.176  1.00  0.00     0.028 A 
HETATM   28  C10 UNL     1      42.773   2.136  19.259  1.00  0.00     0.028 A 
ENDBRANCH  24  26
ENDBRANCH   6  24
BRANCH   9  29
HETATM   29  N6  UNL     1      39.809   4.131  13.960  1.00  0.00    -0.225 N 
ATOM     30  H6  UNL     1      40.514   4.812  13.673  1.00  0.00     0.177 HD
BRANCH  29  31
HETATM   31  C12 UNL     1      38.427   4.529  13.924  1.00  0.00     0.149 C 
BRANCH  31  32
HETATM   32  C13 UNL     1      38.260   5.640  14.968  1.00  0.00     0.106 C 
HETATM   33  S1  UNL     1      37.819   4.977  16.577  1.00  0.00    -0.096 SA
ENDBRANCH  31  32
ENDBRANCH  29  31
ENDBRANCH   9  29
TORSDOF 8
ENDMDL
MODEL 4
REMARK VINA RESULT: -8.632710883      4.774      6.913
REMARK  8 active torsions:
REMARK  status: ('A' for Active; 'I' for Inactive)
REMARK    1  A    between atoms: C2_5  and  O2_6 
REMARK    2  A    between atoms: C3_8  and  C4_9 
REMARK    3  A    between atoms: C4_9  and  C5_10 
REMARK    4  A    between atoms: C7_15  and  N4_16 
REMARK    5  A    between atoms: N4_16  and  C8_18 
REMARK    6  A    between atoms: C11_23  and  N6_24 
REMARK    7  A    between atoms: N6_24  and  C12_26 
REMARK    8  A    between atoms: C12_26  and  C13_27 
ROOT
HETATM    1  C5  UNL     1      38.057   0.665   7.045  1.00  0.00     0.030 A 
HETATM    2  C6  UNL     1      38.231  -0.667   6.738  1.00  0.00     0.123 A 
HETATM    3  N2  UNL     1      38.457  -1.334   7.899  1.00  0.00    -0.288 N 
ATOM      4  H2  UNL     1      38.620  -2.338   7.975  1.00  0.00     0.187 HD
HETATM    5  N3  UNL     1      38.433  -0.488   8.920  1.00  0.00    -0.068 N 
HETATM    6  C7  UNL     1      38.601  -0.671  10.241  1.00  0.00     0.716 A 
HETATM    7  N5  UNL     1      38.519   0.403  11.046  1.00  0.00    -0.021 N 
ATOM      8  H5  UNL     1      38.645   0.281  12.051  1.00  0.00     0.203 HD
HETATM    9  C11 UNL     1      38.277   1.635  10.562  1.00  0.00     0.694 A 
HETATM   10  N7  UNL     1      38.110   1.819   9.240  1.00  0.00    -0.173 N 
ATOM     11  H7  UNL     1      37.926   2.750   8.866  1.00  0.00     0.186 HD
HETATM   12  C14 UNL     1      38.189   0.749   8.414  1.00  0.00     0.172 A 
ENDROOT
BRANCH   1  13
HETATM   13  C4  UNL     1      37.816   1.650   6.209  1.00  0.00     0.051 C 
BRANCH  13  14
HETATM   14  C3  UNL     1      38.884   2.407   5.576  1.00  0.00     0.088 A 
HETATM   15  C2  UNL     1      39.701   3.330   6.199  1.00  0.00     0.171 A 
HETATM   16  N1  UNL     1      40.580   3.836   5.304  1.00  0.00    -0.287 N 
HETATM   17  C1  UNL     1      40.307   3.225   4.132  1.00  0.00     0.326 A 
ATOM     18  H1  UNL     1      41.302   4.535   5.479  1.00  0.00     0.172 HD
HETATM   19  O1  UNL     1      40.932   3.446   3.049  1.00  0.00    -0.247 OA
HETATM   20  N8  UNL     1      39.284   2.362   4.291  1.00  0.00    -0.305 N 
ATOM     21  H8  UNL     1      38.880   1.775   3.562  1.00  0.00     0.171 HD
BRANCH  15  22
HETATM   22  O2  UNL     1      39.676   3.724   7.530  1.00  0.00    -0.344 OA
ATOM     23  H2  UNL     1      39.871   3.129   8.245  1.00  0.00     0.219 HD
ENDBRANCH  15  22
ENDBRANCH  13  14
ENDBRANCH   1  13
BRANCH   6  24
HETATM   24  N4  UNL     1      38.836  -1.844  10.744  1.00  0.00    -0.219 N 
ATOM     25  H4  UNL     1      38.054  -2.369  11.136  1.00  0.00     0.178 HD
BRANCH  24  26
HETATM   26  C8  UNL     1      40.137  -2.440  10.777  1.00  0.00     0.099 A 
HETATM   27  C9  UNL     1      40.227  -3.915  10.621  1.00  0.00     0.028 A 
HETATM   28  C10 UNL     1      40.546  -3.278  11.960  1.00  0.00     0.028 A 
ENDBRANCH  24  26
ENDBRANCH   6  24
BRANCH   9  29
HETATM   29  N6  UNL     1      38.197   2.671  11.330  1.00  0.00    -0.225 N 
ATOM     30  H6  UNL     1      38.399   3.587  10.927  1.00  0.00     0.177 HD
BRANCH  29  31
HETATM   31  C12 UNL     1      37.840   2.606  12.723  1.00  0.00     0.149 C 
BRANCH  31  32
HETATM   32  C13 UNL     1      38.656   3.692  13.437  1.00  0.00     0.106 C 
HETATM   33  S1  UNL     1      39.962   2.984  14.444  1.00  0.00    -0.096 SA
ENDBRANCH  31  32
ENDBRANCH  29  31
ENDBRANCH   9  29
TORSDOF 8
ENDMDL
MODEL 5
REMARK VINA RESULT: -8.627061923      3.967      7.756
REMARK  8 active torsions:
REMARK  status: ('A' for Active; 'I' for Inactive)
REMARK    1  A    between atoms: C2_5  and  O2_6 
REMARK    2  A    between atoms: C3_8  and  C4_9 
REMARK    3  A    between atoms: C4_9  and  C5_10 
REMARK    4  A    between atoms: C7_15  and  N4_16 
REMARK    5  A    between atoms: N4_16  and  C8_18 
REMARK    6  A    between atoms: C11_23  and  N6_24 
REMARK    7  A    between atoms: N6_24  and  C12_26 
REMARK    8  A    between atoms: C12_26  and  C13_27 
ROOT
HETATM    1  C5  UNL     1      38.829   3.811  13.880  1.00  0.00     0.030 A 
HETATM    2  C6  UNL     1      38.230   3.393  12.711  1.00  0.00     0.123 A 
HETATM    3  N2  UNL     1      38.652   2.127  12.458  1.00  0.00    -0.288 N 
ATOM      4  H2  UNL     1      38.370   1.565  11.655  1.00  0.00     0.187 HD
HETATM    5  N3  UNL     1      39.486   1.729  13.409  1.00  0.00    -0.068 N 
HETATM    6  C7  UNL     1      40.152   0.576  13.594  1.00  0.00     0.716 A 
HETATM    7  N5  UNL     1      40.941   0.465  14.678  1.00  0.00    -0.021 N 
ATOM      8  H5  UNL     1      41.454  -0.403  14.832  1.00  0.00     0.203 HD
HETATM    9  C11 UNL     1      41.073   1.468  15.565  1.00  0.00     0.694 A 
HETATM   10  N7  UNL     1      40.407   2.622  15.381  1.00  0.00    -0.173 N 
ATOM     11  H7  UNL     1      40.502   3.388  16.049  1.00  0.00     0.186 HD
HETATM   12  C14 UNL     1      39.608   2.752  14.295  1.00  0.00     0.172 A 
ENDROOT
BRANCH   1  13
HETATM   13  C4  UNL     1      38.688   4.974  14.475  1.00  0.00     0.051 C 
BRANCH  13  14
HETATM   14  C3  UNL     1      37.658   5.212  15.474  1.00  0.00     0.088 A 
HETATM   15  C2  UNL     1      37.720   4.842  16.803  1.00  0.00     0.171 A 
HETATM   16  N1  UNL     1      36.586   5.225  17.434  1.00  0.00    -0.287 N 
HETATM   17  C1  UNL     1      35.828   5.830  16.496  1.00  0.00     0.326 A 
ATOM     18  H1  UNL     1      36.352   5.085  18.418  1.00  0.00     0.172 HD
HETATM   19  O1  UNL     1      34.678   6.324  16.717  1.00  0.00    -0.247 OA
HETATM   20  N8  UNL     1      36.470   5.824  15.312  1.00  0.00    -0.305 N 
ATOM     21  H8  UNL     1      36.117   6.217  14.439  1.00  0.00     0.171 HD
BRANCH  15  22
HETATM   22  O2  UNL     1      38.752   4.180  17.454  1.00  0.00    -0.344 OA
ATOM     23  H2  UNL     1      39.668   4.371  17.289  1.00  0.00     0.219 HD
ENDBRANCH  15  22
ENDBRANCH  13  14
ENDBRANCH   1  13
BRANCH   6  24
HETATM   24  N4  UNL     1      40.050  -0.413  12.760  1.00  0.00    -0.219 N 
ATOM     25  H4  UNL     1      39.319  -0.374  12.049  1.00  0.00     0.178 HD
BRANCH  24  26
HETATM   26  C8  UNL     1      40.909  -1.558  12.787  1.00  0.00     0.099 A 
HETATM   27  C9  UNL     1      41.616  -1.922  11.533  1.00  0.00     0.028 A 
HETATM   28  C10 UNL     1      40.506  -2.812  12.058  1.00  0.00     0.028 A 
ENDBRANCH  24  26
ENDBRANCH   6  24
BRANCH   9  29
HETATM   29  N6  UNL     1      41.829   1.368  16.608  1.00  0.00    -0.225 N 
ATOM     30  H6  UNL     1      42.762   0.974  16.490  1.00  0.00     0.177 HD
BRANCH  29  31
HETATM   31  C12 UNL     1      41.427   1.782  17.926  1.00  0.00     0.149 C 
BRANCH  31  32
HETATM   32  C13 UNL     1      42.535   2.702  18.455  1.00  0.00     0.106 C 
HETATM   33  S1  UNL     1      44.042   1.792  18.805  1.00  0.00    -0.096 SA
ENDBRANCH  31  32
ENDBRANCH  29  31
ENDBRANCH   9  29
TORSDOF 8
ENDMDL
