MODEL 1
REMARK VINA RESULT: -8.213612037      0.000      0.000
REMARK  6 active torsions:
REMARK  status: ('A' for Active; 'I' for Inactive)
REMARK    1  A    between atoms: C2_2  and  N1_3 
REMARK    2  A    between atoms: N1_3  and  C3_5 
REMARK    3  A    between atoms: C6_13  and  N5_14 
REMARK    4  A    between atoms: N5_14  and  C7_16 
REMARK    5  A    between atoms: C9_20  and  N7_21 
REMARK    6  A    between atoms: C12_26  and  O1_27 
ROOT
HETATM    1  C3  UNL     1      39.913  -2.471  11.238  1.00  0.00     0.134 A 
HETATM    2  N2  UNL     1      40.342  -1.887  12.395  1.00  0.00    -0.281 N 
ATOM      3  H2  UNL     1      40.723  -2.384  13.201  1.00  0.00     0.189 HD
HETATM    4  N3  UNL     1      40.188  -0.579  12.307  1.00  0.00    -0.278 N 
HETATM    5  C4  UNL     1      40.516   0.418  13.313  1.00  0.00     0.179 C 
HETATM    6  C5  UNL     1      39.654  -0.269  11.095  1.00  0.00     0.155 A 
HETATM    7  N4  UNL     1      39.314   0.906  10.535  1.00  0.00    -0.174 N 
ATOM      8  H4  UNL     1      39.451   1.773  11.055  1.00  0.00     0.186 HD
HETATM    9  C6  UNL     1      38.793   0.951   9.295  1.00  0.00     0.686 A 
HETATM   10  N9  UNL     1      38.625  -0.212   8.639  1.00  0.00    -0.176 N 
ATOM     11  H9  UNL     1      38.230  -0.176   7.700  1.00  0.00     0.186 HD
HETATM   12  C14 UNL     1      38.943  -1.409   9.139  1.00  0.00     0.132 A 
HETATM   13  N10 UNL     1      38.766  -2.519   8.474  1.00  0.00    -0.384 N 
ATOM     14 1H10 UNL     1      39.008  -3.432   8.856  1.00  0.00     0.157 HD
ATOM     15 2H10 UNL     1      38.371  -2.485   7.534  1.00  0.00     0.157 HD
HETATM   16  C15 UNL     1      39.477  -1.454  10.411  1.00  0.00     0.099 A 
ENDROOT
BRANCH   9  17
HETATM   17  N5  UNL     1      38.467   2.084   8.759  1.00  0.00    -0.186 N 
ATOM     18  H5  UNL     1      37.724   2.631   9.192  1.00  0.00     0.184 HD
BRANCH  17  19
HETATM   19  C7  UNL     1      39.094   2.596   7.602  1.00  0.00     0.116 A 
HETATM   20  C8  UNL     1      40.126   3.505   7.683  1.00  0.00     0.140 A 
HETATM   21  N6  UNL     1      40.682   3.955   6.557  1.00  0.00    -0.199 N 
HETATM   22  C9  UNL     1      40.314   3.591   5.318  1.00  0.00     0.681 A 
ATOM     23  H6  UNL     1      41.444   4.627   6.644  1.00  0.00     0.183 HD
HETATM   24  N8  UNL     1      39.297   2.693   5.228  1.00  0.00    -0.168 N 
HETATM   25  C12 UNL     1      38.705   2.211   6.335  1.00  0.00     0.186 A 
ATOM     26  H8  UNL     1      38.979   2.382   4.310  1.00  0.00     0.186 HD
BRANCH  22  27
HETATM   27  N7  UNL     1      40.952   4.113   4.164  1.00  0.00    -0.226 N 
HETATM   28  C10 UNL     1      40.289   3.950   2.891  1.00  0.00     0.168 C 
HETATM   29  C11 UNL     1      42.227   4.793   4.217  1.00  0.00     0.168 C 
ENDBRANCH  22  27
BRANCH  25  30
HETATM   30  O1  UNL     1      37.655   1.286   6.259  1.00  0.00    -0.339 OA
HETATM   31  C13 UNL     1      36.368   1.654   5.822  1.00  0.00     0.211 C 
ENDBRANCH  25  30
ENDBRANCH  17  19
ENDBRANCH   9  17
BRANCH   1  32
HETATM   32  N1  UNL     1      39.894  -3.711  10.924  1.00  0.00    -0.375 N 
ATOM     33  H1  UNL     1      39.082  -4.292  11.132  1.00  0.00     0.161 HD
BRANCH  32  34
HETATM   34  C2  UNL     1      41.059  -4.266  10.265  1.00  0.00     0.116 C 
HETATM   35  C1  UNL     1      40.684  -5.491   9.456  1.00  0.00     0.026 C 
ENDBRANCH  32  34
ENDBRANCH   1  32
TORSDOF 6
ENDMDL
MODEL 2
REMARK VINA RESULT: -7.712267220      6.156      8.908
REMARK  6 active torsions:
REMARK  status: ('A' for Active; 'I' for Inactive)
REMARK    1  A    between atoms: C2_2  and  N1_3 
REMARK    2  A    between atoms: N1_3  and  C3_5 
REMARK    3  A    between atoms: C6_13  and  N5_14 
REMARK    4  A    between atoms: N5_14  and  C7_16 
REMARK    5  A    between atoms: C9_20  and  N7_21 
REMARK    6  A    between atoms: C12_26  and  O1_27 
ROOT
HETATM    1  C3  UNL     1      41.024   0.232  14.303  1.00  0.00     0.134 A 
HETATM    2  N2  UNL     1      41.636   0.392  15.513  1.00  0.00    -0.281 N 
ATOM      3  H2  UNL     1      42.266  -0.282  15.950  1.00  0.00     0.189 HD
HETATM    4  N3  UNL     1      41.285   1.555  16.029  1.00  0.00    -0.278 N 
HETATM    5  C4  UNL     1      41.706   2.120  17.301  1.00  0.00     0.179 C 
HETATM    6  C5  UNL     1      40.437   2.190  15.176  1.00  0.00     0.155 A 
HETATM    7  N4  UNL     1      39.811   3.379  15.246  1.00  0.00    -0.174 N 
ATOM      8  H4  UNL     1      39.950   3.975  16.062  1.00  0.00     0.186 HD
HETATM    9  C6  UNL     1      39.005   3.791  14.250  1.00  0.00     0.686 A 
HETATM   10  N9  UNL     1      38.846   2.978  13.191  1.00  0.00    -0.176 N 
ATOM     11  H9  UNL     1      38.234   3.291  12.437  1.00  0.00     0.186 HD
HETATM   12  C14 UNL     1      39.438   1.786  13.062  1.00  0.00     0.132 A 
HETATM   13  N10 UNL     1      39.260   1.022  12.018  1.00  0.00    -0.384 N 
ATOM     14 1H10 UNL     1      39.711   0.113  11.920  1.00  0.00     0.157 HD
ATOM     15 2H10 UNL     1      38.649   1.334  11.263  1.00  0.00     0.157 HD
HETATM   16  C15 UNL     1      40.264   1.365  14.082  1.00  0.00     0.099 A 
ENDROOT
BRANCH   9  17
HETATM   17  N5  UNL     1      38.406   4.936  14.321  1.00  0.00    -0.186 N 
ATOM     18  H5  UNL     1      38.855   5.747  13.896  1.00  0.00     0.184 HD
BRANCH  17  19
HETATM   19  C7  UNL     1      37.158   5.114  14.957  1.00  0.00     0.116 A 
HETATM   20  C8  UNL     1      35.971   4.940  14.279  1.00  0.00     0.140 A 
HETATM   21  N6  UNL     1      34.821   5.120  14.931  1.00  0.00    -0.199 N 
HETATM   22  C9  UNL     1      34.715   5.466  16.224  1.00  0.00     0.681 A 
ATOM     23  H6  UNL     1      33.957   4.985  14.407  1.00  0.00     0.183 HD
HETATM   24  N8  UNL     1      35.881   5.639  16.902  1.00  0.00    -0.168 N 
HETATM   25  C12 UNL     1      37.066   5.469  16.287  1.00  0.00     0.186 A 
ATOM     26  H8  UNL     1      35.858   5.901  17.887  1.00  0.00     0.186 HD
BRANCH  22  27
HETATM   27  N7  UNL     1      33.455   5.641  16.852  1.00  0.00    -0.226 N 
HETATM   28  C10 UNL     1      32.272   5.275  16.108  1.00  0.00     0.168 C 
HETATM   29  C11 UNL     1      33.317   6.165  18.191  1.00  0.00     0.168 C 
ENDBRANCH  22  27
BRANCH  25  30
HETATM   30  O1  UNL     1      38.276   5.644  16.971  1.00  0.00    -0.339 OA
HETATM   31  C13 UNL     1      38.318   6.042  18.322  1.00  0.00     0.211 C 
ENDBRANCH  25  30
ENDBRANCH  17  19
ENDBRANCH   9  17
BRANCH   1  32
HETATM   32  N1  UNL     1      41.102  -0.750  13.488  1.00  0.00    -0.375 N 
ATOM     33  H1  UNL     1      40.437  -1.523  13.534  1.00  0.00     0.161 HD
BRANCH  32  34
HETATM   34  C2  UNL     1      42.160  -0.736  12.498  1.00  0.00     0.116 C 
HETATM   35  C1  UNL     1      41.793  -1.597  11.308  1.00  0.00     0.026 C 
ENDBRANCH  32  34
ENDBRANCH   1  32
TORSDOF 6
ENDMDL
MODEL 3
REMARK VINA RESULT: -7.694716523      5.496      8.293
REMARK  6 active torsions:
REMARK  status: ('A' for Active; 'I' for Inactive)
REMARK    1  A    between atoms: C2_2  and  N1_3 
REMARK    2  A    between atoms: N1_3  and  C3_5 
REMARK    3  A    between atoms: C6_13  and  N5_14 
REMARK    4  A    between atoms: N5_14  and  C7_16 
REMARK    5  A    between atoms: C9_20  and  N7_21 
REMARK    6  A    between atoms: C12_26  and  O1_27 
ROOT
HETATM    1  C3  UNL     1      39.472  -1.542  12.443  1.00  0.00     0.134 A 
HETATM    2  N2  UNL     1      38.228  -1.549  11.880  1.00  0.00    -0.281 N 
ATOM      3  H2  UNL     1      37.767  -2.365  11.477  1.00  0.00     0.189 HD
HETATM    4  N3  UNL     1      37.715  -0.335  11.941  1.00  0.00    -0.278 N 
HETATM    5  C4  UNL     1      36.414   0.099  11.458  1.00  0.00     0.179 C 
HETATM    6  C5  UNL     1      38.604   0.501  12.542  1.00  0.00     0.155 A 
HETATM    7  N4  UNL     1      38.552   1.814  12.833  1.00  0.00    -0.174 N 
ATOM      8  H4  UNL     1      37.722   2.353  12.588  1.00  0.00     0.186 HD
HETATM    9  C6  UNL     1      39.584   2.423  13.445  1.00  0.00     0.686 A 
HETATM   10  N9  UNL     1      40.663   1.680  13.753  1.00  0.00    -0.176 N 
ATOM     11  H9  UNL     1      41.444   2.144  14.215  1.00  0.00     0.186 HD
HETATM   12  C14 UNL     1      40.776   0.375  13.491  1.00  0.00     0.132 A 
HETATM   13  N10 UNL     1      41.839  -0.316  13.804  1.00  0.00    -0.384 N 
ATOM     14 1H10 UNL     1      41.925  -1.312  13.604  1.00  0.00     0.157 HD
ATOM     15 2H10 UNL     1      42.621   0.146  14.268  1.00  0.00     0.157 HD
HETATM   16  C15 UNL     1      39.717  -0.249  12.864  1.00  0.00     0.099 A 
ENDROOT
BRANCH   9  17
HETATM   17  N5  UNL     1      39.530   3.687  13.724  1.00  0.00    -0.186 N 
ATOM     18  H5  UNL     1      40.110   4.329  13.184  1.00  0.00     0.184 HD
BRANCH  17  19
HETATM   19  C7  UNL     1      38.706   4.215  14.741  1.00  0.00     0.116 A 
HETATM   20  C8  UNL     1      37.596   4.977  14.447  1.00  0.00     0.140 A 
HETATM   21  N6  UNL     1      36.853   5.450  15.449  1.00  0.00    -0.199 N 
HETATM   22  C9  UNL     1      37.098   5.246  16.753  1.00  0.00     0.681 A 
ATOM     23  H6  UNL     1      36.036   6.010  15.205  1.00  0.00     0.183 HD
HETATM   24  N8  UNL     1      38.191   4.495  17.053  1.00  0.00    -0.168 N 
HETATM   25  C12 UNL     1      38.972   3.995  16.077  1.00  0.00     0.186 A 
ATOM     26  H8  UNL     1      38.423   4.308  18.028  1.00  0.00     0.186 HD
BRANCH  22  27
HETATM   27  N7  UNL     1      36.262   5.782  17.765  1.00  0.00    -0.226 N 
HETATM   28  C10 UNL     1      34.842   5.849  17.506  1.00  0.00     0.168 C 
HETATM   29  C11 UNL     1      36.774   6.258  19.029  1.00  0.00     0.168 C 
ENDBRANCH  22  27
BRANCH  25  30
HETATM   30  O1  UNL     1      40.101   3.221  16.370  1.00  0.00    -0.339 OA
HETATM   31  C13 UNL     1      40.299   2.639  17.638  1.00  0.00     0.211 C 
ENDBRANCH  25  30
ENDBRANCH  17  19
ENDBRANCH   9  17
BRANCH   1  32
HETATM   32  N1  UNL     1      40.296  -2.511  12.581  1.00  0.00    -0.375 N 
ATOM     33  H1  UNL     1      40.612  -2.801  13.507  1.00  0.00     0.161 HD
BRANCH  32  34
HETATM   34  C2  UNL     1      40.767  -3.184  11.388  1.00  0.00     0.116 C 
HETATM   35  C1  UNL     1      41.617  -2.253  10.548  1.00  0.00     0.026 C 
ENDBRANCH  32  34
ENDBRANCH   1  32
TORSDOF 6
ENDMDL
MODEL 4
REMARK VINA RESULT: -7.681982692      4.092      6.636
REMARK  6 active torsions:
REMARK  status: ('A' for Active; 'I' for Inactive)
REMARK    1  A    between atoms: C2_2  and  N1_3 
REMARK    2  A    between atoms: N1_3  and  C3_5 
REMARK    3  A    between atoms: C6_13  and  N5_14 
REMARK    4  A    between atoms: N5_14  and  C7_16 
REMARK    5  A    between atoms: C9_20  and  N7_21 
REMARK    6  A    between atoms: C12_26  and  O1_27 
ROOT
HETATM    1  C3  UNL     1      40.727  -1.979  11.231  1.00  0.00     0.134 A 
HETATM    2  N2  UNL     1      41.250  -1.981  12.491  1.00  0.00    -0.281 N 
ATOM      3  H2  UNL     1      41.829  -2.722  12.889  1.00  0.00     0.189 HD
HETATM    4  N3  UNL     1      40.890  -0.875  13.116  1.00  0.00    -0.278 N 
HETATM    5  C4  UNL     1      41.229  -0.477  14.472  1.00  0.00     0.179 C 
HETATM    6  C5  UNL     1      40.123  -0.118  12.286  1.00  0.00     0.155 A 
HETATM    7  N4  UNL     1      39.523   1.075  12.451  1.00  0.00    -0.174 N 
ATOM      8  H4  UNL     1      39.615   1.567  13.340  1.00  0.00     0.186 HD
HETATM    9  C6  UNL     1      38.803   1.626  11.457  1.00  0.00     0.686 A 
HETATM   10  N9  UNL     1      38.704   0.947  10.300  1.00  0.00    -0.176 N 
ATOM     11  H9  UNL     1      38.157   1.366   9.547  1.00  0.00     0.186 HD
HETATM   12  C14 UNL     1      39.274  -0.240  10.073  1.00  0.00     0.132 A 
HETATM   13  N10 UNL     1      39.156  -0.871   8.936  1.00  0.00    -0.384 N 
ATOM     14 1H10 UNL     1      39.591  -1.777   8.763  1.00  0.00     0.157 HD
ATOM     15 2H10 UNL     1      38.611  -0.454   8.182  1.00  0.00     0.157 HD
HETATM   16  C15 UNL     1      40.012  -0.804  11.093  1.00  0.00     0.099 A 
ENDROOT
BRANCH   9  17
HETATM   17  N5  UNL     1      38.228   2.774  11.619  1.00  0.00    -0.186 N 
ATOM     18  H5  UNL     1      37.945   3.298  10.791  1.00  0.00     0.184 HD
BRANCH  17  19
HETATM   19  C7  UNL     1      37.975   3.335  12.890  1.00  0.00     0.116 A 
HETATM   20  C8  UNL     1      38.916   4.103  13.541  1.00  0.00     0.140 A 
HETATM   21  N6  UNL     1      38.622   4.608  14.740  1.00  0.00    -0.199 N 
HETATM   22  C9  UNL     1      37.459   4.429  15.387  1.00  0.00     0.681 A 
ATOM     23  H6  UNL     1      39.334   5.174  15.200  1.00  0.00     0.183 HD
HETATM   24  N8  UNL     1      36.524   3.672  14.753  1.00  0.00    -0.168 N 
HETATM   25  C12 UNL     1      36.774   3.141  13.542  1.00  0.00     0.186 A 
ATOM     26  H8  UNL     1      35.622   3.505  15.200  1.00  0.00     0.186 HD
BRANCH  22  27
HETATM   27  N7  UNL     1      37.217   4.998  16.663  1.00  0.00    -0.226 N 
HETATM   28  C10 UNL     1      38.286   4.963  17.634  1.00  0.00     0.168 C 
HETATM   29  C11 UNL     1      35.954   5.603  17.021  1.00  0.00     0.168 C 
ENDBRANCH  22  27
BRANCH  25  30
HETATM   30  O1  UNL     1      35.822   2.359  12.876  1.00  0.00    -0.339 OA
HETATM   31  C13 UNL     1      35.511   1.049  13.290  1.00  0.00     0.211 C 
ENDBRANCH  25  30
ENDBRANCH  17  19
ENDBRANCH   9  17
BRANCH   1  32
HETATM   32  N1  UNL     1      40.841  -2.862  10.313  1.00  0.00    -0.375 N 
ATOM     33  H1  UNL     1      41.428  -2.696   9.496  1.00  0.00     0.161 HD
BRANCH  32  34
HETATM   34  C2  UNL     1      40.112  -4.105  10.465  1.00  0.00     0.116 C 
HETATM   35  C1  UNL     1      40.840  -5.242   9.779  1.00  0.00     0.026 C 
ENDBRANCH  32  34
ENDBRANCH   1  32
TORSDOF 6
ENDMDL
MODEL 5
REMARK VINA RESULT: -7.653563982      5.442      7.655
REMARK  6 active torsions:
REMARK  status: ('A' for Active; 'I' for Inactive)
REMARK    1  A    between atoms: C2_2  and  N1_3 
REMARK    2  A    between atoms: N1_3  and  C3_5 
REMARK    3  A    between atoms: C6_13  and  N5_14 
REMARK    4  A    between atoms: N5_14  and  C7_16 
REMARK    5  A    between atoms: C9_20  and  N7_21 
REMARK    6  A    between atoms: C12_26  and  O1_27 
ROOT
HETATM    1  C3  UNL     1      39.560  -1.982  10.875  1.00  0.00     0.134 A 
HETATM    2  N2  UNL     1      38.218  -1.926  11.115  1.00  0.00    -0.281 N 
ATOM      3  H2  UNL     1      37.519  -2.553  10.715  1.00  0.00     0.189 HD
HETATM    4  N3  UNL     1      37.964  -0.933  11.947  1.00  0.00    -0.278 N 
HETATM    5  C4  UNL     1      36.669  -0.522  12.464  1.00  0.00     0.179 C 
HETATM    6  C5  UNL     1      39.129  -0.311  12.275  1.00  0.00     0.155 A 
HETATM    7  N4  UNL     1      39.397   0.738  13.074  1.00  0.00    -0.174 N 
ATOM      8  H4  UNL     1      38.635   1.209  13.561  1.00  0.00     0.186 HD
HETATM    9  C6  UNL     1      40.660   1.172  13.238  1.00  0.00     0.686 A 
HETATM   10  N9  UNL     1      41.639   0.526  12.579  1.00  0.00    -0.176 N 
ATOM     11  H9  UNL     1      42.596   0.857  12.703  1.00  0.00     0.186 HD
HETATM   12  C14 UNL     1      41.439  -0.520  11.772  1.00  0.00     0.132 A 
HETATM   13  N10 UNL     1      42.414  -1.123  11.147  1.00  0.00    -0.384 N 
ATOM     14 1H10 UNL     1      42.261  -1.921  10.531  1.00  0.00     0.157 HD
ATOM     15 2H10 UNL     1      43.372  -0.794  11.271  1.00  0.00     0.157 HD
HETATM   16  C15 UNL     1      40.144  -0.964  11.604  1.00  0.00     0.099 A 
ENDROOT
BRANCH   9  17
HETATM   17  N5  UNL     1      40.914   2.181  14.008  1.00  0.00    -0.186 N 
ATOM     18  H5  UNL     1      41.888   2.434  14.172  1.00  0.00     0.184 HD
BRANCH  17  19
HETATM   19  C7  UNL     1      39.904   2.947  14.630  1.00  0.00     0.116 A 
HETATM   20  C8  UNL     1      38.883   3.520  13.904  1.00  0.00     0.140 A 
HETATM   21  N6  UNL     1      37.955   4.233  14.545  1.00  0.00    -0.199 N 
HETATM   22  C9  UNL     1      37.928   4.449  15.870  1.00  0.00     0.681 A 
ATOM     23  H6  UNL     1      37.209   4.646  13.986  1.00  0.00     0.183 HD
HETATM   24  N8  UNL     1      38.933   3.887  16.595  1.00  0.00    -0.168 N 
HETATM   25  C12 UNL     1      39.891   3.159  15.994  1.00  0.00     0.186 A 
ATOM     26  H8  UNL     1      38.960   4.019  17.606  1.00  0.00     0.186 HD
BRANCH  22  27
HETATM   27  N7  UNL     1      36.908   5.220  16.483  1.00  0.00    -0.226 N 
HETATM   28  C10 UNL     1      35.720   5.506  15.712  1.00  0.00     0.168 C 
HETATM   29  C11 UNL     1      37.015   5.723  17.834  1.00  0.00     0.168 C 
ENDBRANCH  22  27
BRANCH  25  30
HETATM   30  O1  UNL     1      40.932   2.574  16.726  1.00  0.00    -0.339 OA
HETATM   31  C13 UNL     1      40.791   2.244  18.089  1.00  0.00     0.211 C 
ENDBRANCH  25  30
ENDBRANCH  17  19
ENDBRANCH   9  17
BRANCH   1  32
HETATM   32  N1  UNL     1      40.209  -2.795  10.130  1.00  0.00    -0.375 N 
ATOM     33  H1  UNL     1      40.539  -2.511   9.208  1.00  0.00     0.161 HD
BRANCH  32  34
HETATM   34  C2  UNL     1      40.461  -4.130  10.633  1.00  0.00     0.116 C 
HETATM   35  C1  UNL     1      40.539  -5.127   9.495  1.00  0.00     0.026 C 
ENDBRANCH  32  34
ENDBRANCH   1  32
TORSDOF 6
ENDMDL
