MODEL 1
REMARK VINA RESULT: -8.546071812      0.000      0.000
REMARK  5 active torsions:
REMARK  status: ('A' for Active; 'I' for Inactive)
REMARK    1  A    between atoms: N1_1  and  C1_4 
REMARK    2  A    between atoms: C4_11  and  N4_12 
REMARK    3  A    between atoms: N6_21  and  C12_22 
REMARK    4  A    between atoms: C12_22  and  C13_23 
REMARK    5  A    between atoms: C13_23  and  C14_24 
ROOT
HETATM    1  C1  UNL     1      41.305   1.666  16.090  1.00  0.00     0.678 A 
HETATM    2  N2  UNL     1      41.293   0.748  15.110  1.00  0.00    -0.174 N 
ATOM      3  H2  UNL     1      41.876  -0.084  15.200  1.00  0.00     0.186 HD
HETATM    4  C2  UNL     1      40.525   0.901  14.004  1.00  0.00     0.169 A 
HETATM    5  C3  UNL     1      39.724   2.011  13.846  1.00  0.00     0.136 A 
HETATM    6  N3  UNL     1      39.084   1.892  12.672  1.00  0.00    -0.183 N 
ATOM      7  H3  UNL     1      38.423   2.571  12.294  1.00  0.00     0.184 HD
HETATM    8  C4  UNL     1      39.447   0.741  12.066  1.00  0.00     0.700 A 
HETATM    9  N6  UNL     1      40.324   0.150  12.890  1.00  0.00    -0.164 N 
HETATM   10  C15 UNL     1      39.753   2.941  14.868  1.00  0.00     0.163 A 
HETATM   11  N8  UNL     1      38.934   4.091  14.720  1.00  0.00    -0.080 NA
HETATM   12  N9  UNL     1      40.530   2.755  15.952  1.00  0.00    -0.177 N 
ATOM     13  H9  UNL     1      40.529   3.460  16.689  1.00  0.00     0.185 HD
ENDROOT
BRANCH   8  14
HETATM   14  N4  UNL     1      38.942   0.307  10.798  1.00  0.00    -0.127 N 
HETATM   15  C5  UNL     1      39.522   0.737   9.525  1.00  0.00     0.168 C 
HETATM   16  C6  UNL     1      38.367   0.643   8.518  1.00  0.00     0.007 C 
HETATM   17  C7  UNL     1      38.239  -0.692   7.919  1.00  0.00     0.006 C 
HETATM   18  C11 UNL     1      37.162   1.173   9.220  1.00  0.00     0.029 C 
HETATM   19  C8  UNL     1      37.209  -1.602   8.448  1.00  0.00     0.002 C 
HETATM   20  C9  UNL     1      36.068  -0.952   9.175  1.00  0.00     0.023 C 
HETATM   21  C10 UNL     1      36.684   0.040  10.142  1.00  0.00     0.100 C 
HETATM   22  N5  UNL     1      37.853  -0.568  10.707  1.00  0.00    -0.119 NA
ENDBRANCH   8  14
BRANCH   9  23
HETATM   23  C12 UNL     1      40.975  -1.123  12.641  1.00  0.00     0.158 C 
BRANCH  23  24
HETATM   24  C13 UNL     1      42.278  -0.947  11.909  1.00  0.00     0.120 C 
BRANCH  24  25
HETATM   25  C14 UNL     1      42.229  -1.507  10.542  1.00  0.00     0.232 C 
HETATM   26  N7  UNL     1      43.181  -1.127   9.571  1.00  0.00    -0.062 NA
HETATM   27  O1  UNL     1      41.339  -2.324  10.238  1.00  0.00    -0.277 OA
ENDBRANCH  24  25
ENDBRANCH  23  24
ENDBRANCH   9  23
BRANCH   1  28
HETATM   28  N1  UNL     1      42.031   1.543  17.155  1.00  0.00    -0.234 N 
ATOM     29  H12 UNL     1      41.688   0.968  17.924  1.00  0.00     0.174 HD
ATOM     30  H11 UNL     1      42.937   1.999  17.261  1.00  0.00     0.174 HD
ENDBRANCH   1  28
TORSDOF 5
ENDMDL
MODEL 2
REMARK VINA RESULT: -8.497098851      3.165      4.992
REMARK  5 active torsions:
REMARK  status: ('A' for Active; 'I' for Inactive)
REMARK    1  A    between atoms: N1_1  and  C1_4 
REMARK    2  A    between atoms: C4_11  and  N4_12 
REMARK    3  A    between atoms: N6_21  and  C12_22 
REMARK    4  A    between atoms: C12_22  and  C13_23 
REMARK    5  A    between atoms: C13_23  and  C14_24 
ROOT
HETATM    1  C1  UNL     1      37.606   5.011  15.077  1.00  0.00     0.678 A 
HETATM    2  N2  UNL     1      38.677   4.206  14.989  1.00  0.00    -0.174 N 
ATOM      3  H2  UNL     1      39.531   4.458  15.488  1.00  0.00     0.186 HD
HETATM    4  C2  UNL     1      38.652   3.068  14.255  1.00  0.00     0.169 A 
HETATM    5  C3  UNL     1      37.518   2.693  13.567  1.00  0.00     0.136 A 
HETATM    6  N3  UNL     1      37.781   1.538  12.939  1.00  0.00    -0.183 N 
ATOM      7  H3  UNL     1      37.121   1.026  12.352  1.00  0.00     0.184 HD
HETATM    8  C4  UNL     1      39.050   1.153  13.197  1.00  0.00     0.700 A 
HETATM    9  N6  UNL     1      39.565   2.095  13.999  1.00  0.00    -0.164 N 
HETATM   10  C15 UNL     1      36.428   3.537  13.673  1.00  0.00     0.163 A 
HETATM   11  N8  UNL     1      35.252   3.167  12.971  1.00  0.00    -0.080 NA
HETATM   12  N9  UNL     1      36.492   4.661  14.413  1.00  0.00    -0.177 N 
ATOM     13  H9  UNL     1      35.670   5.263  14.471  1.00  0.00     0.185 HD
ENDROOT
BRANCH   8  14
HETATM   14  N4  UNL     1      39.647  -0.043  12.683  1.00  0.00    -0.127 N 
HETATM   15  C5  UNL     1      39.693  -1.294  13.440  1.00  0.00     0.168 C 
HETATM   16  C6  UNL     1      40.922  -2.036  12.894  1.00  0.00     0.007 C 
HETATM   17  C7  UNL     1      40.616  -2.853  11.712  1.00  0.00     0.006 C 
HETATM   18  C11 UNL     1      41.988  -1.005  12.729  1.00  0.00     0.029 C 
HETATM   19  C8  UNL     1      40.954  -2.316  10.383  1.00  0.00     0.002 C 
HETATM   20  C9  UNL     1      42.011  -1.251  10.352  1.00  0.00     0.023 C 
HETATM   21  C10 UNL     1      41.646  -0.254  11.434  1.00  0.00     0.100 C 
HETATM   22  N5  UNL     1      40.223  -0.080  11.408  1.00  0.00    -0.119 NA
ENDBRANCH   8  14
BRANCH   9  23
HETATM   23  C12 UNL     1      40.914   2.087  14.534  1.00  0.00     0.158 C 
BRANCH  23  24
HETATM   24  C13 UNL     1      40.991   1.340  15.838  1.00  0.00     0.120 C 
BRANCH  24  25
HETATM   25  C14 UNL     1      41.183   2.246  16.990  1.00  0.00     0.232 C 
HETATM   26  N7  UNL     1      42.407   2.270  17.693  1.00  0.00    -0.062 NA
HETATM   27  O1  UNL     1      40.259   3.001  17.347  1.00  0.00    -0.277 OA
ENDBRANCH  24  25
ENDBRANCH  23  24
ENDBRANCH   9  23
BRANCH   1  28
HETATM   28  N1  UNL     1      37.606   6.103  15.772  1.00  0.00    -0.234 N 
ATOM     29  H12 UNL     1      38.400   6.740  15.693  1.00  0.00     0.174 HD
ATOM     30  H11 UNL     1      36.844   6.358  16.399  1.00  0.00     0.174 HD
ENDBRANCH   1  28
TORSDOF 5
ENDMDL
MODEL 3
REMARK VINA RESULT: -8.453384298      0.782      1.468
REMARK  5 active torsions:
REMARK  status: ('A' for Active; 'I' for Inactive)
REMARK    1  A    between atoms: N1_1  and  C1_4 
REMARK    2  A    between atoms: C4_11  and  N4_12 
REMARK    3  A    between atoms: N6_21  and  C12_22 
REMARK    4  A    between atoms: C12_22  and  C13_23 
REMARK    5  A    between atoms: C13_23  and  C14_24 
ROOT
HETATM    1  C1  UNL     1      41.288   1.622  15.999  1.00  0.00     0.678 A 
HETATM    2  N2  UNL     1      41.096   0.689  15.052  1.00  0.00    -0.174 N 
ATOM      3  H2  UNL     1      41.587  -0.203  15.124  1.00  0.00     0.186 HD
HETATM    4  C2  UNL     1      40.267   0.903  14.002  1.00  0.00     0.169 A 
HETATM    5  C3  UNL     1      39.586   2.093  13.869  1.00  0.00     0.136 A 
HETATM    6  N3  UNL     1      38.848   2.021  12.751  1.00  0.00    -0.183 N 
ATOM      7  H3  UNL     1      38.240   2.762  12.401  1.00  0.00     0.184 HD
HETATM    8  C4  UNL     1      39.030   0.822  12.156  1.00  0.00     0.700 A 
HETATM    9  N6  UNL     1      39.897   0.154  12.931  1.00  0.00    -0.164 N 
HETATM   10  C15 UNL     1      39.798   3.037  14.856  1.00  0.00     0.163 A 
HETATM   11  N8  UNL     1      39.105   4.270  14.733  1.00  0.00    -0.080 NA
HETATM   12  N9  UNL     1      40.631   2.788  15.884  1.00  0.00    -0.177 N 
ATOM     13  H9  UNL     1      40.767   3.506  16.597  1.00  0.00     0.185 HD
ENDROOT
BRANCH   8  14
HETATM   14  N4  UNL     1      38.383   0.420  10.944  1.00  0.00    -0.127 N 
HETATM   15  C5  UNL     1      37.809  -0.914  10.757  1.00  0.00     0.168 C 
HETATM   16  C6  UNL     1      37.860  -1.151   9.240  1.00  0.00     0.007 C 
HETATM   17  C7  UNL     1      36.677  -0.629   8.542  1.00  0.00     0.006 C 
HETATM   18  C11 UNL     1      39.182  -0.632   8.784  1.00  0.00     0.029 C 
HETATM   19  C8  UNL     1      36.786   0.667   7.852  1.00  0.00     0.002 C 
HETATM   20  C9  UNL     1      38.174   1.102   7.484  1.00  0.00     0.023 C 
HETATM   21  C10 UNL     1      39.030   0.896   8.718  1.00  0.00     0.100 C 
HETATM   22  N5  UNL     1      38.259   1.295   9.858  1.00  0.00    -0.119 NA
ENDBRANCH   8  14
BRANCH   9  23
HETATM   23  C12 UNL     1      40.379  -1.191  12.674  1.00  0.00     0.158 C 
BRANCH  23  24
HETATM   24  C13 UNL     1      41.827  -1.193  12.263  1.00  0.00     0.120 C 
BRANCH  24  25
HETATM   25  C14 UNL     1      42.009  -1.657  10.871  1.00  0.00     0.232 C 
HETATM   26  N7  UNL     1      42.827  -0.939   9.972  1.00  0.00    -0.062 NA
HETATM   27  O1  UNL     1      41.437  -2.693  10.482  1.00  0.00    -0.277 OA
ENDBRANCH  24  25
ENDBRANCH  23  24
ENDBRANCH   9  23
BRANCH   1  28
HETATM   28  N1  UNL     1      42.075   1.440  17.010  1.00  0.00    -0.234 N 
ATOM     29  H12 UNL     1      42.796   0.720  16.954  1.00  0.00     0.174 HD
ATOM     30  H11 UNL     1      42.007   1.989  17.868  1.00  0.00     0.174 HD
ENDBRANCH   1  28
TORSDOF 5
ENDMDL
MODEL 4
REMARK VINA RESULT: -8.309211310      1.031      1.106
REMARK  5 active torsions:
REMARK  status: ('A' for Active; 'I' for Inactive)
REMARK    1  A    between atoms: N1_1  and  C1_4 
REMARK    2  A    between atoms: C4_11  and  N4_12 
REMARK    3  A    between atoms: N6_21  and  C12_22 
REMARK    4  A    between atoms: C12_22  and  C13_23 
REMARK    5  A    between atoms: C13_23  and  C14_24 
ROOT
HETATM    1  C1  UNL     1      41.289   1.517  15.924  1.00  0.00     0.678 A 
HETATM    2  N2  UNL     1      41.374   0.619  14.929  1.00  0.00    -0.174 N 
ATOM      3  H2  UNL     1      42.036  -0.154  15.011  1.00  0.00     0.186 HD
HETATM    4  C2  UNL     1      40.604   0.714  13.818  1.00  0.00     0.169 A 
HETATM    5  C3  UNL     1      39.699   1.743  13.670  1.00  0.00     0.136 A 
HETATM    6  N3  UNL     1      39.084   1.582  12.489  1.00  0.00    -0.183 N 
ATOM      7  H3  UNL     1      38.363   2.199  12.115  1.00  0.00     0.184 HD
HETATM    8  C4  UNL     1      39.563   0.482  11.868  1.00  0.00     0.700 A 
HETATM    9  N6  UNL     1      40.487  -0.034  12.691  1.00  0.00    -0.164 N 
HETATM   10  C15 UNL     1      39.629   2.654  14.707  1.00  0.00     0.163 A 
HETATM   11  N8  UNL     1      38.703   3.721  14.570  1.00  0.00    -0.080 NA
HETATM   12  N9  UNL     1      40.411   2.526  15.796  1.00  0.00    -0.177 N 
ATOM     13  H9  UNL     1      40.336   3.215  16.544  1.00  0.00     0.185 HD
ENDROOT
BRANCH   8  14
HETATM   14  N4  UNL     1      39.113   0.023  10.588  1.00  0.00    -0.127 N 
HETATM   15  C5  UNL     1      39.797   0.361   9.339  1.00  0.00     0.168 C 
HETATM   16  C6  UNL     1      38.704   0.290   8.263  1.00  0.00     0.007 C 
HETATM   17  C7  UNL     1      38.533  -1.061   7.712  1.00  0.00     0.006 C 
HETATM   18  C11 UNL     1      37.492   0.919   8.863  1.00  0.00     0.029 C 
HETATM   19  C8  UNL     1      37.418  -1.884   8.209  1.00  0.00     0.002 C 
HETATM   20  C9  UNL     1      36.276  -1.138   8.832  1.00  0.00     0.023 C 
HETATM   21  C10 UNL     1      36.889  -0.141   9.797  1.00  0.00     0.100 C 
HETATM   22  N5  UNL     1      37.980  -0.790  10.462  1.00  0.00    -0.119 NA
ENDBRANCH   8  14
BRANCH   9  23
HETATM   23  C12 UNL     1      41.261  -1.233  12.427  1.00  0.00     0.158 C 
BRANCH  23  24
HETATM   24  C13 UNL     1      40.409  -2.472  12.499  1.00  0.00     0.120 C 
BRANCH  24  25
HETATM   25  C14 UNL     1      40.576  -3.332  11.309  1.00  0.00     0.232 C 
HETATM   26  N7  UNL     1      41.187  -2.834  10.138  1.00  0.00    -0.062 NA
HETATM   27  O1  UNL     1      40.175  -4.511  11.335  1.00  0.00    -0.277 OA
ENDBRANCH  24  25
ENDBRANCH  23  24
ENDBRANCH   9  23
BRANCH   1  28
HETATM   28  N1  UNL     1      42.014   1.447  16.994  1.00  0.00    -0.234 N 
ATOM     29  H12 UNL     1      43.030   1.488  16.907  1.00  0.00     0.174 HD
ATOM     30  H11 UNL     1      41.613   1.350  17.927  1.00  0.00     0.174 HD
ENDBRANCH   1  28
TORSDOF 5
ENDMDL
MODEL 5
REMARK VINA RESULT: -8.191522509      2.966      5.116
REMARK  5 active torsions:
REMARK  status: ('A' for Active; 'I' for Inactive)
REMARK    1  A    between atoms: N1_1  and  C1_4 
REMARK    2  A    between atoms: C4_11  and  N4_12 
REMARK    3  A    between atoms: N6_21  and  C12_22 
REMARK    4  A    between atoms: C12_22  and  C13_23 
REMARK    5  A    between atoms: C13_23  and  C14_24 
ROOT
HETATM    1  C1  UNL     1      36.142   4.020  14.439  1.00  0.00     0.678 A 
HETATM    2  N2  UNL     1      37.373   3.529  14.219  1.00  0.00    -0.174 N 
ATOM      3  H2  UNL     1      38.186   4.097  14.459  1.00  0.00     0.186 HD
HETATM    4  C2  UNL     1      37.561   2.297  13.688  1.00  0.00     0.169 A 
HETATM    5  C3  UNL     1      36.489   1.499  13.352  1.00  0.00     0.136 A 
HETATM    6  N3  UNL     1      36.972   0.350  12.855  1.00  0.00    -0.183 N 
ATOM      7  H3  UNL     1      36.404  -0.430  12.524  1.00  0.00     0.184 HD
HETATM    8  C4  UNL     1      38.323   0.379  12.860  1.00  0.00     0.700 A 
HETATM    9  N6  UNL     1      38.664   1.571  13.369  1.00  0.00    -0.164 N 
HETATM   10  C15 UNL     1      35.233   2.025  13.588  1.00  0.00     0.163 A 
HETATM   11  N8  UNL     1      34.118   1.217  13.246  1.00  0.00    -0.080 NA
HETATM   12  N9  UNL     1      35.086   3.254  14.118  1.00  0.00    -0.177 N 
ATOM     13  H9  UNL     1      34.145   3.615  14.280  1.00  0.00     0.185 HD
ENDROOT
BRANCH   8  14
HETATM   14  N4  UNL     1      39.151  -0.695  12.400  1.00  0.00    -0.127 N 
HETATM   15  C5  UNL     1      39.307  -1.948  13.141  1.00  0.00     0.168 C 
HETATM   16  C6  UNL     1      40.688  -2.476  12.728  1.00  0.00     0.007 C 
HETATM   17  C7  UNL     1      40.645  -3.293  11.507  1.00  0.00     0.006 C 
HETATM   18  C11 UNL     1      41.593  -1.290  12.699  1.00  0.00     0.029 C 
HETATM   19  C8  UNL     1      41.039  -2.671  10.232  1.00  0.00     0.002 C 
HETATM   20  C9  UNL     1      41.915  -1.457  10.336  1.00  0.00     0.023 C 
HETATM   21  C10 UNL     1      41.283  -0.560  11.383  1.00  0.00     0.100 C 
HETATM   22  N5  UNL     1      39.862  -0.605  11.198  1.00  0.00    -0.119 NA
ENDBRANCH   8  14
BRANCH   9  23
HETATM   23  C12 UNL     1      40.026   2.035  13.564  1.00  0.00     0.158 C 
BRANCH  23  24
HETATM   24  C13 UNL     1      40.623   1.487  14.833  1.00  0.00     0.120 C 
BRANCH  24  25
HETATM   25  C14 UNL     1      40.691   2.506  15.901  1.00  0.00     0.232 C 
HETATM   26  N7  UNL     1      41.661   2.418  16.923  1.00  0.00    -0.062 NA
HETATM   27  O1  UNL     1      39.886   3.456  15.905  1.00  0.00    -0.277 OA
ENDBRANCH  24  25
ENDBRANCH  23  24
ENDBRANCH   9  23
BRANCH   1  28
HETATM   28  N1  UNL     1      35.937   5.193  14.946  1.00  0.00    -0.234 N 
ATOM     29  H12 UNL     1      35.015   5.618  14.854  1.00  0.00     0.174 HD
ATOM     30  H11 UNL     1      36.663   5.717  15.435  1.00  0.00     0.174 HD
ENDBRANCH   1  28
TORSDOF 5
ENDMDL
