MODEL 1
REMARK VINA RESULT: -8.962358786      0.000      0.000
REMARK  5 active torsions:
REMARK  status: ('A' for Active; 'I' for Inactive)
REMARK    1  A    between atoms: N2_5  and  C4_6 
REMARK    2  A    between atoms: C8_19  and  C9_20 
REMARK    3  A    between atoms: C9_20  and  N7_21 
REMARK    4  A    between atoms: C9_20  and  C10_25 
REMARK    5  A    between atoms: N8_31  and  N9_32 
ROOT
HETATM    1  C4  UNL     1      39.404   2.915  14.822  1.00  0.00     0.150 A 
HETATM    2  N3  UNL     1      40.060   3.023  15.996  1.00  0.00    -0.175 N 
ATOM      3  H3  UNL     1      39.784   3.754  16.650  1.00  0.00     0.186 HD
HETATM    4  C5  UNL     1      41.061   2.202  16.329  1.00  0.00     0.679 A 
HETATM    5  N4  UNL     1      41.643   2.364  17.471  1.00  0.00    -0.234 N 
ATOM      6  H41 UNL     1      42.407   1.737  17.725  1.00  0.00     0.174 HD
ATOM      7  H42 UNL     1      41.344   3.105  18.105  1.00  0.00     0.174 HD
HETATM    8  N5  UNL     1      41.454   1.225  15.494  1.00  0.00    -0.173 N 
ATOM      9  H5  UNL     1      42.219   0.608  15.765  1.00  0.00     0.186 HD
HETATM   10  C6  UNL     1      40.852   1.052  14.308  1.00  0.00     0.174 A 
HETATM   11  C7  UNL     1      39.832   1.897  13.978  1.00  0.00     0.125 A 
HETATM   12  N6  UNL     1      39.404   1.515  12.752  1.00  0.00    -0.337 N 
ATOM     13  H6  UNL     1      38.646   1.956  12.232  1.00  0.00     0.167 HD
HETATM   14  C8  UNL     1      40.129   0.468  12.323  1.00  0.00     0.137 A 
HETATM   15  N8  UNL     1      41.025   0.178  13.280  1.00  0.00    -0.229 N 
ENDROOT
BRANCH  14  16
HETATM   16  C9  UNL     1      39.971  -0.234  11.038  1.00  0.00     0.256 C 
BRANCH  16  17
HETATM   17  N7  UNL     1      39.581   0.679   9.968  1.00  0.00    -0.068 N 
ATOM     18  H73 UNL     1      38.715   1.169  10.194  1.00  0.00     0.275 HD
ATOM     19  H72 UNL     1      40.209   1.480   9.915  1.00  0.00     0.275 HD
ATOM     20  H71 UNL     1      39.514   0.200   9.070  1.00  0.00     0.275 HD
ENDBRANCH  16  17
BRANCH  16  21
HETATM   21  C10 UNL     1      38.936  -1.330  11.076  1.00  0.00     0.024 C 
HETATM   22  C11 UNL     1      38.943  -2.034   9.742  1.00  0.00     0.007 C 
HETATM   23  C12 UNL     1      40.130  -2.949   9.570  1.00  0.00     0.000 C 
HETATM   24  C13 UNL     1      39.994  -4.033  10.642  1.00  0.00     0.000 C 
HETATM   25  C14 UNL     1      40.127  -3.359  11.972  1.00  0.00     0.000 C 
HETATM   26  C15 UNL     1      39.128  -2.283  12.225  1.00  0.00     0.007 C 
ENDBRANCH  16  21
ENDBRANCH  14  16
BRANCH  15  27
HETATM   27  N9  UNL     1      41.997  -0.814  13.315  1.00  0.00    -0.335 N 
ATOM     28  H92 UNL     1      42.518  -1.188  14.107  1.00  0.00     0.177 HD
ATOM     29  H91 UNL     1      42.301  -1.299  12.472  1.00  0.00     0.177 HD
ENDBRANCH  15  27
BRANCH   1  30
HETATM   30  N2  UNL     1      38.348   3.751  14.421  1.00  0.00    -0.355 N 
HETATM   31  C3  UNL     1      38.647   5.114  13.999  1.00  0.00     0.169 C 
HETATM   32  C2  UNL     1      37.905   6.064  14.896  1.00  0.00     0.082 C 
HETATM   33  N1  UNL     1      36.726   5.579  15.467  1.00  0.00    -0.375 N 
HETATM   34  C1  UNL     1      36.585   5.725  16.881  1.00  0.00     0.154 C 
HETATM   35  C17 UNL     1      36.065   4.486  14.878  1.00  0.00     0.082 C 
HETATM   36  C16 UNL     1      36.952   3.377  14.388  1.00  0.00     0.169 C 
ENDBRANCH   1  30
TORSDOF 5
ENDMDL
MODEL 2
REMARK VINA RESULT: -8.262987173      0.886      1.313
REMARK  5 active torsions:
REMARK  status: ('A' for Active; 'I' for Inactive)
REMARK    1  A    between atoms: N2_5  and  C4_6 
REMARK    2  A    between atoms: C8_19  and  C9_20 
REMARK    3  A    between atoms: C9_20  and  N7_21 
REMARK    4  A    between atoms: C9_20  and  C10_25 
REMARK    5  A    between atoms: N8_31  and  N9_32 
ROOT
HETATM    1  C4  UNL     1      39.841   2.938  15.369  1.00  0.00     0.150 A 
HETATM    2  N3  UNL     1      40.502   2.896  16.544  1.00  0.00    -0.175 N 
ATOM      3  H3  UNL     1      40.342   3.636  17.227  1.00  0.00     0.186 HD
HETATM    4  C5  UNL     1      41.360   1.916  16.842  1.00  0.00     0.679 A 
HETATM    5  N4  UNL     1      41.957   1.940  17.988  1.00  0.00    -0.234 N 
ATOM      6  H41 UNL     1      42.612   1.192  18.216  1.00  0.00     0.174 HD
ATOM      7  H42 UNL     1      41.776   2.694  18.651  1.00  0.00     0.174 HD
HETATM    8  N5  UNL     1      41.598   0.922  15.969  1.00  0.00    -0.173 N 
ATOM      9  H5  UNL     1      42.255   0.182  16.215  1.00  0.00     0.186 HD
HETATM   10  C6  UNL     1      40.980   0.892  14.779  1.00  0.00     0.174 A 
HETATM   11  C7  UNL     1      40.107   1.898  14.485  1.00  0.00     0.125 A 
HETATM   12  N6  UNL     1      39.629   1.636  13.246  1.00  0.00    -0.337 N 
ATOM     13  H6  UNL     1      38.951   2.211  12.746  1.00  0.00     0.167 HD
HETATM   14  C8  UNL     1      40.181   0.506  12.775  1.00  0.00     0.137 A 
HETATM   15  N8  UNL     1      41.017   0.041  13.718  1.00  0.00    -0.229 N 
ENDROOT
BRANCH  14  16
HETATM   16  C9  UNL     1      39.919  -0.114  11.465  1.00  0.00     0.256 C 
BRANCH  16  17
HETATM   17  N7  UNL     1      39.425   0.861  10.496  1.00  0.00    -0.068 N 
ATOM     18  H73 UNL     1      39.177   0.415   9.612  1.00  0.00     0.275 HD
ATOM     19  H72 UNL     1      38.506   1.214  10.760  1.00  0.00     0.275 HD
ATOM     20  H71 UNL     1      40.089   1.622  10.356  1.00  0.00     0.275 HD
ENDBRANCH  16  17
BRANCH  16  21
HETATM   21  C10 UNL     1      38.904  -1.228  11.519  1.00  0.00     0.024 C 
HETATM   22  C11 UNL     1      38.627  -1.684  10.109  1.00  0.00     0.007 C 
HETATM   23  C12 UNL     1      39.742  -2.520   9.533  1.00  0.00     0.000 C 
HETATM   24  C13 UNL     1      39.823  -3.779  10.398  1.00  0.00     0.000 C 
HETATM   25  C14 UNL     1      40.237  -3.348  11.770  1.00  0.00     0.000 C 
HETATM   26  C15 UNL     1      39.323  -2.363  12.414  1.00  0.00     0.007 C 
ENDBRANCH  16  21
ENDBRANCH  14  16
BRANCH  15  27
HETATM   27  N9  UNL     1      41.820  -1.091  13.712  1.00  0.00    -0.335 N 
ATOM     28  H92 UNL     1      42.420  -1.469  14.445  1.00  0.00     0.177 HD
ATOM     29  H91 UNL     1      41.887  -1.700  12.897  1.00  0.00     0.177 HD
ENDBRANCH  15  27
BRANCH   1  30
HETATM   30  N2  UNL     1      38.931   3.944  15.003  1.00  0.00    -0.355 N 
HETATM   31  C3  UNL     1      38.108   4.562  16.036  1.00  0.00     0.169 C 
HETATM   32  C2  UNL     1      36.664   4.340  15.690  1.00  0.00     0.082 C 
HETATM   33  N1  UNL     1      36.371   4.188  14.332  1.00  0.00    -0.375 N 
HETATM   34  C1  UNL     1      35.587   3.052  13.963  1.00  0.00     0.154 C 
HETATM   35  C17 UNL     1      37.271   4.673  13.367  1.00  0.00     0.082 C 
HETATM   36  C16 UNL     1      38.726   4.438  13.660  1.00  0.00     0.169 C 
ENDBRANCH   1  30
TORSDOF 5
ENDMDL
MODEL 3
REMARK VINA RESULT: -8.124217345      2.763      6.018
REMARK  5 active torsions:
REMARK  status: ('A' for Active; 'I' for Inactive)
REMARK    1  A    between atoms: N2_5  and  C4_6 
REMARK    2  A    between atoms: C8_19  and  C9_20 
REMARK    3  A    between atoms: C9_20  and  N7_21 
REMARK    4  A    between atoms: C9_20  and  C10_25 
REMARK    5  A    between atoms: N8_31  and  N9_32 
ROOT
HETATM    1  C4  UNL     1      40.448   0.052  12.944  1.00  0.00     0.150 A 
HETATM    2  N3  UNL     1      40.959   0.797  13.946  1.00  0.00    -0.175 N 
ATOM      3  H3  UNL     1      41.798   0.471  14.425  1.00  0.00     0.186 HD
HETATM    4  C5  UNL     1      40.399   1.948  14.332  1.00  0.00     0.679 A 
HETATM    5  N4  UNL     1      40.945   2.610  15.299  1.00  0.00    -0.234 N 
ATOM      6  H41 UNL     1      40.518   3.488  15.594  1.00  0.00     0.174 HD
ATOM      7  H42 UNL     1      41.785   2.258  15.759  1.00  0.00     0.174 HD
HETATM    8  N5  UNL     1      39.293   2.411  13.726  1.00  0.00    -0.173 N 
ATOM      9  H5  UNL     1      38.882   3.292  14.034  1.00  0.00     0.186 HD
HETATM   10  C6  UNL     1      38.724   1.729  12.721  1.00  0.00     0.174 A 
HETATM   11  C7  UNL     1      39.303   0.554  12.336  1.00  0.00     0.125 A 
HETATM   12  N6  UNL     1      38.547   0.073  11.322  1.00  0.00    -0.337 N 
ATOM     13  H6  UNL     1      38.725  -0.796  10.819  1.00  0.00     0.167 HD
HETATM   14  C8  UNL     1      37.528   0.913  11.076  1.00  0.00     0.137 A 
HETATM   15  N8  UNL     1      37.632   1.938  11.937  1.00  0.00    -0.229 N 
ENDROOT
BRANCH  14  16
HETATM   16  C9  UNL     1      36.485   0.744  10.050  1.00  0.00     0.256 C 
BRANCH  16  17
HETATM   17  N7  UNL     1      35.276   0.141  10.604  1.00  0.00    -0.068 N 
ATOM     18  H73 UNL     1      35.429  -0.836  10.856  1.00  0.00     0.275 HD
ATOM     19  H72 UNL     1      35.065   0.513  11.530  1.00  0.00     0.275 HD
ATOM     20  H71 UNL     1      34.481   0.242   9.973  1.00  0.00     0.275 HD
ENDBRANCH  16  17
BRANCH  16  21
HETATM   21  C10 UNL     1      36.915  -0.124   8.894  1.00  0.00     0.024 C 
HETATM   22  C11 UNL     1      35.742  -0.282   7.960  1.00  0.00     0.007 C 
HETATM   23  C12 UNL     1      35.479   0.953   7.135  1.00  0.00     0.000 C 
HETATM   24  C13 UNL     1      36.718   1.156   6.260  1.00  0.00     0.000 C 
HETATM   25  C14 UNL     1      37.863   1.454   7.177  1.00  0.00     0.000 C 
HETATM   26  C15 UNL     1      38.139   0.396   8.190  1.00  0.00     0.007 C 
ENDBRANCH  16  21
ENDBRANCH  14  16
BRANCH  15  27
HETATM   27  N9  UNL     1      36.825   3.058  12.087  1.00  0.00    -0.335 N 
ATOM     28  H92 UNL     1      37.017   4.035  11.866  1.00  0.00     0.177 HD
ATOM     29  H91 UNL     1      35.881   2.995  12.466  1.00  0.00     0.177 HD
ENDBRANCH  15  27
BRANCH   1  30
HETATM   30  N2  UNL     1      40.992  -1.165  12.499  1.00  0.00    -0.355 N 
HETATM   31  C3  UNL     1      42.104  -1.139  11.555  1.00  0.00     0.169 C 
HETATM   32  C2  UNL     1      41.689  -1.870  10.311  1.00  0.00     0.082 C 
HETATM   33  N1  UNL     1      40.721  -2.865  10.474  1.00  0.00    -0.375 N 
HETATM   34  C1  UNL     1      39.588  -2.812   9.606  1.00  0.00     0.154 C 
HETATM   35  C17 UNL     1      40.517  -3.437  11.742  1.00  0.00     0.082 C 
HETATM   36  C16 UNL     1      40.541  -2.478  12.899  1.00  0.00     0.169 C 
ENDBRANCH   1  30
TORSDOF 5
ENDMDL
MODEL 4
REMARK VINA RESULT: -7.978125875      1.478      2.015
REMARK  5 active torsions:
REMARK  status: ('A' for Active; 'I' for Inactive)
REMARK    1  A    between atoms: N2_5  and  C4_6 
REMARK    2  A    between atoms: C8_19  and  C9_20 
REMARK    3  A    between atoms: C9_20  and  N7_21 
REMARK    4  A    between atoms: C9_20  and  C10_25 
REMARK    5  A    between atoms: N8_31  and  N9_32 
ROOT
HETATM    1  C4  UNL     1      39.524   2.350  14.272  1.00  0.00     0.150 A 
HETATM    2  N3  UNL     1      40.269   2.351  15.397  1.00  0.00    -0.175 N 
ATOM      3  H3  UNL     1      40.125   3.091  16.084  1.00  0.00     0.186 HD
HETATM    4  C5  UNL     1      41.190   1.413  15.640  1.00  0.00     0.679 A 
HETATM    5  N4  UNL     1      41.866   1.477  16.741  1.00  0.00    -0.234 N 
ATOM      6  H41 UNL     1      42.569   0.761  16.927  1.00  0.00     0.174 HD
ATOM      7  H42 UNL     1      41.699   2.230  17.409  1.00  0.00     0.174 HD
HETATM    8  N5  UNL     1      41.409   0.422  14.761  1.00  0.00    -0.173 N 
ATOM      9  H5  UNL     1      42.115  -0.286  14.964  1.00  0.00     0.186 HD
HETATM   10  C6  UNL     1      40.709   0.350  13.618  1.00  0.00     0.174 A 
HETATM   11  C7  UNL     1      39.773   1.314  13.380  1.00  0.00     0.125 A 
HETATM   12  N6  UNL     1      39.219   1.017  12.182  1.00  0.00    -0.337 N 
ATOM     13  H6  UNL     1      38.482   1.555  11.727  1.00  0.00     0.167 HD
HETATM   14  C8  UNL     1      39.786  -0.093  11.680  1.00  0.00     0.137 A 
HETATM   15  N8  UNL     1      40.708  -0.509  12.564  1.00  0.00    -0.229 N 
ENDROOT
BRANCH  14  16
HETATM   16  C9  UNL     1      39.460  -0.738  10.398  1.00  0.00     0.256 C 
BRANCH  16  17
HETATM   17  N7  UNL     1      40.661  -1.056   9.632  1.00  0.00    -0.068 N 
ATOM     18  H73 UNL     1      41.472  -0.543   9.981  1.00  0.00     0.275 HD
ATOM     19  H72 UNL     1      40.981  -2.006   9.819  1.00  0.00     0.275 HD
ATOM     20  H71 UNL     1      40.525  -0.900   8.633  1.00  0.00     0.275 HD
ENDBRANCH  16  17
BRANCH  16  21
HETATM   21  C10 UNL     1      38.585   0.107   9.506  1.00  0.00     0.024 C 
HETATM   22  C11 UNL     1      38.627  -0.474   8.115  1.00  0.00     0.007 C 
HETATM   23  C12 UNL     1      37.810  -1.734   7.982  1.00  0.00     0.000 C 
HETATM   24  C13 UNL     1      36.358  -1.334   8.251  1.00  0.00     0.000 C 
HETATM   25  C14 UNL     1      36.279  -0.887   9.677  1.00  0.00     0.000 C 
HETATM   26  C15 UNL     1      37.179   0.249  10.023  1.00  0.00     0.007 C 
ENDBRANCH  16  21
ENDBRANCH  14  16
BRANCH  15  27
HETATM   27  N9  UNL     1      41.559  -1.605  12.510  1.00  0.00    -0.335 N 
ATOM     28  H92 UNL     1      42.556  -1.667  12.716  1.00  0.00     0.177 HD
ATOM     29  H91 UNL     1      41.230  -2.529  12.232  1.00  0.00     0.177 HD
ENDBRANCH  15  27
BRANCH   1  30
HETATM   30  N2  UNL     1      38.546   3.311  13.965  1.00  0.00    -0.355 N 
HETATM   31  C3  UNL     1      38.968   4.664  13.619  1.00  0.00     0.169 C 
HETATM   32  C2  UNL     1      38.355   5.620  14.601  1.00  0.00     0.082 C 
HETATM   33  N1  UNL     1      37.151   5.217  15.186  1.00  0.00    -0.375 N 
HETATM   34  C1  UNL     1      37.070   5.282  16.610  1.00  0.00     0.154 C 
HETATM   35  C17 UNL     1      36.365   4.237  14.554  1.00  0.00     0.082 C 
HETATM   36  C16 UNL     1      37.120   3.080  13.962  1.00  0.00     0.169 C 
ENDBRANCH   1  30
TORSDOF 5
ENDMDL
MODEL 5
REMARK VINA RESULT: -7.970137906      2.600      4.135
REMARK  5 active torsions:
REMARK  status: ('A' for Active; 'I' for Inactive)
REMARK    1  A    between atoms: N2_5  and  C4_6 
REMARK    2  A    between atoms: C8_19  and  C9_20 
REMARK    3  A    between atoms: C9_20  and  N7_21 
REMARK    4  A    between atoms: C9_20  and  C10_25 
REMARK    5  A    between atoms: N8_31  and  N9_32 
ROOT
HETATM    1  C4  UNL     1      36.525   2.706  12.965  1.00  0.00     0.150 A 
HETATM    2  N3  UNL     1      36.804   3.992  13.262  1.00  0.00    -0.175 N 
ATOM      3  H3  UNL     1      36.047   4.674  13.265  1.00  0.00     0.186 HD
HETATM    4  C5  UNL     1      38.044   4.400  13.553  1.00  0.00     0.679 A 
HETATM    5  N4  UNL     1      38.238   5.648  13.830  1.00  0.00    -0.234 N 
ATOM      6  H41 UNL     1      39.183   5.960  14.052  1.00  0.00     0.174 HD
ATOM      7  H42 UNL     1      37.459   6.307  13.824  1.00  0.00     0.174 HD
HETATM    8  N5  UNL     1      39.069   3.532  13.561  1.00  0.00    -0.173 N 
ATOM      9  H5  UNL     1      40.007   3.861  13.787  1.00  0.00     0.186 HD
HETATM   10  C6  UNL     1      38.873   2.235  13.276  1.00  0.00     0.174 A 
HETATM   11  C7  UNL     1      37.604   1.830  12.980  1.00  0.00     0.125 A 
HETATM   12  N6  UNL     1      37.678   0.501  12.734  1.00  0.00    -0.337 N 
ATOM     13  H6  UNL     1      36.888  -0.093  12.484  1.00  0.00     0.167 HD
HETATM   14  C8  UNL     1      38.947   0.083  12.870  1.00  0.00     0.137 A 
HETATM   15  N8  UNL     1      39.690   1.150  13.205  1.00  0.00    -0.229 N 
ENDROOT
BRANCH  14  16
HETATM   16  C9  UNL     1      39.437  -1.293  12.686  1.00  0.00     0.256 C 
BRANCH  16  17
HETATM   17  N7  UNL     1      40.080  -1.803  13.894  1.00  0.00    -0.068 N 
ATOM     18  H73 UNL     1      40.700  -2.587  13.684  1.00  0.00     0.275 HD
ATOM     19  H72 UNL     1      40.772  -1.145  14.253  1.00  0.00     0.275 HD
ATOM     20  H71 UNL     1      39.396  -2.050  14.609  1.00  0.00     0.275 HD
ENDBRANCH  16  17
BRANCH  16  21
HETATM   21  C10 UNL     1      40.440  -1.429  11.568  1.00  0.00     0.024 C 
HETATM   22  C11 UNL     1      41.008  -2.826  11.609  1.00  0.00     0.007 C 
HETATM   23  C12 UNL     1      40.049  -3.864  11.083  1.00  0.00     0.000 C 
HETATM   24  C13 UNL     1      39.816  -3.524   9.609  1.00  0.00     0.000 C 
HETATM   25  C14 UNL     1      39.123  -2.198   9.565  1.00  0.00     0.000 C 
HETATM   26  C15 UNL     1      39.868  -1.086  10.219  1.00  0.00     0.007 C 
ENDBRANCH  16  21
ENDBRANCH  14  16
BRANCH  15  27
HETATM   27  N9  UNL     1      41.053   1.240  13.455  1.00  0.00    -0.335 N 
ATOM     28  H92 UNL     1      41.573   1.933  13.993  1.00  0.00     0.177 HD
ATOM     29  H91 UNL     1      41.714   0.557  13.087  1.00  0.00     0.177 HD
ENDBRANCH  15  27
BRANCH   1  30
HETATM   30  N2  UNL     1      35.243   2.223  12.650  1.00  0.00    -0.355 N 
HETATM   31  C3  UNL     1      34.270   2.050  13.723  1.00  0.00     0.169 C 
HETATM   32  C2  UNL     1      33.854   0.608  13.760  1.00  0.00     0.082 C 
HETATM   33  N1  UNL     1      33.938  -0.091  12.552  1.00  0.00    -0.375 N 
HETATM   34  C1  UNL     1      34.633  -1.338  12.574  1.00  0.00     0.154 C 
HETATM   35  C17 UNL     1      33.953   0.618  11.338  1.00  0.00     0.082 C 
HETATM   36  C16 UNL     1      34.786   1.869  11.326  1.00  0.00     0.169 C 
ENDBRANCH   1  30
TORSDOF 5
ENDMDL
