MODEL 1
REMARK VINA RESULT: -6.072196863      0.000      0.000
REMARK  2 active torsions:
REMARK  status: ('A' for Active; 'I' for Inactive)
REMARK    1  A    between atoms: N2_6  and  C5_7 
REMARK    2  A    between atoms: C8_10  and  O1_11 
ROOT
HETATM    1  C1  UNL     1      18.309   5.885  12.022  1.00  0.00     0.309 C 
HETATM    2  N1  UNL     1      18.289   4.543  12.554  1.00  0.00     0.086 N 
HETATM    3  C2  UNL     1      17.274   3.802  11.885  1.00  0.00     0.273 C 
HETATM    4  C3  UNL     1      17.059   2.413  12.384  1.00  0.00     0.060 C 
HETATM    5  C4  UNL     1      16.014   2.446  13.506  1.00  0.00     0.275 C 
HETATM    6  N2  UNL     1      16.680   2.863  14.686  1.00  0.00     0.095 N 
HETATM    7  C10 UNL     1      16.952   4.269  14.608  1.00  0.00     0.303 C 
HETATM    8  C11 UNL     1      18.285   4.469  13.968  1.00  0.00     0.302 C 
ENDROOT
BRANCH   6   9
HETATM    9  C5  UNL     1      16.126   2.433  15.920  1.00  0.00     0.225 C 
HETATM   10  C6  UNL     1      14.660   2.742  16.097  1.00  0.00     0.038 C 
HETATM   11  C7  UNL     1      14.086   1.655  16.953  1.00  0.00     0.034 C 
HETATM   12  C8  UNL     1      15.281   0.842  17.406  1.00  0.00     0.120 C 
HETATM   13  C9  UNL     1      16.182   0.969  16.169  1.00  0.00     0.067 C 
BRANCH  12  14
HETATM   14  O1  UNL     1      14.883  -0.488  17.569  1.00  0.00    -0.396 OA
ATOM     15  H1  UNL     1      15.596  -0.972  17.969  1.00  0.00     0.210 HD
ENDBRANCH  12  14
ENDBRANCH   6   9
TORSDOF 2
ENDMDL
MODEL 2
REMARK VINA RESULT: -5.992531192      0.920      1.831
REMARK  2 active torsions:
REMARK  status: ('A' for Active; 'I' for Inactive)
REMARK    1  A    between atoms: N2_6  and  C5_7 
REMARK    2  A    between atoms: C8_10  and  O1_11 
ROOT
HETATM    1  C1  UNL     1      17.913   2.699  10.887  1.00  0.00     0.309 C 
HETATM    2  N1  UNL     1      17.087   3.355  11.873  1.00  0.00     0.086 N 
HETATM    3  C2  UNL     1      17.904   4.225  12.647  1.00  0.00     0.273 C 
HETATM    4  C3  UNL     1      17.218   4.915  13.778  1.00  0.00     0.060 C 
HETATM    5  C4  UNL     1      17.318   4.035  15.030  1.00  0.00     0.275 C 
HETATM    6  N2  UNL     1      16.322   3.033  14.917  1.00  0.00     0.095 N 
HETATM    7  C10 UNL     1      16.729   2.063  13.942  1.00  0.00     0.303 C 
HETATM    8  C11 UNL     1      16.235   2.488  12.601  1.00  0.00     0.302 C 
ENDROOT
BRANCH   6   9
HETATM    9  C5  UNL     1      15.825   2.484  16.128  1.00  0.00     0.225 C 
HETATM   10  C6  UNL     1      14.336   2.628  16.323  1.00  0.00     0.038 C 
HETATM   11  C7  UNL     1      13.884   1.443  17.122  1.00  0.00     0.034 C 
HETATM   12  C8  UNL     1      15.162   0.738  17.530  1.00  0.00     0.120 C 
HETATM   13  C9  UNL     1      16.036   1.023  16.300  1.00  0.00     0.067 C 
BRANCH  12  14
HETATM   14  O1  UNL     1      14.906  -0.633  17.624  1.00  0.00    -0.396 OA
ATOM     15  H1  UNL     1      15.706  -1.106  17.426  1.00  0.00     0.210 HD
ENDBRANCH  12  14
ENDBRANCH   6   9
TORSDOF 2
ENDMDL
MODEL 3
REMARK VINA RESULT: -5.724233465      1.303      1.762
REMARK  2 active torsions:
REMARK  status: ('A' for Active; 'I' for Inactive)
REMARK    1  A    between atoms: N2_6  and  C5_7 
REMARK    2  A    between atoms: C8_10  and  O1_11 
ROOT
HETATM    1  C1  UNL     1      18.213   5.327  11.970  1.00  0.00     0.309 C 
HETATM    2  N1  UNL     1      16.936   4.852  12.448  1.00  0.00     0.086 N 
HETATM    3  C2  UNL     1      16.285   5.911  13.142  1.00  0.00     0.273 C 
HETATM    4  C3  UNL     1      14.986   5.557  13.782  1.00  0.00     0.060 C 
HETATM    5  C4  UNL     1      15.254   5.058  15.207  1.00  0.00     0.275 C 
HETATM    6  N2  UNL     1      15.675   3.709  15.105  1.00  0.00     0.095 N 
HETATM    7  C10 UNL     1      17.020   3.665  14.607  1.00  0.00     0.303 C 
HETATM    8  C11 UNL     1      16.983   3.605  13.118  1.00  0.00     0.302 C 
ENDROOT
BRANCH   6   9
HETATM    9  C5  UNL     1      15.430   2.875  16.228  1.00  0.00     0.225 C 
HETATM   10  C6  UNL     1      13.979   2.756  16.622  1.00  0.00     0.038 C 
HETATM   11  C7  UNL     1      13.797   1.389  17.207  1.00  0.00     0.034 C 
HETATM   12  C8  UNL     1      15.197   0.819  17.308  1.00  0.00     0.120 C 
HETATM   13  C9  UNL     1      15.842   1.456  16.069  1.00  0.00     0.067 C 
BRANCH  12  14
HETATM   14  O1  UNL     1      15.128  -0.569  17.148  1.00  0.00    -0.396 OA
ATOM     15  H1  UNL     1      14.603  -0.761  16.380  1.00  0.00     0.210 HD
ENDBRANCH  12  14
ENDBRANCH   6   9
TORSDOF 2
ENDMDL
MODEL 4
REMARK VINA RESULT: -5.586729406      3.142      5.018
REMARK  2 active torsions:
REMARK  status: ('A' for Active; 'I' for Inactive)
REMARK    1  A    between atoms: N2_6  and  C5_7 
REMARK    2  A    between atoms: C8_10  and  O1_11 
ROOT
HETATM    1  C1  UNL     1      15.126   4.319  14.616  1.00  0.00     0.309 C 
HETATM    2  N1  UNL     1      16.376   3.739  14.184  1.00  0.00     0.086 N 
HETATM    3  C2  UNL     1      16.863   4.481  13.072  1.00  0.00     0.273 C 
HETATM    4  C3  UNL     1      18.108   3.954  12.443  1.00  0.00     0.060 C 
HETATM    5  C4  UNL     1      17.725   2.950  11.349  1.00  0.00     0.275 C 
HETATM    6  N2  UNL     1      17.423   1.725  11.993  1.00  0.00     0.095 N 
HETATM    7  C10 UNL     1      16.149   1.829  12.643  1.00  0.00     0.303 C 
HETATM    8  C11 UNL     1      16.353   2.332  14.032  1.00  0.00     0.302 C 
ENDROOT
BRANCH   6   9
HETATM    9  C5  UNL     1      17.608   0.539  11.234  1.00  0.00     0.225 C 
HETATM   10  C6  UNL     1      19.005   0.343  10.699  1.00  0.00     0.038 C 
HETATM   11  C7  UNL     1      19.244  -1.136  10.639  1.00  0.00     0.034 C 
HETATM   12  C8  UNL     1      17.903  -1.761  10.965  1.00  0.00     0.120 C 
HETATM   13  C9  UNL     1      17.357  -0.731  11.964  1.00  0.00     0.067 C 
BRANCH  12  14
HETATM   14  O1  UNL     1      18.123  -2.980  11.614  1.00  0.00    -0.396 OA
ATOM     15  H1  UNL     1      18.206  -3.663  10.958  1.00  0.00     0.210 HD
ENDBRANCH  12  14
ENDBRANCH   6   9
TORSDOF 2
ENDMDL
MODEL 5
REMARK VINA RESULT: -5.577985101      3.477      5.055
REMARK  2 active torsions:
REMARK  status: ('A' for Active; 'I' for Inactive)
REMARK    1  A    between atoms: N2_6  and  C5_7 
REMARK    2  A    between atoms: C8_10  and  O1_11 
ROOT
HETATM    1  C1  UNL     1      17.933   5.213  12.322  1.00  0.00     0.309 C 
HETATM    2  N1  UNL     1      17.041   4.112  12.045  1.00  0.00     0.086 N 
HETATM    3  C2  UNL     1      16.752   3.441  13.267  1.00  0.00     0.273 C 
HETATM    4  C3  UNL     1      15.911   2.216  13.143  1.00  0.00     0.060 C 
HETATM    5  C4  UNL     1      16.827   1.005  12.928  1.00  0.00     0.275 C 
HETATM    6  N2  UNL     1      17.197   0.999  11.560  1.00  0.00     0.095 N 
HETATM    7  C10 UNL     1      18.157   2.037  11.321  1.00  0.00     0.303 C 
HETATM    8  C11 UNL     1      17.435   3.291  10.961  1.00  0.00     0.302 C 
ENDROOT
BRANCH   6   9
HETATM    9  C5  UNL     1      17.530  -0.259  10.992  1.00  0.00     0.225 C 
HETATM   10  C6  UNL     1      18.997  -0.451  10.697  1.00  0.00     0.038 C 
HETATM   11  C7  UNL     1      19.286  -1.913  10.859  1.00  0.00     0.034 C 
HETATM   12  C8  UNL     1      17.930  -2.558  11.061  1.00  0.00     0.120 C 
HETATM   13  C9  UNL     1      17.208  -1.443  11.831  1.00  0.00     0.067 C 
BRANCH  12  14
HETATM   14  O1  UNL     1      18.085  -3.679  11.883  1.00  0.00    -0.396 OA
ATOM     15  H1  UNL     1      18.915  -3.608  12.341  1.00  0.00     0.210 HD
ENDBRANCH  12  14
ENDBRANCH   6   9
TORSDOF 2
ENDMDL
