MODEL 1
REMARK VINA RESULT: -4.741575256      0.000      0.000
REMARK  3 active torsions:
REMARK  status: ('A' for Active; 'I' for Inactive)
REMARK    1  A    between atoms: C6_7  and  O1_8 
REMARK    2  A    between atoms: C7_10  and  C8_11 
REMARK    3  A    between atoms: C8_11  and  O2_14 
ROOT
HETATM    1  C1  UNL     1      14.772   2.240  16.192  1.00  0.00     0.309 C 
HETATM    2  N1  UNL     1      15.722   3.179  15.588  1.00  0.00     0.085 N 
HETATM    3  C2  UNL     1      15.024   4.221  14.861  1.00  0.00     0.277 C 
HETATM    4  C3  UNL     1      15.837   4.523  13.635  1.00  0.00     0.030 C 
HETATM    5  C4  UNL     1      16.525   5.874  13.861  1.00  0.00     0.010 C 
HETATM    6  C5  UNL     1      17.724   5.513  14.678  1.00  0.00     0.033 C 
HETATM    7  C6  UNL     1      18.142   4.112  14.241  1.00  0.00     0.131 C 
HETATM    8  C7  UNL     1      16.951   3.519  13.593  1.00  0.00     0.047 C 
HETATM    9  C11 UNL     1      16.405   2.434  14.535  1.00  0.00     0.287 C 
ENDROOT
BRANCH   8  10
HETATM   10  C8  UNL     1      17.166   2.893  12.270  1.00  0.00     0.063 C 
HETATM   11  C9  UNL     1      17.064   3.808  11.099  1.00  0.00     0.046 C 
HETATM   12  C10 UNL     1      16.110   1.805  12.077  1.00  0.00     0.046 C 
BRANCH  10  13
HETATM   13  O2  UNL     1      18.396   2.244  12.274  1.00  0.00    -0.390 OA
ATOM     14  H2  UNL     1      18.281   1.366  11.929  1.00  0.00     0.210 HD
ENDBRANCH  10  13
ENDBRANCH   8  10
BRANCH   7  15
HETATM   15  O1  UNL     1      19.262   4.211  13.464  1.00  0.00    -0.395 OA
ATOM     16  H1  UNL     1      19.531   3.338  13.204  1.00  0.00     0.210 HD
ENDBRANCH   7  15
TORSDOF 3
ENDMDL
MODEL 2
REMARK VINA RESULT: -4.572599928      2.284      3.721
REMARK  3 active torsions:
REMARK  status: ('A' for Active; 'I' for Inactive)
REMARK    1  A    between atoms: C6_7  and  O1_8 
REMARK    2  A    between atoms: C7_10  and  C8_11 
REMARK    3  A    between atoms: C8_11  and  O2_14 
ROOT
HETATM    1  C1  UNL     1      16.985   2.343  11.214  1.00  0.00     0.309 C 
HETATM    2  N1  UNL     1      16.495   3.042  12.406  1.00  0.00     0.085 N 
HETATM    3  C2  UNL     1      17.547   3.840  13.004  1.00  0.00     0.277 C 
HETATM    4  C3  UNL     1      17.375   3.751  14.493  1.00  0.00     0.030 C 
HETATM    5  C4  UNL     1      16.811   5.093  14.971  1.00  0.00     0.010 C 
HETATM    6  C5  UNL     1      15.346   4.963  14.702  1.00  0.00     0.033 C 
HETATM    7  C6  UNL     1      15.002   3.486  14.879  1.00  0.00     0.131 C 
HETATM    8  C7  UNL     1      16.281   2.756  14.746  1.00  0.00     0.047 C 
HETATM    9  C11 UNL     1      16.249   2.006  13.405  1.00  0.00     0.287 C 
ENDROOT
BRANCH   8  10
HETATM   10  C8  UNL     1      16.584   1.763  15.802  1.00  0.00     0.063 C 
HETATM   11  C9  UNL     1      16.519   0.336  15.382  1.00  0.00     0.046 C 
HETATM   12  C10 UNL     1      15.569   1.940  16.931  1.00  0.00     0.046 C 
BRANCH  10  13
HETATM   13  O2  UNL     1      17.829   2.053  16.349  1.00  0.00    -0.390 OA
ATOM     14  H2  UNL     1      18.075   1.352  16.940  1.00  0.00     0.210 HD
ENDBRANCH  10  13
ENDBRANCH   8  10
BRANCH   7  15
HETATM   15  O1  UNL     1      14.340   3.329  16.064  1.00  0.00    -0.395 OA
ATOM     16  H1  UNL     1      13.411   3.237  15.885  1.00  0.00     0.210 HD
ENDBRANCH   7  15
TORSDOF 3
ENDMDL
MODEL 3
REMARK VINA RESULT: -4.510708617      1.102      1.299
REMARK  3 active torsions:
REMARK  status: ('A' for Active; 'I' for Inactive)
REMARK    1  A    between atoms: C6_7  and  O1_8 
REMARK    2  A    between atoms: C7_10  and  C8_11 
REMARK    3  A    between atoms: C8_11  and  O2_14 
ROOT
HETATM    1  C1  UNL     1      15.042   3.350  15.342  1.00  0.00     0.309 C 
HETATM    2  N1  UNL     1      16.159   4.171  14.867  1.00  0.00     0.085 N 
HETATM    3  C2  UNL     1      15.681   5.268  14.049  1.00  0.00     0.277 C 
HETATM    4  C3  UNL     1      16.678   5.460  12.942  1.00  0.00     0.030 C 
HETATM    5  C4  UNL     1      17.470   6.734  13.253  1.00  0.00     0.010 C 
HETATM    6  C5  UNL     1      18.503   6.265  14.227  1.00  0.00     0.033 C 
HETATM    7  C6  UNL     1      18.824   4.819  13.855  1.00  0.00     0.131 C 
HETATM    8  C7  UNL     1      17.673   4.344  13.055  1.00  0.00     0.047 C 
HETATM    9  C11 UNL     1      16.894   3.339  13.919  1.00  0.00     0.287 C 
ENDROOT
BRANCH   8  10
HETATM   10  C8  UNL     1      17.995   3.673  11.775  1.00  0.00     0.063 C 
HETATM   11  C9  UNL     1      18.476   4.565  10.684  1.00  0.00     0.046 C 
HETATM   12  C10 UNL     1      16.730   2.986  11.262  1.00  0.00     0.046 C 
BRANCH  10  13
HETATM   13  O2  UNL     1      18.916   2.661  12.017  1.00  0.00    -0.390 OA
ATOM     14  H2  UNL     1      19.145   2.666  12.939  1.00  0.00     0.210 HD
ENDBRANCH  10  13
ENDBRANCH   8  10
BRANCH   7  15
HETATM   15  O1  UNL     1      20.041   4.785  13.236  1.00  0.00    -0.395 OA
ATOM     16  H1  UNL     1      20.711   5.022  13.867  1.00  0.00     0.210 HD
ENDBRANCH   7  15
TORSDOF 3
ENDMDL
MODEL 4
REMARK VINA RESULT: -4.436439825      2.541      3.889
REMARK  3 active torsions:
REMARK  status: ('A' for Active; 'I' for Inactive)
REMARK    1  A    between atoms: C6_7  and  O1_8 
REMARK    2  A    between atoms: C7_10  and  C8_11 
REMARK    3  A    between atoms: C8_11  and  O2_14 
ROOT
HETATM    1  C1  UNL     1      19.897   3.317  11.640  1.00  0.00     0.309 C 
HETATM    2  N1  UNL     1      18.987   4.427  11.937  1.00  0.00     0.085 N 
HETATM    3  C2  UNL     1      19.468   5.200  13.064  1.00  0.00     0.277 C 
HETATM    4  C3  UNL     1      18.264   5.620  13.857  1.00  0.00     0.030 C 
HETATM    5  C4  UNL     1      18.043   7.115  13.603  1.00  0.00     0.010 C 
HETATM    6  C5  UNL     1      17.307   7.134  12.302  1.00  0.00     0.033 C 
HETATM    7  C6  UNL     1      16.462   5.863  12.263  1.00  0.00     0.131 C 
HETATM    8  C7  UNL     1      17.078   4.939  13.241  1.00  0.00     0.047 C 
HETATM    9  C11 UNL     1      17.763   3.816  12.446  1.00  0.00     0.287 C 
ENDROOT
BRANCH   8  10
HETATM   10  C8  UNL     1      16.160   4.302  14.211  1.00  0.00     0.063 C 
HETATM   11  C9  UNL     1      15.382   5.236  15.072  1.00  0.00     0.046 C 
HETATM   12  C10 UNL     1      16.988   3.421  15.147  1.00  0.00     0.046 C 
BRANCH  10  13
HETATM   13  O2  UNL     1      15.305   3.445  13.526  1.00  0.00    -0.390 OA
ATOM     14  H2  UNL     1      14.889   2.862  14.151  1.00  0.00     0.210 HD
ENDBRANCH  10  13
ENDBRANCH   8  10
BRANCH   7  15
HETATM   15  O1  UNL     1      15.157   6.197  12.491  1.00  0.00    -0.395 OA
ATOM     16  H1  UNL     1      14.772   5.546  13.066  1.00  0.00     0.210 HD
ENDBRANCH   7  15
TORSDOF 3
ENDMDL
MODEL 5
REMARK VINA RESULT: -4.415212662      2.310      3.590
REMARK  3 active torsions:
REMARK  status: ('A' for Active; 'I' for Inactive)
REMARK    1  A    between atoms: C6_7  and  O1_8 
REMARK    2  A    between atoms: C7_10  and  C8_11 
REMARK    3  A    between atoms: C8_11  and  O2_14 
ROOT
HETATM    1  C1  UNL     1      18.313   6.237  10.684  1.00  0.00     0.309 C 
HETATM    2  N1  UNL     1      17.712   5.719  11.916  1.00  0.00     0.085 N 
HETATM    3  C2  UNL     1      18.732   5.220  12.817  1.00  0.00     0.277 C 
HETATM    4  C3  UNL     1      18.170   4.001  13.487  1.00  0.00     0.030 C 
HETATM    5  C4  UNL     1      17.831   4.385  14.932  1.00  0.00     0.010 C 
HETATM    6  C5  UNL     1      16.495   5.043  14.805  1.00  0.00     0.033 C 
HETATM    7  C6  UNL     1      15.783   4.360  13.641  1.00  0.00     0.131 C 
HETATM    8  C7  UNL     1      16.847   3.717  12.839  1.00  0.00     0.047 C 
HETATM    9  C11 UNL     1      16.984   4.514  11.531  1.00  0.00     0.287 C 
ENDROOT
BRANCH   8  10
HETATM   10  C8  UNL     1      16.630   2.299  12.475  1.00  0.00     0.063 C 
HETATM   11  C9  UNL     1      16.612   1.338  13.612  1.00  0.00     0.046 C 
HETATM   12  C10 UNL     1      17.762   1.864  11.544  1.00  0.00     0.046 C 
BRANCH  10  13
HETATM   13  O2  UNL     1      15.459   2.199  11.734  1.00  0.00    -0.390 OA
ATOM     14  H2  UNL     1      15.434   1.348  11.312  1.00  0.00     0.210 HD
ENDBRANCH  10  13
ENDBRANCH   8  10
BRANCH   7  15
HETATM   15  O1  UNL     1      14.823   3.527  14.142  1.00  0.00    -0.395 OA
ATOM     16  H1  UNL     1      15.024   2.637  13.879  1.00  0.00     0.210 HD
ENDBRANCH   7  15
TORSDOF 3
ENDMDL
