MODEL 1
REMARK VINA RESULT: -5.944840845      0.000      0.000
REMARK  3 active torsions:
REMARK  status: ('A' for Active; 'I' for Inactive)
REMARK    1  A    between atoms: C2_2  and  N1_3 
REMARK    2  A    between atoms: C6_7  and  O1_8 
REMARK    3  A    between atoms: C9_12  and  O2_13 
ROOT
HETATM    1  N1  UNL     1      19.504   1.096   9.917  1.00  0.00    -0.406 N 
HETATM    2  C3  UNL     1      20.407   0.052   9.544  1.00  0.00     0.117 C 
HETATM    3  C4  UNL     1      19.944  -1.325   9.741  1.00  0.00     0.022 C 
HETATM    4  C5  UNL     1      19.055  -1.538  10.942  1.00  0.00     0.041 C 
HETATM    5  C6  UNL     1      17.977  -0.442  10.804  1.00  0.00     0.078 C 
HETATM    6  C7  UNL     1      16.806  -0.723  11.658  1.00  0.00     0.042 C 
HETATM    7  C8  UNL     1      16.644   0.274  12.791  1.00  0.00     0.035 C 
HETATM    8  C9  UNL     1      16.587   1.649  12.178  1.00  0.00     0.120 C 
HETATM    9  C10 UNL     1      17.782   1.975  11.316  1.00  0.00     0.059 C 
HETATM   10  C11 UNL     1      18.732   0.835  11.098  1.00  0.00     0.115 C 
ENDROOT
BRANCH   1  11
HETATM   11  C2  UNL     1      20.049   2.393   9.783  1.00  0.00     0.113 C 
HETATM   12  C1  UNL     1      21.013   2.487   8.615  1.00  0.00     0.026 C 
ENDBRANCH   1  11
BRANCH   5  13
HETATM   13  O1  UNL     1      17.631  -0.456   9.452  1.00  0.00    -0.388 OA
ATOM     14  H1  UNL     1      16.684  -0.375   9.446  1.00  0.00     0.210 HD
ENDBRANCH   5  13
BRANCH   8  15
HETATM   15  O2  UNL     1      15.456   1.727  11.342  1.00  0.00    -0.396 OA
ATOM     16  H2  UNL     1      15.219   2.640  11.230  1.00  0.00     0.210 HD
ENDBRANCH   8  15
TORSDOF 3
ENDMDL
MODEL 2
REMARK VINA RESULT: -5.535904846      2.934      4.765
REMARK  3 active torsions:
REMARK  status: ('A' for Active; 'I' for Inactive)
REMARK    1  A    between atoms: C2_2  and  N1_3 
REMARK    2  A    between atoms: C6_7  and  O1_8 
REMARK    3  A    between atoms: C9_12  and  O2_13 
ROOT
HETATM    1  N1  UNL     1      17.408   2.140  11.946  1.00  0.00    -0.406 N 
HETATM    2  C3  UNL     1      17.458   3.228  11.020  1.00  0.00     0.117 C 
HETATM    3  C4  UNL     1      17.397   4.580  11.584  1.00  0.00     0.022 C 
HETATM    4  C5  UNL     1      16.537   4.723  12.816  1.00  0.00     0.041 C 
HETATM    5  C6  UNL     1      17.027   3.591  13.744  1.00  0.00     0.078 C 
HETATM    6  C7  UNL     1      16.584   3.803  15.136  1.00  0.00     0.042 C 
HETATM    7  C8  UNL     1      15.577   2.768  15.603  1.00  0.00     0.035 C 
HETATM    8  C9  UNL     1      16.198   1.410  15.400  1.00  0.00     0.120 C 
HETATM    9  C10 UNL     1      16.641   1.155  13.981  1.00  0.00     0.059 C 
HETATM   10  C11 UNL     1      16.529   2.337  13.064  1.00  0.00     0.115 C 
ENDROOT
BRANCH   1  11
HETATM   11  C2  UNL     1      17.382   0.869  11.329  1.00  0.00     0.113 C 
HETATM   12  C1  UNL     1      18.775   0.380  10.976  1.00  0.00     0.026 C 
ENDBRANCH   1  11
BRANCH   5  13
HETATM   13  O1  UNL     1      18.419   3.633  13.645  1.00  0.00    -0.388 OA
ATOM     14  H1  UNL     1      18.700   2.750  13.855  1.00  0.00     0.210 HD
ENDBRANCH   5  13
BRANCH   8  15
HETATM   15  O2  UNL     1      17.351   1.314  16.205  1.00  0.00    -0.396 OA
ATOM     16  H2  UNL     1      17.940   0.674  15.821  1.00  0.00     0.210 HD
ENDBRANCH   8  15
TORSDOF 3
ENDMDL
MODEL 3
REMARK VINA RESULT: -5.495484096      3.447      5.415
REMARK  3 active torsions:
REMARK  status: ('A' for Active; 'I' for Inactive)
REMARK    1  A    between atoms: C2_2  and  N1_3 
REMARK    2  A    between atoms: C6_7  and  O1_8 
REMARK    3  A    between atoms: C9_12  and  O2_13 
ROOT
HETATM    1  N1  UNL     1      17.106   3.038  12.688  1.00  0.00    -0.406 N 
HETATM    2  C3  UNL     1      16.904   4.401  12.303  1.00  0.00     0.117 C 
HETATM    3  C4  UNL     1      16.573   5.348  13.372  1.00  0.00     0.022 C 
HETATM    4  C5  UNL     1      15.732   4.785  14.491  1.00  0.00     0.041 C 
HETATM    5  C6  UNL     1      16.472   3.492  14.896  1.00  0.00     0.078 C 
HETATM    6  C7  UNL     1      16.028   3.005  16.217  1.00  0.00     0.042 C 
HETATM    7  C8  UNL     1      15.273   1.690  16.143  1.00  0.00     0.035 C 
HETATM    8  C9  UNL     1      16.160   0.699  15.437  1.00  0.00     0.120 C 
HETATM    9  C10 UNL     1      16.613   1.158  14.073  1.00  0.00     0.059 C 
HETATM   10  C11 UNL     1      16.232   2.567  13.724  1.00  0.00     0.115 C 
ENDROOT
BRANCH   1  11
HETATM   11  C2  UNL     1      17.333   2.168  11.598  1.00  0.00     0.113 C 
HETATM   12  C1  UNL     1      18.796   2.130  11.196  1.00  0.00     0.026 C 
ENDBRANCH   1  11
BRANCH   5  13
HETATM   13  O1  UNL     1      17.821   3.849  14.916  1.00  0.00    -0.388 OA
ATOM     14  H1  UNL     1      17.838   4.741  14.587  1.00  0.00     0.210 HD
ENDBRANCH   5  13
BRANCH   8  15
HETATM   15  O2  UNL     1      17.328   0.508  16.204  1.00  0.00    -0.396 OA
ATOM     16  H2  UNL     1      17.213   0.930  17.047  1.00  0.00     0.210 HD
ENDBRANCH   8  15
TORSDOF 3
ENDMDL
MODEL 4
REMARK VINA RESULT: -5.465383063      1.170      1.617
REMARK  3 active torsions:
REMARK  status: ('A' for Active; 'I' for Inactive)
REMARK    1  A    between atoms: C2_2  and  N1_3 
REMARK    2  A    between atoms: C6_7  and  O1_8 
REMARK    3  A    between atoms: C9_12  and  O2_13 
ROOT
HETATM    1  N1  UNL     1      19.254   0.711  10.055  1.00  0.00    -0.406 N 
HETATM    2  C3  UNL     1      19.459  -0.700  10.166  1.00  0.00     0.117 C 
HETATM    3  C4  UNL     1      18.357  -1.486  10.730  1.00  0.00     0.022 C 
HETATM    4  C5  UNL     1      17.554  -0.790  11.801  1.00  0.00     0.041 C 
HETATM    5  C6  UNL     1      17.200   0.575  11.172  1.00  0.00     0.078 C 
HETATM    6  C7  UNL     1      16.103   1.240  11.902  1.00  0.00     0.042 C 
HETATM    7  C8  UNL     1      16.547   2.501  12.620  1.00  0.00     0.035 C 
HETATM    8  C9  UNL     1      17.182   3.405  11.596  1.00  0.00     0.120 C 
HETATM    9  C10 UNL     1      18.322   2.760  10.847  1.00  0.00     0.059 C 
HETATM   10  C11 UNL     1      18.525   1.303  11.140  1.00  0.00     0.115 C 
ENDROOT
BRANCH   1  11
HETATM   11  C2  UNL     1      20.387   1.414   9.587  1.00  0.00     0.113 C 
HETATM   12  C1  UNL     1      21.155   0.625   8.543  1.00  0.00     0.026 C 
ENDBRANCH   1  11
BRANCH   5  13
HETATM   13  O1  UNL     1      16.824   0.271   9.862  1.00  0.00    -0.388 OA
ATOM     14  H1  UNL     1      17.266  -0.548   9.669  1.00  0.00     0.210 HD
ENDBRANCH   5  13
BRANCH   8  15
HETATM   15  O2  UNL     1      16.213   3.750  10.632  1.00  0.00    -0.396 OA
ATOM     16  H2  UNL     1      16.559   3.557   9.768  1.00  0.00     0.210 HD
ENDBRANCH   8  15
TORSDOF 3
ENDMDL
MODEL 5
REMARK VINA RESULT: -5.325339153      1.711      4.196
REMARK  3 active torsions:
REMARK  status: ('A' for Active; 'I' for Inactive)
REMARK    1  A    between atoms: C2_2  and  N1_3 
REMARK    2  A    between atoms: C6_7  and  O1_8 
REMARK    3  A    between atoms: C9_12  and  O2_13 
ROOT
HETATM    1  N1  UNL     1      18.040   0.183  10.949  1.00  0.00    -0.406 N 
HETATM    2  C3  UNL     1      16.993  -0.032  11.899  1.00  0.00     0.117 C 
HETATM    3  C4  UNL     1      16.290   1.159  12.388  1.00  0.00     0.022 C 
HETATM    4  C5  UNL     1      17.142   2.397  12.523  1.00  0.00     0.041 C 
HETATM    5  C6  UNL     1      17.855   2.507  11.159  1.00  0.00     0.078 C 
HETATM    6  C7  UNL     1      18.428   3.853  10.954  1.00  0.00     0.042 C 
HETATM    7  C8  UNL     1      19.946   3.855  10.933  1.00  0.00     0.035 C 
HETATM    8  C9  UNL     1      20.384   2.879   9.872  1.00  0.00     0.120 C 
HETATM    9  C10 UNL     1      19.832   1.488  10.066  1.00  0.00     0.059 C 
HETATM   10  C11 UNL     1      18.834   1.356  11.178  1.00  0.00     0.115 C 
ENDROOT
BRANCH   1  11
HETATM   11  C2  UNL     1      18.731  -0.996  10.590  1.00  0.00     0.113 C 
HETATM   12  C1  UNL     1      18.184  -2.217  11.306  1.00  0.00     0.026 C 
ENDBRANCH   1  11
BRANCH   5  13
HETATM   13  O1  UNL     1      16.860   2.234  10.218  1.00  0.00    -0.388 OA
ATOM     14  H1  UNL     1      16.297   2.999  10.236  1.00  0.00     0.210 HD
ENDBRANCH   5  13
BRANCH   8  15
HETATM   15  O2  UNL     1      19.913   3.327   8.621  1.00  0.00    -0.396 OA
ATOM     16  H2  UNL     1      19.665   2.573   8.100  1.00  0.00     0.210 HD
ENDBRANCH   8  15
TORSDOF 3
ENDMDL
