MODEL 1
REMARK VINA RESULT: -6.549165118      0.000      0.000
REMARK  2 active torsions:
REMARK  status: ('A' for Active; 'I' for Inactive)
REMARK    1  A    between atoms: C10_12  and  C11_13 
REMARK    2  A    between atoms: C11_13  and  O3_14 
ROOT
HETATM    1  C1  UNL     1      15.245   2.466  18.548  1.00  0.00     0.015 C 
HETATM    2  C2  UNL     1      15.209   1.922  17.120  1.00  0.00    -0.041 C 
HETATM    3  C3  UNL     1      14.082   0.969  16.964  1.00  0.00     0.015 C 
HETATM    4  C4  UNL     1      15.225   3.090  16.131  1.00  0.00     0.022 C 
HETATM    5  C5  UNL     1      16.706   2.881  15.961  1.00  0.00     0.087 C 
HETATM    6  C6  UNL     1      16.560   1.534  16.676  1.00  0.00     0.029 C 
HETATM    7  C7  UNL     1      16.727   0.568  15.571  1.00  0.00     0.179 C 
HETATM    8  O1  UNL     1      17.430   1.166  14.555  1.00  0.00    -0.332 OA
HETATM    9  C8  UNL     1      17.125   2.509  14.533  1.00  0.00     0.287 C 
HETATM   10  O2  UNL     1      16.150   2.852  13.626  1.00  0.00    -0.330 OA
HETATM   11  C9  UNL     1      16.707   3.626  12.642  1.00  0.00     0.208 C 
HETATM   12  C10 UNL     1      18.194   3.458  12.844  1.00  0.00     0.175 C 
HETATM   13  O4  UNL     1      18.282   3.205  14.204  1.00  0.00    -0.323 OA
ENDROOT
BRANCH  12  14
HETATM   14  C11 UNL     1      18.719   2.302  12.022  1.00  0.00     0.198 C 
BRANCH  14  15
HETATM   15  O3  UNL     1      17.689   1.571  11.444  1.00  0.00    -0.398 OA
ATOM     16  H3  UNL     1      17.220   1.054  12.086  1.00  0.00     0.209 HD
ENDBRANCH  14  15
ENDBRANCH  12  14
TORSDOF 2
ENDMDL
MODEL 2
REMARK VINA RESULT: -6.375441072      2.107      3.274
REMARK  2 active torsions:
REMARK  status: ('A' for Active; 'I' for Inactive)
REMARK    1  A    between atoms: C10_12  and  C11_13 
REMARK    2  A    between atoms: C11_13  and  O3_14 
ROOT
HETATM    1  C1  UNL     1      17.837   6.199  14.855  1.00  0.00     0.015 C 
HETATM    2  C2  UNL     1      16.929   4.981  14.684  1.00  0.00    -0.041 C 
HETATM    3  C3  UNL     1      15.635   5.207  15.377  1.00  0.00     0.015 C 
HETATM    4  C4  UNL     1      16.827   4.628  13.199  1.00  0.00     0.022 C 
HETATM    5  C5  UNL     1      17.873   3.568  13.415  1.00  0.00     0.087 C 
HETATM    6  C6  UNL     1      17.677   3.734  14.925  1.00  0.00     0.029 C 
HETATM    7  C7  UNL     1      16.957   2.498  15.291  1.00  0.00     0.179 C 
HETATM    8  O1  UNL     1      17.215   1.534  14.348  1.00  0.00    -0.332 OA
HETATM    9  C8  UNL     1      17.387   2.142  13.125  1.00  0.00     0.287 C 
HETATM   10  O2  UNL     1      16.261   2.154  12.336  1.00  0.00    -0.330 OA
HETATM   11  C9  UNL     1      16.472   1.357  11.241  1.00  0.00     0.208 C 
HETATM   12  C10 UNL     1      17.721   0.582  11.591  1.00  0.00     0.175 C 
HETATM   13  O4  UNL     1      18.382   1.454  12.442  1.00  0.00    -0.323 OA
ENDROOT
BRANCH  12  14
HETATM   14  C11 UNL     1      17.368  -0.718  12.281  1.00  0.00     0.198 C 
BRANCH  14  15
HETATM   15  O3  UNL     1      18.054  -1.793  11.734  1.00  0.00    -0.398 OA
ATOM     16  H3  UNL     1      18.446  -2.339  12.406  1.00  0.00     0.209 HD
ENDBRANCH  14  15
ENDBRANCH  12  14
TORSDOF 2
ENDMDL
MODEL 3
REMARK VINA RESULT: -6.303315024      2.211      4.654
REMARK  2 active torsions:
REMARK  status: ('A' for Active; 'I' for Inactive)
REMARK    1  A    between atoms: C10_12  and  C11_13 
REMARK    2  A    between atoms: C11_13  and  O3_14 
ROOT
HETATM    1  C1  UNL     1      18.747   6.840  13.933  1.00  0.00     0.015 C 
HETATM    2  C2  UNL     1      17.610   5.832  13.764  1.00  0.00    -0.041 C 
HETATM    3  C3  UNL     1      16.699   6.266  12.676  1.00  0.00     0.015 C 
HETATM    4  C4  UNL     1      18.197   4.427  13.610  1.00  0.00     0.022 C 
HETATM    5  C5  UNL     1      17.923   4.190  15.071  1.00  0.00     0.087 C 
HETATM    6  C6  UNL     1      17.053   5.451  15.074  1.00  0.00     0.029 C 
HETATM    7  C7  UNL     1      15.687   4.895  15.165  1.00  0.00     0.179 C 
HETATM    8  O1  UNL     1      15.750   3.640  15.718  1.00  0.00    -0.332 OA
HETATM    9  C8  UNL     1      16.937   3.048  15.345  1.00  0.00     0.287 C 
HETATM   10  O2  UNL     1      16.833   2.212  14.258  1.00  0.00    -0.330 OA
HETATM   11  C9  UNL     1      17.068   0.923  14.661  1.00  0.00     0.208 C 
HETATM   12  C10 UNL     1      17.001   0.995  16.168  1.00  0.00     0.175 C 
HETATM   13  O4  UNL     1      17.397   2.299  16.421  1.00  0.00    -0.323 OA
ENDROOT
BRANCH  12  14
HETATM   14  C11 UNL     1      15.593   0.730  16.655  1.00  0.00     0.198 C 
BRANCH  14  15
HETATM   15  O3  UNL     1      15.528  -0.401  17.456  1.00  0.00    -0.398 OA
ATOM     16  H3  UNL     1      15.126  -0.216  18.296  1.00  0.00     0.209 HD
ENDBRANCH  14  15
ENDBRANCH  12  14
TORSDOF 2
ENDMDL
MODEL 4
REMARK VINA RESULT: -6.045186441      1.413      4.982
REMARK  2 active torsions:
REMARK  status: ('A' for Active; 'I' for Inactive)
REMARK    1  A    between atoms: C10_12  and  C11_13 
REMARK    2  A    between atoms: C11_13  and  O3_14 
ROOT
HETATM    1  C1  UNL     1      18.299   3.554  10.122  1.00  0.00     0.015 C 
HETATM    2  C2  UNL     1      18.555   2.589  11.279  1.00  0.00    -0.041 C 
HETATM    3  C3  UNL     1      19.759   1.766  11.002  1.00  0.00     0.015 C 
HETATM    4  C4  UNL     1      18.581   3.370  12.596  1.00  0.00     0.022 C 
HETATM    5  C5  UNL     1      17.153   2.956  12.828  1.00  0.00     0.087 C 
HETATM    6  C6  UNL     1      17.304   1.933  11.698  1.00  0.00     0.029 C 
HETATM    7  C7  UNL     1      17.348   0.652  12.432  1.00  0.00     0.179 C 
HETATM    8  O1  UNL     1      16.738   0.813  13.651  1.00  0.00    -0.332 OA
HETATM    9  C8  UNL     1      16.946   2.104  14.086  1.00  0.00     0.287 C 
HETATM   10  O2  UNL     1      18.001   2.243  14.957  1.00  0.00    -0.330 OA
HETATM   11  C9  UNL     1      17.520   2.595  16.191  1.00  0.00     0.208 C 
HETATM   12  C10 UNL     1      16.035   2.338  16.089  1.00  0.00     0.175 C 
HETATM   13  O4  UNL     1      15.794   2.526  14.737  1.00  0.00    -0.323 OA
ENDROOT
BRANCH  12  14
HETATM   14  C11 UNL     1      15.703   0.929  16.530  1.00  0.00     0.198 C 
BRANCH  14  15
HETATM   15  O3  UNL     1      16.848   0.172  16.740  1.00  0.00    -0.398 OA
ATOM     16  H3  UNL     1      16.651  -0.754  16.805  1.00  0.00     0.209 HD
ENDBRANCH  14  15
ENDBRANCH  12  14
TORSDOF 2
ENDMDL
MODEL 5
REMARK VINA RESULT: -5.999559765      2.237      4.697
REMARK  2 active torsions:
REMARK  status: ('A' for Active; 'I' for Inactive)
REMARK    1  A    between atoms: C10_12  and  C11_13 
REMARK    2  A    between atoms: C11_13  and  O3_14 
ROOT
HETATM    1  C1  UNL     1      16.608   5.956  12.932  1.00  0.00     0.015 C 
HETATM    2  C2  UNL     1      16.908   5.412  14.329  1.00  0.00    -0.041 C 
HETATM    3  C3  UNL     1      17.910   6.272  15.008  1.00  0.00     0.015 C 
HETATM    4  C4  UNL     1      15.594   5.207  15.087  1.00  0.00     0.022 C 
HETATM    5  C5  UNL     1      15.653   3.748  14.723  1.00  0.00     0.087 C 
HETATM    6  C6  UNL     1      17.107   3.953  14.288  1.00  0.00     0.029 C 
HETATM    7  C7  UNL     1      17.860   3.277  15.364  1.00  0.00     0.179 C 
HETATM    8  O1  UNL     1      17.046   2.349  15.966  1.00  0.00    -0.332 OA
HETATM    9  C8  UNL     1      15.747   2.807  15.930  1.00  0.00     0.287 C 
HETATM   10  O2  UNL     1      15.338   3.436  17.082  1.00  0.00    -0.330 OA
HETATM   11  C9  UNL     1      14.368   2.678  17.686  1.00  0.00     0.208 C 
HETATM   12  C10 UNL     1      14.447   1.350  16.972  1.00  0.00     0.175 C 
HETATM   13  O4  UNL     1      14.915   1.714  15.719  1.00  0.00    -0.323 OA
ENDROOT
BRANCH  12  14
HETATM   14  C11 UNL     1      15.405   0.417  17.681  1.00  0.00     0.198 C 
BRANCH  14  15
HETATM   15  O3  UNL     1      15.962  -0.509  16.810  1.00  0.00    -0.398 OA
ATOM     16  H3  UNL     1      15.774  -1.401  17.076  1.00  0.00     0.209 HD
ENDBRANCH  14  15
ENDBRANCH  12  14
TORSDOF 2
ENDMDL
