MODEL 1
REMARK VINA RESULT: -5.098810458      0.000      0.000
REMARK  2 active torsions:
REMARK  status: ('A' for Active; 'I' for Inactive)
REMARK    1  A    between atoms: C4_5  and  O1_6 
REMARK    2  A    between atoms: C5_8  and  C6_9 
ROOT
HETATM    1  C6  UNL     1      14.295   2.975  16.692  1.00  0.00     0.162 C 
HETATM    2  C7  UNL     1      14.024   1.561  16.972  1.00  0.00     0.061 C 
HETATM    3  N2  UNL     1      13.813   0.441  17.188  1.00  0.00    -0.197 NA
ENDROOT
BRANCH   1   4
HETATM    4  C5  UNL     1      15.723   3.179  16.343  1.00  0.00     0.264 C 
HETATM    5  N1  UNL     1      16.067   4.142  15.408  1.00  0.00     0.092 N 
HETATM    6  C1  UNL     1      15.099   4.940  14.789  1.00  0.00     0.310 C 
HETATM    7  C2  UNL     1      16.926   3.529  14.425  1.00  0.00     0.275 C 
HETATM    8  C3  UNL     1      16.336   2.131  14.356  1.00  0.00     0.064 C 
HETATM    9  C4  UNL     1      16.262   1.829  15.845  1.00  0.00     0.154 C 
BRANCH   9  10
HETATM   10  O1  UNL     1      17.539   1.624  16.306  1.00  0.00    -0.393 OA
ATOM     11  H1  UNL     1      17.537   0.848  16.853  1.00  0.00     0.210 HD
ENDBRANCH   9  10
ENDBRANCH   1   4
TORSDOF 2
ENDMDL
MODEL 2
REMARK VINA RESULT: -5.052427846      1.658      3.508
REMARK  2 active torsions:
REMARK  status: ('A' for Active; 'I' for Inactive)
REMARK    1  A    between atoms: C4_5  and  O1_6 
REMARK    2  A    between atoms: C5_8  and  C6_9 
ROOT
HETATM    1  C6  UNL     1      16.895   3.270  15.667  1.00  0.00     0.162 C 
HETATM    2  C7  UNL     1      17.178   3.891  14.368  1.00  0.00     0.061 C 
HETATM    3  N2  UNL     1      17.403   4.377  13.338  1.00  0.00    -0.197 NA
ENDROOT
BRANCH   1   4
HETATM    4  C5  UNL     1      15.853   2.222  15.533  1.00  0.00     0.264 C 
HETATM    5  N1  UNL     1      14.587   2.447  16.050  1.00  0.00     0.092 N 
HETATM    6  C1  UNL     1      14.260   3.648  16.687  1.00  0.00     0.310 C 
HETATM    7  C2  UNL     1      14.230   1.318  16.874  1.00  0.00     0.275 C 
HETATM    8  C3  UNL     1      15.580   0.954  17.468  1.00  0.00     0.064 C 
HETATM    9  C4  UNL     1      16.408   0.949  16.191  1.00  0.00     0.154 C 
BRANCH   9  10
HETATM   10  O1  UNL     1      16.061  -0.159  15.459  1.00  0.00    -0.393 OA
ATOM     11  H1  UNL     1      15.115  -0.180  15.381  1.00  0.00     0.210 HD
ENDBRANCH   9  10
ENDBRANCH   1   4
TORSDOF 2
ENDMDL
MODEL 3
REMARK VINA RESULT: -5.033240657      1.912      3.889
REMARK  2 active torsions:
REMARK  status: ('A' for Active; 'I' for Inactive)
REMARK    1  A    between atoms: C4_5  and  O1_6 
REMARK    2  A    between atoms: C5_8  and  C6_9 
ROOT
HETATM    1  C6  UNL     1      15.845   3.287  15.483  1.00  0.00     0.162 C 
HETATM    2  C7  UNL     1      17.180   3.796  15.148  1.00  0.00     0.061 C 
HETATM    3  N2  UNL     1      18.235   4.201  14.888  1.00  0.00    -0.197 NA
ENDROOT
BRANCH   1   4
HETATM    4  C5  UNL     1      15.893   2.454  16.710  1.00  0.00     0.264 C 
HETATM    5  N1  UNL     1      16.161   1.098  16.606  1.00  0.00     0.092 N 
HETATM    6  C1  UNL     1      16.400   0.492  15.368  1.00  0.00     0.310 C 
HETATM    7  C2  UNL     1      15.144   0.381  17.336  1.00  0.00     0.275 C 
HETATM    8  C3  UNL     1      13.930   1.256  17.078  1.00  0.00     0.064 C 
HETATM    9  C4  UNL     1      14.536   2.611  17.414  1.00  0.00     0.154 C 
BRANCH   9  10
HETATM   10  O1  UNL     1      14.707   2.679  18.775  1.00  0.00    -0.393 OA
ATOM     11  H1  UNL     1      13.863   2.543  19.188  1.00  0.00     0.210 HD
ENDBRANCH   9  10
ENDBRANCH   1   4
TORSDOF 2
ENDMDL
MODEL 4
REMARK VINA RESULT: -4.977960833      2.098      3.039
REMARK  2 active torsions:
REMARK  status: ('A' for Active; 'I' for Inactive)
REMARK    1  A    between atoms: C4_5  and  O1_6 
REMARK    2  A    between atoms: C5_8  and  C6_9 
ROOT
HETATM    1  C6  UNL     1      16.280   2.083  15.165  1.00  0.00     0.162 C 
HETATM    2  C7  UNL     1      16.559   0.649  15.032  1.00  0.00     0.061 C 
HETATM    3  N2  UNL     1      16.778  -0.486  14.931  1.00  0.00    -0.197 NA
ENDROOT
BRANCH   1   4
HETATM    4  C5  UNL     1      14.904   2.306  15.675  1.00  0.00     0.264 C 
HETATM    5  N1  UNL     1      14.472   3.598  15.932  1.00  0.00     0.092 N 
HETATM    6  C1  UNL     1      15.300   4.704  15.712  1.00  0.00     0.310 C 
HETATM    7  C2  UNL     1      13.920   3.631  17.264  1.00  0.00     0.275 C 
HETATM    8  C3  UNL     1      14.826   2.642  17.978  1.00  0.00     0.064 C 
HETATM    9  C4  UNL     1      14.769   1.499  16.975  1.00  0.00     0.154 C 
BRANCH   9  10
HETATM   10  O1  UNL     1      13.525   0.921  17.053  1.00  0.00    -0.393 OA
ATOM     11  H1  UNL     1      12.876   1.585  16.851  1.00  0.00     0.210 HD
ENDBRANCH   9  10
ENDBRANCH   1   4
TORSDOF 2
ENDMDL
MODEL 5
REMARK VINA RESULT: -4.833066787      1.897      2.587
REMARK  2 active torsions:
REMARK  status: ('A' for Active; 'I' for Inactive)
REMARK    1  A    between atoms: C4_5  and  O1_6 
REMARK    2  A    between atoms: C5_8  and  C6_9 
ROOT
HETATM    1  C6  UNL     1      14.443   3.231  16.754  1.00  0.00     0.162 C 
HETATM    2  C7  UNL     1      14.055   1.823  16.894  1.00  0.00     0.061 C 
HETATM    3  N2  UNL     1      13.746   0.710  16.999  1.00  0.00    -0.197 NA
ENDROOT
BRANCH   1   4
HETATM    4  C5  UNL     1      15.008   3.490  15.406  1.00  0.00     0.264 C 
HETATM    5  N1  UNL     1      16.290   3.055  15.108  1.00  0.00     0.092 N 
HETATM    6  C1  UNL     1      17.065   2.363  16.045  1.00  0.00     0.310 C 
HETATM    7  C2  UNL     1      17.027   4.166  14.558  1.00  0.00     0.275 C 
HETATM    8  C3  UNL     1      16.446   5.322  15.356  1.00  0.00     0.064 C 
HETATM    9  C4  UNL     1      14.967   5.010  15.185  1.00  0.00     0.154 C 
BRANCH   9  10
HETATM   10  O1  UNL     1      14.614   5.295  13.889  1.00  0.00    -0.393 OA
ATOM     11  H1  UNL     1      14.746   4.513  13.366  1.00  0.00     0.210 HD
ENDBRANCH   9  10
ENDBRANCH   1   4
TORSDOF 2
ENDMDL
