MODEL 1
REMARK VINA RESULT: -5.151365154      0.000      0.000
REMARK  2 active torsions:
REMARK  status: ('A' for Active; 'I' for Inactive)
REMARK    1  A    between atoms: O1_2  and  C2_3 
REMARK    2  A    between atoms: C7_9  and  O2_10 
ROOT
HETATM    1  C2  UNL     1      16.421   2.709  15.519  1.00  0.00     0.290 C 
HETATM    2  C3  UNL     1      15.631   3.210  14.374  1.00  0.00     0.105 C 
HETATM    3  C4  UNL     1      14.489   3.256  15.401  1.00  0.00     0.282 C 
HETATM    4  N1  UNL     1      15.436   3.081  16.479  1.00  0.00     0.133 N 
HETATM    5  C5  UNL     1      15.512   1.771  17.046  1.00  0.00     0.256 C 
HETATM    6  C6  UNL     1      14.210   1.090  17.340  1.00  0.00     0.046 C 
HETATM    7  C7  UNL     1      16.202   1.251  15.816  1.00  0.00     0.217 C 
ENDROOT
BRANCH   1   8
HETATM    8  O1  UNL     1      17.700   3.086  15.690  1.00  0.00    -0.355 OA
HETATM    9  C1  UNL     1      18.113   4.223  15.055  1.00  0.00     0.205 C 
ENDBRANCH   1   8
BRANCH   7  10
HETATM   10  O2  UNL     1      17.385   0.591  16.167  1.00  0.00    -0.388 OA
ATOM     11  H2  UNL     1      17.244  -0.089  16.815  1.00  0.00     0.210 HD
ENDBRANCH   7  10
TORSDOF 2
ENDMDL
MODEL 2
REMARK VINA RESULT: -5.077270020      1.349      3.141
REMARK  2 active torsions:
REMARK  status: ('A' for Active; 'I' for Inactive)
REMARK    1  A    between atoms: O1_2  and  C2_3 
REMARK    2  A    between atoms: C7_9  and  O2_10 
ROOT
HETATM    1  C2  UNL     1      15.203   2.523  16.055  1.00  0.00     0.290 C 
HETATM    2  C3  UNL     1      14.463   3.616  16.719  1.00  0.00     0.105 C 
HETATM    3  C4  UNL     1      14.811   4.399  15.444  1.00  0.00     0.282 C 
HETATM    4  N1  UNL     1      15.208   3.174  14.787  1.00  0.00     0.133 N 
HETATM    5  C5  UNL     1      16.614   2.939  14.686  1.00  0.00     0.256 C 
HETATM    6  C6  UNL     1      17.459   4.098  14.249  1.00  0.00     0.046 C 
HETATM    7  C7  UNL     1      16.699   2.652  16.159  1.00  0.00     0.217 C 
ENDROOT
BRANCH   1   8
HETATM    8  O1  UNL     1      14.785   1.250  16.154  1.00  0.00    -0.355 OA
HETATM    9  C1  UNL     1      13.836   0.969  17.095  1.00  0.00     0.205 C 
ENDBRANCH   1   8
BRANCH   7  10
HETATM   10  O2  UNL     1      17.329   1.422  16.377  1.00  0.00    -0.388 OA
ATOM     11  H2  UNL     1      16.880   0.893  17.025  1.00  0.00     0.210 HD
ENDBRANCH   7  10
TORSDOF 2
ENDMDL
MODEL 3
REMARK VINA RESULT: -4.595189134      1.517      2.215
REMARK  2 active torsions:
REMARK  status: ('A' for Active; 'I' for Inactive)
REMARK    1  A    between atoms: O1_2  and  C2_3 
REMARK    2  A    between atoms: C7_9  and  O2_10 
ROOT
HETATM    1  C2  UNL     1      15.894   1.415  15.852  1.00  0.00     0.290 C 
HETATM    2  C3  UNL     1      15.402   2.309  14.783  1.00  0.00     0.105 C 
HETATM    3  C4  UNL     1      15.452   3.377  15.885  1.00  0.00     0.282 C 
HETATM    4  N1  UNL     1      16.230   2.492  16.723  1.00  0.00     0.133 N 
HETATM    5  C5  UNL     1      15.523   1.841  17.781  1.00  0.00     0.256 C 
HETATM    6  C6  UNL     1      14.594   2.692  18.592  1.00  0.00     0.046 C 
HETATM    7  C7  UNL     1      14.820   0.948  16.796  1.00  0.00     0.217 C 
ENDROOT
BRANCH   1   8
HETATM    8  O1  UNL     1      16.802   0.459  15.587  1.00  0.00    -0.355 OA
HETATM    9  C1  UNL     1      16.825  -0.053  14.321  1.00  0.00     0.205 C 
ENDBRANCH   1   8
BRANCH   7  10
HETATM   10  O2  UNL     1      14.974  -0.393  17.163  1.00  0.00    -0.388 OA
ATOM     11  H2  UNL     1      14.512  -0.607  17.965  1.00  0.00     0.210 HD
ENDBRANCH   7  10
TORSDOF 2
ENDMDL
MODEL 4
REMARK VINA RESULT: -4.553446259      1.123      2.859
REMARK  2 active torsions:
REMARK  status: ('A' for Active; 'I' for Inactive)
REMARK    1  A    between atoms: O1_2  and  C2_3 
REMARK    2  A    between atoms: C7_9  and  O2_10 
ROOT
HETATM    1  C2  UNL     1      16.276   2.057  16.349  1.00  0.00     0.290 C 
HETATM    2  C3  UNL     1      15.479   1.994  17.593  1.00  0.00     0.105 C 
HETATM    3  C4  UNL     1      14.365   2.576  16.709  1.00  0.00     0.282 C 
HETATM    4  N1  UNL     1      15.136   2.276  15.523  1.00  0.00     0.133 N 
HETATM    5  C5  UNL     1      15.807   3.379  14.911  1.00  0.00     0.256 C 
HETATM    6  C6  UNL     1      15.016   4.642  14.750  1.00  0.00     0.046 C 
HETATM    7  C7  UNL     1      16.804   3.430  16.035  1.00  0.00     0.217 C 
ENDROOT
BRANCH   1   8
HETATM    8  O1  UNL     1      17.150   1.083  16.042  1.00  0.00    -0.355 OA
HETATM    9  C1  UNL     1      16.708   0.069  15.241  1.00  0.00     0.205 C 
ENDBRANCH   1   8
BRANCH   7  10
HETATM   10  O2  UNL     1      18.107   3.401  15.528  1.00  0.00    -0.388 OA
ATOM     11  H2  UNL     1      18.438   4.267  15.323  1.00  0.00     0.210 HD
ENDBRANCH   7  10
TORSDOF 2
ENDMDL
MODEL 5
REMARK VINA RESULT: -4.446247600      5.091      5.724
REMARK  2 active torsions:
REMARK  status: ('A' for Active; 'I' for Inactive)
REMARK    1  A    between atoms: O1_2  and  C2_3 
REMARK    2  A    between atoms: C7_9  and  O2_10 
ROOT
HETATM    1  C2  UNL     1      17.462   2.389  10.797  1.00  0.00     0.290 C 
HETATM    2  C3  UNL     1      18.612   2.783  11.640  1.00  0.00     0.105 C 
HETATM    3  C4  UNL     1      19.023   1.313  11.469  1.00  0.00     0.282 C 
HETATM    4  N1  UNL     1      18.055   1.153  10.408  1.00  0.00     0.133 N 
HETATM    5  C5  UNL     1      16.843   0.478  10.755  1.00  0.00     0.256 C 
HETATM    6  C6  UNL     1      16.981  -0.773  11.569  1.00  0.00     0.046 C 
HETATM    7  C7  UNL     1      16.378   1.667  11.549  1.00  0.00     0.217 C 
ENDROOT
BRANCH   1   8
HETATM    8  O1  UNL     1      16.976   3.224   9.863  1.00  0.00    -0.355 OA
HETATM    9  C1  UNL     1      17.419   4.516   9.880  1.00  0.00     0.205 C 
ENDBRANCH   1   8
BRANCH   7  10
HETATM   10  O2  UNL     1      15.096   2.050  11.141  1.00  0.00    -0.388 OA
ATOM     11  H2  UNL     1      14.690   2.663  11.743  1.00  0.00     0.210 HD
ENDBRANCH   7  10
TORSDOF 2
ENDMDL
