MODEL 1
REMARK VINA RESULT: -4.508907675      0.000      0.000
REMARK  1 active torsions:
REMARK  status: ('A' for Active; 'I' for Inactive)
REMARK    1  A    between atoms: N1_2  and  N2_4 
ROOT
HETATM    1  N2  UNL     1      17.399   2.185  12.577  1.00  0.00    -0.234 NA
HETATM    2  C2  UNL     1      18.257   2.815  11.640  1.00  0.00     0.115 C 
HETATM    3  C3  UNL     1      19.041   1.921  10.761  1.00  0.00     0.046 C 
HETATM    4  C4  UNL     1      19.012   0.480  11.060  1.00  0.00     0.273 C 
HETATM    5  N3  UNL     1      17.792  -0.048  11.565  1.00  0.00     0.085 N 
HETATM    6  C5  UNL     1      17.765  -1.480  11.357  1.00  0.00     0.309 C 
HETATM    7  C6  UNL     1      16.601   0.538  11.046  1.00  0.00     0.288 C 
HETATM    8  C7  UNL     1      16.206   1.737  11.880  1.00  0.00     0.143 C 
ENDROOT
BRANCH   1   9
HETATM    9  N1  UNL     1      17.122   2.915  13.713  1.00  0.00    -0.359 N 
HETATM   10  C1  UNL     1      16.194   2.319  14.611  1.00  0.00     0.161 C 
ATOM     11  H1  UNL     1      17.554   3.820  13.897  1.00  0.00     0.173 HD
ENDBRANCH   1   9
TORSDOF 1
ENDMDL
MODEL 2
REMARK VINA RESULT: -4.491226844      1.517      2.368
REMARK  1 active torsions:
REMARK  status: ('A' for Active; 'I' for Inactive)
REMARK    1  A    between atoms: N1_2  and  N2_4 
ROOT
HETATM    1  N2  UNL     1      17.017   0.958  13.383  1.00  0.00    -0.234 NA
HETATM    2  C2  UNL     1      16.269   2.151  13.214  1.00  0.00     0.115 C 
HETATM    3  C3  UNL     1      16.838   3.160  12.295  1.00  0.00     0.046 C 
HETATM    4  C4  UNL     1      18.204   2.928  11.796  1.00  0.00     0.273 C 
HETATM    5  N3  UNL     1      18.581   1.578  11.558  1.00  0.00     0.085 N 
HETATM    6  C5  UNL     1      19.712   1.548  10.656  1.00  0.00     0.309 C 
HETATM    7  C6  UNL     1      17.551   0.723  11.070  1.00  0.00     0.288 C 
HETATM    8  C7  UNL     1      16.795   0.108  12.227  1.00  0.00     0.143 C 
ENDROOT
BRANCH   1   9
HETATM    9  N1  UNL     1      16.828   0.305  14.582  1.00  0.00    -0.359 N 
HETATM   10  C1  UNL     1      16.253   1.088  15.620  1.00  0.00     0.161 C 
ATOM     11  H1  UNL     1      17.084  -0.674  14.715  1.00  0.00     0.173 HD
ENDBRANCH   1   9
TORSDOF 1
ENDMDL
MODEL 3
REMARK VINA RESULT: -4.446044845      2.276      5.062
REMARK  1 active torsions:
REMARK  status: ('A' for Active; 'I' for Inactive)
REMARK    1  A    between atoms: N1_2  and  N2_4 
ROOT
HETATM    1  N2  UNL     1      16.408   1.583  14.480  1.00  0.00    -0.234 NA
HETATM    2  C2  UNL     1      16.712   2.958  14.643  1.00  0.00     0.115 C 
HETATM    3  C3  UNL     1      15.812   3.731  15.527  1.00  0.00     0.046 C 
HETATM    4  C4  UNL     1      14.587   3.063  15.997  1.00  0.00     0.273 C 
HETATM    5  N3  UNL     1      14.673   1.668  16.254  1.00  0.00     0.085 N 
HETATM    6  C5  UNL     1      13.590   1.273  17.129  1.00  0.00     0.309 C 
HETATM    7  C6  UNL     1      15.914   1.210  16.784  1.00  0.00     0.288 C 
HETATM    8  C7  UNL     1      16.865   0.868  15.658  1.00  0.00     0.143 C 
ENDROOT
BRANCH   1   9
HETATM    9  N1  UNL     1      16.837   1.016  13.300  1.00  0.00    -0.359 N 
HETATM   10  C1  UNL     1      16.407   1.672  12.114  1.00  0.00     0.161 C 
ATOM     11  H1  UNL     1      17.424   0.182  13.278  1.00  0.00     0.173 HD
ENDBRANCH   1   9
TORSDOF 1
ENDMDL
MODEL 4
REMARK VINA RESULT: -4.370539999      1.868      2.510
REMARK  1 active torsions:
REMARK  status: ('A' for Active; 'I' for Inactive)
REMARK    1  A    between atoms: N1_2  and  N2_4 
ROOT
HETATM    1  N2  UNL     1      19.447   3.280  12.451  1.00  0.00    -0.234 NA
HETATM    2  C2  UNL     1      20.284   2.865  11.384  1.00  0.00     0.115 C 
HETATM    3  C3  UNL     1      19.851   1.665  10.636  1.00  0.00     0.046 C 
HETATM    4  C4  UNL     1      18.712   0.904  11.176  1.00  0.00     0.273 C 
HETATM    5  N3  UNL     1      17.685   1.650  11.816  1.00  0.00     0.085 N 
HETATM    6  C5  UNL     1      16.472   0.862  11.856  1.00  0.00     0.309 C 
HETATM    7  C6  UNL     1      17.411   2.932  11.258  1.00  0.00     0.288 C 
HETATM    8  C7  UNL     1      18.302   3.977  11.893  1.00  0.00     0.143 C 
ENDROOT
BRANCH   1   9
HETATM    9  N1  UNL     1      20.073   3.983  13.457  1.00  0.00    -0.359 N 
HETATM   10  C1  UNL     1      19.253   4.913  14.154  1.00  0.00     0.161 C 
ATOM     11  H1  UNL     1      21.058   3.846  13.686  1.00  0.00     0.173 HD
ENDBRANCH   1   9
TORSDOF 1
ENDMDL
MODEL 5
REMARK VINA RESULT: -4.211440816      1.889      4.223
REMARK  1 active torsions:
REMARK  status: ('A' for Active; 'I' for Inactive)
REMARK    1  A    between atoms: N1_2  and  N2_4 
ROOT
HETATM    1  N2  UNL     1      16.828   1.857  13.741  1.00  0.00    -0.234 NA
HETATM    2  C2  UNL     1      16.055   2.337  14.829  1.00  0.00     0.115 C 
HETATM    3  C3  UNL     1      16.411   3.675  15.350  1.00  0.00     0.046 C 
HETATM    4  C4  UNL     1      17.641   4.298  14.833  1.00  0.00     0.273 C 
HETATM    5  N3  UNL     1      17.966   4.047  13.472  1.00  0.00     0.085 N 
HETATM    6  C5  UNL     1      18.880   5.066  13.001  1.00  0.00     0.309 C 
HETATM    7  C6  UNL     1      16.860   3.941  12.580  1.00  0.00     0.288 C 
HETATM    8  C7  UNL     1      16.371   2.510  12.528  1.00  0.00     0.143 C 
ENDROOT
BRANCH   1   9
HETATM    9  N1  UNL     1      16.902   0.486  13.625  1.00  0.00    -0.359 N 
HETATM   10  C1  UNL     1      16.951  -0.013  12.294  1.00  0.00     0.161 C 
ATOM     11  H1  UNL     1      16.921  -0.129  14.439  1.00  0.00     0.173 HD
ENDBRANCH   1   9
TORSDOF 1
ENDMDL
