MODEL 1
REMARK VINA RESULT: -4.951160187      0.000      0.000
REMARK  1 active torsions:
REMARK  status: ('A' for Active; 'I' for Inactive)
REMARK    1  A    between atoms: N1_4  and  C4_5 
ROOT
HETATM    1  C4  UNL     1      14.508   2.270  16.458  1.00  0.00     0.184 C 
HETATM    2  C5  UNL     1      14.780   0.921  17.014  1.00  0.00     0.105 C 
HETATM    3  N2  UNL     1      15.010  -0.127  17.453  1.00  0.00    -0.191 NA
ENDROOT
BRANCH   1   4
HETATM    4  N1  UNL     1      15.652   2.681  15.764  1.00  0.00    -0.358 N 
HETATM    5  C3  UNL     1      15.763   4.047  15.409  1.00  0.00     0.160 C 
HETATM    6  C2  UNL     1      17.164   4.249  14.820  1.00  0.00     0.200 C 
HETATM    7  C1  UNL     1      17.342   5.731  14.620  1.00  0.00     0.041 C 
HETATM    8  N3  UNL     1      17.346   3.476  13.616  1.00  0.00    -0.065 N 
HETATM    9  C7  UNL     1      16.367   2.384  13.543  1.00  0.00     0.277 C 
ATOM     10  H32 UNL     1      17.318   4.063  12.782  1.00  0.00     0.278 HD
ATOM     11  H31 UNL     1      18.302   3.131  13.530  1.00  0.00     0.278 HD
HETATM   12  C6  UNL     1      16.315   1.763  14.924  1.00  0.00     0.091 C 
ENDBRANCH   1   4
TORSDOF 1
ENDMDL
MODEL 2
REMARK VINA RESULT: -4.792402689      1.921      3.269
REMARK  1 active torsions:
REMARK  status: ('A' for Active; 'I' for Inactive)
REMARK    1  A    between atoms: N1_4  and  C4_5 
ROOT
HETATM    1  C4  UNL     1      16.616   0.426  15.635  1.00  0.00     0.184 C 
HETATM    2  C5  UNL     1      16.686   0.132  14.182  1.00  0.00     0.105 C 
HETATM    3  N2  UNL     1      16.740  -0.079  13.044  1.00  0.00    -0.191 NA
ENDROOT
BRANCH   1   4
HETATM    4  N1  UNL     1      15.663   1.435  15.819  1.00  0.00    -0.358 N 
HETATM    5  C3  UNL     1      16.052   2.774  15.573  1.00  0.00     0.160 C 
HETATM    6  C2  UNL     1      14.791   3.639  15.683  1.00  0.00     0.200 C 
HETATM    7  C1  UNL     1      15.176   5.025  15.239  1.00  0.00     0.041 C 
HETATM    8  N3  UNL     1      14.234   3.591  17.013  1.00  0.00    -0.065 N 
HETATM    9  C7  UNL     1      14.715   2.408  17.739  1.00  0.00     0.277 C 
ATOM     10  H32 UNL     1      14.417   4.450  17.530  1.00  0.00     0.278 HD
ATOM     11  H31 UNL     1      13.215   3.635  16.996  1.00  0.00     0.278 HD
HETATM   12  C6  UNL     1      14.636   1.248  16.766  1.00  0.00     0.091 C 
ENDBRANCH   1   4
TORSDOF 1
ENDMDL
MODEL 3
REMARK VINA RESULT: -4.729279103      1.686      2.045
REMARK  1 active torsions:
REMARK  status: ('A' for Active; 'I' for Inactive)
REMARK    1  A    between atoms: N1_4  and  C4_5 
ROOT
HETATM    1  C4  UNL     1      16.307   2.097  16.399  1.00  0.00     0.184 C 
HETATM    2  C5  UNL     1      16.355   0.747  15.785  1.00  0.00     0.105 C 
HETATM    3  N2  UNL     1      16.406  -0.301  15.293  1.00  0.00    -0.191 NA
ENDROOT
BRANCH   1   4
HETATM    4  N1  UNL     1      16.290   3.036  15.360  1.00  0.00    -0.358 N 
HETATM    5  C3  UNL     1      17.383   3.928  15.248  1.00  0.00     0.160 C 
HETATM    6  C2  UNL     1      17.191   4.718  13.948  1.00  0.00     0.200 C 
HETATM    7  C1  UNL     1      18.445   5.526  13.742  1.00  0.00     0.041 C 
HETATM    8  N3  UNL     1      15.989   5.514  13.988  1.00  0.00    -0.065 N 
HETATM    9  C7  UNL     1      15.063   5.011  15.011  1.00  0.00     0.277 C 
ATOM     10  H32 UNL     1      16.195   6.503  14.119  1.00  0.00     0.278 HD
ATOM     11  H31 UNL     1      15.543   5.570  13.071  1.00  0.00     0.278 HD
HETATM   12  C6  UNL     1      15.052   3.502  14.874  1.00  0.00     0.091 C 
ENDBRANCH   1   4
TORSDOF 1
ENDMDL
MODEL 4
REMARK VINA RESULT: -4.704045489      3.110      4.098
REMARK  1 active torsions:
REMARK  status: ('A' for Active; 'I' for Inactive)
REMARK    1  A    between atoms: N1_4  and  C4_5 
ROOT
HETATM    1  C4  UNL     1      16.314   1.683  13.847  1.00  0.00     0.184 C 
HETATM    2  C5  UNL     1      16.692   1.110  15.163  1.00  0.00     0.105 C 
HETATM    3  N2  UNL     1      17.005   0.663  16.185  1.00  0.00    -0.191 NA
ENDROOT
BRANCH   1   4
HETATM    4  N1  UNL     1      17.127   1.087  12.875  1.00  0.00    -0.358 N 
HETATM    5  C3  UNL     1      17.800   1.930  11.958  1.00  0.00     0.160 C 
HETATM    6  C2  UNL     1      18.736   1.042  11.129  1.00  0.00     0.200 C 
HETATM    7  C1  UNL     1      19.579   1.965  10.290  1.00  0.00     0.041 C 
HETATM    8  N3  UNL     1      17.996   0.072  10.359  1.00  0.00    -0.065 N 
HETATM    9  C7  UNL     1      16.650  -0.119  10.913  1.00  0.00     0.277 C 
ATOM     10  H32 UNL     1      17.966   0.319   9.370  1.00  0.00     0.278 HD
ATOM     11  H31 UNL     1      18.501  -0.811  10.281  1.00  0.00     0.278 HD
HETATM   12  C6  UNL     1      16.815  -0.209  12.417  1.00  0.00     0.091 C 
ENDBRANCH   1   4
TORSDOF 1
ENDMDL
MODEL 5
REMARK VINA RESULT: -4.692826800      0.770      2.184
REMARK  1 active torsions:
REMARK  status: ('A' for Active; 'I' for Inactive)
REMARK    1  A    between atoms: N1_4  and  C4_5 
ROOT
HETATM    1  C4  UNL     1      15.065   2.443  17.043  1.00  0.00     0.184 C 
HETATM    2  C5  UNL     1      15.092   0.962  17.138  1.00  0.00     0.105 C 
HETATM    3  N2  UNL     1      15.128  -0.195  17.199  1.00  0.00    -0.191 NA
ENDROOT
BRANCH   1   4
HETATM    4  N1  UNL     1      15.247   2.786  15.698  1.00  0.00    -0.358 N 
HETATM    5  C3  UNL     1      16.151   2.015  14.928  1.00  0.00     0.160 C 
HETATM    6  C2  UNL     1      16.031   2.492  13.476  1.00  0.00     0.200 C 
HETATM    7  C1  UNL     1      16.850   1.547  12.639  1.00  0.00     0.041 C 
HETATM    8  N3  UNL     1      16.423   3.874  13.342  1.00  0.00    -0.065 N 
HETATM    9  C7  UNL     1      16.371   4.560  14.640  1.00  0.00     0.277 C 
ATOM     10  H32 UNL     1      17.338   3.965  12.903  1.00  0.00     0.278 HD
ATOM     11  H31 UNL     1      15.865   4.357  12.637  1.00  0.00     0.278 HD
HETATM   12  C6  UNL     1      15.078   4.128  15.301  1.00  0.00     0.091 C 
ENDBRANCH   1   4
TORSDOF 1
ENDMDL
