MODEL 1
REMARK VINA RESULT: -4.066574459      0.000      0.000
REMARK  2 active torsions:
REMARK  status: ('A' for Active; 'I' for Inactive)
REMARK    1  A    between atoms: C3_5  and  C4_6 
REMARK    2  A    between atoms: C4_6  and  O2_7 
ROOT
HETATM    1  O1  UNL     1      16.956   3.463  10.094  1.00  0.00    -0.258 OA
HETATM    2  S1  UNL     1      17.495   3.244  11.695  1.00  0.00     0.015 S 
HETATM    3  C1  UNL     1      19.157   2.555  11.593  1.00  0.00     0.109 C 
HETATM    4  C2  UNL     1      18.818   1.201  11.056  1.00  0.00     0.020 C 
HETATM    5  C3  UNL     1      17.660   0.650  11.760  1.00  0.00     0.022 C 
HETATM    6  C5  UNL     1      16.736   1.706  12.229  1.00  0.00     0.115 C 
ENDROOT
BRANCH   5   7
HETATM    7  C4  UNL     1      16.953  -0.327  10.810  1.00  0.00     0.169 C 
BRANCH   7   8
HETATM    8  O2  UNL     1      16.399   0.318   9.731  1.00  0.00    -0.400 OA
ATOM      9  H2  UNL     1      15.519   0.009   9.546  1.00  0.00     0.209 HD
ENDBRANCH   7   8
ENDBRANCH   5   7
TORSDOF 2
ENDMDL
MODEL 2
REMARK VINA RESULT: -3.879004383      1.587      3.067
REMARK  2 active torsions:
REMARK  status: ('A' for Active; 'I' for Inactive)
REMARK    1  A    between atoms: C3_5  and  C4_6 
REMARK    2  A    between atoms: C4_6  and  O2_7 
ROOT
HETATM    1  O1  UNL     1      16.943   0.030   9.690  1.00  0.00    -0.258 OA
HETATM    2  S1  UNL     1      17.865  -0.130  11.113  1.00  0.00     0.015 S 
HETATM    3  C1  UNL     1      16.730   0.093  12.495  1.00  0.00     0.109 C 
HETATM    4  C2  UNL     1      16.435   1.549  12.325  1.00  0.00     0.020 C 
HETATM    5  C3  UNL     1      17.667   2.287  12.049  1.00  0.00     0.022 C 
HETATM    6  C5  UNL     1      18.663   1.465  11.326  1.00  0.00     0.115 C 
ENDROOT
BRANCH   5   7
HETATM    7  C4  UNL     1      17.293   3.542  11.246  1.00  0.00     0.169 C 
BRANCH   7   8
HETATM    8  O2  UNL     1      16.733   3.226  10.032  1.00  0.00    -0.400 OA
ATOM      9  H2  UNL     1      15.882   3.633   9.916  1.00  0.00     0.209 HD
ENDBRANCH   7   8
ENDBRANCH   5   7
TORSDOF 2
ENDMDL
MODEL 3
REMARK VINA RESULT: -3.847571750      4.959      5.808
REMARK  2 active torsions:
REMARK  status: ('A' for Active; 'I' for Inactive)
REMARK    1  A    between atoms: C3_5  and  C4_6 
REMARK    2  A    between atoms: C4_6  and  O2_7 
ROOT
HETATM    1  O1  UNL     1      13.915   0.331  16.740  1.00  0.00    -0.258 OA
HETATM    2  S1  UNL     1      14.874   1.534  17.473  1.00  0.00     0.015 S 
HETATM    3  C1  UNL     1      14.277   3.119  16.858  1.00  0.00     0.109 C 
HETATM    4  C2  UNL     1      14.728   3.006  15.437  1.00  0.00     0.020 C 
HETATM    5  C3  UNL     1      16.090   2.476  15.378  1.00  0.00     0.022 C 
HETATM    6  C5  UNL     1      16.387   1.568  16.508  1.00  0.00     0.115 C 
ENDROOT
BRANCH   5   7
HETATM    7  C4  UNL     1      16.258   1.761  14.030  1.00  0.00     0.169 C 
BRANCH   7   8
HETATM    8  O2  UNL     1      16.491   0.416  14.188  1.00  0.00    -0.400 OA
ATOM      9  H2  UNL     1      15.691  -0.093  14.130  1.00  0.00     0.209 HD
ENDBRANCH   7   8
ENDBRANCH   5   7
TORSDOF 2
ENDMDL
MODEL 4
REMARK VINA RESULT: -3.822780757      2.271      2.740
REMARK  2 active torsions:
REMARK  status: ('A' for Active; 'I' for Inactive)
REMARK    1  A    between atoms: C3_5  and  C4_6 
REMARK    2  A    between atoms: C4_6  and  O2_7 
ROOT
HETATM    1  O1  UNL     1      17.032   1.651  13.441  1.00  0.00    -0.258 OA
HETATM    2  S1  UNL     1      17.659   1.950  11.885  1.00  0.00     0.015 S 
HETATM    3  C1  UNL     1      16.319   1.647  10.719  1.00  0.00     0.109 C 
HETATM    4  C2  UNL     1      16.207   0.163  10.868  1.00  0.00     0.020 C 
HETATM    5  C3  UNL     1      17.536  -0.446  10.885  1.00  0.00     0.022 C 
HETATM    6  C5  UNL     1      18.559   0.457  11.457  1.00  0.00     0.115 C 
ENDROOT
BRANCH   5   7
HETATM    7  C4  UNL     1      17.442  -1.756  11.680  1.00  0.00     0.169 C 
BRANCH   7   8
HETATM    8  O2  UNL     1      18.502  -2.592  11.418  1.00  0.00    -0.400 OA
ATOM      9  H2  UNL     1      18.351  -3.470  11.748  1.00  0.00     0.209 HD
ENDBRANCH   7   8
ENDBRANCH   5   7
TORSDOF 2
ENDMDL
MODEL 5
REMARK VINA RESULT: -3.771073934      2.046      2.445
REMARK  2 active torsions:
REMARK  status: ('A' for Active; 'I' for Inactive)
REMARK    1  A    between atoms: C3_5  and  C4_6 
REMARK    2  A    between atoms: C4_6  and  O2_7 
ROOT
HETATM    1  O1  UNL     1      17.689   2.847  13.350  1.00  0.00    -0.258 OA
HETATM    2  S1  UNL     1      18.089   2.752  11.696  1.00  0.00     0.015 S 
HETATM    3  C1  UNL     1      16.534   2.714  10.787  1.00  0.00     0.109 C 
HETATM    4  C2  UNL     1      16.053   1.359  11.200  1.00  0.00     0.020 C 
HETATM    5  C3  UNL     1      17.149   0.393  11.143  1.00  0.00     0.022 C 
HETATM    6  C5  UNL     1      18.463   1.019  11.412  1.00  0.00     0.115 C 
ENDROOT
BRANCH   5   7
HETATM    7  C4  UNL     1      16.847  -0.722  12.154  1.00  0.00     0.169 C 
BRANCH   7   8
HETATM    8  O2  UNL     1      16.504  -0.218  13.386  1.00  0.00    -0.400 OA
ATOM      9  H2  UNL     1      15.570  -0.061  13.458  1.00  0.00     0.209 HD
ENDBRANCH   7   8
ENDBRANCH   5   7
TORSDOF 2
ENDMDL
