MODEL 1
REMARK VINA RESULT: -4.526772317      0.000      0.000
REMARK  2 active torsions:
REMARK  status: ('A' for Active; 'I' for Inactive)
REMARK       I    between atoms: N1_2  and  C3_4 
REMARK       I    between atoms: C3_4  and  N3_8 
REMARK    1  A    between atoms: C5_10  and  C6_11 
REMARK    2  A    between atoms: C6_11  and  O1_12 
ROOT
HETATM    1  C1  UNL     1      18.854   3.090  12.086  1.00  0.00     0.168 C 
HETATM    2  N1  UNL     1      18.169   1.849  11.802  1.00  0.00    -0.227 N 
HETATM    3  C2  UNL     1      18.899   0.835  11.076  1.00  0.00     0.168 C 
HETATM    4  C3  UNL     1      16.835   1.714  12.252  1.00  0.00     0.671 C 
HETATM    5  N2  UNL     1      15.958   1.110  11.530  1.00  0.00    -0.235 N 
ATOM      6  H21 UNL     1      14.997   1.012  11.854  1.00  0.00     0.174 HD
ATOM      7  H22 UNL     1      16.281   0.745  10.633  1.00  0.00     0.174 HD
HETATM    8  N3  UNL     1      16.384   2.225  13.509  1.00  0.00    -0.208 N 
HETATM    9  C4  UNL     1      16.176   3.291  14.465  1.00  0.00     0.170 A 
HETATM   10  C5  UNL     1      15.752   1.959  14.822  1.00  0.00     0.144 A 
ENDROOT
BRANCH  10  11
HETATM   11  C6  UNL     1      16.520   1.070  15.772  1.00  0.00     0.191 C 
BRANCH  11  12
HETATM   12  O1  UNL     1      16.130  -0.271  15.547  1.00  0.00    -0.399 OA
ATOM     13  H1  UNL     1      16.885  -0.832  15.686  1.00  0.00     0.209 HD
ENDBRANCH  11  12
ENDBRANCH  10  11
TORSDOF 2
ENDMDL
MODEL 2
REMARK VINA RESULT: -4.498467523      2.205      2.870
REMARK  2 active torsions:
REMARK  status: ('A' for Active; 'I' for Inactive)
REMARK       I    between atoms: N1_2  and  C3_4 
REMARK       I    between atoms: C3_4  and  N3_8 
REMARK    1  A    between atoms: C5_10  and  C6_11 
REMARK    2  A    between atoms: C6_11  and  O1_12 
ROOT
HETATM    1  C1  UNL     1      17.305   6.035  14.589  1.00  0.00     0.168 C 
HETATM    2  N1  UNL     1      18.092   4.918  14.113  1.00  0.00    -0.227 N 
HETATM    3  C2  UNL     1      19.523   5.101  14.021  1.00  0.00     0.168 C 
HETATM    4  C3  UNL     1      17.408   3.729  13.771  1.00  0.00     0.671 C 
HETATM    5  N2  UNL     1      17.780   3.029  12.756  1.00  0.00    -0.235 N 
ATOM      6  H21 UNL     1      17.287   2.171  12.510  1.00  0.00     0.174 HD
ATOM      7  H22 UNL     1      18.579   3.380  12.229  1.00  0.00     0.174 HD
HETATM    8  N3  UNL     1      16.288   3.236  14.510  1.00  0.00    -0.208 N 
HETATM    9  C4  UNL     1      14.961   3.363  15.072  1.00  0.00     0.170 A 
HETATM   10  C5  UNL     1      15.679   2.128  15.282  1.00  0.00     0.144 A 
ENDROOT
BRANCH  10  11
HETATM   11  C6  UNL     1      16.348   1.767  16.587  1.00  0.00     0.191 C 
BRANCH  11  12
HETATM   12  O1  UNL     1      17.134   0.609  16.385  1.00  0.00    -0.399 OA
ATOM     13  H1  UNL     1      17.468   0.320  17.226  1.00  0.00     0.209 HD
ENDBRANCH  11  12
ENDBRANCH  10  11
TORSDOF 2
ENDMDL
MODEL 3
REMARK VINA RESULT: -4.424342342      1.017      1.017
REMARK  2 active torsions:
REMARK  status: ('A' for Active; 'I' for Inactive)
REMARK       I    between atoms: N1_2  and  C3_4 
REMARK       I    between atoms: C3_4  and  N3_8 
REMARK    1  A    between atoms: C5_10  and  C6_11 
REMARK    2  A    between atoms: C6_11  and  O1_12 
ROOT
HETATM    1  C1  UNL     1      19.057   2.048  11.680  1.00  0.00     0.168 C 
HETATM    2  N1  UNL     1      17.882   1.244  11.430  1.00  0.00    -0.227 N 
HETATM    3  C2  UNL     1      18.052   0.036  10.653  1.00  0.00     0.168 C 
HETATM    4  C3  UNL     1      16.651   1.693  11.960  1.00  0.00     0.671 C 
HETATM    5  N2  UNL     1      15.561   1.560  11.287  1.00  0.00    -0.235 N 
ATOM      6  H21 UNL     1      14.673   1.884  11.670  1.00  0.00     0.174 HD
ATOM      7  H22 UNL     1      15.643   1.120  10.371  1.00  0.00     0.174 HD
HETATM    8  N3  UNL     1      16.536   2.309  13.245  1.00  0.00    -0.208 N 
HETATM    9  C4  UNL     1      16.869   3.326  14.219  1.00  0.00     0.170 A 
HETATM   10  C5  UNL     1      15.920   2.304  14.592  1.00  0.00     0.144 A 
ENDROOT
BRANCH  10  11
HETATM   11  C6  UNL     1      16.266   1.137  15.488  1.00  0.00     0.191 C 
BRANCH  11  12
HETATM   12  O1  UNL     1      17.160   1.587  16.486  1.00  0.00    -0.399 OA
ATOM     13  H1  UNL     1      18.046   1.516  16.151  1.00  0.00     0.209 HD
ENDBRANCH  11  12
ENDBRANCH  10  11
TORSDOF 2
ENDMDL
MODEL 4
REMARK VINA RESULT: -4.356319046      2.556      4.554
REMARK  2 active torsions:
REMARK  status: ('A' for Active; 'I' for Inactive)
REMARK       I    between atoms: N1_2  and  C3_4 
REMARK       I    between atoms: C3_4  and  N3_8 
REMARK    1  A    between atoms: C5_10  and  C6_11 
REMARK    2  A    between atoms: C6_11  and  O1_12 
ROOT
HETATM    1  C1  UNL     1      14.429   3.440  16.061  1.00  0.00     0.168 C 
HETATM    2  N1  UNL     1      14.822   2.050  16.121  1.00  0.00    -0.227 N 
HETATM    3  C2  UNL     1      13.947   1.138  16.822  1.00  0.00     0.168 C 
HETATM    4  C3  UNL     1      16.034   1.681  15.492  1.00  0.00     0.671 C 
HETATM    5  N2  UNL     1      16.809   0.804  16.028  1.00  0.00    -0.235 N 
ATOM      6  H21 UNL     1      17.682   0.538  15.574  1.00  0.00     0.174 HD
ATOM      7  H22 UNL     1      16.499   0.404  16.914  1.00  0.00     0.174 HD
HETATM    8  N3  UNL     1      16.467   2.241  14.249  1.00  0.00    -0.208 N 
HETATM    9  C4  UNL     1      16.827   3.351  13.395  1.00  0.00     0.170 A 
HETATM   10  C5  UNL     1      16.883   2.017  12.846  1.00  0.00     0.144 A 
ENDROOT
BRANCH  10  11
HETATM   11  C6  UNL     1      15.835   1.459  11.912  1.00  0.00     0.191 C 
BRANCH  11  12
HETATM   12  O1  UNL     1      15.651   2.370  10.847  1.00  0.00    -0.399 OA
ATOM     13  H1  UNL     1      14.752   2.678  10.865  1.00  0.00     0.209 HD
ENDBRANCH  11  12
ENDBRANCH  10  11
TORSDOF 2
ENDMDL
MODEL 5
REMARK VINA RESULT: -4.345172452      2.435      4.091
REMARK  2 active torsions:
REMARK  status: ('A' for Active; 'I' for Inactive)
REMARK       I    between atoms: N1_2  and  C3_4 
REMARK       I    between atoms: C3_4  and  N3_8 
REMARK    1  A    between atoms: C5_10  and  C6_11 
REMARK    2  A    between atoms: C6_11  and  O1_12 
ROOT
HETATM    1  C1  UNL     1      16.836   4.149  13.521  1.00  0.00     0.168 C 
HETATM    2  N1  UNL     1      16.070   3.081  14.123  1.00  0.00    -0.227 N 
HETATM    3  C2  UNL     1      14.872   3.444  14.846  1.00  0.00     0.168 C 
HETATM    4  C3  UNL     1      16.544   1.759  13.964  1.00  0.00     0.671 C 
HETATM    5  N2  UNL     1      16.454   0.910  14.928  1.00  0.00    -0.235 N 
ATOM      6  H21 UNL     1      16.796  -0.043  14.813  1.00  0.00     0.174 HD
ATOM      7  H22 UNL     1      16.028   1.247  15.792  1.00  0.00     0.174 HD
HETATM    8  N3  UNL     1      17.140   1.287  12.753  1.00  0.00    -0.208 N 
HETATM    9  C4  UNL     1      18.130   1.343  11.699  1.00  0.00     0.170 A 
HETATM   10  C5  UNL     1      17.129   0.304  11.644  1.00  0.00     0.144 A 
ENDROOT
BRANCH  10  11
HETATM   11  C6  UNL     1      15.937   0.347  10.717  1.00  0.00     0.191 C 
BRANCH  11  12
HETATM   12  O1  UNL     1      16.398   0.211   9.387  1.00  0.00    -0.399 OA
ATOM     13  H1  UNL     1      15.743  -0.263   8.888  1.00  0.00     0.209 HD
ENDBRANCH  11  12
ENDBRANCH  10  11
TORSDOF 2
ENDMDL
