MODEL 1
REMARK VINA RESULT: -4.882577257      0.000      0.000
REMARK  3 active torsions:
REMARK  status: ('A' for Active; 'I' for Inactive)
REMARK    1  A    between atoms: C3_4  and  O1_5 
REMARK    2  A    between atoms: C5_8  and  C6_9 
REMARK    3  A    between atoms: C6_9  and  O2_10 
ROOT
HETATM    1  C1  UNL     1      15.273   4.508  14.727  1.00  0.00     0.310 C 
HETATM    2  N1  UNL     1      15.407   3.057  14.527  1.00  0.00     0.087 N 
HETATM    3  C2  UNL     1      16.215   2.499  15.579  1.00  0.00     0.303 C 
HETATM    4  C3  UNL     1      16.212   1.001  15.420  1.00  0.00     0.146 C 
HETATM    5  C4  UNL     1      16.519   0.538  14.044  1.00  0.00     0.042 C 
HETATM    6  C5  UNL     1      16.686   1.588  13.022  1.00  0.00     0.040 C 
HETATM    7  C7  UNL     1      15.903   2.829  13.216  1.00  0.00     0.278 C 
ENDROOT
BRANCH   6   8
HETATM    8  C6  UNL     1      16.297   0.991  11.664  1.00  0.00     0.170 C 
BRANCH   8   9
HETATM    9  O2  UNL     1      15.196   1.666  11.144  1.00  0.00    -0.400 OA
ATOM     10  H2  UNL     1      14.527   1.044  10.881  1.00  0.00     0.209 HD
ENDBRANCH   8   9
ENDBRANCH   6   8
BRANCH   4  11
HETATM   11  O1  UNL     1      17.066   0.470  16.394  1.00  0.00    -0.394 OA
ATOM     12  H1  UNL     1      17.914   0.885  16.289  1.00  0.00     0.210 HD
ENDBRANCH   4  11
TORSDOF 3
ENDMDL
MODEL 2
REMARK VINA RESULT: -4.702814261      3.377      4.801
REMARK  3 active torsions:
REMARK  status: ('A' for Active; 'I' for Inactive)
REMARK    1  A    between atoms: C3_4  and  O1_5 
REMARK    2  A    between atoms: C5_8  and  C6_9 
REMARK    3  A    between atoms: C6_9  and  O2_10 
ROOT
HETATM    1  C1  UNL     1      17.927  -1.796  11.344  1.00  0.00     0.310 C 
HETATM    2  N1  UNL     1      17.719  -0.393  11.730  1.00  0.00     0.087 N 
HETATM    3  C2  UNL     1      16.471   0.075  11.189  1.00  0.00     0.303 C 
HETATM    4  C3  UNL     1      16.226   1.463  11.722  1.00  0.00     0.146 C 
HETATM    5  C4  UNL     1      17.385   2.378  11.578  1.00  0.00     0.042 C 
HETATM    6  C5  UNL     1      18.622   1.788  11.033  1.00  0.00     0.040 C 
HETATM    7  C7  UNL     1      18.856   0.356  11.328  1.00  0.00     0.278 C 
ENDROOT
BRANCH   6   8
HETATM    8  C6  UNL     1      19.808   2.585  11.589  1.00  0.00     0.170 C 
BRANCH   8   9
HETATM    9  O2  UNL     1      19.405   3.337  12.689  1.00  0.00    -0.400 OA
ATOM     10  H2  UNL     1      20.013   4.052  12.836  1.00  0.00     0.209 HD
ENDBRANCH   8   9
ENDBRANCH   6   8
BRANCH   4  11
HETATM   11  O1  UNL     1      15.054   1.944  11.127  1.00  0.00    -0.394 OA
ATOM     12  H1  UNL     1      15.248   2.126  10.215  1.00  0.00     0.210 HD
ENDBRANCH   4  11
TORSDOF 3
ENDMDL
MODEL 3
REMARK VINA RESULT: -4.494607552      2.914      4.063
REMARK  3 active torsions:
REMARK  status: ('A' for Active; 'I' for Inactive)
REMARK    1  A    between atoms: C3_4  and  O1_5 
REMARK    2  A    between atoms: C5_8  and  C6_9 
REMARK    3  A    between atoms: C6_9  and  O2_10 
ROOT
HETATM    1  C1  UNL     1      16.154   2.618  13.414  1.00  0.00     0.310 C 
HETATM    2  N1  UNL     1      17.203   1.762  12.841  1.00  0.00     0.087 N 
HETATM    3  C2  UNL     1      17.868   2.464  11.775  1.00  0.00     0.303 C 
HETATM    4  C3  UNL     1      19.023   1.616  11.312  1.00  0.00     0.146 C 
HETATM    5  C4  UNL     1      18.663   0.202  11.039  1.00  0.00     0.042 C 
HETATM    6  C5  UNL     1      17.275  -0.191  11.346  1.00  0.00     0.040 C 
HETATM    7  C7  UNL     1      16.616   0.526  12.460  1.00  0.00     0.278 C 
ENDROOT
BRANCH   6   8
HETATM    8  C6  UNL     1      17.273  -1.687  11.680  1.00  0.00     0.170 C 
BRANCH   8   9
HETATM    9  O2  UNL     1      18.571  -2.189  11.634  1.00  0.00    -0.400 OA
ATOM     10  H2  UNL     1      18.721  -2.627  10.804  1.00  0.00     0.209 HD
ENDBRANCH   8   9
ENDBRANCH   6   8
BRANCH   4  11
HETATM   11  O1  UNL     1      19.614   2.264  10.221  1.00  0.00    -0.394 OA
ATOM     12  H1  UNL     1      19.407   1.762   9.441  1.00  0.00     0.210 HD
ENDBRANCH   4  11
TORSDOF 3
ENDMDL
MODEL 4
REMARK VINA RESULT: -4.465306982      3.618      4.543
REMARK  3 active torsions:
REMARK  status: ('A' for Active; 'I' for Inactive)
REMARK    1  A    between atoms: C3_4  and  O1_5 
REMARK    2  A    between atoms: C5_8  and  C6_9 
REMARK    3  A    between atoms: C6_9  and  O2_10 
ROOT
HETATM    1  C1  UNL     1      19.736   2.538  11.455  1.00  0.00     0.310 C 
HETATM    2  N1  UNL     1      18.629   1.692  10.986  1.00  0.00     0.087 N 
HETATM    3  C2  UNL     1      17.380   2.233  11.453  1.00  0.00     0.303 C 
HETATM    4  C3  UNL     1      16.266   1.425  10.838  1.00  0.00     0.146 C 
HETATM    5  C4  UNL     1      16.436  -0.042  10.978  1.00  0.00     0.042 C 
HETATM    6  C5  UNL     1      17.692  -0.500  11.601  1.00  0.00     0.040 C 
HETATM    7  C7  UNL     1      18.883   0.355  11.392  1.00  0.00     0.278 C 
ENDROOT
BRANCH   6   8
HETATM    8  C6  UNL     1      18.010  -1.895  11.050  1.00  0.00     0.170 C 
BRANCH   8   9
HETATM    9  O2  UNL     1      17.998  -2.830  12.081  1.00  0.00    -0.400 OA
ATOM     10  H2  UNL     1      17.185  -3.320  12.067  1.00  0.00     0.209 HD
ENDBRANCH   8   9
ENDBRANCH   6   8
BRANCH   4  11
HETATM   11  O1  UNL     1      15.058   1.902  11.361  1.00  0.00    -0.394 OA
ATOM     12  H1  UNL     1      14.988   1.588  12.254  1.00  0.00     0.210 HD
ENDBRANCH   4  11
TORSDOF 3
ENDMDL
MODEL 5
REMARK VINA RESULT: -4.460988915      2.172      4.684
REMARK  3 active torsions:
REMARK  status: ('A' for Active; 'I' for Inactive)
REMARK    1  A    between atoms: C3_4  and  O1_5 
REMARK    2  A    between atoms: C5_8  and  C6_9 
REMARK    3  A    between atoms: C6_9  and  O2_10 
ROOT
HETATM    1  C1  UNL     1      17.535  -1.892  11.396  1.00  0.00     0.310 C 
HETATM    2  N1  UNL     1      16.717  -0.721  11.744  1.00  0.00     0.087 N 
HETATM    3  C2  UNL     1      16.965   0.337  10.801  1.00  0.00     0.303 C 
HETATM    4  C3  UNL     1      16.009   1.462  11.105  1.00  0.00     0.146 C 
HETATM    5  C4  UNL     1      15.976   1.856  12.536  1.00  0.00     0.042 C 
HETATM    6  C5  UNL     1      16.792   1.044  13.458  1.00  0.00     0.040 C 
HETATM    7  C7  UNL     1      16.977  -0.380  13.098  1.00  0.00     0.278 C 
ENDROOT
BRANCH   6   8
HETATM    8  C6  UNL     1      16.136   1.101  14.842  1.00  0.00     0.170 C 
BRANCH   8   9
HETATM    9  O2  UNL     1      16.124  -0.167  15.417  1.00  0.00    -0.400 OA
ATOM     10  H2  UNL     1      15.283  -0.331  15.828  1.00  0.00     0.209 HD
ENDBRANCH   8   9
ENDBRANCH   6   8
BRANCH   4  11
HETATM   11  O1  UNL     1      16.311   2.519  10.239  1.00  0.00    -0.394 OA
ATOM     12  H1  UNL     1      15.704   3.225  10.426  1.00  0.00     0.210 HD
ENDBRANCH   4  11
TORSDOF 3
ENDMDL
