MODEL 1
REMARK VINA RESULT: -4.725871110      0.000      0.000
REMARK  2 active torsions:
REMARK  status: ('A' for Active; 'I' for Inactive)
REMARK    1  A    between atoms: C5_7  and  C6_8 
REMARK    2  A    between atoms: C6_8  and  O2_9 
ROOT
HETATM    1  O1  UNL     1      15.894   1.542  13.079  1.00  0.00    -0.064 OA
HETATM    2  N1  UNL     1      16.678   0.849  12.296  1.00  0.00     0.014 N 
HETATM    3  C1  UNL     1      17.957   1.462  11.995  1.00  0.00     0.312 C 
HETATM    4  C2  UNL     1      18.470   0.605  10.829  1.00  0.00     0.044 C 
HETATM    5  C3  UNL     1      17.284  -0.256  10.463  1.00  0.00     0.030 C 
HETATM    6  C4  UNL     1      16.154   0.681  10.928  1.00  0.00     0.317 C 
HETATM    7  C5  UNL     1      17.125  -1.332  11.485  1.00  0.00     0.049 C 
HETATM    8  C7  UNL     1      16.950  -0.512  12.758  1.00  0.00     0.319 C 
ENDROOT
BRANCH   7   9
HETATM    9  C6  UNL     1      18.263  -2.292  11.569  1.00  0.00     0.171 C 
BRANCH   9  10
HETATM   10  O2  UNL     1      17.731  -3.580  11.557  1.00  0.00    -0.400 OA
ATOM     11  H2  UNL     1      18.456  -4.193  11.602  1.00  0.00     0.209 HD
ENDBRANCH   9  10
ENDBRANCH   7   9
TORSDOF 2
ENDMDL
MODEL 2
REMARK VINA RESULT: -4.355196949      2.286      3.301
REMARK  2 active torsions:
REMARK  status: ('A' for Active; 'I' for Inactive)
REMARK    1  A    between atoms: C5_7  and  C6_8 
REMARK    2  A    between atoms: C6_8  and  O2_9 
ROOT
HETATM    1  O1  UNL     1      15.079   1.904  11.682  1.00  0.00    -0.064 OA
HETATM    2  N1  UNL     1      16.245   1.368  11.435  1.00  0.00     0.014 N 
HETATM    3  C1  UNL     1      16.258   0.356  10.396  1.00  0.00     0.312 C 
HETATM    4  C2  UNL     1      17.635  -0.295  10.584  1.00  0.00     0.044 C 
HETATM    5  C3  UNL     1      18.139   0.291  11.881  1.00  0.00     0.030 C 
HETATM    6  C4  UNL     1      16.786   0.579  12.558  1.00  0.00     0.317 C 
HETATM    7  C5  UNL     1      18.581   1.697  11.644  1.00  0.00     0.049 C 
HETATM    8  C7  UNL     1      17.300   2.329  11.114  1.00  0.00     0.319 C 
ENDROOT
BRANCH   7   9
HETATM    9  C6  UNL     1      19.730   1.844  10.705  1.00  0.00     0.171 C 
BRANCH   9  10
HETATM   10  O2  UNL     1      19.474   2.950   9.895  1.00  0.00    -0.400 OA
ATOM     11  H2  UNL     1      20.103   2.938   9.182  1.00  0.00     0.209 HD
ENDBRANCH   9  10
ENDBRANCH   7   9
TORSDOF 2
ENDMDL
MODEL 3
REMARK VINA RESULT: -4.236110614      1.957      3.579
REMARK  2 active torsions:
REMARK  status: ('A' for Active; 'I' for Inactive)
REMARK    1  A    between atoms: C5_7  and  C6_8 
REMARK    2  A    between atoms: C6_8  and  O2_9 
ROOT
HETATM    1  O1  UNL     1      17.641  -1.492  11.236  1.00  0.00    -0.064 OA
HETATM    2  N1  UNL     1      17.402  -0.239  11.525  1.00  0.00     0.014 N 
HETATM    3  C1  UNL     1      16.828  -0.000  12.835  1.00  0.00     0.312 C 
HETATM    4  C2  UNL     1      16.363   1.459  12.732  1.00  0.00     0.044 C 
HETATM    5  C3  UNL     1      16.530   1.791  11.268  1.00  0.00     0.030 C 
HETATM    6  C4  UNL     1      16.362   0.377  10.680  1.00  0.00     0.317 C 
HETATM    7  C5  UNL     1      17.980   1.991  10.974  1.00  0.00     0.049 C 
HETATM    8  C7  UNL     1      18.560   0.646  11.393  1.00  0.00     0.319 C 
ENDROOT
BRANCH   7   9
HETATM    9  C6  UNL     1      18.612   3.139  11.684  1.00  0.00     0.171 C 
BRANCH   9  10
HETATM   10  O2  UNL     1      19.826   2.696  12.207  1.00  0.00    -0.400 OA
ATOM     11  H2  UNL     1      20.203   3.411  12.708  1.00  0.00     0.209 HD
ENDBRANCH   9  10
ENDBRANCH   7   9
TORSDOF 2
ENDMDL
MODEL 4
REMARK VINA RESULT: -4.134404344      1.505      2.158
REMARK  2 active torsions:
REMARK  status: ('A' for Active; 'I' for Inactive)
REMARK    1  A    between atoms: C5_7  and  C6_8 
REMARK    2  A    between atoms: C6_8  and  O2_9 
ROOT
HETATM    1  O1  UNL     1      16.181   2.942  10.261  1.00  0.00    -0.064 OA
HETATM    2  N1  UNL     1      16.558   1.967  11.046  1.00  0.00     0.014 N 
HETATM    3  C1  UNL     1      15.998   1.990  12.382  1.00  0.00     0.312 C 
HETATM    4  C2  UNL     1      16.869   0.967  13.125  1.00  0.00     0.044 C 
HETATM    5  C3  UNL     1      17.981   0.663  12.150  1.00  0.00     0.030 C 
HETATM    6  C4  UNL     1      17.996   1.995  11.377  1.00  0.00     0.317 C 
HETATM    7  C5  UNL     1      17.457  -0.224  11.070  1.00  0.00     0.049 C 
HETATM    8  C7  UNL     1      16.328   0.628  10.504  1.00  0.00     0.319 C 
ENDROOT
BRANCH   7   9
HETATM    9  C6  UNL     1      16.994  -1.566  11.529  1.00  0.00     0.171 C 
BRANCH   9  10
HETATM   10  O2  UNL     1      18.121  -2.374  11.676  1.00  0.00    -0.400 OA
ATOM     11  H2  UNL     1      18.083  -3.046  11.005  1.00  0.00     0.209 HD
ENDBRANCH   9  10
ENDBRANCH   7   9
TORSDOF 2
ENDMDL
MODEL 5
REMARK VINA RESULT: -4.092202318      5.410      6.740
REMARK  2 active torsions:
REMARK  status: ('A' for Active; 'I' for Inactive)
REMARK    1  A    between atoms: C5_7  and  C6_8 
REMARK    2  A    between atoms: C6_8  and  O2_9 
ROOT
HETATM    1  O1  UNL     1      15.135  -0.556  17.568  1.00  0.00    -0.064 OA
HETATM    2  N1  UNL     1      14.941   0.706  17.286  1.00  0.00     0.014 N 
HETATM    3  C1  UNL     1      15.145   1.629  18.385  1.00  0.00     0.312 C 
HETATM    4  C2  UNL     1      14.525   2.926  17.849  1.00  0.00     0.044 C 
HETATM    5  C3  UNL     1      13.830   2.498  16.578  1.00  0.00     0.030 C 
HETATM    6  C4  UNL     1      13.543   1.030  16.943  1.00  0.00     0.317 C 
HETATM    7  C5  UNL     1      14.851   2.274  15.513  1.00  0.00     0.049 C 
HETATM    8  C7  UNL     1      15.725   1.203  16.155  1.00  0.00     0.319 C 
ENDROOT
BRANCH   7   9
HETATM    9  C6  UNL     1      15.623   3.488  15.118  1.00  0.00     0.171 C 
BRANCH   9  10
HETATM   10  O2  UNL     1      14.773   4.305  14.372  1.00  0.00    -0.400 OA
ATOM     11  H2  UNL     1      15.313   4.929  13.901  1.00  0.00     0.209 HD
ENDBRANCH   9  10
ENDBRANCH   7   9
TORSDOF 2
ENDMDL
