MODEL 1
REMARK VINA RESULT: -5.458801577      0.000      0.000
REMARK  1 active torsions:
REMARK  status: ('A' for Active; 'I' for Inactive)
REMARK    1  A    between atoms: C4_5  and  C5_6 
ROOT
HETATM    1  C1  UNL     1      17.845   4.517  14.868  1.00  0.00     0.259 C 
HETATM    2  C2  UNL     1      17.183   4.377  13.512  1.00  0.00     0.195 C 
HETATM    3  O1  UNL     1      15.800   4.368  13.694  1.00  0.00    -0.387 OA
HETATM    4  C3  UNL     1      15.432   3.735  14.864  1.00  0.00     0.205 C 
HETATM    5  C4  UNL     1      16.428   2.673  15.289  1.00  0.00     0.264 C 
HETATM    6  N1  UNL     1      17.734   3.242  15.544  1.00  0.00    -0.062 N 
ATOM      7  H11 UNL     1      17.935   3.315  16.542  1.00  0.00     0.277 HD
ATOM      8  H12 UNL     1      18.489   2.604  15.291  1.00  0.00     0.277 HD
ENDROOT
BRANCH   5   9
HETATM    9  C5  UNL     1      15.930   2.097  16.598  1.00  0.00     0.292 C 
HETATM   10  O2  UNL     1      14.585   2.336  16.683  1.00  0.00    -0.357 OA
HETATM   11  C6  UNL     1      13.959   1.108  16.985  1.00  0.00     0.197 C 
HETATM   12  C7  UNL     1      15.140   0.369  17.627  1.00  0.00     0.197 C 
HETATM   13  O3  UNL     1      16.163   0.752  16.730  1.00  0.00    -0.357 OA
ENDBRANCH   5   9
TORSDOF 1
ENDMDL
MODEL 2
REMARK VINA RESULT: -5.376069006      1.544      4.216
REMARK  1 active torsions:
REMARK  status: ('A' for Active; 'I' for Inactive)
REMARK    1  A    between atoms: C4_5  and  C5_6 
ROOT
HETATM    1  C1  UNL     1      14.906   2.053  17.808  1.00  0.00     0.259 C 
HETATM    2  C2  UNL     1      14.291   0.739  17.374  1.00  0.00     0.195 C 
HETATM    3  O1  UNL     1      15.267  -0.011  16.717  1.00  0.00    -0.387 OA
HETATM    4  C3  UNL     1      16.128   0.783  15.985  1.00  0.00     0.205 C 
HETATM    5  C4  UNL     1      15.477   2.069  15.516  1.00  0.00     0.264 C 
HETATM    6  N1  UNL     1      15.045   2.884  16.631  1.00  0.00    -0.062 N 
ATOM      7  H11 UNL     1      15.663   3.679  16.791  1.00  0.00     0.277 HD
ATOM      8  H12 UNL     1      14.192   3.403  16.422  1.00  0.00     0.277 HD
ENDROOT
BRANCH   5   9
HETATM    9  C5  UNL     1      16.536   2.857  14.773  1.00  0.00     0.292 C 
HETATM   10  O2  UNL     1      15.918   3.881  14.110  1.00  0.00    -0.357 OA
HETATM   11  C6  UNL     1      16.603   5.069  14.442  1.00  0.00     0.197 C 
HETATM   12  C7  UNL     1      17.961   4.479  14.843  1.00  0.00     0.197 C 
HETATM   13  O3  UNL     1      17.514   3.366  15.589  1.00  0.00    -0.357 OA
ENDBRANCH   5   9
TORSDOF 1
ENDMDL
MODEL 3
REMARK VINA RESULT: -5.257949999      1.497      4.438
REMARK  1 active torsions:
REMARK  status: ('A' for Active; 'I' for Inactive)
REMARK    1  A    between atoms: C4_5  and  C5_6 
ROOT
HETATM    1  C1  UNL     1      14.846   2.174  17.920  1.00  0.00     0.259 C 
HETATM    2  C2  UNL     1      14.968   0.741  17.443  1.00  0.00     0.195 C 
HETATM    3  O1  UNL     1      16.251   0.556  16.924  1.00  0.00    -0.387 OA
HETATM    4  C3  UNL     1      16.721   1.685  16.284  1.00  0.00     0.205 C 
HETATM    5  C4  UNL     1      15.605   2.538  15.713  1.00  0.00     0.264 C 
HETATM    6  N1  UNL     1      14.717   3.016  16.750  1.00  0.00    -0.062 N 
ATOM      7  H11 UNL     1      14.871   4.001  16.966  1.00  0.00     0.277 HD
ATOM      8  H12 UNL     1      13.752   3.087  16.430  1.00  0.00     0.277 HD
ENDROOT
BRANCH   5   9
HETATM    9  C5  UNL     1      16.254   3.755  15.086  1.00  0.00     0.292 C 
HETATM   10  O2  UNL     1      17.448   3.366  14.542  1.00  0.00    -0.357 OA
HETATM   11  C6  UNL     1      17.471   3.831  13.209  1.00  0.00     0.197 C 
HETATM   12  C7  UNL     1      16.464   4.983  13.321  1.00  0.00     0.197 C 
HETATM   13  O3  UNL     1      15.485   4.351  14.120  1.00  0.00    -0.357 OA
ENDBRANCH   5   9
TORSDOF 1
ENDMDL
MODEL 4
REMARK VINA RESULT: -5.238190337      2.423      4.110
REMARK  1 active torsions:
REMARK  status: ('A' for Active; 'I' for Inactive)
REMARK    1  A    between atoms: C4_5  and  C5_6 
ROOT
HETATM    1  C1  UNL     1      15.698   0.978  16.251  1.00  0.00     0.259 C 
HETATM    2  C2  UNL     1      15.532   2.291  16.988  1.00  0.00     0.195 C 
HETATM    3  O1  UNL     1      14.839   3.177  16.162  1.00  0.00    -0.387 OA
HETATM    4  C3  UNL     1      15.164   3.010  14.831  1.00  0.00     0.205 C 
HETATM    5  C4  UNL     1      16.568   2.469  14.638  1.00  0.00     0.264 C 
HETATM    6  N1  UNL     1      16.723   1.165  15.246  1.00  0.00    -0.062 N 
ATOM      7  H11 UNL     1      16.727   0.415  14.555  1.00  0.00     0.277 HD
ATOM      8  H12 UNL     1      17.661   1.023  15.620  1.00  0.00     0.277 HD
ENDROOT
BRANCH   5   9
HETATM    9  C5  UNL     1      16.773   2.292  13.148  1.00  0.00     0.292 C 
HETATM   10  O2  UNL     1      17.446   1.118  12.948  1.00  0.00    -0.357 OA
HETATM   11  C6  UNL     1      16.724   0.380  11.986  1.00  0.00     0.197 C 
HETATM   12  C7  UNL     1      15.974   1.525  11.293  1.00  0.00     0.197 C 
HETATM   13  O3  UNL     1      15.604   2.276  12.431  1.00  0.00    -0.357 OA
ENDBRANCH   5   9
TORSDOF 1
ENDMDL
MODEL 5
REMARK VINA RESULT: -5.049486773      2.274      4.223
REMARK  1 active torsions:
REMARK  status: ('A' for Active; 'I' for Inactive)
REMARK    1  A    between atoms: C4_5  and  C5_6 
ROOT
HETATM    1  C1  UNL     1      14.725   3.508  16.551  1.00  0.00     0.259 C 
HETATM    2  C2  UNL     1      14.702   2.276  17.433  1.00  0.00     0.195 C 
HETATM    3  O1  UNL     1      15.989   1.736  17.471  1.00  0.00    -0.387 OA
HETATM    4  C3  UNL     1      16.650   1.882  16.269  1.00  0.00     0.205 C 
HETATM    5  C4  UNL     1      15.703   1.934  15.085  1.00  0.00     0.264 C 
HETATM    6  N1  UNL     1      14.802   3.062  15.176  1.00  0.00    -0.062 N 
ATOM      7  H11 UNL     1      15.062   3.815  14.540  1.00  0.00     0.277 HD
ATOM      8  H12 UNL     1      13.883   2.853  14.786  1.00  0.00     0.277 HD
ENDROOT
BRANCH   5   9
HETATM    9  C5  UNL     1      16.552   2.139  13.848  1.00  0.00     0.292 C 
HETATM   10  O2  UNL     1      16.976   0.912  13.415  1.00  0.00    -0.357 OA
HETATM   11  C6  UNL     1      16.663   0.822  12.042  1.00  0.00     0.197 C 
HETATM   12  C7  UNL     1      16.594   2.315  11.695  1.00  0.00     0.197 C 
HETATM   13  O3  UNL     1      15.892   2.779  12.830  1.00  0.00    -0.357 OA
ENDBRANCH   5   9
TORSDOF 1
ENDMDL
