MODEL 1
REMARK VINA RESULT: -6.016460712      0.000      0.000
REMARK  2 active torsions:
REMARK  status: ('A' for Active; 'I' for Inactive)
REMARK    1  A    between atoms: C5_6  and  C6_7 
REMARK    2  A    between atoms: C7_9  and  O3_11 
ROOT
HETATM    1  C1  UNL     1      14.936   2.145  18.846  1.00  0.00     0.078 C 
HETATM    2  C2  UNL     1      15.068   1.749  17.387  1.00  0.00     0.157 C 
HETATM    3  C3  UNL     1      13.708   1.179  16.967  1.00  0.00     0.078 C 
HETATM    4  O1  UNL     1      16.071   0.807  17.220  1.00  0.00    -0.353 OA
HETATM    5  C4  UNL     1      16.769   1.156  16.052  1.00  0.00     0.206 C 
HETATM    6  C5  UNL     1      15.881   2.186  15.448  1.00  0.00     0.183 C 
HETATM    7  O4  UNL     1      15.385   2.844  16.584  1.00  0.00    -0.346 OA
ENDROOT
BRANCH   6   8
HETATM    8  C6  UNL     1      16.536   3.101  14.475  1.00  0.00     0.218 A 
HETATM    9  O2  UNL     1      15.905   3.287  13.204  1.00  0.00    -0.340 OA
HETATM   10  C7  UNL     1      16.086   4.418  14.110  1.00  0.00     0.187 A 
HETATM   11  C8  UNL     1      17.121   5.421  13.591  1.00  0.00     0.082 C 
BRANCH  10  12
HETATM   12  O3  UNL     1      14.877   4.970  14.431  1.00  0.00    -0.363 OA
ATOM     13  H3  UNL     1      14.610   5.865  14.258  1.00  0.00     0.213 HD
ENDBRANCH  10  12
ENDBRANCH   6   8
TORSDOF 2
ENDMDL
MODEL 2
REMARK VINA RESULT: -5.648148947      1.294      1.682
REMARK  2 active torsions:
REMARK  status: ('A' for Active; 'I' for Inactive)
REMARK    1  A    between atoms: C5_6  and  C6_7 
REMARK    2  A    between atoms: C7_9  and  O3_11 
ROOT
HETATM    1  C1  UNL     1      14.930   2.217  18.804  1.00  0.00     0.078 C 
HETATM    2  C2  UNL     1      15.065   1.802  17.351  1.00  0.00     0.157 C 
HETATM    3  C3  UNL     1      13.749   1.115  16.970  1.00  0.00     0.078 C 
HETATM    4  O1  UNL     1      16.139   0.940  17.182  1.00  0.00    -0.353 OA
HETATM    5  C4  UNL     1      16.783   1.320  15.992  1.00  0.00     0.206 C 
HETATM    6  C5  UNL     1      15.803   2.262  15.387  1.00  0.00     0.183 C 
HETATM    7  O4  UNL     1      15.277   2.901  16.520  1.00  0.00    -0.346 OA
ENDROOT
BRANCH   6   8
HETATM    8  C6  UNL     1      16.364   3.206  14.383  1.00  0.00     0.218 A 
HETATM    9  O2  UNL     1      17.785   3.255  14.234  1.00  0.00    -0.340 OA
HETATM   10  C7  UNL     1      16.940   2.853  13.113  1.00  0.00     0.187 A 
HETATM   11  C8  UNL     1      16.922   3.896  11.991  1.00  0.00     0.082 C 
BRANCH  10  12
HETATM   12  O3  UNL     1      17.263   1.589  12.703  1.00  0.00    -0.363 OA
ATOM     13  H3  UNL     1      17.831   0.983  13.162  1.00  0.00     0.213 HD
ENDBRANCH  10  12
ENDBRANCH   6   8
TORSDOF 2
ENDMDL
MODEL 3
REMARK VINA RESULT: -5.425512686      1.965      2.968
REMARK  2 active torsions:
REMARK  status: ('A' for Active; 'I' for Inactive)
REMARK    1  A    between atoms: C5_6  and  C6_7 
REMARK    2  A    between atoms: C7_9  and  O3_11 
ROOT
HETATM    1  C1  UNL     1      13.632   1.215  17.003  1.00  0.00     0.078 C 
HETATM    2  C2  UNL     1      14.780   2.045  16.460  1.00  0.00     0.157 C 
HETATM    3  C3  UNL     1      15.934   1.897  17.458  1.00  0.00     0.078 C 
HETATM    4  O1  UNL     1      14.408   3.374  16.328  1.00  0.00    -0.353 OA
HETATM    5  C4  UNL     1      14.948   3.830  15.113  1.00  0.00     0.206 C 
HETATM    6  C5  UNL     1      15.881   2.729  14.747  1.00  0.00     0.183 C 
HETATM    7  O4  UNL     1      15.188   1.598  15.203  1.00  0.00    -0.346 OA
ENDROOT
BRANCH   6   8
HETATM    8  C6  UNL     1      16.247   2.657  13.307  1.00  0.00     0.218 A 
HETATM    9  O2  UNL     1      17.602   2.334  12.979  1.00  0.00    -0.340 OA
HETATM   10  C7  UNL     1      16.512   1.459  12.556  1.00  0.00     0.187 A 
HETATM   11  C8  UNL     1      16.294   1.489  11.040  1.00  0.00     0.082 C 
BRANCH  10  12
HETATM   12  O3  UNL     1      16.677   0.206  13.077  1.00  0.00    -0.363 OA
ATOM     13  H3  UNL     1      16.448  -0.610  12.649  1.00  0.00     0.213 HD
ENDBRANCH  10  12
ENDBRANCH   6   8
TORSDOF 2
ENDMDL
MODEL 4
REMARK VINA RESULT: -5.413088777      1.761      4.891
REMARK  2 active torsions:
REMARK  status: ('A' for Active; 'I' for Inactive)
REMARK    1  A    between atoms: C5_6  and  C6_7 
REMARK    2  A    between atoms: C7_9  and  O3_11 
ROOT
HETATM    1  C1  UNL     1      19.461   5.470  14.148  1.00  0.00     0.078 C 
HETATM    2  C2  UNL     1      18.167   4.855  13.648  1.00  0.00     0.157 C 
HETATM    3  C3  UNL     1      18.285   4.773  12.122  1.00  0.00     0.078 C 
HETATM    4  O1  UNL     1      17.077   5.629  14.018  1.00  0.00    -0.353 OA
HETATM    5  C4  UNL     1      16.064   4.741  14.417  1.00  0.00     0.206 C 
HETATM    6  C5  UNL     1      16.591   3.428  13.956  1.00  0.00     0.183 C 
HETATM    7  O4  UNL     1      17.969   3.577  14.171  1.00  0.00    -0.346 OA
ENDROOT
BRANCH   6   8
HETATM    8  C6  UNL     1      16.013   2.236  14.633  1.00  0.00     0.218 A 
HETATM    9  O2  UNL     1      16.694   0.987  14.482  1.00  0.00    -0.340 OA
HETATM   10  C7  UNL     1      16.536   1.586  15.804  1.00  0.00     0.187 A 
HETATM   11  C8  UNL     1      15.567   0.797  16.690  1.00  0.00     0.082 C 
BRANCH  10  12
HETATM   12  O3  UNL     1      17.758   1.818  16.372  1.00  0.00    -0.363 OA
ATOM     13  H3  UNL     1      18.360   1.155  16.688  1.00  0.00     0.213 HD
ENDBRANCH  10  12
ENDBRANCH   6   8
TORSDOF 2
ENDMDL
MODEL 5
REMARK VINA RESULT: -5.285109201      1.342      4.616
REMARK  2 active torsions:
REMARK  status: ('A' for Active; 'I' for Inactive)
REMARK    1  A    between atoms: C5_6  and  C6_7 
REMARK    2  A    between atoms: C7_9  and  O3_11 
ROOT
HETATM    1  C1  UNL     1      18.244   4.553  13.916  1.00  0.00     0.078 C 
HETATM    2  C2  UNL     1      16.863   3.936  14.028  1.00  0.00     0.157 C 
HETATM    3  C3  UNL     1      16.778   2.857  12.943  1.00  0.00     0.078 C 
HETATM    4  O1  UNL     1      15.878   4.896  13.848  1.00  0.00    -0.353 OA
HETATM    5  C4  UNL     1      14.873   4.632  14.793  1.00  0.00     0.206 C 
HETATM    6  C5  UNL     1      15.257   3.285  15.298  1.00  0.00     0.183 C 
HETATM    7  O4  UNL     1      16.658   3.358  15.280  1.00  0.00    -0.346 OA
ENDROOT
BRANCH   6   8
HETATM    8  C6  UNL     1      14.700   2.920  16.628  1.00  0.00     0.218 A 
HETATM    9  O2  UNL     1      14.000   1.678  16.740  1.00  0.00    -0.340 OA
HETATM   10  C7  UNL     1      15.214   1.913  17.517  1.00  0.00     0.187 A 
HETATM   11  C8  UNL     1      14.929   2.053  19.016  1.00  0.00     0.082 C 
BRANCH  10  12
HETATM   12  O3  UNL     1      16.164   0.980  17.208  1.00  0.00    -0.363 OA
ATOM     13  H3  UNL     1      17.076   1.004  17.476  1.00  0.00     0.213 HD
ENDBRANCH  10  12
ENDBRANCH   6   8
TORSDOF 2
ENDMDL
