MODEL 1
REMARK VINA RESULT: -5.951415144      0.000      0.000
REMARK  3 active torsions:
REMARK  status: ('A' for Active; 'I' for Inactive)
REMARK    1  A    between atoms: O1_1  and  N1_3 
REMARK    2  A    between atoms: C2_5  and  O2_6 
REMARK    3  A    between atoms: C3_9  and  C4_10 
ROOT
HETATM    1  N1  UNL     1      16.447   1.133  12.703  1.00  0.00    -0.165 NA
HETATM    2  C1  UNL     1      16.042   1.648  11.385  1.00  0.00     0.184 C 
HETATM    3  C2  UNL     1      16.722   3.023  11.435  1.00  0.00     0.274 C 
HETATM    4  O3  UNL     1      16.381   3.410  12.746  1.00  0.00    -0.338 OA
HETATM    5  C3  UNL     1      16.685   2.306  13.524  1.00  0.00     0.228 C 
ENDROOT
BRANCH   5   6
HETATM    6  C4  UNL     1      15.790   2.244  14.732  1.00  0.00     0.031 C 
HETATM    7  C5  UNL     1      16.566   2.057  16.018  1.00  0.00     0.009 C 
HETATM    8  C6  UNL     1      15.468   2.291  17.039  1.00  0.00     0.001 C 
HETATM    9  C7  UNL     1      14.634   3.372  16.435  1.00  0.00     0.001 C 
HETATM   10  C8  UNL     1      15.092   3.552  15.003  1.00  0.00     0.009 C 
ENDBRANCH   5   6
BRANCH   1  11
HETATM   11  O1  UNL     1      17.664   0.538  12.484  1.00  0.00    -0.310 OA
ATOM     12  H1  UNL     1      18.301   1.168  12.802  1.00  0.00     0.237 HD
ENDBRANCH   1  11
BRANCH   3  13
HETATM   13  O2  UNL     1      16.239   3.878  10.481  1.00  0.00    -0.370 OA
ATOM     14  H2  UNL     1      16.878   4.533  10.226  1.00  0.00     0.212 HD
ENDBRANCH   3  13
TORSDOF 3
ENDMDL
MODEL 2
REMARK VINA RESULT: -5.941411861      2.308      2.565
REMARK  3 active torsions:
REMARK  status: ('A' for Active; 'I' for Inactive)
REMARK    1  A    between atoms: O1_1  and  N1_3 
REMARK    2  A    between atoms: C2_5  and  O2_6 
REMARK    3  A    between atoms: C3_9  and  C4_10 
ROOT
HETATM    1  N1  UNL     1      17.375   3.354  14.607  1.00  0.00    -0.165 NA
HETATM    2  C1  UNL     1      17.325   3.936  13.257  1.00  0.00     0.184 C 
HETATM    3  C2  UNL     1      16.408   5.136  13.536  1.00  0.00     0.274 C 
HETATM    4  O3  UNL     1      15.429   4.506  14.330  1.00  0.00    -0.338 OA
HETATM    5  C3  UNL     1      16.151   3.780  15.261  1.00  0.00     0.228 C 
ENDROOT
BRANCH   5   6
HETATM    6  C4  UNL     1      15.383   2.562  15.698  1.00  0.00     0.031 C 
HETATM    7  C5  UNL     1      16.232   1.598  16.498  1.00  0.00     0.009 C 
HETATM    8  C6  UNL     1      15.165   0.645  17.004  1.00  0.00     0.001 C 
HETATM    9  C7  UNL     1      13.991   1.525  17.278  1.00  0.00     0.001 C 
HETATM   10  C8  UNL     1      14.299   2.888  16.693  1.00  0.00     0.009 C 
ENDBRANCH   5   6
BRANCH   1  11
HETATM   11  O1  UNL     1      18.413   4.002  15.227  1.00  0.00    -0.310 OA
ATOM     12  H1  UNL     1      18.002   4.508  15.919  1.00  0.00     0.237 HD
ENDBRANCH   1  11
BRANCH   3  13
HETATM   13  O2  UNL     1      15.899   5.680  12.388  1.00  0.00    -0.370 OA
ATOM     14  H2  UNL     1      16.415   6.414  12.076  1.00  0.00     0.212 HD
ENDBRANCH   3  13
TORSDOF 3
ENDMDL
MODEL 3
REMARK VINA RESULT: -5.939648530      3.515      5.039
REMARK  3 active torsions:
REMARK  status: ('A' for Active; 'I' for Inactive)
REMARK    1  A    between atoms: O1_1  and  N1_3 
REMARK    2  A    between atoms: C2_5  and  O2_6 
REMARK    3  A    between atoms: C3_9  and  C4_10 
ROOT
HETATM    1  N1  UNL     1      14.515   2.780  16.950  1.00  0.00    -0.165 NA
HETATM    2  C1  UNL     1      13.978   1.414  17.053  1.00  0.00     0.184 C 
HETATM    3  C2  UNL     1      15.261   0.672  17.453  1.00  0.00     0.274 C 
HETATM    4  O3  UNL     1      16.169   1.264  16.554  1.00  0.00    -0.338 OA
HETATM    5  C3  UNL     1      15.929   2.623  16.663  1.00  0.00     0.228 C 
ENDROOT
BRANCH   5   6
HETATM    6  C4  UNL     1      16.245   3.325  15.370  1.00  0.00     0.031 C 
HETATM    7  C5  UNL     1      15.395   4.558  15.157  1.00  0.00     0.009 C 
HETATM    8  C6  UNL     1      16.094   5.173  13.960  1.00  0.00     0.001 C 
HETATM    9  C7  UNL     1      17.541   4.894  14.200  1.00  0.00     0.001 C 
HETATM   10  C8  UNL     1      17.629   3.922  15.359  1.00  0.00     0.009 C 
ENDBRANCH   5   6
BRANCH   1  11
HETATM   11  O1  UNL     1      14.413   3.290  18.219  1.00  0.00    -0.310 OA
ATOM     12  H1  UNL     1      13.519   3.608  18.280  1.00  0.00     0.237 HD
ENDBRANCH   1  11
BRANCH   3  13
HETATM   13  O2  UNL     1      15.151  -0.683  17.290  1.00  0.00    -0.370 OA
ATOM     14  H2  UNL     1      15.831  -1.035  16.727  1.00  0.00     0.212 HD
ENDBRANCH   3  13
TORSDOF 3
ENDMDL
MODEL 4
REMARK VINA RESULT: -5.831999386      3.036      4.396
REMARK  3 active torsions:
REMARK  status: ('A' for Active; 'I' for Inactive)
REMARK    1  A    between atoms: O1_1  and  N1_3 
REMARK    2  A    between atoms: C2_5  and  O2_6 
REMARK    3  A    between atoms: C3_9  and  C4_10 
ROOT
HETATM    1  N1  UNL     1      16.702   1.825  16.463  1.00  0.00    -0.165 NA
HETATM    2  C1  UNL     1      15.751   1.495  17.536  1.00  0.00     0.184 C 
HETATM    3  C2  UNL     1      14.643   0.845  16.696  1.00  0.00     0.274 C 
HETATM    4  O3  UNL     1      14.582   1.765  15.631  1.00  0.00    -0.338 OA
HETATM    5  C3  UNL     1      15.902   1.953  15.259  1.00  0.00     0.228 C 
ENDROOT
BRANCH   5   6
HETATM    6  C4  UNL     1      16.103   3.329  14.684  1.00  0.00     0.031 C 
HETATM    7  C5  UNL     1      15.071   4.319  15.180  1.00  0.00     0.009 C 
HETATM    8  C6  UNL     1      15.664   5.617  14.665  1.00  0.00     0.001 C 
HETATM    9  C7  UNL     1      17.137   5.431  14.821  1.00  0.00     0.001 C 
HETATM   10  C8  UNL     1      17.378   3.975  15.163  1.00  0.00     0.009 C 
ENDBRANCH   5   6
BRANCH   1  11
HETATM   11  O1  UNL     1      17.471   0.698  16.321  1.00  0.00    -0.310 OA
ATOM     12  H1  UNL     1      18.135   0.772  16.997  1.00  0.00     0.237 HD
ENDBRANCH   1  11
BRANCH   3  13
HETATM   13  O2  UNL     1      13.463   0.741  17.382  1.00  0.00    -0.370 OA
ATOM     14  H2  UNL     1      12.755   0.418  16.837  1.00  0.00     0.212 HD
ENDBRANCH   3  13
TORSDOF 3
ENDMDL
MODEL 5
REMARK VINA RESULT: -5.826229202      2.361      3.179
REMARK  3 active torsions:
REMARK  status: ('A' for Active; 'I' for Inactive)
REMARK    1  A    between atoms: O1_1  and  N1_3 
REMARK    2  A    between atoms: C2_5  and  O2_6 
REMARK    3  A    between atoms: C3_9  and  C4_10 
ROOT
HETATM    1  N1  UNL     1      16.322   5.038  14.274  1.00  0.00    -0.165 NA
HETATM    2  C1  UNL     1      17.672   5.574  14.512  1.00  0.00     0.184 C 
HETATM    3  C2  UNL     1      18.501   4.465  13.848  1.00  0.00     0.274 C 
HETATM    4  O3  UNL     1      17.831   3.333  14.354  1.00  0.00    -0.338 OA
HETATM    5  C3  UNL     1      16.489   3.602  14.146  1.00  0.00     0.228 C 
ENDROOT
BRANCH   5   6
HETATM    6  C4  UNL     1      15.643   2.918  15.186  1.00  0.00     0.031 C 
HETATM    7  C5  UNL     1      16.464   2.371  16.332  1.00  0.00     0.009 C 
HETATM    8  C6  UNL     1      15.363   1.995  17.306  1.00  0.00     0.001 C 
HETATM    9  C7  UNL     1      14.342   3.070  17.134  1.00  0.00     0.001 C 
HETATM   10  C8  UNL     1      14.734   3.876  15.913  1.00  0.00     0.009 C 
ENDBRANCH   5   6
BRANCH   1  11
HETATM   11  O1  UNL     1      15.971   5.517  13.037  1.00  0.00    -0.310 OA
ATOM     12  H1  UNL     1      16.738   5.988  12.734  1.00  0.00     0.237 HD
ENDBRANCH   1  11
BRANCH   3  13
HETATM   13  O2  UNL     1      19.820   4.514  14.210  1.00  0.00    -0.370 OA
ATOM     14  H2  UNL     1      19.934   4.705  15.134  1.00  0.00     0.212 HD
ENDBRANCH   3  13
TORSDOF 3
ENDMDL
