MODEL 1
REMARK VINA RESULT: -5.290653829      0.000      0.000
REMARK  2 active torsions:
REMARK  status: ('A' for Active; 'I' for Inactive)
REMARK    1  A    between atoms: C2_2  and  N1_3 
REMARK    2  A    between atoms: C5_6  and  O1_7 
ROOT
HETATM    1  N1  UNL     1      16.153   2.607  15.539  1.00  0.00    -0.390 N 
HETATM    2  C3  UNL     1      14.803   3.030  15.608  1.00  0.00     0.121 C 
HETATM    3  C4  UNL     1      13.912   2.082  16.371  1.00  0.00     0.053 C 
HETATM    4  C5  UNL     1      14.516   1.629  17.679  1.00  0.00     0.146 C 
HETATM    5  C6  UNL     1      15.129   0.269  17.595  1.00  0.00     0.241 C 
HETATM    6  O2  UNL     1      16.295   0.295  16.817  1.00  0.00    -0.237 OA
HETATM    7  O3  UNL     1      15.898   0.273  15.557  1.00  0.00    -0.221 OA
HETATM    8  C7  UNL     1      16.432   1.391  14.873  1.00  0.00     0.330 C 
ENDROOT
BRANCH   1   9
HETATM    9  C2  UNL     1      17.128   3.647  15.440  1.00  0.00     0.114 C 
HETATM   10  C1  UNL     1      16.576   4.945  14.897  1.00  0.00     0.026 C 
ENDBRANCH   1   9
BRANCH   4  11
HETATM   11  O1  UNL     1      15.529   2.561  17.985  1.00  0.00    -0.393 OA
ATOM     12  H1  UNL     1      16.352   2.131  17.782  1.00  0.00     0.210 HD
ENDBRANCH   4  11
TORSDOF 2
ENDMDL
MODEL 2
REMARK VINA RESULT: -5.266662513      1.820      2.207
REMARK  2 active torsions:
REMARK  status: ('A' for Active; 'I' for Inactive)
REMARK    1  A    between atoms: C2_2  and  N1_3 
REMARK    2  A    between atoms: C5_6  and  O1_7 
ROOT
HETATM    1  N1  UNL     1      16.923   3.382  14.403  1.00  0.00    -0.390 N 
HETATM    2  C3  UNL     1      15.976   3.536  15.444  1.00  0.00     0.121 C 
HETATM    3  C4  UNL     1      15.417   2.230  15.950  1.00  0.00     0.053 C 
HETATM    4  C5  UNL     1      16.483   1.187  16.194  1.00  0.00     0.146 C 
HETATM    5  C6  UNL     1      16.586   0.193  15.083  1.00  0.00     0.241 C 
HETATM    6  O2  UNL     1      17.124   0.787  13.932  1.00  0.00    -0.237 OA
HETATM    7  O3  UNL     1      16.130   1.438  13.354  1.00  0.00    -0.221 OA
HETATM    8  C7  UNL     1      16.485   2.797  13.192  1.00  0.00     0.330 C 
ENDROOT
BRANCH   1   9
HETATM    9  C2  UNL     1      17.925   4.398  14.316  1.00  0.00     0.114 C 
HETATM   10  C1  UNL     1      17.455   5.754  14.790  1.00  0.00     0.026 C 
ENDBRANCH   1   9
BRANCH   4  11
HETATM   11  O1  UNL     1      17.702   1.890  16.284  1.00  0.00    -0.393 OA
ATOM     12  H1  UNL     1      18.316   1.423  15.731  1.00  0.00     0.210 HD
ENDBRANCH   4  11
TORSDOF 2
ENDMDL
MODEL 3
REMARK VINA RESULT: -5.251476152      1.887      3.537
REMARK  2 active torsions:
REMARK  status: ('A' for Active; 'I' for Inactive)
REMARK    1  A    between atoms: C2_2  and  N1_3 
REMARK    2  A    between atoms: C5_6  and  O1_7 
ROOT
HETATM    1  N1  UNL     1      15.874   1.455  15.917  1.00  0.00    -0.390 N 
HETATM    2  C3  UNL     1      16.589   2.616  16.299  1.00  0.00     0.121 C 
HETATM    3  C4  UNL     1      17.230   3.338  15.141  1.00  0.00     0.053 C 
HETATM    4  C5  UNL     1      16.299   3.509  13.964  1.00  0.00     0.146 C 
HETATM    5  C6  UNL     1      16.539   2.505  12.884  1.00  0.00     0.241 C 
HETATM    6  O2  UNL     1      16.134   1.227  13.294  1.00  0.00    -0.237 OA
HETATM    7  O3  UNL     1      17.112   0.755  14.049  1.00  0.00    -0.221 OA
HETATM    8  C7  UNL     1      16.599   0.399  15.319  1.00  0.00     0.330 C 
ENDROOT
BRANCH   1   9
HETATM    9  C2  UNL     1      14.768   1.101  16.751  1.00  0.00     0.114 C 
HETATM   10  C1  UNL     1      14.728   1.859  18.058  1.00  0.00     0.026 C 
ENDBRANCH   1   9
BRANCH   4  11
HETATM   11  O1  UNL     1      14.996   3.326  14.468  1.00  0.00    -0.393 OA
ATOM     12  H1  UNL     1      14.970   2.443  14.816  1.00  0.00     0.210 HD
ENDBRANCH   4  11
TORSDOF 2
ENDMDL
MODEL 4
REMARK VINA RESULT: -4.745143785      2.401      4.181
REMARK  2 active torsions:
REMARK  status: ('A' for Active; 'I' for Inactive)
REMARK    1  A    between atoms: C2_2  and  N1_3 
REMARK    2  A    between atoms: C5_6  and  O1_7 
ROOT
HETATM    1  N1  UNL     1      15.820   2.680  15.568  1.00  0.00    -0.390 N 
HETATM    2  C3  UNL     1      16.337   2.039  14.416  1.00  0.00     0.121 C 
HETATM    3  C4  UNL     1      16.766   2.998  13.334  1.00  0.00     0.053 C 
HETATM    4  C5  UNL     1      17.590   4.150  13.859  1.00  0.00     0.146 C 
HETATM    5  C6  UNL     1      16.794   5.403  14.026  1.00  0.00     0.241 C 
HETATM    6  O2  UNL     1      15.891   5.281  15.091  1.00  0.00    -0.237 OA
HETATM    7  O3  UNL     1      14.858   4.602  14.623  1.00  0.00    -0.221 OA
HETATM    8  C7  UNL     1      14.645   3.455  15.422  1.00  0.00     0.330 C 
ENDROOT
BRANCH   1   9
HETATM    9  C2  UNL     1      15.995   1.981  16.802  1.00  0.00     0.114 C 
HETATM   10  C1  UNL     1      14.906   2.256  17.813  1.00  0.00     0.026 C 
ENDBRANCH   1   9
BRANCH   4  11
HETATM   11  O1  UNL     1      18.064   3.746  15.124  1.00  0.00    -0.393 OA
ATOM     12  H1  UNL     1      18.593   2.971  14.971  1.00  0.00     0.210 HD
ENDBRANCH   4  11
TORSDOF 2
ENDMDL
MODEL 5
REMARK VINA RESULT: -4.735101064      2.669      4.319
REMARK  2 active torsions:
REMARK  status: ('A' for Active; 'I' for Inactive)
REMARK    1  A    between atoms: C2_2  and  N1_3 
REMARK    2  A    between atoms: C5_6  and  O1_7 
ROOT
HETATM    1  N1  UNL     1      15.998   3.610  14.938  1.00  0.00    -0.390 N 
HETATM    2  C3  UNL     1      17.142   4.439  15.035  1.00  0.00     0.121 C 
HETATM    3  C4  UNL     1      18.028   4.391  13.816  1.00  0.00     0.053 C 
HETATM    4  C5  UNL     1      17.256   4.502  12.522  1.00  0.00     0.146 C 
HETATM    5  C6  UNL     1      17.041   3.179  11.861  1.00  0.00     0.241 C 
HETATM    6  O2  UNL     1      16.130   2.401  12.589  1.00  0.00    -0.237 OA
HETATM    7  O3  UNL     1      16.814   1.871  13.588  1.00  0.00    -0.221 OA
HETATM    8  C7  UNL     1      16.201   2.215  14.815  1.00  0.00     0.330 C 
ENDROOT
BRANCH   1   9
HETATM    9  C2  UNL     1      14.850   4.043  15.670  1.00  0.00     0.114 C 
HETATM   10  C1  UNL     1      14.440   3.093  16.772  1.00  0.00     0.026 C 
ENDBRANCH   1   9
BRANCH   4  11
HETATM   11  O1  UNL     1      16.001   5.045  12.862  1.00  0.00    -0.393 OA
ATOM     12  H1  UNL     1      16.062   5.977  12.690  1.00  0.00     0.210 HD
ENDBRANCH   4  11
TORSDOF 2
ENDMDL
