MODEL 1
REMARK VINA RESULT: -5.746575618      0.000      0.000
REMARK  2 active torsions:
REMARK  status: ('A' for Active; 'I' for Inactive)
REMARK    1  A    between atoms: O1_2  and  C2_3 
REMARK    2  A    between atoms: C5_7  and  C6_8 
ROOT
HETATM    1  C2  UNL     1      16.764   1.261  16.638  1.00  0.00     0.270 C 
HETATM    2  O2  UNL     1      15.770   0.676  17.440  1.00  0.00    -0.355 OA
HETATM    3  C3  UNL     1      14.970   1.779  17.145  1.00  0.00     0.133 C 
HETATM    4  C4  UNL     1      13.546   1.311  16.916  1.00  0.00     0.040 C 
HETATM    5  C5  UNL     1      15.703   2.024  15.871  1.00  0.00     0.126 C 
ENDROOT
BRANCH   5   6
HETATM    6  C6  UNL     1      16.149   3.420  15.603  1.00  0.00     0.332 C 
HETATM    7  N1  UNL     1      15.166   4.208  14.889  1.00  0.00    -0.046 N 
HETATM    8  C7  UNL     1      16.021   5.253  14.307  1.00  0.00     0.261 C 
ATOM      9  H12 UNL     1      14.588   3.693  14.225  1.00  0.00     0.280 HD
ATOM     10  H11 UNL     1      14.381   4.543  15.447  1.00  0.00     0.280 HD
HETATM   11  C8  UNL     1      17.438   4.736  14.482  1.00  0.00     0.198 C 
HETATM   12  O3  UNL     1      17.204   3.363  14.664  1.00  0.00    -0.357 OA
ENDBRANCH   5   6
BRANCH   1  13
HETATM   13  O1  UNL     1      17.461   0.333  15.895  1.00  0.00    -0.365 OA
HETATM   14  C1  UNL     1      16.728   0.010  14.776  1.00  0.00     0.204 C 
ENDBRANCH   1  13
TORSDOF 2
ENDMDL
MODEL 2
REMARK VINA RESULT: -5.595467034      1.725      3.844
REMARK  2 active torsions:
REMARK  status: ('A' for Active; 'I' for Inactive)
REMARK    1  A    between atoms: O1_2  and  C2_3 
REMARK    2  A    between atoms: C5_7  and  C6_8 
ROOT
HETATM    1  C2  UNL     1      16.300   2.168  13.652  1.00  0.00     0.270 C 
HETATM    2  O2  UNL     1      16.435   3.489  13.192  1.00  0.00    -0.355 OA
HETATM    3  C3  UNL     1      16.008   3.906  14.452  1.00  0.00     0.133 C 
HETATM    4  C4  UNL     1      16.823   5.111  14.878  1.00  0.00     0.040 C 
HETATM    5  C5  UNL     1      16.486   2.641  15.080  1.00  0.00     0.126 C 
ENDROOT
BRANCH   5   6
HETATM    6  C6  UNL     1      15.542   1.939  15.993  1.00  0.00     0.332 C 
HETATM    7  N1  UNL     1      15.146   2.740  17.133  1.00  0.00    -0.046 N 
HETATM    8  C7  UNL     1      14.720   1.691  18.072  1.00  0.00     0.261 C 
ATOM      9  H12 UNL     1      15.853   3.383  17.485  1.00  0.00     0.280 HD
ATOM     10  H11 UNL     1      14.455   3.465  16.942  1.00  0.00     0.280 HD
HETATM   11  C8  UNL     1      15.248   0.399  17.474  1.00  0.00     0.198 C 
HETATM   12  O3  UNL     1      16.249   0.887  16.618  1.00  0.00    -0.357 OA
ENDBRANCH   5   6
BRANCH   1  13
HETATM   13  O1  UNL     1      17.296   1.339  13.182  1.00  0.00    -0.365 OA
HETATM   14  C1  UNL     1      16.776   0.520  12.206  1.00  0.00     0.204 C 
ENDBRANCH   1  13
TORSDOF 2
ENDMDL
MODEL 3
REMARK VINA RESULT: -5.521024629      1.261      1.379
REMARK  2 active torsions:
REMARK  status: ('A' for Active; 'I' for Inactive)
REMARK    1  A    between atoms: O1_2  and  C2_3 
REMARK    2  A    between atoms: C5_7  and  C6_8 
ROOT
HETATM    1  C2  UNL     1      16.728   0.832  15.384  1.00  0.00     0.270 C 
HETATM    2  O2  UNL     1      16.337   0.632  16.718  1.00  0.00    -0.355 OA
HETATM    3  C3  UNL     1      16.105   2.005  16.791  1.00  0.00     0.133 C 
HETATM    4  C4  UNL     1      14.837   2.252  17.584  1.00  0.00     0.040 C 
HETATM    5  C5  UNL     1      15.885   2.090  15.320  1.00  0.00     0.126 C 
ENDROOT
BRANCH   5   6
HETATM    6  C6  UNL     1      16.604   3.169  14.588  1.00  0.00     0.332 C 
HETATM    7  N1  UNL     1      16.251   4.500  15.038  1.00  0.00    -0.046 N 
HETATM    8  C7  UNL     1      16.633   5.298  13.864  1.00  0.00     0.261 C 
ATOM      9  H12 UNL     1      15.290   4.616  15.355  1.00  0.00     0.280 HD
ATOM     10  H11 UNL     1      16.670   4.790  15.922  1.00  0.00     0.280 HD
HETATM   11  C8  UNL     1      16.840   4.281  12.755  1.00  0.00     0.198 C 
HETATM   12  O3  UNL     1      16.124   3.183  13.259  1.00  0.00    -0.357 OA
ENDBRANCH   5   6
BRANCH   1  13
HETATM   13  O1  UNL     1      16.316  -0.185  14.551  1.00  0.00    -0.365 OA
HETATM   14  C1  UNL     1      16.939  -0.049  13.332  1.00  0.00     0.204 C 
ENDBRANCH   1  13
TORSDOF 2
ENDMDL
MODEL 4
REMARK VINA RESULT: -5.434967744      2.097      3.396
REMARK  2 active torsions:
REMARK  status: ('A' for Active; 'I' for Inactive)
REMARK    1  A    between atoms: O1_2  and  C2_3 
REMARK    2  A    between atoms: C5_7  and  C6_8 
ROOT
HETATM    1  C2  UNL     1      16.763   1.056  15.989  1.00  0.00     0.270 C 
HETATM    2  O2  UNL     1      16.738   2.273  16.689  1.00  0.00    -0.355 OA
HETATM    3  C3  UNL     1      16.711   2.914  15.451  1.00  0.00     0.133 C 
HETATM    4  C4  UNL     1      15.757   4.090  15.522  1.00  0.00     0.040 C 
HETATM    5  C5  UNL     1      16.100   1.721  14.799  1.00  0.00     0.126 C 
ENDROOT
BRANCH   5   6
HETATM    6  C6  UNL     1      16.716   1.255  13.525  1.00  0.00     0.332 C 
HETATM    7  N1  UNL     1      16.033   1.746  12.346  1.00  0.00    -0.046 N 
HETATM    8  C7  UNL     1      16.460   0.754  11.348  1.00  0.00     0.261 C 
ATOM      9  H12 UNL     1      15.026   1.869  12.441  1.00  0.00     0.280 HD
ATOM     10  H11 UNL     1      16.218   2.719  12.104  1.00  0.00     0.280 HD
HETATM   11  C8  UNL     1      17.062  -0.379  12.162  1.00  0.00     0.198 C 
HETATM   12  O3  UNL     1      16.494  -0.137  13.423  1.00  0.00    -0.357 OA
ENDBRANCH   5   6
BRANCH   1  13
HETATM   13  O1  UNL     1      16.009   0.077  16.599  1.00  0.00    -0.365 OA
HETATM   14  C1  UNL     1      15.139   0.668  17.487  1.00  0.00     0.204 C 
ENDBRANCH   1  13
TORSDOF 2
ENDMDL
MODEL 5
REMARK VINA RESULT: -5.170170902      1.357      1.663
REMARK  2 active torsions:
REMARK  status: ('A' for Active; 'I' for Inactive)
REMARK    1  A    between atoms: O1_2  and  C2_3 
REMARK    2  A    between atoms: C5_7  and  C6_8 
ROOT
HETATM    1  C2  UNL     1      16.792   0.823  14.441  1.00  0.00     0.270 C 
HETATM    2  O2  UNL     1      16.292  -0.109  15.366  1.00  0.00    -0.355 OA
HETATM    3  C3  UNL     1      16.116   0.955  16.250  1.00  0.00     0.133 C 
HETATM    4  C4  UNL     1      14.803   0.775  16.987  1.00  0.00     0.040 C 
HETATM    5  C5  UNL     1      16.010   1.928  15.125  1.00  0.00     0.126 C 
ENDROOT
BRANCH   5   6
HETATM    6  C6  UNL     1      16.829   3.168  15.223  1.00  0.00     0.332 C 
HETATM    7  N1  UNL     1      16.034   4.378  15.261  1.00  0.00    -0.046 N 
HETATM    8  C7  UNL     1      17.021   5.371  14.812  1.00  0.00     0.261 C 
ATOM      9  H12 UNL     1      15.165   4.349  14.729  1.00  0.00     0.280 HD
ATOM     10  H11 UNL     1      15.583   4.579  16.154  1.00  0.00     0.280 HD
HETATM   11  C8  UNL     1      18.165   4.549  14.244  1.00  0.00     0.198 C 
HETATM   12  O3  UNL     1      17.523   3.324  14.001  1.00  0.00    -0.357 OA
ENDBRANCH   5   6
BRANCH   1  13
HETATM   13  O1  UNL     1      16.399   0.551  13.149  1.00  0.00    -0.365 OA
HETATM   14  C1  UNL     1      17.160  -0.484  12.656  1.00  0.00     0.204 C 
ENDBRANCH   1  13
TORSDOF 2
ENDMDL
