MODEL 1
REMARK VINA RESULT: -5.571142975      0.000      0.000
REMARK  1 active torsions:
REMARK  status: ('A' for Active; 'I' for Inactive)
REMARK    1  A    between atoms: C6_11  and  N3_12 
ROOT
HETATM    1  C1  UNL     1      15.782   5.128  14.215  1.00  0.00     0.043 C 
HETATM    2  C2  UNL     1      16.332   3.868  14.764  1.00  0.00     0.180 C 
HETATM    3  O1  UNL     1      15.280   3.202  15.439  1.00  0.00    -0.361 OA
HETATM    4  C3  UNL     1      15.776   2.386  16.455  1.00  0.00     0.254 C 
HETATM    5  C4  UNL     1      14.778   1.320  16.676  1.00  0.00     0.093 C 
HETATM    6  N1  UNL     1      13.987   0.499  16.857  1.00  0.00    -0.194 NA
HETATM    7  C5  UNL     1      17.093   1.784  16.000  1.00  0.00     0.281 C 
HETATM    8  N2  UNL     1      17.025   1.644  14.569  1.00  0.00    -0.037 N 
ATOM      9  H21 UNL     1      16.207   1.106  14.283  1.00  0.00     0.280 HD
ATOM     10  H22 UNL     1      17.753   1.020  14.219  1.00  0.00     0.280 HD
HETATM   11  C6  UNL     1      17.071   2.962  13.900  1.00  0.00     0.446 C 
ENDROOT
BRANCH  11  12
HETATM   12  N3  UNL     1      16.677   2.720  12.577  1.00  0.00     0.113 N 
HETATM   13  C7  UNL     1      16.719   1.257  12.379  1.00  0.00     0.312 C 
HETATM   14  C8  UNL     1      17.462   3.284  11.526  1.00  0.00     0.312 C 
ENDBRANCH  11  12
TORSDOF 1
ENDMDL
MODEL 2
REMARK VINA RESULT: -5.388268306      2.265      3.705
REMARK  1 active torsions:
REMARK  status: ('A' for Active; 'I' for Inactive)
REMARK    1  A    between atoms: C6_11  and  N3_12 
ROOT
HETATM    1  C1  UNL     1      17.785  -0.010  10.720  1.00  0.00     0.043 C 
HETATM    2  C2  UNL     1      17.425   1.106  11.624  1.00  0.00     0.180 C 
HETATM    3  O1  UNL     1      17.426   0.600  12.948  1.00  0.00    -0.361 OA
HETATM    4  C3  UNL     1      16.558   1.327  13.762  1.00  0.00     0.254 C 
HETATM    5  C4  UNL     1      17.046   1.181  15.148  1.00  0.00     0.093 C 
HETATM    6  N1  UNL     1      17.420   1.050  16.232  1.00  0.00    -0.194 NA
HETATM    7  C5  UNL     1      16.602   2.785  13.342  1.00  0.00     0.281 C 
HETATM    8  N2  UNL     1      17.923   3.043  12.834  1.00  0.00    -0.037 N 
ATOM      9  H21 UNL     1      18.642   2.789  13.511  1.00  0.00     0.280 HD
ATOM     10  H22 UNL     1      18.111   4.044  12.773  1.00  0.00     0.280 HD
HETATM   11  C6  UNL     1      18.137   2.370  11.534  1.00  0.00     0.446 C 
ENDROOT
BRANCH  11  12
HETATM   12  N3  UNL     1      19.520   2.422  11.313  1.00  0.00     0.113 N 
HETATM   13  C7  UNL     1      20.023   3.611  12.032  1.00  0.00     0.312 C 
HETATM   14  C8  UNL     1      19.983   2.548   9.968  1.00  0.00     0.312 C 
ENDBRANCH  11  12
TORSDOF 1
ENDMDL
MODEL 3
REMARK VINA RESULT: -5.230516639      2.937      4.934
REMARK  1 active torsions:
REMARK  status: ('A' for Active; 'I' for Inactive)
REMARK    1  A    between atoms: C6_11  and  N3_12 
ROOT
HETATM    1  C1  UNL     1      19.490   2.969  11.258  1.00  0.00     0.043 C 
HETATM    2  C2  UNL     1      18.333   2.059  11.095  1.00  0.00     0.180 C 
HETATM    3  O1  UNL     1      18.819   0.731  11.182  1.00  0.00    -0.361 OA
HETATM    4  C3  UNL     1      18.002  -0.147  10.470  1.00  0.00     0.254 C 
HETATM    5  C4  UNL     1      18.175  -1.482  11.078  1.00  0.00     0.093 C 
HETATM    6  N1  UNL     1      18.326  -2.527  11.544  1.00  0.00    -0.194 NA
HETATM    7  C5  UNL     1      16.561   0.308  10.605  1.00  0.00     0.281 C 
HETATM    8  N2  UNL     1      16.435   0.949  11.887  1.00  0.00    -0.037 N 
ATOM      9  H21 UNL     1      16.746   0.340  12.644  1.00  0.00     0.280 HD
ATOM     10  H22 UNL     1      15.457   1.051  12.160  1.00  0.00     0.280 HD
HETATM   11  C6  UNL     1      17.143   2.248  11.908  1.00  0.00     0.446 C 
ENDROOT
BRANCH  11  12
HETATM   12  N3  UNL     1      17.224   2.605  13.261  1.00  0.00     0.113 N 
HETATM   13  C7  UNL     1      16.621   1.498  14.031  1.00  0.00     0.312 C 
HETATM   14  C8  UNL     1      16.555   3.793  13.685  1.00  0.00     0.312 C 
ENDBRANCH  11  12
TORSDOF 1
ENDMDL
MODEL 4
REMARK VINA RESULT: -5.174311064      2.866      4.121
REMARK  1 active torsions:
REMARK  status: ('A' for Active; 'I' for Inactive)
REMARK    1  A    between atoms: C6_11  and  N3_12 
ROOT
HETATM    1  C1  UNL     1      19.965   2.432  10.823  1.00  0.00     0.043 C 
HETATM    2  C2  UNL     1      18.546   2.023  10.927  1.00  0.00     0.180 C 
HETATM    3  O1  UNL     1      18.404   1.276  12.122  1.00  0.00    -0.361 OA
HETATM    4  C3  UNL     1      17.347   0.372  12.023  1.00  0.00     0.254 C 
HETATM    5  C4  UNL     1      16.880   0.105  13.398  1.00  0.00     0.093 C 
HETATM    6  N1  UNL     1      16.528  -0.114  14.476  1.00  0.00    -0.194 NA
HETATM    7  C5  UNL     1      16.236   1.006  11.206  1.00  0.00     0.281 C 
HETATM    8  N2  UNL     1      16.299   2.426  11.431  1.00  0.00    -0.037 N 
ATOM      9  H21 UNL     1      16.258   2.650  12.425  1.00  0.00     0.280 HD
ATOM     10  H22 UNL     1      15.443   2.891  11.129  1.00  0.00     0.280 HD
HETATM   11  C6  UNL     1      17.494   3.017  10.789  1.00  0.00     0.446 C 
ENDROOT
BRANCH  11  12
HETATM   12  N3  UNL     1      17.615   4.300  11.340  1.00  0.00     0.113 N 
HETATM   13  C7  UNL     1      16.944   4.264  12.656  1.00  0.00     0.312 C 
HETATM   14  C8  UNL     1      17.037   5.396  10.630  1.00  0.00     0.312 C 
ENDBRANCH  11  12
TORSDOF 1
ENDMDL
MODEL 5
REMARK VINA RESULT: -5.116070523      2.816      4.068
REMARK  1 active torsions:
REMARK  status: ('A' for Active; 'I' for Inactive)
REMARK    1  A    between atoms: C6_11  and  N3_12 
ROOT
HETATM    1  C1  UNL     1      19.884   1.797  10.519  1.00  0.00     0.043 C 
HETATM    2  C2  UNL     1      18.507   1.982  11.032  1.00  0.00     0.180 C 
HETATM    3  O1  UNL     1      18.308   1.038  12.070  1.00  0.00    -0.361 OA
HETATM    4  C3  UNL     1      16.958   0.708  12.192  1.00  0.00     0.254 C 
HETATM    5  C4  UNL     1      16.751   0.259  13.583  1.00  0.00     0.093 C 
HETATM    6  N1  UNL     1      16.597  -0.108  14.667  1.00  0.00    -0.194 NA
HETATM    7  C5  UNL     1      16.125   1.945  11.912  1.00  0.00     0.281 C 
HETATM    8  N2  UNL     1      16.901   3.085  12.324  1.00  0.00    -0.037 N 
ATOM      9  H21 UNL     1      17.201   3.002  13.296  1.00  0.00     0.280 HD
ATOM     10  H22 UNL     1      16.323   3.921  12.409  1.00  0.00     0.280 HD
HETATM   11  C6  UNL     1      18.049   3.307  11.418  1.00  0.00     0.446 C 
ENDROOT
BRANCH  11  12
HETATM   12  N3  UNL     1      18.885   4.208  12.092  1.00  0.00     0.113 N 
HETATM   13  C7  UNL     1      18.267   4.459  13.411  1.00  0.00     0.312 C 
HETATM   14  C8  UNL     1      19.103   5.492  11.507  1.00  0.00     0.312 C 
ENDBRANCH  11  12
TORSDOF 1
ENDMDL
