MODEL 1
REMARK VINA RESULT: -5.745394425      0.000      0.000
REMARK  2 active torsions:
REMARK  status: ('A' for Active; 'I' for Inactive)
REMARK    1  A    between atoms: C2_2  and  N1_3 
REMARK    2  A    between atoms: C7_9  and  O2_10 
ROOT
HETATM    1  N1  UNL     1      14.848   3.162  16.476  1.00  0.00     0.092 N 
HETATM    2  C3  UNL     1      14.959   3.658  15.119  1.00  0.00     0.275 C 
HETATM    3  C4  UNL     1      16.156   4.520  14.903  1.00  0.00     0.062 C 
HETATM    4  C5  UNL     1      17.379   3.767  14.469  1.00  0.00     0.122 C 
HETATM    5  C6  UNL     1      18.426   4.804  14.109  1.00  0.00     0.040 C 
HETATM    6  O1  UNL     1      17.830   2.975  15.526  1.00  0.00    -0.355 OA
HETATM    7  C7  UNL     1      16.885   1.970  15.701  1.00  0.00     0.285 C 
HETATM    8  C8  UNL     1      15.975   2.339  16.848  1.00  0.00     0.332 C 
ENDROOT
BRANCH   1   9
HETATM    9  C2  UNL     1      13.640   2.322  16.471  1.00  0.00     0.268 C 
HETATM   10  C1  UNL     1      13.891   0.986  17.138  1.00  0.00     0.037 C 
ENDBRANCH   1   9
BRANCH   7  11
HETATM   11  O2  UNL     1      17.633   0.830  16.107  1.00  0.00    -0.369 OA
ATOM     12  H2  UNL     1      17.025   0.307  16.615  1.00  0.00     0.212 HD
ENDBRANCH   7  11
TORSDOF 2
ENDMDL
MODEL 2
REMARK VINA RESULT: -5.687272000      5.523      6.175
REMARK  2 active torsions:
REMARK  status: ('A' for Active; 'I' for Inactive)
REMARK    1  A    between atoms: C2_2  and  N1_3 
REMARK    2  A    between atoms: C7_9  and  O2_10 
ROOT
HETATM    1  N1  UNL     1      17.829  -0.350  10.602  1.00  0.00     0.092 N 
HETATM    2  C3  UNL     1      18.817   0.466  11.278  1.00  0.00     0.275 C 
HETATM    3  C4  UNL     1      19.249   1.650  10.481  1.00  0.00     0.062 C 
HETATM    4  C5  UNL     1      18.424   2.880  10.721  1.00  0.00     0.122 C 
HETATM    5  C6  UNL     1      19.116   4.017   9.993  1.00  0.00     0.040 C 
HETATM    6  O1  UNL     1      17.145   2.682  10.199  1.00  0.00    -0.355 OA
HETATM    7  C7  UNL     1      16.530   1.729  11.004  1.00  0.00     0.285 C 
HETATM    8  C8  UNL     1      16.614   0.381  10.327  1.00  0.00     0.332 C 
ENDROOT
BRANCH   1   9
HETATM    9  C2  UNL     1      17.518  -1.428  11.553  1.00  0.00     0.268 C 
HETATM   10  C1  UNL     1      18.291  -2.690  11.230  1.00  0.00     0.037 C 
ENDBRANCH   1   9
BRANCH   7  11
HETATM   11  O2  UNL     1      15.158   2.101  11.031  1.00  0.00    -0.369 OA
ATOM     12  H2  UNL     1      14.690   1.333  10.724  1.00  0.00     0.212 HD
ENDBRANCH   7  11
TORSDOF 2
ENDMDL
MODEL 3
REMARK VINA RESULT: -5.539523387      1.580      3.797
REMARK  2 active torsions:
REMARK  status: ('A' for Active; 'I' for Inactive)
REMARK    1  A    between atoms: C2_2  and  N1_3 
REMARK    2  A    between atoms: C7_9  and  O2_10 
ROOT
HETATM    1  N1  UNL     1      16.335   2.965  13.835  1.00  0.00     0.092 N 
HETATM    2  C3  UNL     1      15.890   3.568  15.075  1.00  0.00     0.275 C 
HETATM    3  C4  UNL     1      14.656   2.939  15.627  1.00  0.00     0.062 C 
HETATM    4  C5  UNL     1      14.919   1.795  16.560  1.00  0.00     0.122 C 
HETATM    5  C6  UNL     1      13.584   1.413  17.170  1.00  0.00     0.040 C 
HETATM    6  O1  UNL     1      15.441   0.723  15.835  1.00  0.00    -0.355 OA
HETATM    7  C7  UNL     1      16.717   1.100  15.430  1.00  0.00     0.285 C 
HETATM    8  C8  UNL     1      16.664   1.568  13.996  1.00  0.00     0.332 C 
ENDROOT
BRANCH   1   9
HETATM    9  C2  UNL     1      17.562   3.696  13.482  1.00  0.00     0.268 C 
HETATM   10  C1  UNL     1      18.071   4.517  14.647  1.00  0.00     0.037 C 
ENDBRANCH   1   9
BRANCH   7  11
HETATM   11  O2  UNL     1      17.480  -0.100  15.453  1.00  0.00    -0.369 OA
ATOM     12  H2  UNL     1      17.072  -0.661  14.804  1.00  0.00     0.212 HD
ENDBRANCH   7  11
TORSDOF 2
ENDMDL
MODEL 4
REMARK VINA RESULT: -5.465372131      1.707      1.852
REMARK  2 active torsions:
REMARK  status: ('A' for Active; 'I' for Inactive)
REMARK    1  A    between atoms: C2_2  and  N1_3 
REMARK    2  A    between atoms: C7_9  and  O2_10 
ROOT
HETATM    1  N1  UNL     1      15.801   3.056  16.043  1.00  0.00     0.092 N 
HETATM    2  C3  UNL     1      15.323   3.353  14.707  1.00  0.00     0.275 C 
HETATM    3  C4  UNL     1      16.416   3.431  13.695  1.00  0.00     0.062 C 
HETATM    4  C5  UNL     1      16.726   2.122  13.031  1.00  0.00     0.122 C 
HETATM    5  C6  UNL     1      17.703   2.423  11.910  1.00  0.00     0.040 C 
HETATM    6  O1  UNL     1      17.311   1.263  13.962  1.00  0.00    -0.355 OA
HETATM    7  C7  UNL     1      16.316   0.926  14.873  1.00  0.00     0.285 C 
HETATM    8  C8  UNL     1      16.469   1.777  16.111  1.00  0.00     0.332 C 
ENDROOT
BRANCH   1   9
HETATM    9  C2  UNL     1      14.586   2.992  16.870  1.00  0.00     0.268 C 
HETATM   10  C1  UNL     1      14.839   2.254  18.168  1.00  0.00     0.037 C 
ENDBRANCH   1   9
BRANCH   7  11
HETATM   11  O2  UNL     1      16.600  -0.416  15.247  1.00  0.00    -0.369 OA
ATOM     12  H2  UNL     1      17.475  -0.387  15.615  1.00  0.00     0.212 HD
ENDBRANCH   7  11
TORSDOF 2
ENDMDL
MODEL 5
REMARK VINA RESULT: -5.372432902      1.671      1.853
REMARK  2 active torsions:
REMARK  status: ('A' for Active; 'I' for Inactive)
REMARK    1  A    between atoms: C2_2  and  N1_3 
REMARK    2  A    between atoms: C7_9  and  O2_10 
ROOT
HETATM    1  N1  UNL     1      16.293   1.706  16.551  1.00  0.00     0.092 N 
HETATM    2  C3  UNL     1      15.618   2.809  15.898  1.00  0.00     0.275 C 
HETATM    3  C4  UNL     1      16.533   3.662  15.086  1.00  0.00     0.062 C 
HETATM    4  C5  UNL     1      16.672   3.220  13.659  1.00  0.00     0.122 C 
HETATM    5  C6  UNL     1      17.466   4.297  12.944  1.00  0.00     0.040 C 
HETATM    6  O1  UNL     1      17.362   2.007  13.620  1.00  0.00    -0.355 OA
HETATM    7  C7  UNL     1      16.514   1.050  14.166  1.00  0.00     0.285 C 
HETATM    8  C8  UNL     1      16.905   0.804  15.604  1.00  0.00     0.332 C 
ENDROOT
BRANCH   1   9
HETATM    9  C2  UNL     1      15.227   0.983  17.262  1.00  0.00     0.268 C 
HETATM   10  C1  UNL     1      13.857   1.499  16.878  1.00  0.00     0.037 C 
ENDBRANCH   1   9
BRANCH   7  11
HETATM   11  O2  UNL     1      16.795  -0.143  13.444  1.00  0.00    -0.369 OA
ATOM     12  H2  UNL     1      16.839  -0.824  14.105  1.00  0.00     0.212 HD
ENDBRANCH   7  11
TORSDOF 2
ENDMDL
