MODEL 1
REMARK VINA RESULT: -5.088408523      0.000      0.000
REMARK  2 active torsions:
REMARK  status: ('A' for Active; 'I' for Inactive)
REMARK    1  A    between atoms: C2_2  and  C3_3 
REMARK    2  A    between atoms: C3_3  and  O1_4 
ROOT
HETATM    1  C3  UNL     1      16.647   1.490  15.608  1.00  0.00     0.088 C 
HETATM    2  C4  UNL     1      16.547   1.495  14.097  1.00  0.00     0.103 C 
HETATM    3  C5  UNL     1      16.733   2.928  13.727  1.00  0.00     0.361 C 
HETATM    4  O2  UNL     1      15.563   3.662  13.679  1.00  0.00    -0.355 OA
HETATM    5  C6  UNL     1      16.060   4.977  13.688  1.00  0.00     0.201 C 
HETATM    6  C7  UNL     1      17.102   4.898  14.763  1.00  0.00     0.302 C 
HETATM    7  N1  UNL     1      17.558   3.515  14.762  1.00  0.00     0.122 N 
HETATM    8  C8  UNL     1      17.195   2.837  15.988  1.00  0.00     0.313 C 
ENDROOT
BRANCH   1   9
HETATM    9  C2  UNL     1      15.289   1.303  16.251  1.00  0.00     0.035 C 
HETATM   10  C1  UNL     1      15.119   2.410  17.268  1.00  0.00     0.008 C 
ENDBRANCH   1   9
BRANCH   1  11
HETATM   11  O1  UNL     1      17.461   0.435  15.993  1.00  0.00    -0.388 OA
ATOM     12  H1  UNL     1      18.308   0.544  15.577  1.00  0.00     0.210 HD
ENDBRANCH   1  11
TORSDOF 2
ENDMDL
MODEL 2
REMARK VINA RESULT: -5.007056858      3.405      4.838
REMARK  2 active torsions:
REMARK  status: ('A' for Active; 'I' for Inactive)
REMARK    1  A    between atoms: C2_2  and  C3_3 
REMARK    2  A    between atoms: C3_3  and  O1_4 
ROOT
HETATM    1  C3  UNL     1      17.937   0.486  10.780  1.00  0.00     0.088 C 
HETATM    2  C4  UNL     1      17.330  -0.381  11.862  1.00  0.00     0.103 C 
HETATM    3  C5  UNL     1      16.624   0.590  12.749  1.00  0.00     0.361 C 
HETATM    4  O2  UNL     1      17.402   1.098  13.772  1.00  0.00    -0.355 OA
HETATM    5  C6  UNL     1      16.638   2.206  14.177  1.00  0.00     0.201 C 
HETATM    6  C7  UNL     1      16.266   2.815  12.859  1.00  0.00     0.302 C 
HETATM    7  N1  UNL     1      16.244   1.708  11.912  1.00  0.00     0.122 N 
HETATM    8  C8  UNL     1      17.292   1.836  10.922  1.00  0.00     0.313 C 
ENDROOT
BRANCH   1   9
HETATM    9  C2  UNL     1      19.434   0.627  10.961  1.00  0.00     0.035 C 
HETATM   10  C1  UNL     1      19.753   2.106  10.926  1.00  0.00     0.008 C 
ENDBRANCH   1   9
BRANCH   1  11
HETATM   11  O1  UNL     1      17.701  -0.111   9.551  1.00  0.00    -0.388 OA
ATOM     12  H1  UNL     1      17.321  -0.968   9.703  1.00  0.00     0.210 HD
ENDBRANCH   1  11
TORSDOF 2
ENDMDL
MODEL 3
REMARK VINA RESULT: -4.928517179      1.517      3.667
REMARK  2 active torsions:
REMARK  status: ('A' for Active; 'I' for Inactive)
REMARK    1  A    between atoms: C2_2  and  C3_3 
REMARK    2  A    between atoms: C3_3  and  O1_4 
ROOT
HETATM    1  C3  UNL     1      16.423   3.424  14.325  1.00  0.00     0.088 C 
HETATM    2  C4  UNL     1      16.516   1.930  14.549  1.00  0.00     0.103 C 
HETATM    3  C5  UNL     1      15.656   1.689  15.743  1.00  0.00     0.361 C 
HETATM    4  O2  UNL     1      16.320   1.781  16.952  1.00  0.00    -0.355 OA
HETATM    5  C6  UNL     1      15.244   1.887  17.851  1.00  0.00     0.201 C 
HETATM    6  C7  UNL     1      14.367   2.885  17.156  1.00  0.00     0.302 C 
HETATM    7  N1  UNL     1      14.645   2.724  15.735  1.00  0.00     0.122 N 
HETATM    8  C8  UNL     1      15.286   3.899  15.184  1.00  0.00     0.313 C 
ENDROOT
BRANCH   1   9
HETATM    9  C2  UNL     1      17.696   4.127  14.748  1.00  0.00     0.035 C 
HETATM   10  C1  UNL     1      17.474   5.611  14.554  1.00  0.00     0.008 C 
ENDBRANCH   1   9
BRANCH   1  11
HETATM   11  O1  UNL     1      16.226   3.657  12.971  1.00  0.00    -0.388 OA
ATOM     12  H1  UNL     1      17.069   3.620  12.536  1.00  0.00     0.210 HD
ENDBRANCH   1  11
TORSDOF 2
ENDMDL
MODEL 4
REMARK VINA RESULT: -4.924729696      3.635      4.728
REMARK  2 active torsions:
REMARK  status: ('A' for Active; 'I' for Inactive)
REMARK    1  A    between atoms: C2_2  and  C3_3 
REMARK    2  A    between atoms: C3_3  and  O1_4 
ROOT
HETATM    1  C3  UNL     1      17.502   0.148  10.714  1.00  0.00     0.088 C 
HETATM    2  C4  UNL     1      16.177   0.873  10.617  1.00  0.00     0.103 C 
HETATM    3  C5  UNL     1      16.436   2.189  11.271  1.00  0.00     0.361 C 
HETATM    4  O2  UNL     1      16.199   2.206  12.633  1.00  0.00    -0.355 OA
HETATM    5  C6  UNL     1      16.861   3.386  13.014  1.00  0.00     0.201 C 
HETATM    6  C7  UNL     1      18.154   3.264  12.264  1.00  0.00     0.302 C 
HETATM    7  N1  UNL     1      17.844   2.469  11.083  1.00  0.00     0.122 N 
HETATM    8  C8  UNL     1      18.511   1.185  11.117  1.00  0.00     0.313 C 
ENDROOT
BRANCH   1   9
HETATM    9  C2  UNL     1      17.459  -0.943  11.764  1.00  0.00     0.035 C 
HETATM   10  C1  UNL     1      18.243  -2.118  11.222  1.00  0.00     0.008 C 
ENDBRANCH   1   9
BRANCH   1  11
HETATM   11  O1  UNL     1      17.775  -0.439   9.487  1.00  0.00    -0.388 OA
ATOM     12  H1  UNL     1      18.589  -0.076   9.157  1.00  0.00     0.210 HD
ENDBRANCH   1  11
TORSDOF 2
ENDMDL
MODEL 5
REMARK VINA RESULT: -4.851254666      1.951      3.549
REMARK  2 active torsions:
REMARK  status: ('A' for Active; 'I' for Inactive)
REMARK    1  A    between atoms: C2_2  and  C3_3 
REMARK    2  A    between atoms: C3_3  and  O1_4 
ROOT
HETATM    1  C3  UNL     1      16.826   2.855  14.915  1.00  0.00     0.088 C 
HETATM    2  C4  UNL     1      15.712   3.749  15.415  1.00  0.00     0.103 C 
HETATM    3  C5  UNL     1      15.024   2.925  16.450  1.00  0.00     0.361 C 
HETATM    4  O2  UNL     1      13.998   2.137  15.963  1.00  0.00    -0.355 OA
HETATM    5  C6  UNL     1      13.808   1.240  17.028  1.00  0.00     0.201 C 
HETATM    6  C7  UNL     1      15.221   0.875  17.372  1.00  0.00     0.302 C 
HETATM    7  N1  UNL     1      16.024   2.030  16.992  1.00  0.00     0.122 N 
HETATM    8  C8  UNL     1      16.913   1.719  15.894  1.00  0.00     0.313 C 
ENDROOT
BRANCH   1   9
HETATM    9  C2  UNL     1      16.518   2.305  13.538  1.00  0.00     0.035 C 
HETATM   10  C1  UNL     1      16.835   0.826  13.564  1.00  0.00     0.008 C 
ENDBRANCH   1   9
BRANCH   1  11
HETATM   11  O1  UNL     1      17.992   3.603  14.834  1.00  0.00    -0.388 OA
ATOM     12  H1  UNL     1      17.770   4.467  14.506  1.00  0.00     0.210 HD
ENDBRANCH   1  11
TORSDOF 2
ENDMDL
