MODEL 1
REMARK VINA RESULT: -5.399080139      0.000      0.000
REMARK  1 active torsions:
REMARK  status: ('A' for Active; 'I' for Inactive)
REMARK    1  A    between atoms: C2_2  and  C5_5 
ROOT
HETATM    1  C5  UNL     1      15.521   2.097  15.455  1.00  0.00     0.229 C 
HETATM    2  N1  UNL     1      16.961   2.123  15.721  1.00  0.00    -0.039 N 
ATOM      3  H11 UNL     1      17.544   1.347  15.407  1.00  0.00     0.281 HD
ATOM      4  H12 UNL     1      17.298   2.002  16.676  1.00  0.00     0.281 HD
HETATM    5  C6  UNL     1      17.084   3.409  15.081  1.00  0.00     0.354 C 
HETATM    6  O1  UNL     1      17.909   3.441  13.959  1.00  0.00    -0.332 OA
HETATM    7  C7  UNL     1      17.218   2.688  13.031  1.00  0.00     0.341 C 
HETATM    8  O2  UNL     1      15.877   2.872  13.235  1.00  0.00    -0.355 OA
HETATM    9  C8  UNL     1      15.688   3.267  14.555  1.00  0.00     0.212 C 
ENDROOT
BRANCH   1  10
HETATM   10  C2  UNL     1      14.774   2.311  16.735  1.00  0.00    -0.020 C 
HETATM   11  C1  UNL     1      14.239   3.688  16.917  1.00  0.00     0.016 C 
HETATM   12  C3  UNL     1      15.586   1.947  17.954  1.00  0.00     0.016 C 
HETATM   13  C4  UNL     1      13.579   1.353  16.716  1.00  0.00     0.016 C 
ENDBRANCH   1  10
TORSDOF 1
ENDMDL
MODEL 2
REMARK VINA RESULT: -5.352984983      1.317      2.162
REMARK  1 active torsions:
REMARK  status: ('A' for Active; 'I' for Inactive)
REMARK    1  A    between atoms: C2_2  and  C5_5 
ROOT
HETATM    1  C5  UNL     1      15.787   2.834  16.432  1.00  0.00     0.229 C 
HETATM    2  N1  UNL     1      15.155   3.128  15.144  1.00  0.00    -0.039 N 
ATOM      3  H11 UNL     1      14.990   4.098  14.875  1.00  0.00     0.281 HD
ATOM      4  H12 UNL     1      14.167   2.912  15.007  1.00  0.00     0.281 HD
HETATM    5  C6  UNL     1      16.153   2.357  14.447  1.00  0.00     0.354 C 
HETATM    6  O1  UNL     1      16.931   3.070  13.537  1.00  0.00    -0.332 OA
HETATM    7  C7  UNL     1      17.678   3.907  14.340  1.00  0.00     0.341 C 
HETATM    8  O2  UNL     1      17.941   3.259  15.517  1.00  0.00    -0.355 OA
HETATM    9  C8  UNL     1      16.962   2.288  15.706  1.00  0.00     0.212 C 
ENDROOT
BRANCH   1  10
HETATM   10  C2  UNL     1      14.936   1.867  17.195  1.00  0.00    -0.020 C 
HETATM   11  C1  UNL     1      15.467   0.476  17.240  1.00  0.00     0.016 C 
HETATM   12  C3  UNL     1      13.512   1.820  16.697  1.00  0.00     0.016 C 
HETATM   13  C4  UNL     1      14.868   2.379  18.638  1.00  0.00     0.016 C 
ENDBRANCH   1  10
TORSDOF 1
ENDMDL
MODEL 3
REMARK VINA RESULT: -5.313772204      2.285      3.888
REMARK  1 active torsions:
REMARK  status: ('A' for Active; 'I' for Inactive)
REMARK    1  A    between atoms: C2_2  and  C5_5 
ROOT
HETATM    1  C5  UNL     1      15.957   2.473  15.112  1.00  0.00     0.229 C 
HETATM    2  N1  UNL     1      14.714   2.828  15.800  1.00  0.00    -0.039 N 
ATOM      3  H11 UNL     1      13.863   2.299  15.606  1.00  0.00     0.281 HD
ATOM      4  H12 UNL     1      14.238   3.698  15.563  1.00  0.00     0.281 HD
HETATM    5  C6  UNL     1      15.355   2.696  17.084  1.00  0.00     0.354 C 
HETATM    6  O1  UNL     1      14.822   1.717  17.920  1.00  0.00    -0.332 OA
HETATM    7  C7  UNL     1      15.145   0.538  17.280  1.00  0.00     0.341 C 
HETATM    8  O2  UNL     1      16.349   0.702  16.650  1.00  0.00    -0.355 OA
HETATM    9  C8  UNL     1      16.536   2.061  16.416  1.00  0.00     0.212 C 
ENDROOT
BRANCH   1  10
HETATM   10  C2  UNL     1      16.528   3.693  14.456  1.00  0.00    -0.020 C 
HETATM   11  C1  UNL     1      17.868   4.097  14.963  1.00  0.00     0.016 C 
HETATM   12  C3  UNL     1      15.606   4.885  14.534  1.00  0.00     0.016 C 
HETATM   13  C4  UNL     1      16.680   3.365  12.967  1.00  0.00     0.016 C 
ENDBRANCH   1  10
TORSDOF 1
ENDMDL
MODEL 4
REMARK VINA RESULT: -5.307279484      0.127      1.263
REMARK  1 active torsions:
REMARK  status: ('A' for Active; 'I' for Inactive)
REMARK    1  A    between atoms: C2_2  and  C5_5 
ROOT
HETATM    1  C5  UNL     1      15.538   2.117  15.385  1.00  0.00     0.229 C 
HETATM    2  N1  UNL     1      16.976   2.071  15.654  1.00  0.00    -0.039 N 
ATOM      3  H11 UNL     1      17.535   1.309  15.269  1.00  0.00     0.281 HD
ATOM      4  H12 UNL     1      17.306   1.850  16.594  1.00  0.00     0.281 HD
HETATM    5  C6  UNL     1      17.144   3.406  15.137  1.00  0.00     0.354 C 
HETATM    6  O1  UNL     1      17.974   3.515  14.023  1.00  0.00    -0.332 OA
HETATM    7  C7  UNL     1      17.263   2.875  13.029  1.00  0.00     0.341 C 
HETATM    8  O2  UNL     1      15.928   3.083  13.247  1.00  0.00    -0.355 OA
HETATM    9  C8  UNL     1      15.746   3.360  14.599  1.00  0.00     0.212 C 
ENDROOT
BRANCH   1  10
HETATM   10  C2  UNL     1      14.793   2.235  16.679  1.00  0.00    -0.020 C 
HETATM   11  C1  UNL     1      15.622   2.003  17.894  1.00  0.00     0.016 C 
HETATM   12  C3  UNL     1      13.585   1.333  16.744  1.00  0.00     0.016 C 
HETATM   13  C4  UNL     1      14.260   3.670  16.754  1.00  0.00     0.016 C 
ENDBRANCH   1  10
TORSDOF 1
ENDMDL
MODEL 5
REMARK VINA RESULT: -5.275960305      2.176      3.742
REMARK  1 active torsions:
REMARK  status: ('A' for Active; 'I' for Inactive)
REMARK    1  A    between atoms: C2_2  and  C5_5 
ROOT
HETATM    1  C5  UNL     1      16.476   3.017  15.797  1.00  0.00     0.229 C 
HETATM    2  N1  UNL     1      17.348   1.847  15.924  1.00  0.00    -0.039 N 
ATOM      3  H11 UNL     1      17.811   1.661  16.814  1.00  0.00     0.281 HD
ATOM      4  H12 UNL     1      18.247   1.835  15.443  1.00  0.00     0.281 HD
HETATM    5  C6  UNL     1      16.290   0.976  15.477  1.00  0.00     0.354 C 
HETATM    6  O1  UNL     1      15.882   0.012  16.396  1.00  0.00    -0.332 OA
HETATM    7  C7  UNL     1      15.284   0.752  17.395  1.00  0.00     0.341 C 
HETATM    8  O2  UNL     1      14.683   1.842  16.826  1.00  0.00    -0.355 OA
HETATM    9  C8  UNL     1      15.316   2.107  15.616  1.00  0.00     0.212 C 
ENDROOT
BRANCH   1  10
HETATM   10  C2  UNL     1      16.905   3.832  14.616  1.00  0.00    -0.020 C 
HETATM   11  C1  UNL     1      16.804   3.128  13.308  1.00  0.00     0.016 C 
HETATM   12  C3  UNL     1      18.305   4.378  14.759  1.00  0.00     0.016 C 
HETATM   13  C4  UNL     1      15.975   5.049  14.555  1.00  0.00     0.016 C 
ENDBRANCH   1  10
TORSDOF 1
ENDMDL
