MODEL 1
REMARK VINA RESULT: -6.762659947      0.000      0.000
REMARK  4 active torsions:
REMARK  status: ('A' for Active; 'I' for Inactive)
REMARK    1  A    between atoms: O1_2  and  N1_3 
REMARK    2  A    between atoms: N1_3  and  C2_5 
REMARK    3  A    between atoms: C3_8  and  N3_9 
REMARK    4  A    between atoms: N3_9  and  N4_11 
ROOT
HETATM    1  C2  UNL     1      46.774   4.013  19.552  1.00  0.00     0.168 A 
HETATM    2  N2  UNL     1      46.221   2.795  19.745  1.00  0.00    -0.172 N 
ATOM      3  H2  UNL     1      45.508   2.689  20.468  1.00  0.00     0.186 HD
HETATM    4  C3  UNL     1      46.574   1.719  19.021  1.00  0.00     0.699 A 
HETATM    5  N5  UNL     1      47.511   1.834  18.064  1.00  0.00    -0.175 N 
ATOM      6  H5  UNL     1      47.787   1.023  17.510  1.00  0.00     0.185 HD
HETATM    7  C8  UNL     1      48.086   3.043  17.846  1.00  0.00     0.160 A 
HETATM    8  N6  UNL     1      49.075   3.198  16.846  1.00  0.00    -0.080 NA
HETATM    9  C9  UNL     1      47.738   4.168  18.579  1.00  0.00     0.134 A 
HETATM   10  N7  UNL     1      48.365   5.436  18.324  1.00  0.00    -0.095 NA
ENDROOT
BRANCH   4  11
HETATM   11  N3  UNL     1      46.014   0.606  19.255  1.00  0.00    -0.134 N 
ATOM     12  H3  UNL     1      45.399   0.253  18.521  1.00  0.00     0.205 HD
BRANCH  11  13
HETATM   13  N4  UNL     1      46.132  -0.178  20.369  1.00  0.00    -0.310 N 
HETATM   14  C4  UNL     1      47.355  -0.975  20.519  1.00  0.00     0.169 C 
HETATM   15  C5  UNL     1      47.304  -1.684  21.838  1.00  0.00     0.189 C 
HETATM   16  O2  UNL     1      46.980  -0.880  22.901  1.00  0.00    -0.388 OA
HETATM   17  C6  UNL     1      45.851  -0.124  22.746  1.00  0.00     0.189 C 
HETATM   18  C7  UNL     1      45.158  -0.300  21.426  1.00  0.00     0.169 C 
ENDBRANCH  11  13
ENDBRANCH   4  11
BRANCH   1  19
HETATM   19  N1  UNL     1      46.416   5.040  20.266  1.00  0.00    -0.249 N 
ATOM     20  H1  UNL     1      45.805   5.750  19.861  1.00  0.00     0.196 HD
BRANCH  19  21
HETATM   21  O1  UNL     1      46.846   5.174  21.540  1.00  0.00    -0.284 OA
HETATM   22  C1  UNL     1      46.140   4.794  22.687  1.00  0.00     0.237 C 
ENDBRANCH  19  21
ENDBRANCH   1  19
TORSDOF 4
ENDMDL
MODEL 2
REMARK VINA RESULT: -6.744790729      0.736      1.356
REMARK  4 active torsions:
REMARK  status: ('A' for Active; 'I' for Inactive)
REMARK    1  A    between atoms: O1_2  and  N1_3 
REMARK    2  A    between atoms: N1_3  and  C2_5 
REMARK    3  A    between atoms: C3_8  and  N3_9 
REMARK    4  A    between atoms: N3_9  and  N4_11 
ROOT
HETATM    1  C2  UNL     1      46.822   4.037  19.498  1.00  0.00     0.168 A 
HETATM    2  N2  UNL     1      46.340   2.800  19.751  1.00  0.00    -0.172 N 
ATOM      3  H2  UNL     1      45.668   2.681  20.509  1.00  0.00     0.186 HD
HETATM    4  C3  UNL     1      46.713   1.721  19.041  1.00  0.00     0.699 A 
HETATM    5  N5  UNL     1      47.598   1.852  18.038  1.00  0.00    -0.175 N 
ATOM      6  H5  UNL     1      47.887   1.040  17.494  1.00  0.00     0.185 HD
HETATM    7  C8  UNL     1      48.100   3.081  17.759  1.00  0.00     0.160 A 
HETATM    8  N6  UNL     1      49.033   3.253  16.709  1.00  0.00    -0.080 NA
HETATM    9  C9  UNL     1      47.731   4.209  18.476  1.00  0.00     0.134 A 
HETATM   10  N7  UNL     1      48.282   5.498  18.157  1.00  0.00    -0.095 NA
ENDROOT
BRANCH   4  11
HETATM   11  N3  UNL     1      46.220   0.590  19.332  1.00  0.00    -0.134 N 
ATOM     12  H3  UNL     1      45.397   0.310  18.797  1.00  0.00     0.205 HD
BRANCH  11  13
HETATM   13  N4  UNL     1      46.655  -0.302  20.273  1.00  0.00    -0.310 N 
HETATM   14  C4  UNL     1      45.815  -0.512  21.458  1.00  0.00     0.169 C 
HETATM   15  C5  UNL     1      46.440  -1.580  22.302  1.00  0.00     0.189 C 
HETATM   16  O2  UNL     1      46.796  -2.711  21.614  1.00  0.00    -0.388 OA
HETATM   17  C6  UNL     1      47.561  -2.507  20.499  1.00  0.00     0.189 C 
HETATM   18  C7  UNL     1      47.877  -1.067  20.214  1.00  0.00     0.169 C 
ENDBRANCH  11  13
ENDBRANCH   4  11
BRANCH   1  19
HETATM   19  N1  UNL     1      46.446   5.066  20.199  1.00  0.00    -0.249 N 
ATOM     20  H1  UNL     1      45.847   5.776  19.776  1.00  0.00     0.196 HD
BRANCH  19  21
HETATM   21  O1  UNL     1      46.843   5.203  21.484  1.00  0.00    -0.284 OA
HETATM   22  C1  UNL     1      46.121   4.796  22.612  1.00  0.00     0.237 C 
ENDBRANCH  19  21
ENDBRANCH   1  19
TORSDOF 4
ENDMDL
MODEL 3
REMARK VINA RESULT: -6.577596248      1.276      1.668
REMARK  4 active torsions:
REMARK  status: ('A' for Active; 'I' for Inactive)
REMARK    1  A    between atoms: O1_2  and  N1_3 
REMARK    2  A    between atoms: N1_3  and  C2_5 
REMARK    3  A    between atoms: C3_8  and  N3_9 
REMARK    4  A    between atoms: N3_9  and  N4_11 
ROOT
HETATM    1  C2  UNL     1      46.961   4.017  19.300  1.00  0.00     0.168 A 
HETATM    2  N2  UNL     1      46.680   2.767  19.733  1.00  0.00    -0.172 N 
ATOM      3  H2  UNL     1      46.122   2.655  20.579  1.00  0.00     0.186 HD
HETATM    4  C3  UNL     1      47.111   1.667  19.091  1.00  0.00     0.699 A 
HETATM    5  N5  UNL     1      47.849   1.788  17.975  1.00  0.00    -0.175 N 
ATOM      6  H5  UNL     1      48.181   0.960  17.481  1.00  0.00     0.185 HD
HETATM    7  C8  UNL     1      48.148   3.029  17.514  1.00  0.00     0.160 A 
HETATM    8  N6  UNL     1      48.923   3.191  16.341  1.00  0.00    -0.080 NA
HETATM    9  C9  UNL     1      47.715   4.179  18.157  1.00  0.00     0.134 A 
HETATM   10  N7  UNL     1      48.049   5.480  17.644  1.00  0.00    -0.095 NA
ENDROOT
BRANCH   4  11
HETATM   11  N3  UNL     1      46.810   0.525  19.553  1.00  0.00    -0.134 N 
ATOM     12  H3  UNL     1      47.489  -0.218  19.386  1.00  0.00     0.205 HD
BRANCH  11  13
HETATM   13  N4  UNL     1      45.688   0.168  20.248  1.00  0.00    -0.310 N 
HETATM   14  C4  UNL     1      44.437   0.010  19.496  1.00  0.00     0.169 C 
HETATM   15  C5  UNL     1      43.371  -0.462  20.436  1.00  0.00     0.189 C 
HETATM   16  O2  UNL     1      43.736  -1.528  21.219  1.00  0.00    -0.388 OA
HETATM   17  C6  UNL     1      44.913  -1.383  21.900  1.00  0.00     0.189 C 
HETATM   18  C7  UNL     1      45.612  -0.075  21.669  1.00  0.00     0.169 C 
ENDBRANCH  11  13
ENDBRANCH   4  11
BRANCH   1  19
HETATM   19  N1  UNL     1      46.533   5.066  19.938  1.00  0.00    -0.249 N 
ATOM     20  H1  UNL     1      45.926   5.734  19.464  1.00  0.00     0.196 HD
BRANCH  19  21
HETATM   21  O1  UNL     1      46.889   5.278  21.225  1.00  0.00    -0.284 OA
HETATM   22  C1  UNL     1      46.092   5.024  22.347  1.00  0.00     0.237 C 
ENDBRANCH  19  21
ENDBRANCH   1  19
TORSDOF 4
ENDMDL
MODEL 4
REMARK VINA RESULT: -6.227249282      3.427      5.031
REMARK  4 active torsions:
REMARK  status: ('A' for Active; 'I' for Inactive)
REMARK    1  A    between atoms: O1_2  and  N1_3 
REMARK    2  A    between atoms: N1_3  and  C2_5 
REMARK    3  A    between atoms: C3_8  and  N3_9 
REMARK    4  A    between atoms: N3_9  and  N4_11 
ROOT
HETATM    1  C2  UNL     1      45.333   4.519  22.336  1.00  0.00     0.168 A 
HETATM    2  N2  UNL     1      46.217   3.856  23.115  1.00  0.00    -0.172 N 
ATOM      3  H2  UNL     1      47.207   4.086  23.037  1.00  0.00     0.186 HD
HETATM    4  C3  UNL     1      45.839   2.905  23.987  1.00  0.00     0.699 A 
HETATM    5  N5  UNL     1      44.539   2.583  24.106  1.00  0.00    -0.175 N 
ATOM      6  H5  UNL     1      44.243   1.863  24.765  1.00  0.00     0.185 HD
HETATM    7  C8  UNL     1      43.627   3.231  23.339  1.00  0.00     0.160 A 
HETATM    8  N6  UNL     1      42.251   2.916  23.441  1.00  0.00    -0.080 NA
HETATM    9  C9  UNL     1      43.991   4.215  22.433  1.00  0.00     0.134 A 
HETATM   10  N7  UNL     1      43.000   4.883  21.632  1.00  0.00    -0.095 NA
ENDROOT
BRANCH   4  11
HETATM   11  N3  UNL     1      46.721   2.324  24.687  1.00  0.00    -0.134 N 
ATOM     12  H3  UNL     1      47.518   2.896  24.968  1.00  0.00     0.205 HD
BRANCH  11  13
HETATM   13  N4  UNL     1      46.737   1.024  25.113  1.00  0.00    -0.310 N 
HETATM   14  C4  UNL     1      46.786  -0.030  24.093  1.00  0.00     0.169 C 
HETATM   15  C5  UNL     1      46.880  -1.357  24.782  1.00  0.00     0.189 C 
HETATM   16  O2  UNL     1      47.843  -1.423  25.757  1.00  0.00    -0.388 OA
HETATM   17  C6  UNL     1      47.805  -0.426  26.691  1.00  0.00     0.189 C 
HETATM   18  C7  UNL     1      46.711   0.582  26.486  1.00  0.00     0.169 C 
ENDBRANCH  11  13
ENDBRANCH   4  11
BRANCH   1  19
HETATM   19  N1  UNL     1      45.722   5.435  21.499  1.00  0.00    -0.249 N 
ATOM     20  H1  UNL     1      45.130   6.248  21.326  1.00  0.00     0.196 HD
BRANCH  19  21
HETATM   21  O1  UNL     1      46.906   5.319  20.856  1.00  0.00    -0.284 OA
HETATM   22  C1  UNL     1      47.076   4.973  19.511  1.00  0.00     0.237 C 
ENDBRANCH  19  21
ENDBRANCH   1  19
TORSDOF 4
ENDMDL
MODEL 5
REMARK VINA RESULT: -6.183445766      1.183      1.332
REMARK  4 active torsions:
REMARK  status: ('A' for Active; 'I' for Inactive)
REMARK    1  A    between atoms: O1_2  and  N1_3 
REMARK    2  A    between atoms: N1_3  and  C2_5 
REMARK    3  A    between atoms: C3_8  and  N3_9 
REMARK    4  A    between atoms: N3_9  and  N4_11 
ROOT
HETATM    1  C2  UNL     1      47.090   3.409  19.257  1.00  0.00     0.168 A 
HETATM    2  N2  UNL     1      46.255   2.522  19.841  1.00  0.00    -0.172 N 
ATOM      3  H2  UNL     1      45.499   2.874  20.428  1.00  0.00     0.186 HD
HETATM    4  C3  UNL     1      46.383   1.193  19.678  1.00  0.00     0.699 A 
HETATM    5  N5  UNL     1      47.373   0.706  18.910  1.00  0.00    -0.175 N 
ATOM      6  H5  UNL     1      47.479  -0.300  18.780  1.00  0.00     0.185 HD
HETATM    7  C8  UNL     1      48.228   1.570  18.309  1.00  0.00     0.160 A 
HETATM    8  N6  UNL     1      49.280   1.089  17.494  1.00  0.00    -0.080 NA
HETATM    9  C9  UNL     1      48.116   2.944  18.461  1.00  0.00     0.134 A 
HETATM   10  N7  UNL     1      49.039   3.835  17.812  1.00  0.00    -0.095 NA
ENDROOT
BRANCH   4  11
HETATM   11  N3  UNL     1      45.563   0.418  20.255  1.00  0.00    -0.134 N 
ATOM     12  H3  UNL     1      44.746   0.145  19.708  1.00  0.00     0.205 HD
BRANCH  11  13
HETATM   13  N4  UNL     1      45.639  -0.097  21.519  1.00  0.00    -0.310 N 
HETATM   14  C4  UNL     1      46.639  -1.141  21.774  1.00  0.00     0.169 C 
HETATM   15  C5  UNL     1      46.600  -1.493  23.230  1.00  0.00     0.189 C 
HETATM   16  O2  UNL     1      46.634  -0.414  24.076  1.00  0.00    -0.388 OA
HETATM   17  C6  UNL     1      45.714   0.565  23.820  1.00  0.00     0.189 C 
HETATM   18  C7  UNL     1      44.822   0.291  22.643  1.00  0.00     0.169 C 
ENDBRANCH  11  13
ENDBRANCH   4  11
BRANCH   1  19
HETATM   19  N1  UNL     1      46.946   4.690  19.430  1.00  0.00    -0.249 N 
ATOM     20  H1  UNL     1      46.747   5.290  18.629  1.00  0.00     0.196 HD
BRANCH  19  21
HETATM   21  O1  UNL     1      47.058   5.233  20.663  1.00  0.00    -0.284 OA
HETATM   22  C1  UNL     1      46.010   5.429  21.569  1.00  0.00     0.237 C 
ENDBRANCH  19  21
ENDBRANCH   1  19
TORSDOF 4
ENDMDL
