MODEL 1
REMARK VINA RESULT: -7.613368679      0.000      0.000
REMARK  4 active torsions:
REMARK  status: ('A' for Active; 'I' for Inactive)
REMARK    1  A    between atoms: C3_3  and  O1_4 
REMARK    2  A    between atoms: C6_9  and  C7_10 
REMARK       I    between atoms: C7_10  and  N2_12 
REMARK    3  A    between atoms: N2_12  and  C8_14 
REMARK    4  A    between atoms: C9_23  and  C10_24 
ROOT
HETATM    1  C7  UNL     1      47.490   3.989  18.080  1.00  0.00     0.271 C 
HETATM    2  O2  UNL     1      48.641   4.503  18.229  1.00  0.00    -0.267 OA
HETATM    3  N2  UNL     1      47.307   2.604  17.890  1.00  0.00    -0.153 N 
ATOM      4  H2  UNL     1      46.593   2.279  17.238  1.00  0.00     0.187 HD
ENDROOT
BRANCH   1   5
HETATM    5  C6  UNL     1      46.347   4.912  18.111  1.00  0.00     0.048 A 
HETATM    6  C5  UNL     1      45.924   5.464  16.897  1.00  0.00     0.047 A 
HETATM    7  C4  UNL     1      44.840   6.310  16.917  1.00  0.00     0.081 A 
HETATM    8  C3  UNL     1      44.192   6.607  18.097  1.00  0.00     0.096 A 
HETATM    9  N1  UNL     1      44.377   6.894  15.695  1.00  0.00    -0.099 NA
HETATM   10  C2  UNL     1      44.590   6.078  19.299  1.00  0.00    -0.013 A 
HETATM   11  C1  UNL     1      43.912   6.377  20.582  1.00  0.00     0.052 C 
HETATM   12  C9  UNL     1      45.690   5.217  19.284  1.00  0.00     0.026 A 
BRANCH   8  13
HETATM   13  O1  UNL     1      43.100   7.462  18.097  1.00  0.00    -0.358 OA
ATOM     14  H1  UNL     1      42.610   7.555  17.288  1.00  0.00     0.217 HD
ENDBRANCH   8  13
BRANCH  12  15
HETATM   15  C10 UNL     1      46.116   4.649  20.572  1.00  0.00     0.271 C 
HETATM   16  O3  UNL     1      46.969   5.365  21.206  1.00  0.00    -0.301 OA
ENDBRANCH  12  15
ENDBRANCH   1   5
BRANCH   3  17
HETATM   17  C8  UNL     1      48.035   1.725  18.536  1.00  0.00     0.716 A 
HETATM   18  N3  UNL     1      47.532   0.766  19.351  1.00  0.00    -0.115 N 
HETATM   19  N4  UNL     1      48.540   0.076  19.828  1.00  0.00    -0.213 N 
ATOM     20  H3  UNL     1      46.546   0.609  19.556  1.00  0.00     0.207 HD
HETATM   21  N5  UNL     1      49.668   0.552  19.352  1.00  0.00    -0.213 N 
ATOM     22  H4  UNL     1      48.460  -0.712  20.472  1.00  0.00     0.210 HD
HETATM   23  N6  UNL     1      49.363   1.564  18.560  1.00  0.00    -0.115 N 
ATOM     24  H5  UNL     1      50.605   0.205  19.557  1.00  0.00     0.210 HD
ATOM     25  H6  UNL     1      50.034   2.133  18.046  1.00  0.00     0.207 HD
ENDBRANCH   3  17
TORSDOF 4
ENDMDL
MODEL 2
REMARK VINA RESULT: -7.124181549      3.773      5.378
REMARK  4 active torsions:
REMARK  status: ('A' for Active; 'I' for Inactive)
REMARK    1  A    between atoms: C3_3  and  O1_4 
REMARK    2  A    between atoms: C6_9  and  C7_10 
REMARK       I    between atoms: C7_10  and  N2_12 
REMARK    3  A    between atoms: N2_12  and  C8_14 
REMARK    4  A    between atoms: C9_23  and  C10_24 
ROOT
HETATM    1  C7  UNL     1      45.477   5.352  21.004  1.00  0.00     0.271 C 
HETATM    2  O2  UNL     1      45.685   6.439  21.626  1.00  0.00    -0.267 OA
HETATM    3  N2  UNL     1      44.795   4.269  21.595  1.00  0.00    -0.153 N 
ATOM      4  H2  UNL     1      45.111   3.317  21.407  1.00  0.00     0.187 HD
ENDROOT
BRANCH   1   5
HETATM    5  C6  UNL     1      45.988   5.272  19.629  1.00  0.00     0.048 A 
HETATM    6  C5  UNL     1      47.271   4.746  19.440  1.00  0.00     0.047 A 
HETATM    7  C4  UNL     1      47.744   4.648  18.153  1.00  0.00     0.081 A 
HETATM    8  C3  UNL     1      46.979   5.055  17.081  1.00  0.00     0.096 A 
HETATM    9  N1  UNL     1      49.052   4.114  17.920  1.00  0.00    -0.099 NA
HETATM   10  C2  UNL     1      45.719   5.574  17.242  1.00  0.00    -0.013 A 
HETATM   11  C1  UNL     1      44.873   6.019  16.110  1.00  0.00     0.052 C 
HETATM   12  C9  UNL     1      45.233   5.676  18.548  1.00  0.00     0.026 A 
BRANCH   8  13
HETATM   13  O1  UNL     1      47.474   4.947  15.790  1.00  0.00    -0.358 OA
ATOM     14  H1  UNL     1      47.171   5.575  15.145  1.00  0.00     0.217 HD
ENDBRANCH   8  13
BRANCH  12  15
HETATM   15  C10 UNL     1      43.883   6.231  18.720  1.00  0.00     0.271 C 
HETATM   16  O3  UNL     1      43.858   7.487  18.976  1.00  0.00    -0.301 OA
ENDBRANCH  12  15
ENDBRANCH   1   5
BRANCH   3  17
HETATM   17  C8  UNL     1      43.763   4.460  22.381  1.00  0.00     0.716 A 
HETATM   18  N3  UNL     1      42.881   5.480  22.251  1.00  0.00    -0.115 N 
HETATM   19  N4  UNL     1      41.988   5.363  23.204  1.00  0.00    -0.213 N 
ATOM     20  H3  UNL     1      42.906   6.209  21.538  1.00  0.00     0.207 HD
HETATM   21  N5  UNL     1      42.261   4.309  23.940  1.00  0.00    -0.213 N 
ATOM     22  H4  UNL     1      41.201   5.995  23.352  1.00  0.00     0.210 HD
HETATM   23  N6  UNL     1      43.349   3.753  23.439  1.00  0.00    -0.115 N 
ATOM     24  H5  UNL     1      41.731   3.983  24.748  1.00  0.00     0.210 HD
ATOM     25  H6  UNL     1      43.802   2.915  23.801  1.00  0.00     0.207 HD
ENDBRANCH   3  17
TORSDOF 4
ENDMDL
MODEL 3
REMARK VINA RESULT: -7.098125270      1.579      2.596
REMARK  4 active torsions:
REMARK  status: ('A' for Active; 'I' for Inactive)
REMARK    1  A    between atoms: C3_3  and  O1_4 
REMARK    2  A    between atoms: C6_9  and  C7_10 
REMARK       I    between atoms: C7_10  and  N2_12 
REMARK    3  A    between atoms: N2_12  and  C8_14 
REMARK    4  A    between atoms: C9_23  and  C10_24 
ROOT
HETATM    1  C7  UNL     1      47.481   3.978  18.274  1.00  0.00     0.271 C 
HETATM    2  O2  UNL     1      48.644   4.483  18.335  1.00  0.00    -0.267 OA
HETATM    3  N2  UNL     1      47.273   2.598  18.072  1.00  0.00    -0.153 N 
ATOM      4  H2  UNL     1      46.504   2.290  17.476  1.00  0.00     0.187 HD
ENDROOT
BRANCH   1   5
HETATM    5  C6  UNL     1      46.351   4.905  18.422  1.00  0.00     0.048 A 
HETATM    6  C5  UNL     1      45.918   5.202  19.719  1.00  0.00     0.047 A 
HETATM    7  C4  UNL     1      44.875   6.087  19.864  1.00  0.00     0.081 A 
HETATM    8  C3  UNL     1      44.276   6.664  18.765  1.00  0.00     0.096 A 
HETATM    9  N1  UNL     1      44.404   6.415  21.175  1.00  0.00    -0.099 NA
HETATM   10  C2  UNL     1      44.683   6.388  17.484  1.00  0.00    -0.013 A 
HETATM   11  C1  UNL     1      44.059   6.994  16.285  1.00  0.00     0.052 C 
HETATM   12  C9  UNL     1      45.742   5.489  17.331  1.00  0.00     0.026 A 
BRANCH   8  13
HETATM   13  O1  UNL     1      43.226   7.555  18.932  1.00  0.00    -0.358 OA
ATOM     14  H1  UNL     1      42.512   7.297  19.503  1.00  0.00     0.217 HD
ENDBRANCH   8  13
BRANCH  12  15
HETATM   15  C10 UNL     1      46.180   5.195  15.959  1.00  0.00     0.271 C 
HETATM   16  O3  UNL     1      47.219   5.846  15.587  1.00  0.00    -0.301 OA
ENDBRANCH  12  15
ENDBRANCH   1   5
BRANCH   3  17
HETATM   17  C8  UNL     1      48.048   1.702  18.634  1.00  0.00     0.716 A 
HETATM   18  N3  UNL     1      47.598   0.639  19.344  1.00  0.00    -0.115 N 
HETATM   19  N4  UNL     1      48.642  -0.037  19.760  1.00  0.00    -0.213 N 
ATOM     20  H3  UNL     1      46.621   0.406  19.522  1.00  0.00     0.207 HD
HETATM   21  N5  UNL     1      49.743   0.549  19.346  1.00  0.00    -0.213 N 
ATOM     22  H4  UNL     1      48.604  -0.888  20.321  1.00  0.00     0.210 HD
HETATM   23  N6  UNL     1      49.383   1.615  18.655  1.00  0.00    -0.115 N 
ATOM     24  H5  UNL     1      50.697   0.237  19.525  1.00  0.00     0.210 HD
ATOM     25  H6  UNL     1      50.023   2.271  18.208  1.00  0.00     0.207 HD
ENDBRANCH   3  17
TORSDOF 4
ENDMDL
MODEL 4
REMARK VINA RESULT: -7.015852424      3.661      5.813
REMARK  4 active torsions:
REMARK  status: ('A' for Active; 'I' for Inactive)
REMARK    1  A    between atoms: C3_3  and  O1_4 
REMARK    2  A    between atoms: C6_9  and  C7_10 
REMARK       I    between atoms: C7_10  and  N2_12 
REMARK    3  A    between atoms: N2_12  and  C8_14 
REMARK    4  A    between atoms: C9_23  and  C10_24 
ROOT
HETATM    1  C7  UNL     1      45.446   5.510  20.617  1.00  0.00     0.271 C 
HETATM    2  O2  UNL     1      46.208   5.923  21.544  1.00  0.00    -0.267 OA
HETATM    3  N2  UNL     1      44.085   5.215  20.841  1.00  0.00    -0.153 N 
ATOM      4  H2  UNL     1      43.664   4.412  20.374  1.00  0.00     0.187 HD
ENDROOT
BRANCH   1   5
HETATM    5  C6  UNL     1      46.051   5.350  19.288  1.00  0.00     0.048 A 
HETATM    6  C5  UNL     1      47.318   4.761  19.217  1.00  0.00     0.047 A 
HETATM    7  C4  UNL     1      47.880   4.588  17.974  1.00  0.00     0.081 A 
HETATM    8  C3  UNL     1      47.215   4.982  16.833  1.00  0.00     0.096 A 
HETATM    9  N1  UNL     1      49.175   3.988  17.861  1.00  0.00    -0.099 NA
HETATM   10  C2  UNL     1      45.972   5.562  16.878  1.00  0.00    -0.013 A 
HETATM   11  C1  UNL     1      45.233   5.996  15.669  1.00  0.00     0.052 C 
HETATM   12  C9  UNL     1      45.397   5.741  18.139  1.00  0.00     0.026 A 
BRANCH   8  13
HETATM   13  O1  UNL     1      47.798   4.798  15.588  1.00  0.00    -0.358 OA
ATOM     14  H1  UNL     1      48.577   5.302  15.384  1.00  0.00     0.217 HD
ENDBRANCH   8  13
BRANCH  12  15
HETATM   15  C10 UNL     1      44.065   6.361  18.187  1.00  0.00     0.271 C 
HETATM   16  O3  UNL     1      44.061   7.567  18.620  1.00  0.00    -0.301 OA
ENDBRANCH  12  15
ENDBRANCH   1   5
BRANCH   3  17
HETATM   17  C8  UNL     1      43.350   5.952  21.639  1.00  0.00     0.716 A 
HETATM   18  N3  UNL     1      43.454   7.298  21.748  1.00  0.00    -0.115 N 
HETATM   19  N4  UNL     1      42.575   7.698  22.636  1.00  0.00    -0.213 N 
ATOM     20  H3  UNL     1      44.100   7.895  21.232  1.00  0.00     0.207 HD
HETATM   21  N5  UNL     1      41.911   6.663  23.099  1.00  0.00    -0.213 N 
ATOM     22  H4  UNL     1      42.429   8.666  22.923  1.00  0.00     0.210 HD
HETATM   23  N6  UNL     1      42.383   5.590  22.491  1.00  0.00    -0.115 N 
ATOM     24  H5  UNL     1      41.169   6.684  23.799  1.00  0.00     0.210 HD
ATOM     25  H6  UNL     1      42.062   4.636  22.646  1.00  0.00     0.207 HD
ENDBRANCH   3  17
TORSDOF 4
ENDMDL
MODEL 5
REMARK VINA RESULT: -7.004342664      3.372      4.758
REMARK  4 active torsions:
REMARK  status: ('A' for Active; 'I' for Inactive)
REMARK    1  A    between atoms: C3_3  and  O1_4 
REMARK    2  A    between atoms: C6_9  and  C7_10 
REMARK       I    between atoms: C7_10  and  N2_12 
REMARK    3  A    between atoms: N2_12  and  C8_14 
REMARK    4  A    between atoms: C9_23  and  C10_24 
ROOT
HETATM    1  C7  UNL     1      46.158   4.623  21.139  1.00  0.00     0.271 C 
HETATM    2  O2  UNL     1      46.470   5.553  21.945  1.00  0.00    -0.267 OA
HETATM    3  N2  UNL     1      45.578   3.415  21.577  1.00  0.00    -0.153 N 
ATOM      4  H2  UNL     1      45.854   2.539  21.134  1.00  0.00     0.187 HD
ENDROOT
BRANCH   1   5
HETATM    5  C6  UNL     1      46.436   4.864  19.717  1.00  0.00     0.048 A 
HETATM    6  C5  UNL     1      47.686   4.477  19.223  1.00  0.00     0.047 A 
HETATM    7  C4  UNL     1      47.943   4.679  17.887  1.00  0.00     0.081 A 
HETATM    8  C3  UNL     1      46.997   5.246  17.060  1.00  0.00     0.096 A 
HETATM    9  N1  UNL     1      49.211   4.295  17.345  1.00  0.00    -0.099 NA
HETATM   10  C2  UNL     1      45.765   5.634  17.522  1.00  0.00    -0.013 A 
HETATM   11  C1  UNL     1      44.728   6.246  16.658  1.00  0.00     0.052 C 
HETATM   12  C9  UNL     1      45.499   5.431  18.879  1.00  0.00     0.026 A 
BRANCH   8  13
HETATM   13  O1  UNL     1      47.275   5.441  15.715  1.00  0.00    -0.358 OA
ATOM     14  H1  UNL     1      48.139   5.759  15.483  1.00  0.00     0.217 HD
ENDBRANCH   8  13
BRANCH  12  15
HETATM   15  C10 UNL     1      44.178   5.846  19.373  1.00  0.00     0.271 C 
HETATM   16  O3  UNL     1      43.402   4.873  19.678  1.00  0.00    -0.301 OA
ENDBRANCH  12  15
ENDBRANCH   1   5
BRANCH   3  17
HETATM   17  C8  UNL     1      44.689   3.396  22.541  1.00  0.00     0.716 A 
HETATM   18  N3  UNL     1      44.667   2.483  23.542  1.00  0.00    -0.115 N 
HETATM   19  N4  UNL     1      43.647   2.761  24.317  1.00  0.00    -0.213 N 
ATOM     20  H3  UNL     1      45.328   1.717  23.671  1.00  0.00     0.207 HD
HETATM   21  N5  UNL     1      43.014   3.816  23.854  1.00  0.00    -0.213 N 
ATOM     22  H4  UNL     1      43.384   2.238  25.153  1.00  0.00     0.210 HD
HETATM   23  N6  UNL     1      43.649   4.207  22.765  1.00  0.00    -0.115 N 
ATOM     24  H5  UNL     1      42.185   4.250  24.261  1.00  0.00     0.210 HD
ATOM     25  H6  UNL     1      43.389   5.004  22.186  1.00  0.00     0.207 HD
ENDBRANCH   3  17
TORSDOF 4
ENDMDL
