MODEL 1
REMARK VINA RESULT: -6.743633830      0.000      0.000
REMARK  4 active torsions:
REMARK  status: ('A' for Active; 'I' for Inactive)
REMARK    1  A    between atoms: N1_2  and  C2_4 
REMARK    2  A    between atoms: C3_7  and  N3_8 
REMARK    3  A    between atoms: N3_8  and  O1_10 
REMARK    4  A    between atoms: C6_17  and  C7_18 
ROOT
HETATM    1  C2  UNL     1      46.602   0.704  19.670  1.00  0.00     0.680 A 
HETATM    2  N2  UNL     1      47.663   1.042  18.915  1.00  0.00    -0.173 N 
ATOM      3  H2  UNL     1      48.281   0.304  18.579  1.00  0.00     0.186 HD
HETATM    4  C3  UNL     1      47.940   2.312  18.587  1.00  0.00     0.171 A 
HETATM    5  C5  UNL     1      47.091   3.300  19.051  1.00  0.00     0.123 A 
HETATM    6  N4  UNL     1      47.316   4.587  18.757  1.00  0.00    -0.294 N 
ATOM      7  H4  UNL     1      48.124   4.832  18.184  1.00  0.00     0.187 HD
HETATM    8  N5  UNL     1      46.509   5.561  19.194  1.00  0.00    -0.294 N 
ATOM      9  H5  UNL     1      46.717   6.529  18.947  1.00  0.00     0.187 HD
HETATM   10  C6  UNL     1      45.430   5.294  19.952  1.00  0.00     0.140 A 
HETATM   11  C8  UNL     1      45.196   3.978  20.257  1.00  0.00     0.109 A 
HETATM   12  N7  UNL     1      44.069   3.646  21.054  1.00  0.00    -0.097 NA
HETATM   13  C9  UNL     1      46.002   2.955  19.825  1.00  0.00     0.107 A 
HETATM   14  N8  UNL     1      45.786   1.661  20.115  1.00  0.00    -0.188 N 
ATOM     15  H8  UNL     1      44.982   1.405  20.688  1.00  0.00     0.184 HD
ENDROOT
BRANCH   4  16
HETATM   16  N3  UNL     1      48.975   2.582  17.857  1.00  0.00    -0.248 N 
ATOM     17  H3  UNL     1      49.792   3.001  18.303  1.00  0.00     0.196 HD
BRANCH  16  18
HETATM   18  O1  UNL     1      49.017   2.332  16.528  1.00  0.00    -0.284 OA
HETATM   19  C4  UNL     1      48.642   3.340  15.588  1.00  0.00     0.237 C 
ENDBRANCH  16  18
ENDBRANCH   4  16
BRANCH   1  20
HETATM   20  N1  UNL     1      46.405  -0.544  19.941  1.00  0.00    -0.230 N 
HETATM   21  C1  UNL     1      47.518  -1.316  20.462  1.00  0.00     0.165 C 
ATOM     22  H1  UNL     1      45.493  -0.975  19.794  1.00  0.00     0.177 HD
ENDBRANCH   1  20
BRANCH  10  23
HETATM   23  C7  UNL     1      44.543   6.341  20.436  1.00  0.00     0.284 C 
HETATM   24  N6  UNL     1      44.892   7.065  21.586  1.00  0.00    -0.056 NA
HETATM   25  O2  UNL     1      43.475   6.558  19.786  1.00  0.00    -0.269 OA
ENDBRANCH  10  23
TORSDOF 4
ENDMDL
MODEL 2
REMARK VINA RESULT: -6.507340188      1.633      1.700
REMARK  4 active torsions:
REMARK  status: ('A' for Active; 'I' for Inactive)
REMARK    1  A    between atoms: N1_2  and  C2_4 
REMARK    2  A    between atoms: C3_7  and  N3_8 
REMARK    3  A    between atoms: N3_8  and  O1_10 
REMARK    4  A    between atoms: C6_17  and  C7_18 
ROOT
HETATM    1  C2  UNL     1      46.902   1.492  19.173  1.00  0.00     0.680 A 
HETATM    2  N2  UNL     1      46.928   1.860  17.880  1.00  0.00    -0.173 N 
ATOM      3  H2  UNL     1      47.320   1.215  17.194  1.00  0.00     0.186 HD
HETATM    4  C3  UNL     1      46.458   3.042  17.455  1.00  0.00     0.171 A 
HETATM    5  C5  UNL     1      45.929   3.904  18.398  1.00  0.00     0.123 A 
HETATM    6  N4  UNL     1      45.444   5.099  18.036  1.00  0.00    -0.294 N 
ATOM      7  H4  UNL     1      45.470   5.367  17.052  1.00  0.00     0.187 HD
HETATM    8  N5  UNL     1      44.928   5.950  18.930  1.00  0.00    -0.294 N 
ATOM      9  H5  UNL     1      44.570   6.851  18.611  1.00  0.00     0.187 HD
HETATM   10  C6  UNL     1      44.871   5.647  20.239  1.00  0.00     0.140 A 
HETATM   11  C8  UNL     1      45.366   4.426  20.615  1.00  0.00     0.109 A 
HETATM   12  N7  UNL     1      45.328   4.060  21.987  1.00  0.00    -0.097 NA
HETATM   13  C9  UNL     1      45.902   3.529  19.726  1.00  0.00     0.107 A 
HETATM   14  N8  UNL     1      46.391   2.328  20.079  1.00  0.00    -0.188 N 
ATOM     15  H8  UNL     1      46.373   2.050  21.060  1.00  0.00     0.184 HD
ENDROOT
BRANCH   4  16
HETATM   16  N3  UNL     1      46.507   3.345  16.198  1.00  0.00    -0.248 N 
ATOM     17  H3  UNL     1      45.963   2.788  15.538  1.00  0.00     0.196 HD
BRANCH  16  18
HETATM   18  O1  UNL     1      47.249   4.373  15.722  1.00  0.00    -0.284 OA
HETATM   19  C4  UNL     1      48.673   4.277  15.676  1.00  0.00     0.237 C 
ENDBRANCH  16  18
ENDBRANCH   4  16
BRANCH   1  20
HETATM   20  N1  UNL     1      47.375   0.336  19.500  1.00  0.00    -0.230 N 
HETATM   21  C1  UNL     1      46.587  -0.505  20.381  1.00  0.00     0.165 C 
ATOM     22  H1  UNL     1      48.279   0.021  19.148  1.00  0.00     0.177 HD
ENDBRANCH   1  20
BRANCH  10  23
HETATM   23  C7  UNL     1      44.313   6.562  21.224  1.00  0.00     0.284 C 
HETATM   24  N6  UNL     1      42.944   6.501  21.524  1.00  0.00    -0.056 NA
HETATM   25  O2  UNL     1      45.102   7.388  21.777  1.00  0.00    -0.269 OA
ENDBRANCH  10  23
TORSDOF 4
ENDMDL
MODEL 3
REMARK VINA RESULT: -6.487559010      2.536      4.287
REMARK  4 active torsions:
REMARK  status: ('A' for Active; 'I' for Inactive)
REMARK    1  A    between atoms: N1_2  and  C2_4 
REMARK    2  A    between atoms: C3_7  and  N3_8 
REMARK    3  A    between atoms: N3_8  and  O1_10 
REMARK    4  A    between atoms: C6_17  and  C7_18 
ROOT
HETATM    1  C2  UNL     1      47.401  -0.556  19.697  1.00  0.00     0.680 A 
HETATM    2  N2  UNL     1      46.112  -0.519  20.080  1.00  0.00    -0.173 N 
ATOM      3  H2  UNL     1      45.701  -1.353  20.500  1.00  0.00     0.186 HD
HETATM    4  C3  UNL     1      45.344   0.570  19.932  1.00  0.00     0.171 A 
HETATM    5  C5  UNL     1      45.918   1.691  19.360  1.00  0.00     0.123 A 
HETATM    6  N4  UNL     1      45.203   2.810  19.185  1.00  0.00    -0.294 N 
ATOM      7  H4  UNL     1      44.227   2.826  19.479  1.00  0.00     0.187 HD
HETATM    8  N5  UNL     1      45.735   3.908  18.634  1.00  0.00    -0.294 N 
ATOM      9  H5  UNL     1      45.155   4.739  18.519  1.00  0.00     0.187 HD
HETATM   10  C6  UNL     1      47.017   3.941  18.229  1.00  0.00     0.140 A 
HETATM   11  C8  UNL     1      47.754   2.798  18.405  1.00  0.00     0.109 A 
HETATM   12  N7  UNL     1      49.113   2.784  17.993  1.00  0.00    -0.097 NA
HETATM   13  C9  UNL     1      47.240   1.656  18.967  1.00  0.00     0.107 A 
HETATM   14  N8  UNL     1      47.949   0.528  19.146  1.00  0.00    -0.188 N 
ATOM     15  H8  UNL     1      48.926   0.500  18.854  1.00  0.00     0.184 HD
ENDROOT
BRANCH   4  16
HETATM   16  N3  UNL     1      44.109   0.552  20.318  1.00  0.00    -0.248 N 
ATOM     17  H3  UNL     1      43.474  -0.124  19.893  1.00  0.00     0.196 HD
BRANCH  16  18
HETATM   18  O1  UNL     1      43.627   1.391  21.264  1.00  0.00    -0.284 OA
HETATM   19  C4  UNL     1      44.070   1.289  22.618  1.00  0.00     0.237 C 
ENDBRANCH  16  18
ENDBRANCH   4  16
BRANCH   1  20
HETATM   20  N1  UNL     1      48.071  -1.646  19.875  1.00  0.00    -0.230 N 
HETATM   21  C1  UNL     1      47.544  -2.632  20.800  1.00  0.00     0.165 C 
ATOM     22  H1  UNL     1      48.947  -1.810  19.379  1.00  0.00     0.177 HD
ENDBRANCH   1  20
BRANCH  10  23
HETATM   23  C7  UNL     1      47.611   5.125  17.628  1.00  0.00     0.284 C 
HETATM   24  N6  UNL     1      47.324   5.439  16.291  1.00  0.00    -0.056 NA
HETATM   25  O2  UNL     1      48.375   5.835  18.351  1.00  0.00    -0.269 OA
ENDBRANCH  10  23
TORSDOF 4
ENDMDL
MODEL 4
REMARK VINA RESULT: -6.368990173      2.080      2.097
REMARK  4 active torsions:
REMARK  status: ('A' for Active; 'I' for Inactive)
REMARK    1  A    between atoms: N1_2  and  C2_4 
REMARK    2  A    between atoms: C3_7  and  N3_8 
REMARK    3  A    between atoms: N3_8  and  O1_10 
REMARK    4  A    between atoms: C6_17  and  C7_18 
ROOT
HETATM    1  C2  UNL     1      44.934   1.190  18.986  1.00  0.00     0.680 A 
HETATM    2  N2  UNL     1      45.462   1.525  17.795  1.00  0.00    -0.173 N 
ATOM      3  H2  UNL     1      45.748   0.781  17.159  1.00  0.00     0.186 HD
HETATM    4  C3  UNL     1      45.627   2.799  17.409  1.00  0.00     0.171 A 
HETATM    5  C5  UNL     1      45.232   3.794  18.284  1.00  0.00     0.123 A 
HETATM    6  N4  UNL     1      45.372   5.086  17.957  1.00  0.00    -0.294 N 
ATOM      7  H4  UNL     1      45.774   5.327  17.051  1.00  0.00     0.187 HD
HETATM    8  N5  UNL     1      44.998   6.067  18.787  1.00  0.00    -0.294 N 
ATOM      9  H5  UNL     1      45.122   7.038  18.497  1.00  0.00     0.187 HD
HETATM   10  C6  UNL     1      44.464   5.804  19.992  1.00  0.00     0.140 A 
HETATM   11  C8  UNL     1      44.319   4.484  20.333  1.00  0.00     0.109 A 
HETATM   12  N7  UNL     1      43.759   4.156  21.596  1.00  0.00    -0.097 NA
HETATM   13  C9  UNL     1      44.691   3.453  19.507  1.00  0.00     0.107 A 
HETATM   14  N8  UNL     1      44.556   2.155  19.827  1.00  0.00    -0.188 N 
ATOM     15  H8  UNL     1      44.157   1.901  20.730  1.00  0.00     0.184 HD
ENDROOT
BRANCH   4  16
HETATM   16  N3  UNL     1      46.140   3.065  16.252  1.00  0.00    -0.248 N 
ATOM     17  H3  UNL     1      45.677   2.704  15.417  1.00  0.00     0.196 HD
BRANCH  16  18
HETATM   18  O1  UNL     1      47.265   3.803  16.103  1.00  0.00    -0.284 OA
HETATM   19  C4  UNL     1      48.551   3.191  16.203  1.00  0.00     0.237 C 
ENDBRANCH  16  18
ENDBRANCH   4  16
BRANCH   1  20
HETATM   20  N1  UNL     1      44.810  -0.061  19.281  1.00  0.00    -0.230 N 
HETATM   21  C1  UNL     1      43.621  -0.482  19.997  1.00  0.00     0.165 C 
ATOM     22  H1  UNL     1      45.528  -0.736  19.017  1.00  0.00     0.177 HD
ENDBRANCH   1  20
BRANCH  10  23
HETATM   23  C7  UNL     1      44.052   6.860  20.906  1.00  0.00     0.284 C 
HETATM   24  N6  UNL     1      42.724   7.311  20.886  1.00  0.00    -0.056 NA
HETATM   25  O2  UNL     1      44.927   7.334  21.694  1.00  0.00    -0.269 OA
ENDBRANCH  10  23
TORSDOF 4
ENDMDL
MODEL 5
REMARK VINA RESULT: -6.362589664      2.387      6.013
REMARK  4 active torsions:
REMARK  status: ('A' for Active; 'I' for Inactive)
REMARK    1  A    between atoms: N1_2  and  C2_4 
REMARK    2  A    between atoms: C3_7  and  N3_8 
REMARK    3  A    between atoms: N3_8  and  O1_10 
REMARK    4  A    between atoms: C6_17  and  C7_18 
ROOT
HETATM    1  C2  UNL     1      44.547   6.306  21.406  1.00  0.00     0.680 A 
HETATM    2  N2  UNL     1      44.508   5.408  22.408  1.00  0.00    -0.173 N 
ATOM      3  H2  UNL     1      44.098   5.686  23.299  1.00  0.00     0.186 HD
HETATM    4  C3  UNL     1      44.988   4.163  22.281  1.00  0.00     0.171 A 
HETATM    5  C5  UNL     1      45.541   3.804  21.066  1.00  0.00     0.123 A 
HETATM    6  N4  UNL     1      46.038   2.574  20.878  1.00  0.00    -0.294 N 
ATOM      7  H4  UNL     1      46.003   1.903  21.645  1.00  0.00     0.187 HD
HETATM    8  N5  UNL     1      46.578   2.203  19.711  1.00  0.00    -0.294 N 
ATOM      9  H5  UNL     1      46.945   1.256  19.611  1.00  0.00     0.187 HD
HETATM   10  C6  UNL     1      46.649   3.048  18.668  1.00  0.00     0.140 A 
HETATM   11  C8  UNL     1      46.143   4.308  18.855  1.00  0.00     0.109 A 
HETATM   12  N7  UNL     1      46.195   5.238  17.782  1.00  0.00    -0.097 NA
HETATM   13  C9  UNL     1      45.582   4.722  20.037  1.00  0.00     0.107 A 
HETATM   14  N8  UNL     1      45.082   5.954  20.235  1.00  0.00    -0.188 N 
ATOM     15  H8  UNL     1      45.113   6.634  19.476  1.00  0.00     0.184 HD
ENDROOT
BRANCH   4  16
HETATM   16  N3  UNL     1      44.926   3.339  23.278  1.00  0.00    -0.248 N 
ATOM     17  H3  UNL     1      44.022   2.933  23.520  1.00  0.00     0.196 HD
BRANCH  16  18
HETATM   18  O1  UNL     1      46.010   2.995  24.011  1.00  0.00    -0.284 OA
HETATM   19  C4  UNL     1      46.086   1.713  24.635  1.00  0.00     0.237 C 
ENDBRANCH  16  18
ENDBRANCH   4  16
BRANCH   1  20
HETATM   20  N1  UNL     1      44.063   7.486  21.610  1.00  0.00    -0.230 N 
HETATM   21  C1  UNL     1      42.844   7.856  20.916  1.00  0.00     0.165 C 
ATOM     22  H1  UNL     1      44.525   8.140  22.241  1.00  0.00     0.177 HD
ENDBRANCH   1  20
BRANCH  10  23
HETATM   23  C7  UNL     1      47.234   2.660  17.393  1.00  0.00     0.284 C 
HETATM   24  N6  UNL     1      48.626   2.713  17.227  1.00  0.00    -0.056 NA
HETATM   25  O2  UNL     1      46.446   2.285  16.471  1.00  0.00    -0.269 OA
ENDBRANCH  10  23
TORSDOF 4
ENDMDL
