MODEL 1
REMARK VINA RESULT: -6.923737901      0.000      0.000
REMARK  5 active torsions:
REMARK  status: ('A' for Active; 'I' for Inactive)
REMARK    1  A    between atoms: C2_2  and  C4_4 
REMARK    2  A    between atoms: C5_8  and  N2_9 
REMARK       I    between atoms: N2_9  and  C6_11 
REMARK    3  A    between atoms: C6_11  and  C7_13 
REMARK    4  A    between atoms: C9_22  and  N7_23 
REMARK    5  A    between atoms: N7_23  and  N8_25 
ROOT
HETATM    1  C4  UNL     1      45.652   3.906  17.076  1.00  0.00     0.136 A 
HETATM    2  O1  UNL     1      45.467   2.646  16.685  1.00  0.00    -0.233 OA
HETATM    3  N1  UNL     1      46.158   1.816  17.379  1.00  0.00    -0.242 N 
ATOM      4  H1  UNL     1      46.176   0.803  17.260  1.00  0.00     0.196 HD
HETATM    5  C5  UNL     1      46.848   2.511  18.285  1.00  0.00     0.160 A 
HETATM    6  C9  UNL     1      46.546   3.872  18.118  1.00  0.00     0.130 A 
ENDROOT
BRANCH   5   7
HETATM    7  N2  UNL     1      47.653   2.062  19.169  1.00  0.00    -0.303 N 
HETATM    8  C6  UNL     1      48.330   0.853  18.937  1.00  0.00     0.294 C 
HETATM    9  O2  UNL     1      49.188   0.775  18.009  1.00  0.00    -0.264 OA
ATOM     10  H2  UNL     1      47.802   2.576  20.038  1.00  0.00     0.171 HD
BRANCH   8  11
HETATM   11  C7  UNL     1      48.092  -0.348  19.727  1.00  0.00     0.206 A 
HETATM   12  N3  UNL     1      48.313  -1.599  19.290  1.00  0.00    -0.264 N 
HETATM   13  N4  UNL     1      48.001  -2.460  20.235  1.00  0.00    -0.225 N 
ATOM     14  H3  UNL     1      48.669  -1.844  18.365  1.00  0.00     0.190 HD
HETATM   15  N5  UNL     1      47.575  -1.791  21.295  1.00  0.00    -0.223 N 
ATOM     16  H4  UNL     1      48.075  -3.475  20.163  1.00  0.00     0.210 HD
HETATM   17  C8  UNL     1      47.148  -2.386  22.520  1.00  0.00     0.202 C 
HETATM   18  N6  UNL     1      47.632  -0.485  20.979  1.00  0.00    -0.262 N 
ATOM     19  H6  UNL     1      47.366   0.282  21.596  1.00  0.00     0.190 HD
ENDBRANCH   8  11
ENDBRANCH   5   7
BRANCH   6  20
HETATM   20  N7  UNL     1      47.075   4.940  18.869  1.00  0.00    -0.301 N 
ATOM     21  H7  UNL     1      46.554   5.248  19.690  1.00  0.00     0.186 HD
BRANCH  20  22
HETATM   22  N8  UNL     1      48.272   5.611  18.564  1.00  0.00    -0.344 N 
ATOM     23  H82 UNL     1      48.200   6.416  17.940  1.00  0.00     0.176 HD
ATOM     24  H81 UNL     1      49.190   5.347  18.922  1.00  0.00     0.176 HD
ENDBRANCH  20  22
ENDBRANCH   6  20
BRANCH   1  25
HETATM   25  C2  UNL     1      44.996   5.038  16.463  1.00  0.00    -0.033 C 
HETATM   26  C1  UNL     1      43.753   5.358  16.604  1.00  0.00     0.021 C 
HETATM   27  C3  UNL     1      45.846   5.936  15.587  1.00  0.00     0.050 C 
ENDBRANCH   1  25
TORSDOF 5
ENDMDL
MODEL 2
REMARK VINA RESULT: -6.745212365      1.860      2.515
REMARK  5 active torsions:
REMARK  status: ('A' for Active; 'I' for Inactive)
REMARK    1  A    between atoms: C2_2  and  C4_4 
REMARK    2  A    between atoms: C5_8  and  N2_9 
REMARK       I    between atoms: N2_9  and  C6_11 
REMARK    3  A    between atoms: C6_11  and  C7_13 
REMARK    4  A    between atoms: C9_22  and  N7_23 
REMARK    5  A    between atoms: N7_23  and  N8_25 
ROOT
HETATM    1  C4  UNL     1      45.458   5.690  16.726  1.00  0.00     0.136 A 
HETATM    2  O1  UNL     1      46.323   5.776  15.717  1.00  0.00    -0.233 OA
HETATM    3  N1  UNL     1      47.450   5.229  15.996  1.00  0.00    -0.242 N 
ATOM      4  H1  UNL     1      48.260   5.176  15.378  1.00  0.00     0.196 HD
HETATM    5  C5  UNL     1      47.376   4.743  17.236  1.00  0.00     0.160 A 
HETATM    6  C9  UNL     1      46.097   5.023  17.742  1.00  0.00     0.130 A 
ENDROOT
BRANCH   5   7
HETATM    7  N2  UNL     1      48.282   4.122  17.888  1.00  0.00    -0.303 N 
HETATM    8  C6  UNL     1      48.569   2.784  17.571  1.00  0.00     0.294 C 
HETATM    9  O2  UNL     1      49.073   2.492  16.446  1.00  0.00    -0.264 OA
ATOM     10  H2  UNL     1      48.794   4.594  18.633  1.00  0.00     0.171 HD
BRANCH   8  11
HETATM   11  C7  UNL     1      48.309   1.683  18.489  1.00  0.00     0.206 A 
HETATM   12  N3  UNL     1      49.260   0.883  19.001  1.00  0.00    -0.264 N 
HETATM   13  N4  UNL     1      48.706  -0.011  19.794  1.00  0.00    -0.225 N 
ATOM     14  H3  UNL     1      50.258   0.957  18.805  1.00  0.00     0.190 HD
HETATM   15  N5  UNL     1      47.398   0.191  19.812  1.00  0.00    -0.223 N 
ATOM     16  H4  UNL     1      49.203  -0.738  20.309  1.00  0.00     0.210 HD
HETATM   17  C8  UNL     1      46.462  -0.583  20.563  1.00  0.00     0.202 C 
HETATM   18  N6  UNL     1      47.155   1.238  19.005  1.00  0.00    -0.262 N 
ATOM     19  H6  UNL     1      46.234   1.633  18.814  1.00  0.00     0.190 HD
ENDBRANCH   8  11
ENDBRANCH   5   7
BRANCH   6  20
HETATM   20  N7  UNL     1      45.618   4.687  19.024  1.00  0.00    -0.301 N 
ATOM     21  H7  UNL     1      45.175   3.776  19.142  1.00  0.00     0.186 HD
BRANCH  20  22
HETATM   22  N8  UNL     1      45.708   5.522  20.151  1.00  0.00    -0.344 N 
ATOM     23  H82 UNL     1      45.269   6.441  20.077  1.00  0.00     0.176 HD
ATOM     24  H81 UNL     1      46.176   5.269  21.022  1.00  0.00     0.176 HD
ENDBRANCH  20  22
ENDBRANCH   6  20
BRANCH   1  25
HETATM   25  C2  UNL     1      44.115   6.224  16.678  1.00  0.00    -0.033 C 
HETATM   26  C1  UNL     1      43.128   5.726  16.012  1.00  0.00     0.021 C 
HETATM   27  C3  UNL     1      43.842   7.473  17.490  1.00  0.00     0.050 C 
ENDBRANCH   1  25
TORSDOF 5
ENDMDL
MODEL 3
REMARK VINA RESULT: -6.712586258      3.779      5.061
REMARK  5 active torsions:
REMARK  status: ('A' for Active; 'I' for Inactive)
REMARK    1  A    between atoms: C2_2  and  C4_4 
REMARK    2  A    between atoms: C5_8  and  N2_9 
REMARK       I    between atoms: N2_9  and  C6_11 
REMARK    3  A    between atoms: C6_11  and  C7_13 
REMARK    4  A    between atoms: C9_22  and  N7_23 
REMARK    5  A    between atoms: N7_23  and  N8_25 
ROOT
HETATM    1  C4  UNL     1      47.679   3.251  18.408  1.00  0.00     0.136 A 
HETATM    2  O1  UNL     1      47.981   4.531  18.620  1.00  0.00    -0.233 OA
HETATM    3  N1  UNL     1      47.228   5.066  19.511  1.00  0.00    -0.242 N 
ATOM      4  H1  UNL     1      47.275   6.033  19.834  1.00  0.00     0.196 HD
HETATM    5  C5  UNL     1      46.371   4.137  19.938  1.00  0.00     0.160 A 
HETATM    6  C9  UNL     1      46.634   2.945  19.245  1.00  0.00     0.130 A 
ENDROOT
BRANCH   5   7
HETATM    7  N2  UNL     1      45.458   4.263  20.822  1.00  0.00    -0.303 N 
HETATM    8  C6  UNL     1      45.816   4.532  22.153  1.00  0.00     0.294 C 
HETATM    9  O2  UNL     1      46.361   5.635  22.452  1.00  0.00    -0.264 OA
ATOM     10  H2  UNL     1      44.476   4.167  20.563  1.00  0.00     0.171 HD
BRANCH   8  11
HETATM   11  C7  UNL     1      45.589   3.587  23.238  1.00  0.00     0.206 A 
HETATM   12  N3  UNL     1      44.383   3.105  23.584  1.00  0.00    -0.264 N 
HETATM   13  N4  UNL     1      44.512   2.275  24.598  1.00  0.00    -0.225 N 
ATOM     14  H3  UNL     1      43.502   3.346  23.129  1.00  0.00     0.190 HD
HETATM   15  N5  UNL     1      45.792   2.203  24.926  1.00  0.00    -0.223 N 
ATOM     16  H4  UNL     1      43.751   1.772  25.054  1.00  0.00     0.210 HD
HETATM   17  C8  UNL     1      46.321   1.400  25.982  1.00  0.00     0.202 C 
HETATM   18  N6  UNL     1      46.456   3.014  24.085  1.00  0.00    -0.262 N 
ATOM     19  H6  UNL     1      47.464   3.170  24.090  1.00  0.00     0.190 HD
ENDBRANCH   8  11
ENDBRANCH   5   7
BRANCH   6  20
HETATM   20  N7  UNL     1      45.945   1.726  19.395  1.00  0.00    -0.301 N 
ATOM     21  H7  UNL     1      45.154   1.547  18.775  1.00  0.00     0.186 HD
BRANCH  20  22
HETATM   22  N8  UNL     1      46.271   0.738  20.341  1.00  0.00    -0.344 N 
ATOM     23  H82 UNL     1      46.253   1.019  21.322  1.00  0.00     0.176 HD
ATOM     24  H81 UNL     1      46.519  -0.224  20.109  1.00  0.00     0.176 HD
ENDBRANCH  20  22
ENDBRANCH   6  20
BRANCH   1  25
HETATM   25  C2  UNL     1      48.373   2.411  17.458  1.00  0.00    -0.033 C 
HETATM   26  C1  UNL     1      48.816   1.221  17.684  1.00  0.00     0.021 C 
HETATM   27  C3  UNL     1      48.588   2.977  16.068  1.00  0.00     0.050 C 
ENDBRANCH   1  25
TORSDOF 5
ENDMDL
MODEL 4
REMARK VINA RESULT: -6.654584350      3.841      6.418
REMARK  5 active torsions:
REMARK  status: ('A' for Active; 'I' for Inactive)
REMARK    1  A    between atoms: C2_2  and  C4_4 
REMARK    2  A    between atoms: C5_8  and  N2_9 
REMARK       I    between atoms: N2_9  and  C6_11 
REMARK    3  A    between atoms: C6_11  and  C7_13 
REMARK    4  A    between atoms: C9_22  and  N7_23 
REMARK    5  A    between atoms: N7_23  and  N8_25 
ROOT
HETATM    1  C4  UNL     1      47.500   2.867  18.549  1.00  0.00     0.136 A 
HETATM    2  O1  UNL     1      46.677   2.285  19.420  1.00  0.00    -0.233 OA
HETATM    3  N1  UNL     1      46.185   3.124  20.258  1.00  0.00    -0.242 N 
ATOM      4  H1  UNL     1      45.535   2.906  21.014  1.00  0.00     0.196 HD
HETATM    5  C5  UNL     1      46.675   4.331  19.969  1.00  0.00     0.160 A 
HETATM    6  C9  UNL     1      47.532   4.203  18.865  1.00  0.00     0.130 A 
ENDROOT
BRANCH   5   7
HETATM    7  N2  UNL     1      46.434   5.436  20.563  1.00  0.00    -0.303 N 
HETATM    8  C6  UNL     1      45.728   5.428  21.777  1.00  0.00     0.294 C 
HETATM    9  O2  UNL     1      46.243   4.902  22.807  1.00  0.00    -0.264 OA
ATOM     10  H2  UNL     1      46.751   6.317  20.158  1.00  0.00     0.171 HD
BRANCH   8  11
HETATM   11  C7  UNL     1      44.400   6.009  21.920  1.00  0.00     0.206 A 
HETATM   12  N3  UNL     1      44.152   7.328  21.985  1.00  0.00    -0.264 N 
HETATM   13  N4  UNL     1      42.857   7.529  22.113  1.00  0.00    -0.225 N 
ATOM     14  H3  UNL     1      44.859   8.061  21.942  1.00  0.00     0.190 HD
HETATM   15  N5  UNL     1      42.245   6.355  22.133  1.00  0.00    -0.223 N 
ATOM     16  H4  UNL     1      42.400   8.439  22.185  1.00  0.00     0.210 HD
HETATM   17  C8  UNL     1      40.835   6.170  22.258  1.00  0.00     0.202 C 
HETATM   18  N6  UNL     1      43.200   5.417  22.014  1.00  0.00    -0.262 N 
ATOM     19  H6  UNL     1      43.038   4.410  21.997  1.00  0.00     0.190 HD
ENDBRANCH   8  11
ENDBRANCH   5   7
BRANCH   6  20
HETATM   20  N7  UNL     1      48.260   5.243  18.252  1.00  0.00    -0.301 N 
ATOM     21  H7  UNL     1      49.102   5.576  18.722  1.00  0.00     0.186 HD
BRANCH  20  22
HETATM   22  N8  UNL     1      47.904   5.854  17.037  1.00  0.00    -0.344 N 
ATOM     23  H82 UNL     1      47.050   5.520  16.589  1.00  0.00     0.176 HD
ATOM     24  H81 UNL     1      48.438   6.597  16.586  1.00  0.00     0.176 HD
ENDBRANCH  20  22
ENDBRANCH   6  20
BRANCH   1  25
HETATM   25  C2  UNL     1      48.188   2.153  17.497  1.00  0.00    -0.033 C 
HETATM   26  C1  UNL     1      48.246   2.507  16.257  1.00  0.00     0.021 C 
HETATM   27  C3  UNL     1      48.915   0.883  17.890  1.00  0.00     0.050 C 
ENDBRANCH   1  25
TORSDOF 5
ENDMDL
MODEL 5
REMARK VINA RESULT: -6.641324734      3.272      4.233
REMARK  5 active torsions:
REMARK  status: ('A' for Active; 'I' for Inactive)
REMARK    1  A    between atoms: C2_2  and  C4_4 
REMARK    2  A    between atoms: C5_8  and  N2_9 
REMARK       I    between atoms: N2_9  and  C6_11 
REMARK    3  A    between atoms: C6_11  and  C7_13 
REMARK    4  A    between atoms: C9_22  and  N7_23 
REMARK    5  A    between atoms: N7_23  and  N8_25 
ROOT
HETATM    1  C4  UNL     1      46.985   3.421  17.417  1.00  0.00     0.136 A 
HETATM    2  O1  UNL     1      45.703   3.744  17.574  1.00  0.00    -0.233 OA
HETATM    3  N1  UNL     1      45.162   3.123  18.559  1.00  0.00    -0.242 N 
ATOM      4  H1  UNL     1      44.193   3.211  18.865  1.00  0.00     0.196 HD
HETATM    5  C5  UNL     1      46.091   2.340  19.111  1.00  0.00     0.160 A 
HETATM    6  C9  UNL     1      47.288   2.507  18.397  1.00  0.00     0.130 A 
ENDROOT
BRANCH   5   7
HETATM    7  N2  UNL     1      45.961   1.562  20.115  1.00  0.00    -0.303 N 
HETATM    8  C6  UNL     1      45.080   1.911  21.152  1.00  0.00     0.294 C 
HETATM    9  O2  UNL     1      43.834   1.962  20.935  1.00  0.00    -0.264 OA
ATOM     10  H2  UNL     1      46.493   0.693  20.164  1.00  0.00     0.171 HD
BRANCH   8  11
HETATM   11  C7  UNL     1      45.534   2.228  22.499  1.00  0.00     0.206 A 
HETATM   12  N3  UNL     1      45.966   3.439  22.888  1.00  0.00    -0.264 N 
HETATM   13  N4  UNL     1      46.306   3.401  24.160  1.00  0.00    -0.225 N 
ATOM     14  H3  UNL     1      46.023   4.263  22.289  1.00  0.00     0.190 HD
HETATM   15  N5  UNL     1      46.102   2.175  24.617  1.00  0.00    -0.223 N 
ATOM     16  H4  UNL     1      46.665   4.186  24.704  1.00  0.00     0.210 HD
HETATM   17  C8  UNL     1      46.354   1.750  25.956  1.00  0.00     0.202 C 
HETATM   18  N6  UNL     1      45.626   1.452  23.589  1.00  0.00    -0.262 N 
ATOM     19  H6  UNL     1      45.373   0.465  23.631  1.00  0.00     0.190 HD
ENDBRANCH   8  11
ENDBRANCH   5   7
BRANCH   6  20
HETATM   20  N7  UNL     1      48.508   1.851  18.653  1.00  0.00    -0.301 N 
ATOM     21  H7  UNL     1      49.106   2.229  19.388  1.00  0.00     0.186 HD
BRANCH  20  22
HETATM   22  N8  UNL     1      48.959   0.711  17.964  1.00  0.00    -0.344 N 
ATOM     23  H82 UNL     1      49.231   0.842  16.990  1.00  0.00     0.176 HD
ATOM     24  H81 UNL     1      49.028  -0.221  18.373  1.00  0.00     0.176 HD
ENDBRANCH  20  22
ENDBRANCH   6  20
BRANCH   1  25
HETATM   25  C2  UNL     1      47.830   3.975  16.384  1.00  0.00    -0.033 C 
HETATM   26  C1  UNL     1      48.590   3.302  15.587  1.00  0.00     0.021 C 
HETATM   27  C3  UNL     1      47.812   5.481  16.215  1.00  0.00     0.050 C 
ENDBRANCH   1  25
TORSDOF 5
ENDMDL
