MODEL 1
REMARK VINA RESULT: -6.906511923      0.000      0.000
REMARK  5 active torsions:
REMARK  status: ('A' for Active; 'I' for Inactive)
REMARK    1  A    between atoms: O1_2  and  C2_3 
REMARK    2  A    between atoms: C5_6  and  C6_7 
REMARK    3  A    between atoms: C7_10  and  C8_11 
REMARK    4  A    between atoms: C16_22  and  O4_23 
REMARK    5  A    between atoms: C18_25  and  O5_26 
ROOT
HETATM    1  C2  UNL     1      26.795  -1.434  -1.254  1.00  0.00     0.105 A 
HETATM    2  C3  UNL     1      26.645  -2.775  -1.639  1.00  0.00     0.054 A 
HETATM    3  C4  UNL     1      26.946  -3.220  -2.906  1.00  0.00     0.016 A 
HETATM    4  C5  UNL     1      26.765  -4.578  -3.204  1.00  0.00     0.036 A 
HETATM    5  C7  UNL     1      27.095  -4.923  -4.501  1.00  0.00     0.062 A 
HETATM    6  C14 UNL     1      27.553  -3.954  -5.363  1.00  0.00     0.300 A 
HETATM    7  O2  UNL     1      27.837  -4.323  -6.523  1.00  0.00    -0.259 OA
HETATM    8  O3  UNL     1      27.707  -2.715  -5.058  1.00  0.00    -0.271 OA
HETATM    9  C15 UNL     1      27.410  -2.326  -3.838  1.00  0.00     0.126 A 
HETATM   10  C16 UNL     1      27.568  -0.982  -3.477  1.00  0.00     0.139 A 
HETATM   11  C18 UNL     1      27.266  -0.560  -2.216  1.00  0.00     0.138 A 
ENDROOT
BRANCH   5  12
HETATM   12  C8  UNL     1      26.941  -6.306  -4.963  1.00  0.00    -0.019 A 
HETATM   13  C9  UNL     1      25.846  -6.596  -5.742  1.00  0.00     0.015 A 
HETATM   14  C10 UNL     1      25.638  -7.874  -6.223  1.00  0.00     0.043 A 
HETATM   15  C11 UNL     1      26.561  -8.854  -5.899  1.00  0.00     0.116 A 
HETATM   16  F3  UNL     1      26.403 -10.135  -6.353  1.00  0.00    -0.206 F 
HETATM   17  C12 UNL     1      27.674  -8.571  -5.111  1.00  0.00     0.043 A 
HETATM   18  C13 UNL     1      27.835  -7.292  -4.661  1.00  0.00     0.015 A 
ENDBRANCH   5  12
BRANCH   4  19
HETATM   19  C6  UNL     1      26.274  -5.551  -2.230  1.00  0.00     0.388 C 
HETATM   20  F1  UNL     1      24.944  -5.928  -2.421  1.00  0.00    -0.209 F 
HETATM   21  F2  UNL     1      27.109  -6.628  -2.015  1.00  0.00    -0.209 F 
ENDBRANCH   4  19
BRANCH   1  22
HETATM   22  O1  UNL     1      26.482  -1.042   0.018  1.00  0.00    -0.353 OA
HETATM   23  C1  UNL     1      25.196  -0.858   0.524  1.00  0.00     0.210 C 
ENDBRANCH   1  22
BRANCH  10  24
HETATM   24  O4  UNL     1      28.043  -0.142  -4.484  1.00  0.00    -0.351 OA
HETATM   25  C17 UNL     1      27.173   0.639  -5.256  1.00  0.00     0.210 C 
ENDBRANCH  10  24
BRANCH  11  26
HETATM   26  O5  UNL     1      27.425   0.758  -1.862  1.00  0.00    -0.351 OA
HETATM   27  C19 UNL     1      26.443   1.743  -1.860  1.00  0.00     0.210 C 
ENDBRANCH  11  26
TORSDOF 5
ENDMDL
MODEL 2
REMARK VINA RESULT: -6.548205298      1.020      1.065
REMARK  5 active torsions:
REMARK  status: ('A' for Active; 'I' for Inactive)
REMARK    1  A    between atoms: O1_2  and  C2_3 
REMARK    2  A    between atoms: C5_6  and  C6_7 
REMARK    3  A    between atoms: C7_10  and  C8_11 
REMARK    4  A    between atoms: C16_22  and  O4_23 
REMARK    5  A    between atoms: C18_25  and  O5_26 
ROOT
HETATM    1  C2  UNL     1      26.585  -1.650  -1.767  1.00  0.00     0.105 A 
HETATM    2  C3  UNL     1      26.458  -3.039  -1.915  1.00  0.00     0.054 A 
HETATM    3  C4  UNL     1      26.999  -3.725  -2.979  1.00  0.00     0.016 A 
HETATM    4  C5  UNL     1      26.822  -5.113  -3.047  1.00  0.00     0.036 A 
HETATM    5  C7  UNL     1      27.402  -5.706  -4.152  1.00  0.00     0.062 A 
HETATM    6  C14 UNL     1      28.078  -4.926  -5.062  1.00  0.00     0.300 A 
HETATM    7  O2  UNL     1      28.583  -5.515  -6.041  1.00  0.00    -0.259 OA
HETATM    8  O3  UNL     1      28.222  -3.651  -4.970  1.00  0.00    -0.271 OA
HETATM    9  C15 UNL     1      27.692  -3.031  -3.939  1.00  0.00     0.126 A 
HETATM   10  C16 UNL     1      27.831  -1.644  -3.814  1.00  0.00     0.139 A 
HETATM   11  C18 UNL     1      27.290  -0.983  -2.752  1.00  0.00     0.138 A 
ENDROOT
BRANCH   5  12
HETATM   12  C8  UNL     1      27.285  -7.152  -4.366  1.00  0.00    -0.019 A 
HETATM   13  C9  UNL     1      26.362  -7.583  -5.289  1.00  0.00     0.015 A 
HETATM   14  C10 UNL     1      26.201  -8.930  -5.553  1.00  0.00     0.043 A 
HETATM   15  C11 UNL     1      26.992  -9.831  -4.863  1.00  0.00     0.116 A 
HETATM   16  F3  UNL     1      26.874 -11.176  -5.090  1.00  0.00    -0.206 F 
HETATM   17  C12 UNL     1      27.931  -9.405  -3.927  1.00  0.00     0.043 A 
HETATM   18  C13 UNL     1      28.053  -8.064  -3.702  1.00  0.00     0.015 A 
ENDBRANCH   5  12
BRANCH   4  19
HETATM   19  C6  UNL     1      26.090  -5.875  -2.037  1.00  0.00     0.388 C 
HETATM   20  F1  UNL     1      24.785  -6.202  -2.403  1.00  0.00    -0.209 F 
HETATM   21  F2  UNL     1      26.780  -6.946  -1.507  1.00  0.00    -0.209 F 
ENDBRANCH   4  19
BRANCH   1  22
HETATM   22  O1  UNL     1      26.028  -1.016  -0.691  1.00  0.00    -0.353 OA
HETATM   23  C1  UNL     1      24.703  -0.596  -0.585  1.00  0.00     0.210 C 
ENDBRANCH   1  22
BRANCH  10  24
HETATM   24  O4  UNL     1      28.548  -1.018  -4.835  1.00  0.00    -0.351 OA
HETATM   25  C17 UNL     1      27.907  -0.502  -5.968  1.00  0.00     0.210 C 
ENDBRANCH  10  24
BRANCH  11  26
HETATM   26  O5  UNL     1      27.432   0.378  -2.627  1.00  0.00    -0.351 OA
HETATM   27  C19 UNL     1      26.578   1.354  -3.132  1.00  0.00     0.210 C 
ENDBRANCH  11  26
TORSDOF 5
ENDMDL
MODEL 3
REMARK VINA RESULT: -6.257237090      2.035      3.296
REMARK  5 active torsions:
REMARK  status: ('A' for Active; 'I' for Inactive)
REMARK    1  A    between atoms: O1_2  and  C2_3 
REMARK    2  A    between atoms: C5_6  and  C6_7 
REMARK    3  A    between atoms: C7_10  and  C8_11 
REMARK    4  A    between atoms: C16_22  and  O4_23 
REMARK    5  A    between atoms: C18_25  and  O5_26 
ROOT
HETATM    1  C2  UNL     1      27.727  -0.804  -3.949  1.00  0.00     0.105 A 
HETATM    2  C3  UNL     1      27.802  -2.102  -4.477  1.00  0.00     0.054 A 
HETATM    3  C4  UNL     1      27.283  -3.198  -3.825  1.00  0.00     0.016 A 
HETATM    4  C5  UNL     1      27.404  -4.459  -4.426  1.00  0.00     0.036 A 
HETATM    5  C7  UNL     1      26.852  -5.492  -3.693  1.00  0.00     0.062 A 
HETATM    6  C14 UNL     1      26.255  -5.220  -2.484  1.00  0.00     0.300 A 
HETATM    7  O2  UNL     1      25.773  -6.192  -1.864  1.00  0.00    -0.259 OA
HETATM    8  O3  UNL     1      26.162  -4.050  -1.960  1.00  0.00    -0.271 OA
HETATM    9  C15 UNL     1      26.668  -3.027  -2.611  1.00  0.00     0.126 A 
HETATM   10  C16 UNL     1      26.582  -1.741  -2.064  1.00  0.00     0.139 A 
HETATM   11  C18 UNL     1      27.099  -0.667  -2.725  1.00  0.00     0.138 A 
ENDROOT
BRANCH   5  12
HETATM   12  C8  UNL     1      26.918  -6.871  -4.188  1.00  0.00    -0.019 A 
HETATM   13  C9  UNL     1      26.196  -7.173  -5.318  1.00  0.00     0.015 A 
HETATM   14  C10 UNL     1      26.214  -8.448  -5.850  1.00  0.00     0.043 A 
HETATM   15  C11 UNL     1      26.978  -9.411  -5.214  1.00  0.00     0.116 A 
HETATM   16  F3  UNL     1      27.034 -10.688  -5.703  1.00  0.00    -0.206 F 
HETATM   17  C12 UNL     1      27.714  -9.116  -4.070  1.00  0.00     0.043 A 
HETATM   18  C13 UNL     1      27.663  -7.841  -3.583  1.00  0.00     0.015 A 
ENDBRANCH   5  12
BRANCH   4  19
HETATM   19  C6  UNL     1      28.053  -4.668  -5.719  1.00  0.00     0.388 C 
HETATM   20  F1  UNL     1      27.853  -3.633  -6.633  1.00  0.00    -0.209 F 
HETATM   21  F2  UNL     1      29.371  -5.070  -5.647  1.00  0.00    -0.209 F 
ENDBRANCH   4  19
BRANCH   1  22
HETATM   22  O1  UNL     1      28.258   0.252  -4.637  1.00  0.00    -0.353 OA
HETATM   23  C1  UNL     1      28.620   0.254  -5.983  1.00  0.00     0.210 C 
ENDBRANCH   1  22
BRANCH  10  24
HETATM   24  O4  UNL     1      25.942  -1.656  -0.827  1.00  0.00    -0.351 OA
HETATM   25  C17 UNL     1      24.783  -0.889  -0.654  1.00  0.00     0.210 C 
ENDBRANCH  10  24
BRANCH  11  26
HETATM   26  O5  UNL     1      27.010   0.596  -2.189  1.00  0.00    -0.351 OA
HETATM   27  C19 UNL     1      27.903   1.188  -1.303  1.00  0.00     0.210 C 
ENDBRANCH  11  26
TORSDOF 5
ENDMDL
MODEL 4
REMARK VINA RESULT: -6.187250001      3.666      8.231
REMARK  5 active torsions:
REMARK  status: ('A' for Active; 'I' for Inactive)
REMARK    1  A    between atoms: O1_2  and  C2_3 
REMARK    2  A    between atoms: C5_6  and  C6_7 
REMARK    3  A    between atoms: C7_10  and  C8_11 
REMARK    4  A    between atoms: C16_22  and  O4_23 
REMARK    5  A    between atoms: C18_25  and  O5_26 
ROOT
HETATM    1  C2  UNL     1      26.936  -2.589  -2.569  1.00  0.00     0.105 A 
HETATM    2  C3  UNL     1      26.223  -1.994  -1.517  1.00  0.00     0.054 A 
HETATM    3  C4  UNL     1      26.068  -0.632  -1.403  1.00  0.00     0.016 A 
HETATM    4  C5  UNL     1      25.341  -0.125  -0.318  1.00  0.00     0.036 A 
HETATM    5  C7  UNL     1      25.244   1.253  -0.294  1.00  0.00     0.062 A 
HETATM    6  C14 UNL     1      25.841   1.991  -1.289  1.00  0.00     0.300 A 
HETATM    7  O2  UNL     1      25.721   3.233  -1.218  1.00  0.00    -0.259 OA
HETATM    8  O3  UNL     1      26.504   1.494  -2.273  1.00  0.00    -0.271 OA
HETATM    9  C15 UNL     1      26.630   0.188  -2.349  1.00  0.00     0.126 A 
HETATM   10  C16 UNL     1      27.347  -0.382  -3.409  1.00  0.00     0.139 A 
HETATM   11  C18 UNL     1      27.488  -1.734  -3.506  1.00  0.00     0.138 A 
ENDROOT
BRANCH   5  12
HETATM   12  C8  UNL     1      24.526   1.929   0.792  1.00  0.00    -0.019 A 
HETATM   13  C9  UNL     1      23.188   2.184   0.604  1.00  0.00     0.015 A 
HETATM   14  C10 UNL     1      22.442   2.808   1.586  1.00  0.00     0.043 A 
HETATM   15  C11 UNL     1      23.078   3.169   2.761  1.00  0.00     0.116 A 
HETATM   16  F3  UNL     1      22.383   3.786   3.766  1.00  0.00    -0.206 F 
HETATM   17  C12 UNL     1      24.432   2.914   2.962  1.00  0.00     0.043 A 
HETATM   18  C13 UNL     1      25.125   2.295   1.962  1.00  0.00     0.015 A 
ENDBRANCH   5  12
BRANCH   4  19
HETATM   19  C6  UNL     1      24.731  -0.975   0.703  1.00  0.00     0.388 C 
HETATM   20  F1  UNL     1      25.311  -0.856   1.966  1.00  0.00    -0.209 F 
HETATM   21  F2  UNL     1      23.353  -0.936   0.743  1.00  0.00    -0.209 F 
ENDBRANCH   4  19
BRANCH   1  22
HETATM   22  O1  UNL     1      27.061  -3.949  -2.637  1.00  0.00    -0.353 OA
HETATM   23  C1  UNL     1      26.057  -4.846  -2.998  1.00  0.00     0.210 C 
ENDBRANCH   1  22
BRANCH  10  24
HETATM   24  O4  UNL     1      27.885   0.523  -4.324  1.00  0.00    -0.351 OA
HETATM   25  C17 UNL     1      27.225   0.832  -5.520  1.00  0.00     0.210 C 
ENDBRANCH  10  24
BRANCH  11  26
HETATM   26  O5  UNL     1      28.187  -2.293  -4.549  1.00  0.00    -0.351 OA
HETATM   27  C19 UNL     1      27.653  -2.827  -5.717  1.00  0.00     0.210 C 
ENDBRANCH  11  26
TORSDOF 5
ENDMDL
MODEL 5
REMARK VINA RESULT: -5.909003814      4.518      8.628
REMARK  5 active torsions:
REMARK  status: ('A' for Active; 'I' for Inactive)
REMARK    1  A    between atoms: O1_2  and  C2_3 
REMARK    2  A    between atoms: C5_6  and  C6_7 
REMARK    3  A    between atoms: C7_10  and  C8_11 
REMARK    4  A    between atoms: C16_22  and  O4_23 
REMARK    5  A    between atoms: C18_25  and  O5_26 
ROOT
HETATM    1  C2  UNL     1      27.343   0.085  -4.166  1.00  0.00     0.105 A 
HETATM    2  C3  UNL     1      26.632   0.868  -3.244  1.00  0.00     0.054 A 
HETATM    3  C4  UNL     1      26.169   0.367  -2.048  1.00  0.00     0.016 A 
HETATM    4  C5  UNL     1      25.468   1.221  -1.186  1.00  0.00     0.036 A 
HETATM    5  C7  UNL     1      25.045   0.623  -0.015  1.00  0.00     0.062 A 
HETATM    6  C14 UNL     1      25.329  -0.704   0.208  1.00  0.00     0.300 A 
HETATM    7  O2  UNL     1      24.924  -1.193   1.284  1.00  0.00    -0.259 OA
HETATM    8  O3  UNL     1      25.975  -1.462  -0.605  1.00  0.00    -0.271 OA
HETATM    9  C15 UNL     1      26.404  -0.948  -1.737  1.00  0.00     0.126 A 
HETATM   10  C16 UNL     1      27.109  -1.750  -2.642  1.00  0.00     0.139 A 
HETATM   11  C18 UNL     1      27.562  -1.236  -3.821  1.00  0.00     0.138 A 
ENDROOT
BRANCH   5  12
HETATM   12  C8  UNL     1      24.284   1.389   0.977  1.00  0.00    -0.019 A 
HETATM   13  C9  UNL     1      22.912   1.325   0.911  1.00  0.00     0.015 A 
HETATM   14  C10 UNL     1      22.126   2.011   1.817  1.00  0.00     0.043 A 
HETATM   15  C11 UNL     1      22.758   2.765   2.791  1.00  0.00     0.116 A 
HETATM   16  F3  UNL     1      22.025   3.461   3.715  1.00  0.00    -0.206 F 
HETATM   17  C12 UNL     1      24.146   2.836   2.868  1.00  0.00     0.043 A 
HETATM   18  C13 UNL     1      24.878   2.140   1.950  1.00  0.00     0.015 A 
ENDBRANCH   5  12
BRANCH   4  19
HETATM   19  C6  UNL     1      25.206   2.626  -1.493  1.00  0.00     0.388 C 
HETATM   20  F1  UNL     1      23.853   2.939  -1.628  1.00  0.00    -0.209 F 
HETATM   21  F2  UNL     1      25.886   3.529  -0.702  1.00  0.00    -0.209 F 
ENDBRANCH   4  19
BRANCH   1  22
HETATM   22  O1  UNL     1      27.781   0.630  -5.341  1.00  0.00    -0.353 OA
HETATM   23  C1  UNL     1      27.118   0.578  -6.566  1.00  0.00     0.210 C 
ENDBRANCH   1  22
BRANCH  10  24
HETATM   24  O4  UNL     1      27.303  -3.074  -2.248  1.00  0.00    -0.351 OA
HETATM   25  C17 UNL     1      26.457  -4.099  -2.690  1.00  0.00     0.210 C 
ENDBRANCH  10  24
BRANCH  11  26
HETATM   26  O5  UNL     1      28.259  -2.022  -4.707  1.00  0.00    -0.351 OA
HETATM   27  C19 UNL     1      27.720  -2.857  -5.679  1.00  0.00     0.210 C 
ENDBRANCH  11  26
TORSDOF 5
ENDMDL
