MODEL 1
REMARK VINA RESULT: -6.438310193      0.000      0.000
REMARK  6 active torsions:
REMARK  status: ('A' for Active; 'I' for Inactive)
REMARK    1  A    between atoms: O1_2  and  C2_3 
REMARK    2  A    between atoms: C5_7  and  C6_8 
REMARK    3  A    between atoms: C8_10  and  O2_11 
REMARK    4  A    between atoms: O2_11  and  C9_12 
REMARK    5  A    between atoms: C11_16  and  N1_17 
REMARK    6  A    between atoms: C15_24  and  O5_25 
ROOT
HETATM    1  C6  UNL     1      26.775   0.008  -1.117  1.00  0.00    -0.015 A 
HETATM    2  C7  UNL     1      25.489  -0.394  -0.695  1.00  0.00     0.049 A 
HETATM    3  C8  UNL     1      25.125  -0.495   0.615  1.00  0.00     0.078 A 
HETATM    4  C10 UNL     1      26.085  -0.181   1.603  1.00  0.00     0.068 A 
HETATM    5  C11 UNL     1      27.349   0.214   1.217  1.00  0.00     0.067 A 
HETATM    6  C14 UNL     1      27.685   0.306  -0.134  1.00  0.00     0.044 A 
ENDROOT
BRANCH   1   7
HETATM    7  C5  UNL     1      27.047   0.126  -2.532  1.00  0.00     0.046 A 
HETATM    8  C4  UNL     1      26.601   1.244  -3.197  1.00  0.00     0.132 A 
HETATM    9  C3  UNL     1      26.785   1.355  -4.559  1.00  0.00     0.080 A 
HETATM   10  F1  UNL     1      25.971   2.252  -2.535  1.00  0.00    -0.205 F 
HETATM   11  C2  UNL     1      27.427   0.336  -5.276  1.00  0.00     0.073 A 
HETATM   12  C17 UNL     1      27.873  -0.775  -4.606  1.00  0.00     0.074 A 
HETATM   13  C15 UNL     1      27.696  -0.904  -3.236  1.00  0.00     0.085 A 
BRANCH  11  14
HETATM   14  O1  UNL     1      27.612   0.432  -6.641  1.00  0.00    -0.356 OA
HETATM   15  C1  UNL     1      27.846  -0.645  -7.488  1.00  0.00     0.210 C 
ENDBRANCH  11  14
BRANCH  13  16
HETATM   16  O5  UNL     1      28.151  -2.029  -2.567  1.00  0.00    -0.355 OA
HETATM   17  C16 UNL     1      28.689  -3.106  -3.293  1.00  0.00     0.210 C 
ENDBRANCH  13  16
ENDBRANCH   1   7
BRANCH   3  18
HETATM   18  O2  UNL     1      23.880  -0.887   1.001  1.00  0.00    -0.290 OA
BRANCH  18  19
HETATM   19  C9  UNL     1      22.651  -0.421   0.550  1.00  0.00     0.505 C 
HETATM   20  F2  UNL     1      22.156   0.648   1.310  1.00  0.00    -0.184 F 
HETATM   21  F3  UNL     1      21.675  -1.442   0.621  1.00  0.00    -0.184 F 
ENDBRANCH  18  19
ENDBRANCH   3  18
BRANCH   5  22
HETATM   22  N1  UNL     1      28.298   0.571   2.208  1.00  0.00    -0.176 N 
HETATM   23  C12 UNL     1      29.156   0.033   3.070  1.00  0.00     0.411 A 
HETATM   24  O3  UNL     1      29.491  -1.144   3.363  1.00  0.00    -0.234 OA
HETATM   25  O4  UNL     1      29.523   1.248   3.501  1.00  0.00    -0.161 OA
HETATM   26  N2  UNL     1      28.689   1.779   2.664  1.00  0.00    -0.181 N 
HETATM   27  C13 UNL     1      28.285   3.149   2.314  1.00  0.00     0.209 C 
ENDBRANCH   5  22
TORSDOF 6
ENDMDL
MODEL 2
REMARK VINA RESULT: -6.331623259      1.432      2.094
REMARK  6 active torsions:
REMARK  status: ('A' for Active; 'I' for Inactive)
REMARK    1  A    between atoms: O1_2  and  C2_3 
REMARK    2  A    between atoms: C5_7  and  C6_8 
REMARK    3  A    between atoms: C8_10  and  O2_11 
REMARK    4  A    between atoms: O2_11  and  C9_12 
REMARK    5  A    between atoms: C11_16  and  N1_17 
REMARK    6  A    between atoms: C15_24  and  O5_25 
ROOT
HETATM    1  C6  UNL     1      26.897  -0.324  -1.183  1.00  0.00    -0.015 A 
HETATM    2  C7  UNL     1      25.591  -0.676  -0.780  1.00  0.00     0.049 A 
HETATM    3  C8  UNL     1      25.164  -0.622   0.514  1.00  0.00     0.078 A 
HETATM    4  C10 UNL     1      26.076  -0.193   1.504  1.00  0.00     0.068 A 
HETATM    5  C11 UNL     1      27.358   0.157   1.136  1.00  0.00     0.067 A 
HETATM    6  C14 UNL     1      27.760   0.089  -0.199  1.00  0.00     0.044 A 
ENDROOT
BRANCH   1   7
HETATM    7  C5  UNL     1      27.238  -0.373  -2.587  1.00  0.00     0.046 A 
HETATM    8  C4  UNL     1      27.920  -1.469  -3.061  1.00  0.00     0.132 A 
HETATM    9  C3  UNL     1      28.318  -1.515  -4.381  1.00  0.00     0.080 A 
HETATM   10  F1  UNL     1      28.217  -2.519  -2.248  1.00  0.00    -0.205 F 
HETATM   11  C2  UNL     1      28.032  -0.452  -5.248  1.00  0.00     0.073 A 
HETATM   12  C17 UNL     1      27.349   0.637  -4.769  1.00  0.00     0.074 A 
HETATM   13  C15 UNL     1      26.940   0.701  -3.445  1.00  0.00     0.085 A 
BRANCH  11  14
HETATM   14  O1  UNL     1      28.431  -0.483  -6.570  1.00  0.00    -0.356 OA
HETATM   15  C1  UNL     1      27.570  -0.436  -7.660  1.00  0.00     0.210 C 
ENDBRANCH  11  14
BRANCH  13  16
HETATM   16  O5  UNL     1      26.250   1.804  -2.971  1.00  0.00    -0.355 OA
HETATM   17  C16 UNL     1      25.391   2.516  -3.828  1.00  0.00     0.210 C 
ENDBRANCH  13  16
ENDBRANCH   1   7
BRANCH   3  18
HETATM   18  O2  UNL     1      23.900  -0.968   0.883  1.00  0.00    -0.290 OA
BRANCH  18  19
HETATM   19  C9  UNL     1      22.696  -0.432   0.442  1.00  0.00     0.505 C 
HETATM   20  F2  UNL     1      22.325   0.729   1.134  1.00  0.00    -0.184 F 
HETATM   21  F3  UNL     1      21.642  -1.356   0.627  1.00  0.00    -0.184 F 
ENDBRANCH  18  19
ENDBRANCH   3  18
BRANCH   5  22
HETATM   22  N1  UNL     1      28.259   0.629   2.123  1.00  0.00    -0.176 N 
HETATM   23  C12 UNL     1      29.227   0.212   2.936  1.00  0.00     0.411 A 
HETATM   24  O3  UNL     1      29.775  -0.899   3.158  1.00  0.00    -0.234 OA
HETATM   25  O4  UNL     1      29.385   1.450   3.422  1.00  0.00    -0.161 OA
HETATM   26  N2  UNL     1      28.444   1.864   2.634  1.00  0.00    -0.181 N 
HETATM   27  C13 UNL     1      27.793   3.155   2.366  1.00  0.00     0.209 C 
ENDBRANCH   5  22
TORSDOF 6
ENDMDL
MODEL 3
REMARK VINA RESULT: -6.305209705      1.716      2.067
REMARK  6 active torsions:
REMARK  status: ('A' for Active; 'I' for Inactive)
REMARK    1  A    between atoms: O1_2  and  C2_3 
REMARK    2  A    between atoms: C5_7  and  C6_8 
REMARK    3  A    between atoms: C8_10  and  O2_11 
REMARK    4  A    between atoms: O2_11  and  C9_12 
REMARK    5  A    between atoms: C11_16  and  N1_17 
REMARK    6  A    between atoms: C15_24  and  O5_25 
ROOT
HETATM    1  C6  UNL     1      26.010  -0.656  -0.952  1.00  0.00    -0.015 A 
HETATM    2  C7  UNL     1      24.653  -0.271  -0.889  1.00  0.00     0.049 A 
HETATM    3  C8  UNL     1      23.942  -0.215   0.273  1.00  0.00     0.078 A 
HETATM    4  C10 UNL     1      24.595  -0.560   1.476  1.00  0.00     0.068 A 
HETATM    5  C11 UNL     1      25.920  -0.940   1.442  1.00  0.00     0.067 A 
HETATM    6  C14 UNL     1      26.618  -0.986   0.233  1.00  0.00     0.044 A 
ENDROOT
BRANCH   1   7
HETATM    7  C5  UNL     1      26.688  -0.640  -2.229  1.00  0.00     0.046 A 
HETATM    8  C4  UNL     1      27.017   0.574  -2.785  1.00  0.00     0.132 A 
HETATM    9  C3  UNL     1      27.603   0.626  -4.032  1.00  0.00     0.080 A 
HETATM   10  F1  UNL     1      26.771   1.739  -2.126  1.00  0.00    -0.205 F 
HETATM   11  C2  UNL     1      27.870  -0.553  -4.742  1.00  0.00     0.073 A 
HETATM   12  C17 UNL     1      27.542  -1.761  -4.181  1.00  0.00     0.074 A 
HETATM   13  C15 UNL     1      26.952  -1.832  -2.927  1.00  0.00     0.085 A 
BRANCH  11  14
HETATM   14  O1  UNL     1      28.450  -0.514  -5.995  1.00  0.00    -0.356 OA
HETATM   15  C1  UNL     1      27.763  -0.676  -7.192  1.00  0.00     0.210 C 
ENDBRANCH  11  14
BRANCH  13  16
HETATM   16  O5  UNL     1      26.626  -3.057  -2.368  1.00  0.00    -0.355 OA
HETATM   17  C16 UNL     1      26.005  -4.044  -3.154  1.00  0.00     0.210 C 
ENDBRANCH  13  16
ENDBRANCH   1   7
BRANCH   3  18
HETATM   18  O2  UNL     1      22.633   0.157   0.312  1.00  0.00    -0.290 OA
BRANCH  18  19
HETATM   19  C9  UNL     1      22.093   1.373   0.715  1.00  0.00     0.505 C 
HETATM   20  F2  UNL     1      23.011   2.431   0.646  1.00  0.00    -0.184 F 
HETATM   21  F3  UNL     1      21.668   1.306   2.062  1.00  0.00    -0.184 F 
ENDBRANCH  18  19
ENDBRANCH   3  18
BRANCH   5  22
HETATM   22  N1  UNL     1      26.587  -1.245   2.655  1.00  0.00    -0.176 N 
HETATM   23  C12 UNL     1      26.610  -2.145   3.634  1.00  0.00     0.411 A 
HETATM   24  O3  UNL     1      25.967  -3.199   3.879  1.00  0.00    -0.234 OA
HETATM   25  O4  UNL     1      27.594  -1.481   4.256  1.00  0.00    -0.161 OA
HETATM   26  N2  UNL     1      27.578  -0.600   3.306  1.00  0.00    -0.181 N 
HETATM   27  C13 UNL     1      28.319   0.635   3.009  1.00  0.00     0.209 C 
ENDBRANCH   5  22
TORSDOF 6
ENDMDL
MODEL 4
REMARK VINA RESULT: -6.170542178      2.075      2.807
REMARK  6 active torsions:
REMARK  status: ('A' for Active; 'I' for Inactive)
REMARK    1  A    between atoms: O1_2  and  C2_3 
REMARK    2  A    between atoms: C5_7  and  C6_8 
REMARK    3  A    between atoms: C8_10  and  O2_11 
REMARK    4  A    between atoms: O2_11  and  C9_12 
REMARK    5  A    between atoms: C11_16  and  N1_17 
REMARK    6  A    between atoms: C15_24  and  O5_25 
ROOT
HETATM    1  C6  UNL     1      25.848  -0.707  -0.844  1.00  0.00    -0.015 A 
HETATM    2  C7  UNL     1      24.482  -0.372  -0.720  1.00  0.00     0.049 A 
HETATM    3  C8  UNL     1      23.825  -0.331   0.473  1.00  0.00     0.078 A 
HETATM    4  C10 UNL     1      24.546  -0.640   1.647  1.00  0.00     0.068 A 
HETATM    5  C11 UNL     1      25.882  -0.970   1.553  1.00  0.00     0.067 A 
HETATM    6  C14 UNL     1      26.523  -1.001   0.314  1.00  0.00     0.044 A 
ENDROOT
BRANCH   1   7
HETATM    7  C5  UNL     1      26.464  -0.678  -2.153  1.00  0.00     0.046 A 
HETATM    8  C4  UNL     1      26.834  -1.869  -2.732  1.00  0.00     0.132 A 
HETATM    9  C3  UNL     1      27.484  -1.871  -3.949  1.00  0.00     0.080 A 
HETATM   10  F1  UNL     1      26.573  -3.058  -2.125  1.00  0.00    -0.205 F 
HETATM   11  C2  UNL     1      27.771  -0.665  -4.603  1.00  0.00     0.073 A 
HETATM   12  C17 UNL     1      27.397   0.519  -4.021  1.00  0.00     0.074 A 
HETATM   13  C15 UNL     1      26.743   0.540  -2.798  1.00  0.00     0.085 A 
BRANCH  11  14
HETATM   14  O1  UNL     1      28.428  -0.654  -5.819  1.00  0.00    -0.356 OA
HETATM   15  C1  UNL     1      27.801  -0.656  -7.059  1.00  0.00     0.210 C 
ENDBRANCH  11  14
BRANCH  13  16
HETATM   16  O5  UNL     1      26.367   1.741  -2.218  1.00  0.00    -0.355 OA
HETATM   17  C16 UNL     1      25.397   2.546  -2.839  1.00  0.00     0.210 C 
ENDBRANCH  13  16
ENDBRANCH   1   7
BRANCH   3  18
HETATM   18  O2  UNL     1      22.506  -0.009   0.571  1.00  0.00    -0.290 OA
BRANCH  18  19
HETATM   19  C9  UNL     1      21.940   1.225   0.868  1.00  0.00     0.505 C 
HETATM   20  F2  UNL     1      22.782   2.304   0.564  1.00  0.00    -0.184 F 
HETATM   21  F3  UNL     1      21.656   1.323   2.250  1.00  0.00    -0.184 F 
ENDBRANCH  18  19
ENDBRANCH   3  18
BRANCH   5  22
HETATM   22  N1  UNL     1      26.617  -1.237   2.736  1.00  0.00    -0.176 N 
HETATM   23  C12 UNL     1      26.733  -2.136   3.710  1.00  0.00     0.411 A 
HETATM   24  O3  UNL     1      26.163  -3.225   3.977  1.00  0.00    -0.234 OA
HETATM   25  O4  UNL     1      27.702  -1.416   4.292  1.00  0.00    -0.161 OA
HETATM   26  N2  UNL     1      27.595  -0.537   3.347  1.00  0.00    -0.181 N 
HETATM   27  C13 UNL     1      28.250   0.739   3.023  1.00  0.00     0.209 C 
ENDBRANCH   5  22
TORSDOF 6
ENDMDL
MODEL 5
REMARK VINA RESULT: -6.105855827      2.881      6.968
REMARK  6 active torsions:
REMARK  status: ('A' for Active; 'I' for Inactive)
REMARK    1  A    between atoms: O1_2  and  C2_3 
REMARK    2  A    between atoms: C5_7  and  C6_8 
REMARK    3  A    between atoms: C8_10  and  O2_11 
REMARK    4  A    between atoms: O2_11  and  C9_12 
REMARK    5  A    between atoms: C11_16  and  N1_17 
REMARK    6  A    between atoms: C15_24  and  O5_25 
ROOT
HETATM    1  C6  UNL     1      26.340  -0.399  -0.972  1.00  0.00    -0.015 A 
HETATM    2  C7  UNL     1      26.456   0.652  -1.907  1.00  0.00     0.049 A 
HETATM    3  C8  UNL     1      26.918   0.478  -3.178  1.00  0.00     0.078 A 
HETATM    4  C10 UNL     1      27.302  -0.821  -3.580  1.00  0.00     0.068 A 
HETATM    5  C11 UNL     1      27.199  -1.864  -2.685  1.00  0.00     0.067 A 
HETATM    6  C14 UNL     1      26.720  -1.649  -1.391  1.00  0.00     0.044 A 
ENDROOT
BRANCH   1   7
HETATM    7  C5  UNL     1      25.795  -0.118   0.338  1.00  0.00     0.046 A 
HETATM    8  C4  UNL     1      24.429  -0.058   0.484  1.00  0.00     0.132 A 
HETATM    9  C3  UNL     1      23.879   0.273   1.705  1.00  0.00     0.080 A 
HETATM   10  F1  UNL     1      23.598  -0.319  -0.561  1.00  0.00    -0.205 F 
HETATM   11  C2  UNL     1      24.704   0.550   2.804  1.00  0.00     0.073 A 
HETATM   12  C17 UNL     1      26.066   0.485   2.653  1.00  0.00     0.074 A 
HETATM   13  C15 UNL     1      26.635   0.153   1.432  1.00  0.00     0.085 A 
BRANCH  11  14
HETATM   14  O1  UNL     1      24.166   0.890   4.030  1.00  0.00    -0.356 OA
HETATM   15  C1  UNL     1      23.651   2.140   4.350  1.00  0.00     0.210 C 
ENDBRANCH  11  14
BRANCH  13  16
HETATM   16  O5  UNL     1      28.012   0.089   1.289  1.00  0.00    -0.355 OA
HETATM   17  C16 UNL     1      28.846   0.404   2.377  1.00  0.00     0.210 C 
ENDBRANCH  13  16
ENDBRANCH   1   7
BRANCH   3  18
HETATM   18  O2  UNL     1      27.025   1.505  -4.065  1.00  0.00    -0.290 OA
BRANCH  18  19
HETATM   19  C9  UNL     1      26.133   1.879  -5.063  1.00  0.00     0.505 C 
HETATM   20  F2  UNL     1      24.791   1.774  -4.668  1.00  0.00    -0.184 F 
HETATM   21  F3  UNL     1      26.276   1.047  -6.196  1.00  0.00    -0.184 F 
ENDBRANCH  18  19
ENDBRANCH   3  18
BRANCH   5  22
HETATM   22  N1  UNL     1      27.543  -3.174  -3.102  1.00  0.00    -0.176 N 
HETATM   23  C12 UNL     1      28.598  -3.951  -3.333  1.00  0.00     0.411 A 
HETATM   24  O3  UNL     1      29.844  -3.793  -3.254  1.00  0.00    -0.234 OA
HETATM   25  O4  UNL     1      27.802  -4.971  -3.682  1.00  0.00    -0.161 OA
HETATM   26  N2  UNL     1      26.770  -4.221  -3.459  1.00  0.00    -0.181 N 
HETATM   27  C13 UNL     1      25.312  -4.390  -3.550  1.00  0.00     0.209 C 
ENDBRANCH   5  22
TORSDOF 6
ENDMDL
