MODEL 1
REMARK VINA RESULT: -8.391773261      0.000      0.000
REMARK  5 active torsions:
REMARK  status: ('A' for Active; 'I' for Inactive)
REMARK    1  A    between atoms: O1_2  and  C2_3 
REMARK    2  A    between atoms: C4_5  and  O2_6 
REMARK    3  A    between atoms: O2_6  and  C5_7 
REMARK    4  A    between atoms: C9_15  and  C10_16 
REMARK    5  A    between atoms: C10_16  and  C11_17 
ROOT
HETATM    1  C5  UNL     1      26.559  -2.643  -3.046  1.00  0.00     0.172 A 
HETATM    2  N1  UNL     1      27.048  -2.271  -4.260  1.00  0.00    -0.263 N 
ATOM      3  H1  UNL     1      26.920  -2.796  -5.125  1.00  0.00     0.190 HD
HETATM    4  N2  UNL     1      27.715  -1.130  -4.162  1.00  0.00    -0.193 N 
HETATM    5  C6  UNL     1      28.353  -0.456  -5.214  1.00  0.00     0.205 C 
HETATM    6  N3  UNL     1      28.895   0.087  -6.092  1.00  0.00    -0.170 NA
HETATM    7  C7  UNL     1      27.656  -0.757  -2.866  1.00  0.00     0.052 A 
HETATM    8  C8  UNL     1      28.280   0.472  -2.330  1.00  0.00     0.072 C 
HETATM    9  C9  UNL     1      26.943  -1.677  -2.141  1.00  0.00     0.024 A 
ENDROOT
BRANCH   1  10
HETATM   10  O2  UNL     1      25.815  -3.762  -2.740  1.00  0.00    -0.289 OA
BRANCH  10  11
HETATM   11  C4  UNL     1      26.090  -5.012  -3.216  1.00  0.00     0.122 A 
HETATM   12  C3  UNL     1      26.434  -6.023  -2.352  1.00  0.00     0.080 A 
HETATM   13  C2  UNL     1      26.718  -7.308  -2.813  1.00  0.00     0.112 A 
HETATM   14  C19 UNL     1      26.650  -7.559  -4.166  1.00  0.00     0.191 A 
HETATM   15  C18 UNL     1      26.306  -6.560  -5.053  1.00  0.00     0.199 A 
HETATM   16  F3  UNL     1      26.920  -8.805  -4.670  1.00  0.00    -0.200 F 
HETATM   17  C17 UNL     1      26.026  -5.279  -4.554  1.00  0.00     0.192 A 
HETATM   18  F2  UNL     1      26.238  -6.799  -6.384  1.00  0.00    -0.199 F 
HETATM   19  F1  UNL     1      25.680  -4.290  -5.404  1.00  0.00    -0.200 F 
BRANCH  13  20
HETATM   20  O1  UNL     1      27.064  -8.338  -1.975  1.00  0.00    -0.353 OA
HETATM   21  C1  UNL     1      28.298  -9.009  -2.116  1.00  0.00     0.210 C 
ENDBRANCH  13  20
ENDBRANCH  10  11
ENDBRANCH   1  10
BRANCH   9  22
HETATM   22  C10 UNL     1      26.671  -1.618  -0.695  1.00  0.00     0.083 C 
BRANCH  22  23
HETATM   23  C11 UNL     1      25.488  -0.843  -0.316  1.00  0.00    -0.054 A 
HETATM   24  C12 UNL     1      24.746  -0.076  -1.189  1.00  0.00     0.007 A 
HETATM   25  C13 UNL     1      23.643   0.620  -0.723  1.00  0.00     0.001 A 
HETATM   26  C14 UNL     1      23.236   0.589   0.587  1.00  0.00     0.000 A 
HETATM   27  C15 UNL     1      23.980  -0.184   1.474  1.00  0.00     0.001 A 
HETATM   28  C16 UNL     1      25.076  -0.874   1.010  1.00  0.00     0.007 A 
ENDBRANCH  22  23
ENDBRANCH   9  22
TORSDOF 5
ENDMDL
MODEL 2
REMARK VINA RESULT: -8.279152070      2.021      2.728
REMARK  5 active torsions:
REMARK  status: ('A' for Active; 'I' for Inactive)
REMARK    1  A    between atoms: O1_2  and  C2_3 
REMARK    2  A    between atoms: C4_5  and  O2_6 
REMARK    3  A    between atoms: O2_6  and  C5_7 
REMARK    4  A    between atoms: C9_15  and  C10_16 
REMARK    5  A    between atoms: C10_16  and  C11_17 
ROOT
HETATM    1  C5  UNL     1      26.496  -3.977  -4.343  1.00  0.00     0.172 A 
HETATM    2  N1  UNL     1      26.761  -3.539  -5.604  1.00  0.00    -0.263 N 
ATOM      3  H1  UNL     1      26.497  -4.030  -6.458  1.00  0.00     0.190 HD
HETATM    4  N2  UNL     1      27.409  -2.384  -5.567  1.00  0.00    -0.193 N 
HETATM    5  C6  UNL     1      27.841  -1.647  -6.680  1.00  0.00     0.205 C 
HETATM    6  N3  UNL     1      28.212  -1.050  -7.611  1.00  0.00    -0.170 NA
HETATM    7  C7  UNL     1      27.566  -2.068  -4.264  1.00  0.00     0.052 A 
HETATM    8  C8  UNL     1      28.245  -0.845  -3.785  1.00  0.00     0.072 C 
HETATM    9  C9  UNL     1      27.008  -3.040  -3.472  1.00  0.00     0.024 A 
ENDROOT
BRANCH   1  10
HETATM   10  O2  UNL     1      25.841  -5.131  -3.968  1.00  0.00    -0.289 OA
BRANCH  10  11
HETATM   11  C4  UNL     1      26.437  -6.358  -3.906  1.00  0.00     0.122 A 
HETATM   12  C3  UNL     1      26.683  -7.067  -5.056  1.00  0.00     0.080 A 
HETATM   13  C2  UNL     1      27.290  -8.321  -5.020  1.00  0.00     0.112 A 
HETATM   14  C19 UNL     1      27.646  -8.854  -3.800  1.00  0.00     0.191 A 
HETATM   15  C18 UNL     1      27.409  -8.160  -2.631  1.00  0.00     0.199 A 
HETATM   16  F3  UNL     1      28.246 -10.083  -3.710  1.00  0.00    -0.200 F 
HETATM   17  C17 UNL     1      26.797  -6.899  -2.704  1.00  0.00     0.192 A 
HETATM   18  F2  UNL     1      27.757  -8.675  -1.428  1.00  0.00    -0.199 F 
HETATM   19  F1  UNL     1      26.564  -6.201  -1.575  1.00  0.00    -0.200 F 
BRANCH  13  20
HETATM   20  O1  UNL     1      27.550  -9.054  -6.151  1.00  0.00    -0.353 OA
HETATM   21  C1  UNL     1      26.830 -10.235  -6.435  1.00  0.00     0.210 C 
ENDBRANCH  13  20
ENDBRANCH  10  11
ENDBRANCH   1  10
BRANCH   9  22
HETATM   22  C10 UNL     1      26.988  -3.051  -2.000  1.00  0.00     0.083 C 
BRANCH  22  23
HETATM   23  C11 UNL     1      26.499  -1.820  -1.376  1.00  0.00    -0.054 A 
HETATM   24  C12 UNL     1      25.205  -1.356  -1.478  1.00  0.00     0.007 A 
HETATM   25  C13 UNL     1      24.847  -0.176  -0.847  1.00  0.00     0.001 A 
HETATM   26  C14 UNL     1      25.726   0.574  -0.107  1.00  0.00     0.000 A 
HETATM   27  C15 UNL     1      27.035   0.111   0.000  1.00  0.00     0.001 A 
HETATM   28  C16 UNL     1      27.389  -1.061  -0.627  1.00  0.00     0.007 A 
ENDBRANCH  22  23
ENDBRANCH   9  22
TORSDOF 5
ENDMDL
MODEL 3
REMARK VINA RESULT: -8.271809385      3.628      5.534
REMARK  5 active torsions:
REMARK  status: ('A' for Active; 'I' for Inactive)
REMARK    1  A    between atoms: O1_2  and  C2_3 
REMARK    2  A    between atoms: C4_5  and  O2_6 
REMARK    3  A    between atoms: O2_6  and  C5_7 
REMARK    4  A    between atoms: C9_15  and  C10_16 
REMARK    5  A    between atoms: C10_16  and  C11_17 
ROOT
HETATM    1  C5  UNL     1      25.161   2.291  -4.228  1.00  0.00     0.172 A 
HETATM    2  N1  UNL     1      24.129   2.179  -5.108  1.00  0.00    -0.263 N 
ATOM      3  H1  UNL     1      24.222   1.874  -6.077  1.00  0.00     0.190 HD
HETATM    4  N2  UNL     1      22.986   2.522  -4.531  1.00  0.00    -0.193 N 
HETATM    5  C6  UNL     1      21.724   2.525  -5.142  1.00  0.00     0.205 C 
HETATM    6  N3  UNL     1      20.681   2.543  -5.664  1.00  0.00    -0.170 NA
HETATM    7  C7  UNL     1      23.282   2.859  -3.257  1.00  0.00     0.052 A 
HETATM    8  C8  UNL     1      22.279   3.304  -2.266  1.00  0.00     0.072 C 
HETATM    9  C9  UNL     1      24.629   2.727  -3.034  1.00  0.00     0.024 A 
ENDROOT
BRANCH   1  10
HETATM   10  O2  UNL     1      26.495   2.027  -4.449  1.00  0.00    -0.289 OA
BRANCH  10  11
HETATM   11  C4  UNL     1      27.007   0.770  -4.601  1.00  0.00     0.122 A 
HETATM   12  C3  UNL     1      27.278  -0.005  -3.500  1.00  0.00     0.080 A 
HETATM   13  C2  UNL     1      27.800  -1.292  -3.628  1.00  0.00     0.112 A 
HETATM   14  C19 UNL     1      28.047  -1.787  -4.890  1.00  0.00     0.191 A 
HETATM   15  C18 UNL     1      27.783  -1.027  -6.011  1.00  0.00     0.199 A 
HETATM   16  F3  UNL     1      28.560  -3.045  -5.071  1.00  0.00    -0.200 F 
HETATM   17  C17 UNL     1      27.257   0.264  -5.845  1.00  0.00     0.192 A 
HETATM   18  F2  UNL     1      28.023  -1.506  -7.255  1.00  0.00    -0.199 F 
HETATM   19  F1  UNL     1      26.984   1.020  -6.927  1.00  0.00    -0.200 F 
BRANCH  13  20
HETATM   20  O1  UNL     1      28.080  -2.091  -2.549  1.00  0.00    -0.353 OA
HETATM   21  C1  UNL     1      27.115  -2.984  -2.033  1.00  0.00     0.210 C 
ENDBRANCH  13  20
ENDBRANCH  10  11
ENDBRANCH   1  10
BRANCH   9  22
HETATM   22  C10 UNL     1      25.328   3.010  -1.770  1.00  0.00     0.083 C 
BRANCH  22  23
HETATM   23  C11 UNL     1      25.709   1.830  -0.991  1.00  0.00    -0.054 A 
HETATM   24  C12 UNL     1      26.930   1.666  -0.373  1.00  0.00     0.007 A 
HETATM   25  C13 UNL     1      27.189   0.506   0.339  1.00  0.00     0.001 A 
HETATM   26  C14 UNL     1      26.277  -0.512   0.469  1.00  0.00     0.000 A 
HETATM   27  C15 UNL     1      25.042  -0.352  -0.153  1.00  0.00     0.001 A 
HETATM   28  C16 UNL     1      24.787   0.800  -0.860  1.00  0.00     0.007 A 
ENDBRANCH  22  23
ENDBRANCH   9  22
TORSDOF 5
ENDMDL
MODEL 4
REMARK VINA RESULT: -8.210756473      2.023      4.314
REMARK  5 active torsions:
REMARK  status: ('A' for Active; 'I' for Inactive)
REMARK    1  A    between atoms: O1_2  and  C2_3 
REMARK    2  A    between atoms: C4_5  and  O2_6 
REMARK    3  A    between atoms: O2_6  and  C5_7 
REMARK    4  A    between atoms: C9_15  and  C10_16 
REMARK    5  A    between atoms: C10_16  and  C11_17 
ROOT
HETATM    1  C5  UNL     1      27.278  -2.108  -2.361  1.00  0.00     0.172 A 
HETATM    2  N1  UNL     1      26.292  -2.281  -1.438  1.00  0.00    -0.263 N 
ATOM      3  H1  UNL     1      25.965  -3.185  -1.099  1.00  0.00     0.190 HD
HETATM    4  N2  UNL     1      25.817  -1.109  -1.041  1.00  0.00    -0.193 N 
HETATM    5  C6  UNL     1      24.796  -0.912  -0.101  1.00  0.00     0.205 C 
HETATM    6  N3  UNL     1      23.933  -0.757   0.669  1.00  0.00    -0.170 NA
HETATM    7  C7  UNL     1      26.506  -0.163  -1.716  1.00  0.00     0.052 A 
HETATM    8  C8  UNL     1      26.282   1.290  -1.561  1.00  0.00     0.072 C 
HETATM    9  C9  UNL     1      27.425  -0.751  -2.547  1.00  0.00     0.024 A 
ENDROOT
BRANCH   1  10
HETATM   10  O2  UNL     1      28.013  -3.079  -3.006  1.00  0.00    -0.289 OA
BRANCH  10  11
HETATM   11  C4  UNL     1      27.490  -4.257  -3.457  1.00  0.00     0.122 A 
HETATM   12  C3  UNL     1      27.500  -5.371  -2.654  1.00  0.00     0.080 A 
HETATM   13  C2  UNL     1      26.972  -6.585  -3.089  1.00  0.00     0.112 A 
HETATM   14  C19 UNL     1      26.429  -6.660  -4.354  1.00  0.00     0.191 A 
HETATM   15  C18 UNL     1      26.407  -5.553  -5.178  1.00  0.00     0.199 A 
HETATM   16  F3  UNL     1      25.896  -7.829  -4.830  1.00  0.00    -0.200 F 
HETATM   17  C17 UNL     1      26.948  -4.347  -4.707  1.00  0.00     0.192 A 
HETATM   18  F2  UNL     1      25.876  -5.618  -6.422  1.00  0.00    -0.199 F 
HETATM   19  F1  UNL     1      26.928  -3.252  -5.494  1.00  0.00    -0.200 F 
BRANCH  13  20
HETATM   20  O1  UNL     1      26.967  -7.716  -2.311  1.00  0.00    -0.353 OA
HETATM   21  C1  UNL     1      27.943  -8.721  -2.480  1.00  0.00     0.210 C 
ENDBRANCH  13  20
ENDBRANCH  10  11
ENDBRANCH   1  10
BRANCH   9  22
HETATM   22  C10 UNL     1      28.353  -0.045  -3.446  1.00  0.00     0.083 C 
BRANCH  22  23
HETATM   23  C11 UNL     1      27.915   0.055  -4.840  1.00  0.00    -0.054 A 
HETATM   24  C12 UNL     1      26.900   0.878  -5.280  1.00  0.00     0.007 A 
HETATM   25  C13 UNL     1      26.564   0.894  -6.623  1.00  0.00     0.001 A 
HETATM   26  C14 UNL     1      27.198   0.123  -7.564  1.00  0.00     0.000 A 
HETATM   27  C15 UNL     1      28.225  -0.710  -7.126  1.00  0.00     0.001 A 
HETATM   28  C16 UNL     1      28.557  -0.726  -5.792  1.00  0.00     0.007 A 
ENDBRANCH  22  23
ENDBRANCH   9  22
TORSDOF 5
ENDMDL
MODEL 5
REMARK VINA RESULT: -8.195187444      2.554      3.542
REMARK  5 active torsions:
REMARK  status: ('A' for Active; 'I' for Inactive)
REMARK    1  A    between atoms: O1_2  and  C2_3 
REMARK    2  A    between atoms: C4_5  and  O2_6 
REMARK    3  A    between atoms: O2_6  and  C5_7 
REMARK    4  A    between atoms: C9_15  and  C10_16 
REMARK    5  A    between atoms: C10_16  and  C11_17 
ROOT
HETATM    1  C5  UNL     1      27.197   0.239  -2.304  1.00  0.00     0.172 A 
HETATM    2  N1  UNL     1      26.513   0.859  -3.304  1.00  0.00    -0.263 N 
ATOM      3  H1  UNL     1      26.454   0.521  -4.264  1.00  0.00     0.190 HD
HETATM    4  N2  UNL     1      25.933   1.962  -2.854  1.00  0.00    -0.193 N 
HETATM    5  C6  UNL     1      25.150   2.846  -3.611  1.00  0.00     0.205 C 
HETATM    6  N3  UNL     1      24.515   3.586  -4.252  1.00  0.00    -0.170 NA
HETATM    7  C7  UNL     1      26.245   2.058  -1.544  1.00  0.00     0.052 A 
HETATM    8  C8  UNL     1      25.791   3.157  -0.665  1.00  0.00     0.072 C 
HETATM    9  C9  UNL     1      27.033   1.000  -1.168  1.00  0.00     0.024 A 
ENDROOT
BRANCH   1  10
HETATM   10  O2  UNL     1      27.926  -0.929  -2.374  1.00  0.00    -0.289 OA
BRANCH  10  11
HETATM   11  C4  UNL     1      27.567  -2.006  -3.133  1.00  0.00     0.122 A 
HETATM   12  C3  UNL     1      26.841  -3.032  -2.579  1.00  0.00     0.080 A 
HETATM   13  C2  UNL     1      26.461  -4.142  -3.332  1.00  0.00     0.112 A 
HETATM   14  C19 UNL     1      26.827  -4.203  -4.659  1.00  0.00     0.191 A 
HETATM   15  C18 UNL     1      27.556  -3.183  -5.238  1.00  0.00     0.199 A 
HETATM   16  F3  UNL     1      26.478  -5.272  -5.444  1.00  0.00    -0.200 F 
HETATM   17  C17 UNL     1      27.920  -2.081  -4.450  1.00  0.00     0.192 A 
HETATM   18  F2  UNL     1      27.919  -3.235  -6.542  1.00  0.00    -0.199 F 
HETATM   19  F1  UNL     1      28.625  -1.070  -4.998  1.00  0.00    -0.200 F 
BRANCH  13  20
HETATM   20  O1  UNL     1      25.736  -5.183  -2.809  1.00  0.00    -0.353 OA
HETATM   21  C1  UNL     1      26.367  -6.378  -2.401  1.00  0.00     0.210 C 
ENDBRANCH  13  20
ENDBRANCH  10  11
ENDBRANCH   1  10
BRANCH   9  22
HETATM   22  C10 UNL     1      27.578   0.764   0.179  1.00  0.00     0.083 C 
BRANCH  22  23
HETATM   23  C11 UNL     1      26.725  -0.031   1.066  1.00  0.00    -0.054 A 
HETATM   24  C12 UNL     1      25.458  -0.467   0.743  1.00  0.00     0.007 A 
HETATM   25  C13 UNL     1      24.736  -1.214   1.658  1.00  0.00     0.001 A 
HETATM   26  C14 UNL     1      25.220  -1.554   2.896  1.00  0.00     0.000 A 
HETATM   27  C15 UNL     1      26.499  -1.116   3.229  1.00  0.00     0.001 A 
HETATM   28  C16 UNL     1      27.215  -0.374   2.319  1.00  0.00     0.007 A 
ENDBRANCH  22  23
ENDBRANCH   9  22
TORSDOF 5
ENDMDL
