MODEL 1
REMARK VINA RESULT: -7.508427696      0.000      0.000
REMARK  7 active torsions:
REMARK  status: ('A' for Active; 'I' for Inactive)
REMARK    1  A    between atoms: N2_6  and  C4_8 
REMARK    2  A    between atoms: C4_8  and  C5_9 
REMARK    3  A    between atoms: C5_9  and  O1_10 
REMARK    4  A    between atoms: C8_16  and  C9_17 
REMARK    5  A    between atoms: C9_17  and  C10_18 
REMARK    6  A    between atoms: C14_23  and  O3_24 
REMARK    7  A    between atoms: O3_24  and  C15_25 
ROOT
HETATM    1  C1  UNL     1     -20.575 -11.416 -19.444  1.00  0.00     0.045 C 
HETATM    2  C2  UNL     1     -20.054 -11.888 -20.539  1.00  0.00     0.051 A 
HETATM    3  N1  UNL     1     -20.820 -12.706 -21.330  1.00  0.00    -0.337 N 
ATOM      4  H1  UNL     1     -21.771 -12.909 -21.023  1.00  0.00     0.167 HD
HETATM    5  C3  UNL     1     -20.406 -13.253 -22.475  1.00  0.00     0.171 A 
HETATM    6  N2  UNL     1     -21.198 -13.994 -23.127  1.00  0.00    -0.370 N 
ATOM      7  H2  UNL     1     -22.124 -14.124 -22.719  1.00  0.00     0.161 HD
HETATM    8  C7  UNL     1     -19.135 -12.986 -22.895  1.00  0.00     0.289 A 
HETATM    9  O2  UNL     1     -18.660 -13.471 -23.981  1.00  0.00    -0.264 OA
HETATM   10  N3  UNL     1     -18.374 -12.197 -22.145  1.00  0.00    -0.318 N 
ATOM     11  H3  UNL     1     -17.426 -12.005 -22.469  1.00  0.00     0.169 HD
HETATM   12  C8  UNL     1     -18.779 -11.611 -20.948  1.00  0.00     0.062 A 
ENDROOT
BRANCH  12  13
HETATM   13  C9  UNL     1     -17.906 -10.884 -20.368  1.00  0.00     0.043 C 
BRANCH  13  14
HETATM   14  C10 UNL     1     -16.717 -11.117 -19.599  1.00  0.00    -0.030 A 
HETATM   15  C11 UNL     1     -16.773 -11.318 -18.212  1.00  0.00     0.030 A 
HETATM   16  C12 UNL     1     -15.618 -11.472 -17.481  1.00  0.00     0.014 A 
HETATM   17 BR1  UNL     1     -15.766 -11.742 -15.595  1.00  0.00    -0.051 Br
HETATM   18  C13 UNL     1     -14.395 -11.435 -18.086  1.00  0.00     0.055 A 
HETATM   19  C14 UNL     1     -14.275 -11.237 -19.475  1.00  0.00     0.070 A 
HETATM   20  C17 UNL     1     -15.433 -11.088 -20.161  1.00  0.00     0.048 A 
BRANCH  19  21
HETATM   21  O3  UNL     1     -13.002 -11.210 -20.010  1.00  0.00    -0.351 OA
BRANCH  21  22
HETATM   22  C15 UNL     1     -12.750 -10.978 -21.362  1.00  0.00     0.171 C 
HETATM   23  C16 UNL     1     -12.274  -9.557 -21.546  1.00  0.00     0.034 C 
ENDBRANCH  21  22
ENDBRANCH  19  21
ENDBRANCH  13  14
ENDBRANCH  12  13
BRANCH   6  24
HETATM   24  C4  UNL     1     -20.962 -14.666 -24.352  1.00  0.00     0.147 C 
BRANCH  24  25
HETATM   25  C5  UNL     1     -21.891 -14.041 -25.400  1.00  0.00     0.186 C 
BRANCH  25  26
HETATM   26  O1  UNL     1     -21.955 -12.659 -25.289  1.00  0.00    -0.394 OA
HETATM   27  C6  UNL     1     -21.037 -11.987 -26.071  1.00  0.00     0.201 C 
ENDBRANCH  25  26
ENDBRANCH  24  25
ENDBRANCH   6  24
TORSDOF 7
ENDMDL
MODEL 2
REMARK VINA RESULT: -7.379673102      3.398      7.690
REMARK  7 active torsions:
REMARK  status: ('A' for Active; 'I' for Inactive)
REMARK    1  A    between atoms: N2_6  and  C4_8 
REMARK    2  A    between atoms: C4_8  and  C5_9 
REMARK    3  A    between atoms: C5_9  and  O1_10 
REMARK    4  A    between atoms: C8_16  and  C9_17 
REMARK    5  A    between atoms: C9_17  and  C10_18 
REMARK    6  A    between atoms: C14_23  and  O3_24 
REMARK    7  A    between atoms: O3_24  and  C15_25 
ROOT
HETATM    1  C1  UNL     1     -17.875 -10.934 -20.026  1.00  0.00     0.045 C 
HETATM    2  C2  UNL     1     -16.769 -11.285 -20.614  1.00  0.00     0.051 A 
HETATM    3  N1  UNL     1     -15.740 -10.380 -20.670  1.00  0.00    -0.337 N 
ATOM      4  H1  UNL     1     -15.888  -9.465 -20.245  1.00  0.00     0.167 HD
HETATM    5  C3  UNL     1     -14.557 -10.614 -21.242  1.00  0.00     0.171 A 
HETATM    6  N2  UNL     1     -13.677  -9.706 -21.236  1.00  0.00    -0.370 N 
ATOM      7  H2  UNL     1     -13.942  -8.833 -20.781  1.00  0.00     0.161 HD
HETATM    8  C7  UNL     1     -14.349 -11.837 -21.813  1.00  0.00     0.289 A 
HETATM    9  O2  UNL     1     -13.243 -12.143 -22.382  1.00  0.00    -0.264 OA
HETATM   10  N3  UNL     1     -15.330 -12.730 -21.772  1.00  0.00    -0.318 N 
ATOM     11  H3  UNL     1     -15.162 -13.640 -22.202  1.00  0.00     0.169 HD
HETATM   12  C8  UNL     1     -16.573 -12.514 -21.181  1.00  0.00     0.062 A 
ENDROOT
BRANCH  12  13
HETATM   13  C9  UNL     1     -17.389 -13.493 -21.242  1.00  0.00     0.043 C 
BRANCH  13  14
HETATM   14  C10 UNL     1     -18.426 -13.914 -22.140  1.00  0.00    -0.030 A 
HETATM   15  C11 UNL     1     -18.305 -15.090 -22.895  1.00  0.00     0.030 A 
HETATM   16  C12 UNL     1     -19.278 -15.443 -23.801  1.00  0.00     0.014 A 
HETATM   17 BR1  UNL     1     -19.050 -17.059 -24.796  1.00  0.00    -0.051 Br
HETATM   18  C13 UNL     1     -20.382 -14.660 -23.985  1.00  0.00     0.055 A 
HETATM   19  C14 UNL     1     -20.559 -13.469 -23.257  1.00  0.00     0.070 A 
HETATM   20  C17 UNL     1     -19.581 -13.153 -22.375  1.00  0.00     0.048 A 
BRANCH  19  21
HETATM   21  O3  UNL     1     -21.701 -12.732 -23.504  1.00  0.00    -0.351 OA
BRANCH  21  22
HETATM   22  C15 UNL     1     -22.123 -12.390 -24.788  1.00  0.00     0.171 C 
HETATM   23  C16 UNL     1     -21.014 -11.651 -25.498  1.00  0.00     0.034 C 
ENDBRANCH  21  22
ENDBRANCH  19  21
ENDBRANCH  13  14
ENDBRANCH  12  13
BRANCH   6  24
HETATM   24  C4  UNL     1     -12.370  -9.747 -21.782  1.00  0.00     0.147 C 
BRANCH  24  25
HETATM   25  C5  UNL     1     -12.366  -8.844 -23.022  1.00  0.00     0.186 C 
BRANCH  25  26
HETATM   26  O1  UNL     1     -11.236  -9.030 -23.805  1.00  0.00    -0.394 OA
HETATM   27  C6  UNL     1     -11.135 -10.290 -24.362  1.00  0.00     0.201 C 
ENDBRANCH  25  26
ENDBRANCH  24  25
ENDBRANCH   6  24
TORSDOF 7
ENDMDL
MODEL 3
REMARK VINA RESULT: -7.327417117      1.376      1.448
REMARK  7 active torsions:
REMARK  status: ('A' for Active; 'I' for Inactive)
REMARK    1  A    between atoms: N2_6  and  C4_8 
REMARK    2  A    between atoms: C4_8  and  C5_9 
REMARK    3  A    between atoms: C5_9  and  O1_10 
REMARK    4  A    between atoms: C8_16  and  C9_17 
REMARK    5  A    between atoms: C9_17  and  C10_18 
REMARK    6  A    between atoms: C14_23  and  O3_24 
REMARK    7  A    between atoms: O3_24  and  C15_25 
ROOT
HETATM    1  C1  UNL     1     -20.374 -11.546 -19.434  1.00  0.00     0.045 C 
HETATM    2  C2  UNL     1     -19.921 -12.041 -20.549  1.00  0.00     0.051 A 
HETATM    3  N1  UNL     1     -20.788 -12.724 -21.364  1.00  0.00    -0.337 N 
ATOM      4  H1  UNL     1     -21.756 -12.814 -21.058  1.00  0.00     0.167 HD
HETATM    5  C3  UNL     1     -20.451 -13.278 -22.530  1.00  0.00     0.171 A 
HETATM    6  N2  UNL     1     -21.333 -13.886 -23.203  1.00  0.00    -0.370 N 
ATOM      7  H2  UNL     1     -22.266 -13.910 -22.794  1.00  0.00     0.161 HD
HETATM    8  C7  UNL     1     -19.156 -13.161 -22.949  1.00  0.00     0.289 A 
HETATM    9  O2  UNL     1     -18.751 -13.663 -24.055  1.00  0.00    -0.264 OA
HETATM   10  N3  UNL     1     -18.298 -12.504 -22.177  1.00  0.00    -0.318 N 
ATOM     11  H3  UNL     1     -17.334 -12.424 -22.501  1.00  0.00     0.169 HD
HETATM   12  C8  UNL     1     -18.622 -11.916 -20.956  1.00  0.00     0.062 A 
ENDROOT
BRANCH  12  13
HETATM   13  C9  UNL     1     -17.661 -11.328 -20.358  1.00  0.00     0.043 C 
BRANCH  13  14
HETATM   14  C10 UNL     1     -16.246 -11.534 -20.232  1.00  0.00    -0.030 A 
HETATM   15  C11 UNL     1     -15.727 -12.705 -19.659  1.00  0.00     0.030 A 
HETATM   16  C12 UNL     1     -14.371 -12.856 -19.485  1.00  0.00     0.014 A 
HETATM   17 BR1  UNL     1     -13.731 -14.476 -18.699  1.00  0.00    -0.051 Br
HETATM   18  C13 UNL     1     -13.502 -11.874 -19.864  1.00  0.00     0.055 A 
HETATM   19  C14 UNL     1     -13.963 -10.677 -20.444  1.00  0.00     0.070 A 
HETATM   20  C17 UNL     1     -15.303 -10.563 -20.600  1.00  0.00     0.048 A 
BRANCH  19  21
HETATM   21  O3  UNL     1     -13.019  -9.732 -20.798  1.00  0.00    -0.351 OA
BRANCH  21  22
HETATM   22  C15 UNL     1     -12.964  -9.150 -22.064  1.00  0.00     0.171 C 
HETATM   23  C16 UNL     1     -11.943  -9.879 -22.906  1.00  0.00     0.034 C 
ENDBRANCH  21  22
ENDBRANCH  19  21
ENDBRANCH  13  14
ENDBRANCH  12  13
BRANCH   6  24
HETATM   24  C4  UNL     1     -21.188 -14.538 -24.453  1.00  0.00     0.147 C 
BRANCH  24  25
HETATM   25  C5  UNL     1     -22.128 -13.837 -25.442  1.00  0.00     0.186 C 
BRANCH  25  26
HETATM   26  O1  UNL     1     -21.985 -12.457 -25.416  1.00  0.00    -0.394 OA
HETATM   27  C6  UNL     1     -20.971 -11.978 -26.219  1.00  0.00     0.201 C 
ENDBRANCH  25  26
ENDBRANCH  24  25
ENDBRANCH   6  24
TORSDOF 7
ENDMDL
MODEL 4
REMARK VINA RESULT: -7.289882849      3.288      7.492
REMARK  7 active torsions:
REMARK  status: ('A' for Active; 'I' for Inactive)
REMARK    1  A    between atoms: N2_6  and  C4_8 
REMARK    2  A    between atoms: C4_8  and  C5_9 
REMARK    3  A    between atoms: C5_9  and  O1_10 
REMARK    4  A    between atoms: C8_16  and  C9_17 
REMARK    5  A    between atoms: C9_17  and  C10_18 
REMARK    6  A    between atoms: C14_23  and  O3_24 
REMARK    7  A    between atoms: O3_24  and  C15_25 
ROOT
HETATM    1  C1  UNL     1     -17.285 -10.706 -20.082  1.00  0.00     0.045 C 
HETATM    2  C2  UNL     1     -16.225 -11.165 -20.681  1.00  0.00     0.051 A 
HETATM    3  N1  UNL     1     -15.166 -10.317 -20.882  1.00  0.00    -0.337 N 
ATOM      4  H1  UNL     1     -15.257  -9.357 -20.551  1.00  0.00     0.167 HD
HETATM    5  C3  UNL     1     -14.025 -10.662 -21.481  1.00  0.00     0.171 A 
HETATM    6  N2  UNL     1     -13.111  -9.798 -21.614  1.00  0.00    -0.370 N 
ATOM      7  H2  UNL     1     -13.318  -8.870 -21.243  1.00  0.00     0.161 HD
HETATM    8  C7  UNL     1     -13.893 -11.946 -21.927  1.00  0.00     0.289 A 
HETATM    9  O2  UNL     1     -12.831 -12.359 -22.511  1.00  0.00    -0.264 OA
HETATM   10  N3  UNL     1     -14.905 -12.786 -21.743  1.00  0.00    -0.318 N 
ATOM     11  H3  UNL     1     -14.795 -13.742 -22.081  1.00  0.00     0.169 HD
HETATM   12  C8  UNL     1     -16.107 -12.454 -21.121  1.00  0.00     0.062 A 
ENDROOT
BRANCH  12  13
HETATM   13  C9  UNL     1     -16.962 -13.397 -21.038  1.00  0.00     0.043 C 
BRANCH  13  14
HETATM   14  C10 UNL     1     -18.230 -13.693 -21.642  1.00  0.00    -0.030 A 
HETATM   15  C11 UNL     1     -18.851 -14.938 -21.462  1.00  0.00     0.030 A 
HETATM   16  C12 UNL     1     -20.033 -15.229 -22.102  1.00  0.00     0.014 A 
HETATM   17 BR1  UNL     1     -20.826 -16.943 -21.812  1.00  0.00    -0.051 Br
HETATM   18  C13 UNL     1     -20.628 -14.316 -22.926  1.00  0.00     0.055 A 
HETATM   19  C14 UNL     1     -20.052 -13.050 -23.145  1.00  0.00     0.070 A 
HETATM   20  C17 UNL     1     -18.889 -12.800 -22.499  1.00  0.00     0.048 A 
BRANCH  19  21
HETATM   21  O3  UNL     1     -20.715 -12.185 -23.994  1.00  0.00    -0.351 OA
BRANCH  21  22
HETATM   22  C15 UNL     1     -21.486 -12.619 -25.071  1.00  0.00     0.171 C 
HETATM   23  C16 UNL     1     -20.972 -11.985 -26.342  1.00  0.00     0.034 C 
ENDBRANCH  21  22
ENDBRANCH  19  21
ENDBRANCH  13  14
ENDBRANCH  12  13
BRANCH   6  24
HETATM   24  C4  UNL     1     -11.836  -9.954 -22.213  1.00  0.00     0.147 C 
BRANCH  24  25
HETATM   25  C5  UNL     1     -11.888  -9.258 -23.579  1.00  0.00     0.186 C 
BRANCH  25  26
HETATM   26  O1  UNL     1     -12.610  -8.074 -23.540  1.00  0.00    -0.394 OA
HETATM   27  C6  UNL     1     -12.215  -7.139 -24.475  1.00  0.00     0.201 C 
ENDBRANCH  25  26
ENDBRANCH  24  25
ENDBRANCH   6  24
TORSDOF 7
ENDMDL
MODEL 5
REMARK VINA RESULT: -7.221445724      3.258      7.534
REMARK  7 active torsions:
REMARK  status: ('A' for Active; 'I' for Inactive)
REMARK    1  A    between atoms: N2_6  and  C4_8 
REMARK    2  A    between atoms: C4_8  and  C5_9 
REMARK    3  A    between atoms: C5_9  and  O1_10 
REMARK    4  A    between atoms: C8_16  and  C9_17 
REMARK    5  A    between atoms: C9_17  and  C10_18 
REMARK    6  A    between atoms: C14_23  and  O3_24 
REMARK    7  A    between atoms: O3_24  and  C15_25 
ROOT
HETATM    1  C1  UNL     1     -14.016 -15.497 -21.782  1.00  0.00     0.045 C 
HETATM    2  C2  UNL     1     -13.998 -14.197 -21.809  1.00  0.00     0.051 A 
HETATM    3  N1  UNL     1     -12.845 -13.564 -22.195  1.00  0.00    -0.337 N 
ATOM      4  H1  UNL     1     -12.045 -14.145 -22.445  1.00  0.00     0.167 HD
HETATM    5  C3  UNL     1     -12.696 -12.239 -22.266  1.00  0.00     0.171 A 
HETATM    6  N2  UNL     1     -11.585 -11.761 -22.636  1.00  0.00    -0.370 N 
ATOM      7  H2  UNL     1     -10.860 -12.442 -22.860  1.00  0.00     0.161 HD
HETATM    8  C7  UNL     1     -13.762 -11.453 -21.933  1.00  0.00     0.289 A 
HETATM    9  O2  UNL     1     -13.703 -10.174 -21.974  1.00  0.00    -0.264 OA
HETATM   10  N3  UNL     1     -14.890 -12.042 -21.556  1.00  0.00    -0.318 N 
ATOM     11  H3  UNL     1     -15.679 -11.444 -21.309  1.00  0.00     0.169 HD
HETATM   12  C8  UNL     1     -15.074 -13.421 -21.474  1.00  0.00     0.062 A 
ENDROOT
BRANCH  12  13
HETATM   13  C9  UNL     1     -16.230 -13.800 -21.090  1.00  0.00     0.043 C 
BRANCH  13  14
HETATM   14  C10 UNL     1     -17.582 -13.376 -21.321  1.00  0.00    -0.030 A 
HETATM   15  C11 UNL     1     -18.308 -12.685 -20.340  1.00  0.00     0.030 A 
HETATM   16  C12 UNL     1     -19.624 -12.346 -20.553  1.00  0.00     0.014 A 
HETATM   17 BR1  UNL     1     -20.555 -11.405 -19.175  1.00  0.00    -0.051 Br
HETATM   18  C13 UNL     1     -20.252 -12.673 -21.721  1.00  0.00     0.055 A 
HETATM   19  C14 UNL     1     -19.575 -13.366 -22.743  1.00  0.00     0.070 A 
HETATM   20  C17 UNL     1     -18.282 -13.683 -22.497  1.00  0.00     0.048 A 
BRANCH  19  21
HETATM   21  O3  UNL     1     -20.282 -13.661 -23.892  1.00  0.00    -0.351 OA
BRANCH  21  22
HETATM   22  C15 UNL     1     -20.077 -12.998 -25.102  1.00  0.00     0.171 C 
HETATM   23  C16 UNL     1     -21.114 -11.912 -25.259  1.00  0.00     0.034 C 
ENDBRANCH  21  22
ENDBRANCH  19  21
ENDBRANCH  13  14
ENDBRANCH  12  13
BRANCH   6  24
HETATM   24  C4  UNL     1     -11.220 -10.399 -22.778  1.00  0.00     0.147 C 
BRANCH  24  25
HETATM   25  C5  UNL     1     -11.216 -10.084 -24.279  1.00  0.00     0.186 C 
BRANCH  25  26
HETATM   26  O1  UNL     1     -11.048  -8.730 -24.532  1.00  0.00    -0.394 OA
HETATM   27  C6  UNL     1     -12.107  -7.944 -24.124  1.00  0.00     0.201 C 
ENDBRANCH  25  26
ENDBRANCH  24  25
ENDBRANCH   6  24
TORSDOF 7
ENDMDL
