MODEL 1
REMARK VINA RESULT: -7.282770980      0.000      0.000
REMARK  7 active torsions:
REMARK  status: ('A' for Active; 'I' for Inactive)
REMARK    1  A    between atoms: C2_2  and  O1_3 
REMARK    2  A    between atoms: C2_2  and  C3_5 
REMARK    3  A    between atoms: C2_2  and  C18_25 
REMARK    4  A    between atoms: C3_5  and  N1_6 
REMARK    5  A    between atoms: C5_8  and  N2_9 
REMARK       I    between atoms: N2_9  and  C6_11 
REMARK    6  A    between atoms: C6_11  and  C7_13 
REMARK    7  A    between atoms: C18_25  and  N3_26 
ROOT
HETATM    1  N2  UNL     1     -18.979 -12.247 -21.496  1.00  0.00    -0.352 N 
ATOM      2  H2  UNL     1     -18.732 -11.627 -22.267  1.00  0.00     0.163 HD
HETATM    3  C6  UNL     1     -19.950 -13.268 -21.693  1.00  0.00     0.226 C 
HETATM    4  O2  UNL     1     -20.233 -14.013 -20.730  1.00  0.00    -0.273 OA
ENDROOT
BRANCH   1   5
HETATM    5  C5  UNL     1     -18.348 -12.085 -20.219  1.00  0.00     0.141 C 
HETATM    6  C4  UNL     1     -17.043 -12.886 -20.042  1.00  0.00     0.299 C 
HETATM    7  N1  UNL     1     -16.363 -11.816 -20.661  1.00  0.00     0.095 N 
HETATM    8  C17 UNL     1     -17.402 -10.905 -20.229  1.00  0.00     0.299 C 
BRANCH   7   9
HETATM    9  C3  UNL     1     -15.086 -11.394 -20.233  1.00  0.00     0.311 C 
BRANCH   9  10
HETATM   10  C2  UNL     1     -13.990 -11.400 -21.269  1.00  0.00     0.104 C 
HETATM   11  C1  UNL     1     -12.756 -11.944 -20.666  1.00  0.00     0.049 C 
BRANCH  10  12
HETATM   12  O1  UNL     1     -14.488 -12.192 -22.331  1.00  0.00    -0.387 OA
ATOM     13  H1  UNL     1     -14.043 -13.026 -22.417  1.00  0.00     0.210 HD
ENDBRANCH  10  12
BRANCH  10  14
HETATM   14  C18 UNL     1     -13.880  -9.971 -21.730  1.00  0.00     0.275 C 
BRANCH  14  15
HETATM   15  N3  UNL     1     -12.599  -9.503 -22.087  1.00  0.00    -0.076 N 
HETATM   16  C19 UNL     1     -11.982  -8.749 -20.990  1.00  0.00     0.271 C 
HETATM   17  C20 UNL     1     -12.793  -8.508 -23.164  1.00  0.00     0.271 C 
HETATM   18  C21 UNL     1     -11.681 -10.469 -22.632  1.00  0.00     0.271 C 
ENDBRANCH  14  15
ENDBRANCH  10  14
ENDBRANCH   9  10
ENDBRANCH   7   9
ENDBRANCH   1   5
BRANCH   3  19
HETATM   19  C7  UNL     1     -20.631 -13.480 -22.992  1.00  0.00     0.042 C 
HETATM   20  C8  UNL     1     -21.149 -14.913 -22.993  1.00  0.00     0.024 C 
HETATM   21  C9  UNL     1     -21.930 -15.156 -24.244  1.00  0.00    -0.012 C 
HETATM   22  C10 UNL     1     -21.061 -14.962 -25.462  1.00  0.00     0.012 C 
HETATM   23  C15 UNL     1     -23.098 -14.201 -24.298  1.00  0.00     0.012 C 
HETATM   24  C11 UNL     1     -20.530 -13.556 -25.425  1.00  0.00     0.021 C 
HETATM   25  C12 UNL     1     -19.716 -13.314 -24.175  1.00  0.00     0.026 C 
HETATM   26  C13 UNL     1     -21.684 -12.589 -25.550  1.00  0.00     0.178 C 
HETATM   27  F1  UNL     1     -21.193 -11.292 -25.487  1.00  0.00    -0.249 F 
HETATM   28  C14 UNL     1     -22.588 -12.775 -24.366  1.00  0.00     0.021 C 
HETATM   29  C16 UNL     1     -21.776 -12.519 -23.116  1.00  0.00     0.026 C 
ENDBRANCH   3  19
TORSDOF 7
ENDMDL
MODEL 2
REMARK VINA RESULT: -7.121986491      2.024      2.976
REMARK  7 active torsions:
REMARK  status: ('A' for Active; 'I' for Inactive)
REMARK    1  A    between atoms: C2_2  and  O1_3 
REMARK    2  A    between atoms: C2_2  and  C3_5 
REMARK    3  A    between atoms: C2_2  and  C18_25 
REMARK    4  A    between atoms: C3_5  and  N1_6 
REMARK    5  A    between atoms: C5_8  and  N2_9 
REMARK       I    between atoms: N2_9  and  C6_11 
REMARK    6  A    between atoms: C6_11  and  C7_13 
REMARK    7  A    between atoms: C18_25  and  N3_26 
ROOT
HETATM    1  N2  UNL     1     -17.817 -11.987 -21.475  1.00  0.00    -0.352 N 
ATOM      2  H2  UNL     1     -17.317 -11.910 -22.360  1.00  0.00     0.163 HD
HETATM    3  C6  UNL     1     -19.112 -12.574 -21.443  1.00  0.00     0.226 C 
HETATM    4  O2  UNL     1     -19.701 -12.655 -20.343  1.00  0.00    -0.273 OA
ENDROOT
BRANCH   1   5
HETATM    5  C5  UNL     1     -17.212 -11.502 -20.269  1.00  0.00     0.141 C 
HETATM    6  C4  UNL     1     -16.333 -12.532 -19.533  1.00  0.00     0.299 C 
HETATM    7  N1  UNL     1     -15.268 -12.149 -20.376  1.00  0.00     0.095 N 
HETATM    8  C17 UNL     1     -15.879 -10.849 -20.557  1.00  0.00     0.299 C 
BRANCH   7   9
HETATM    9  C3  UNL     1     -13.942 -12.043 -19.906  1.00  0.00     0.311 C 
BRANCH   9  10
HETATM   10  C2  UNL     1     -12.888 -12.794 -20.681  1.00  0.00     0.104 C 
HETATM   11  C1  UNL     1     -12.147 -11.844 -21.536  1.00  0.00     0.049 C 
BRANCH  10  12
HETATM   12  O1  UNL     1     -12.076 -13.412 -19.700  1.00  0.00    -0.387 OA
ATOM     13  H1  UNL     1     -12.109 -14.360 -19.731  1.00  0.00     0.210 HD
ENDBRANCH  10  12
BRANCH  10  14
HETATM   14  C18 UNL     1     -13.642 -13.856 -21.437  1.00  0.00     0.275 C 
BRANCH  14  15
HETATM   15  N3  UNL     1     -13.479 -15.191 -21.012  1.00  0.00    -0.076 N 
HETATM   16  C19 UNL     1     -12.077 -15.612 -21.110  1.00  0.00     0.271 C 
HETATM   17  C20 UNL     1     -14.195 -16.039 -21.989  1.00  0.00     0.271 C 
HETATM   18  C21 UNL     1     -14.037 -15.540 -19.732  1.00  0.00     0.271 C 
ENDBRANCH  14  15
ENDBRANCH  10  14
ENDBRANCH   9  10
ENDBRANCH   7   9
ENDBRANCH   1   5
BRANCH   3  19
HETATM   19  C7  UNL     1     -19.782 -13.092 -22.658  1.00  0.00     0.042 C 
HETATM   20  C8  UNL     1     -19.984 -14.588 -22.452  1.00  0.00     0.024 C 
HETATM   21  C9  UNL     1     -20.743 -15.151 -23.610  1.00  0.00    -0.012 C 
HETATM   22  C10 UNL     1     -19.983 -14.946 -24.896  1.00  0.00     0.012 C 
HETATM   23  C15 UNL     1     -22.088 -14.471 -23.703  1.00  0.00     0.012 C 
HETATM   24  C11 UNL     1     -19.761 -13.468 -25.066  1.00  0.00     0.021 C 
HETATM   25  C12 UNL     1     -18.970 -12.900 -23.910  1.00  0.00     0.026 C 
HETATM   26  C13 UNL     1     -21.098 -12.784 -25.231  1.00  0.00     0.178 C 
HETATM   27  F1  UNL     1     -20.891 -11.417 -25.359  1.00  0.00    -0.249 F 
HETATM   28  C14 UNL     1     -21.895 -12.993 -23.977  1.00  0.00     0.021 C 
HETATM   29  C16 UNL     1     -21.109 -12.412 -22.824  1.00  0.00     0.026 C 
ENDBRANCH   3  19
TORSDOF 7
ENDMDL
MODEL 3
REMARK VINA RESULT: -7.034989040      0.919      1.733
REMARK  7 active torsions:
REMARK  status: ('A' for Active; 'I' for Inactive)
REMARK    1  A    between atoms: C2_2  and  O1_3 
REMARK    2  A    between atoms: C2_2  and  C3_5 
REMARK    3  A    between atoms: C2_2  and  C18_25 
REMARK    4  A    between atoms: C3_5  and  N1_6 
REMARK    5  A    between atoms: C5_8  and  N2_9 
REMARK       I    between atoms: N2_9  and  C6_11 
REMARK    6  A    between atoms: C6_11  and  C7_13 
REMARK    7  A    between atoms: C18_25  and  N3_26 
ROOT
HETATM    1  N2  UNL     1     -18.981 -12.089 -21.476  1.00  0.00    -0.352 N 
ATOM      2  H2  UNL     1     -18.715 -11.487 -22.256  1.00  0.00     0.163 HD
HETATM    3  C6  UNL     1     -19.972 -13.091 -21.664  1.00  0.00     0.226 C 
HETATM    4  O2  UNL     1     -20.278 -13.814 -20.691  1.00  0.00    -0.273 OA
ENDROOT
BRANCH   1   5
HETATM    5  C5  UNL     1     -18.354 -11.920 -20.198  1.00  0.00     0.141 C 
HETATM    6  C4  UNL     1     -17.117 -12.810 -19.968  1.00  0.00     0.299 C 
HETATM    7  N1  UNL     1     -16.350 -11.822 -20.621  1.00  0.00     0.095 N 
HETATM    8  C17 UNL     1     -17.321 -10.817 -20.244  1.00  0.00     0.299 C 
BRANCH   7   9
HETATM    9  C3  UNL     1     -15.049 -11.481 -20.191  1.00  0.00     0.311 C 
BRANCH   9  10
HETATM   10  C2  UNL     1     -13.970 -11.472 -21.245  1.00  0.00     0.104 C 
HETATM   11  C1  UNL     1     -12.714 -11.979 -20.658  1.00  0.00     0.049 C 
BRANCH  10  12
HETATM   12  O1  UNL     1     -14.466 -12.287 -22.291  1.00  0.00    -0.387 OA
ATOM     13  H1  UNL     1     -15.291 -12.707 -22.079  1.00  0.00     0.210 HD
ENDBRANCH  10  12
BRANCH  10  14
HETATM   14  C18 UNL     1     -13.904 -10.045 -21.723  1.00  0.00     0.275 C 
BRANCH  14  15
HETATM   15  N3  UNL     1     -12.634  -9.536 -22.066  1.00  0.00    -0.076 N 
HETATM   16  C19 UNL     1     -12.036  -8.801 -20.946  1.00  0.00     0.271 C 
HETATM   17  C20 UNL     1     -12.852  -8.515 -23.112  1.00  0.00     0.271 C 
HETATM   18  C21 UNL     1     -11.693 -10.464 -22.638  1.00  0.00     0.271 C 
ENDBRANCH  14  15
ENDBRANCH  10  14
ENDBRANCH   9  10
ENDBRANCH   7   9
ENDBRANCH   1   5
BRANCH   3  19
HETATM   19  C7  UNL     1     -20.650 -13.309 -22.963  1.00  0.00     0.042 C 
HETATM   20  C8  UNL     1     -19.680 -12.865 -24.051  1.00  0.00     0.024 C 
HETATM   21  C9  UNL     1     -20.275 -13.149 -25.392  1.00  0.00    -0.012 C 
HETATM   22  C10 UNL     1     -21.569 -12.396 -25.572  1.00  0.00     0.012 C 
HETATM   23  C15 UNL     1     -20.530 -14.632 -25.522  1.00  0.00     0.012 C 
HETATM   24  C11 UNL     1     -22.501 -12.819 -24.470  1.00  0.00     0.021 C 
HETATM   25  C12 UNL     1     -21.915 -12.508 -23.113  1.00  0.00     0.026 C 
HETATM   26  C13 UNL     1     -22.821 -14.287 -24.630  1.00  0.00     0.178 C 
HETATM   27  F1  UNL     1     -23.659 -14.680 -23.595  1.00  0.00    -0.249 F 
HETATM   28  C14 UNL     1     -21.547 -15.067 -24.486  1.00  0.00     0.021 C 
HETATM   29  C16 UNL     1     -20.969 -14.766 -23.121  1.00  0.00     0.026 C 
ENDBRANCH   3  19
TORSDOF 7
ENDMDL
MODEL 4
REMARK VINA RESULT: -6.985586345      0.881      1.639
REMARK  7 active torsions:
REMARK  status: ('A' for Active; 'I' for Inactive)
REMARK    1  A    between atoms: C2_2  and  O1_3 
REMARK    2  A    between atoms: C2_2  and  C3_5 
REMARK    3  A    between atoms: C2_2  and  C18_25 
REMARK    4  A    between atoms: C3_5  and  N1_6 
REMARK    5  A    between atoms: C5_8  and  N2_9 
REMARK       I    between atoms: N2_9  and  C6_11 
REMARK    6  A    between atoms: C6_11  and  C7_13 
REMARK    7  A    between atoms: C18_25  and  N3_26 
ROOT
HETATM    1  N2  UNL     1     -18.975 -12.066 -21.446  1.00  0.00    -0.352 N 
ATOM      2  H2  UNL     1     -18.700 -11.527 -22.267  1.00  0.00     0.163 HD
HETATM    3  C6  UNL     1     -19.970 -13.075 -21.564  1.00  0.00     0.226 C 
HETATM    4  O2  UNL     1     -20.286 -13.719 -20.541  1.00  0.00    -0.273 OA
ENDROOT
BRANCH   1   5
HETATM    5  C5  UNL     1     -18.355 -11.803 -20.181  1.00  0.00     0.141 C 
HETATM    6  C4  UNL     1     -17.136 -12.691 -19.866  1.00  0.00     0.299 C 
HETATM    7  N1  UNL     1     -16.346 -11.773 -20.591  1.00  0.00     0.095 N 
HETATM    8  C17 UNL     1     -17.303 -10.725 -20.307  1.00  0.00     0.299 C 
BRANCH   7   9
HETATM    9  C3  UNL     1     -15.043 -11.419 -20.179  1.00  0.00     0.311 C 
BRANCH   9  10
HETATM   10  C2  UNL     1     -13.971 -11.438 -21.238  1.00  0.00     0.104 C 
HETATM   11  C1  UNL     1     -12.714 -11.939 -20.647  1.00  0.00     0.049 C 
BRANCH  10  12
HETATM   12  O1  UNL     1     -14.477 -12.274 -22.263  1.00  0.00    -0.387 OA
ATOM     13  H1  UNL     1     -15.396 -12.123 -22.449  1.00  0.00     0.210 HD
ENDBRANCH  10  12
BRANCH  10  14
HETATM   14  C18 UNL     1     -13.899 -10.023 -21.748  1.00  0.00     0.275 C 
BRANCH  14  15
HETATM   15  N3  UNL     1     -12.629  -9.528 -22.106  1.00  0.00    -0.076 N 
HETATM   16  C19 UNL     1     -12.009  -8.800 -20.993  1.00  0.00     0.271 C 
HETATM   17  C20 UNL     1     -12.849  -8.504 -23.149  1.00  0.00     0.271 C 
HETATM   18  C21 UNL     1     -11.705 -10.465 -22.690  1.00  0.00     0.271 C 
ENDBRANCH  14  15
ENDBRANCH  10  14
ENDBRANCH   9  10
ENDBRANCH   7   9
ENDBRANCH   1   5
BRANCH   3  19
HETATM   19  C7  UNL     1     -20.641 -13.388 -22.847  1.00  0.00     0.042 C 
HETATM   20  C8  UNL     1     -21.876 -12.500 -22.931  1.00  0.00     0.024 C 
HETATM   21  C9  UNL     1     -22.545 -12.705 -24.253  1.00  0.00    -0.012 C 
HETATM   22  C10 UNL     1     -22.978 -14.141 -24.414  1.00  0.00     0.012 C 
HETATM   23  C15 UNL     1     -21.586 -12.338 -25.360  1.00  0.00     0.012 C 
HETATM   24  C11 UNL     1     -21.753 -15.004 -24.292  1.00  0.00     0.021 C 
HETATM   25  C12 UNL     1     -21.090 -14.820 -22.947  1.00  0.00     0.026 C 
HETATM   26  C13 UNL     1     -20.816 -14.696 -25.436  1.00  0.00     0.178 C 
HETATM   27  F1  UNL     1     -19.674 -15.475 -25.304  1.00  0.00    -0.249 F 
HETATM   28  C14 UNL     1     -20.386 -13.263 -25.324  1.00  0.00     0.021 C 
HETATM   29  C16 UNL     1     -19.710 -13.084 -23.983  1.00  0.00     0.026 C 
ENDBRANCH   3  19
TORSDOF 7
ENDMDL
MODEL 5
REMARK VINA RESULT: -6.984015406      2.220      3.401
REMARK  7 active torsions:
REMARK  status: ('A' for Active; 'I' for Inactive)
REMARK    1  A    between atoms: C2_2  and  O1_3 
REMARK    2  A    between atoms: C2_2  and  C3_5 
REMARK    3  A    between atoms: C2_2  and  C18_25 
REMARK    4  A    between atoms: C3_5  and  N1_6 
REMARK    5  A    between atoms: C5_8  and  N2_9 
REMARK       I    between atoms: N2_9  and  C6_11 
REMARK    6  A    between atoms: C6_11  and  C7_13 
REMARK    7  A    between atoms: C18_25  and  N3_26 
ROOT
HETATM    1  N2  UNL     1     -17.909 -12.069 -21.433  1.00  0.00    -0.352 N 
ATOM      2  H2  UNL     1     -17.410 -12.053 -22.323  1.00  0.00     0.163 HD
HETATM    3  C6  UNL     1     -19.209 -12.639 -21.362  1.00  0.00     0.226 C 
HETATM    4  O2  UNL     1     -19.796 -12.645 -20.258  1.00  0.00    -0.273 OA
ENDROOT
BRANCH   1   5
HETATM    5  C5  UNL     1     -17.294 -11.517 -20.261  1.00  0.00     0.141 C 
HETATM    6  C4  UNL     1     -16.396 -12.499 -19.485  1.00  0.00     0.299 C 
HETATM    7  N1  UNL     1     -15.346 -12.149 -20.360  1.00  0.00     0.095 N 
HETATM    8  C17 UNL     1     -15.972 -10.866 -20.599  1.00  0.00     0.299 C 
BRANCH   7   9
HETATM    9  C3  UNL     1     -14.015 -12.007 -19.911  1.00  0.00     0.311 C 
BRANCH   9  10
HETATM   10  C2  UNL     1     -12.959 -12.762 -20.678  1.00  0.00     0.104 C 
HETATM   11  C1  UNL     1     -12.235 -11.825 -21.560  1.00  0.00     0.049 C 
BRANCH  10  12
HETATM   12  O1  UNL     1     -12.132 -13.350 -19.690  1.00  0.00    -0.387 OA
ATOM     13  H1  UNL     1     -12.374 -13.104 -18.805  1.00  0.00     0.210 HD
ENDBRANCH  10  12
BRANCH  10  14
HETATM   14  C18 UNL     1     -13.706 -13.849 -21.404  1.00  0.00     0.275 C 
BRANCH  14  15
HETATM   15  N3  UNL     1     -13.496 -15.176 -20.976  1.00  0.00    -0.076 N 
HETATM   16  C19 UNL     1     -12.091 -15.568 -21.131  1.00  0.00     0.271 C 
HETATM   17  C20 UNL     1     -14.235 -16.049 -21.913  1.00  0.00     0.271 C 
HETATM   18  C21 UNL     1     -13.991 -15.526 -19.670  1.00  0.00     0.271 C 
ENDBRANCH  14  15
ENDBRANCH  10  14
ENDBRANCH   9  10
ENDBRANCH   7   9
ENDBRANCH   1   5
BRANCH   3  19
HETATM   19  C7  UNL     1     -19.890 -13.224 -22.541  1.00  0.00     0.042 C 
HETATM   20  C8  UNL     1     -21.199 -12.467 -22.719  1.00  0.00     0.024 C 
HETATM   21  C9  UNL     1     -21.888 -12.952 -23.954  1.00  0.00    -0.012 C 
HETATM   22  C10 UNL     1     -22.199 -14.424 -23.848  1.00  0.00     0.012 C 
HETATM   23  C15 UNL     1     -21.000 -12.707 -25.151  1.00  0.00     0.012 C 
HETATM   24  C11 UNL     1     -20.901 -15.151 -23.636  1.00  0.00     0.021 C 
HETATM   25  C12 UNL     1     -20.215 -14.683 -22.374  1.00  0.00     0.026 C 
HETATM   26  C13 UNL     1     -20.030 -14.973 -24.858  1.00  0.00     0.178 C 
HETATM   27  F1  UNL     1     -18.820 -15.622 -24.647  1.00  0.00    -0.249 F 
HETATM   28  C14 UNL     1     -19.724 -13.512 -25.012  1.00  0.00     0.021 C 
HETATM   29  C16 UNL     1     -19.024 -13.048 -23.754  1.00  0.00     0.026 C 
ENDBRANCH   3  19
TORSDOF 7
ENDMDL
