MODEL 1
REMARK VINA RESULT: -7.257403298      0.000      0.000
REMARK  6 active torsions:
REMARK  status: ('A' for Active; 'I' for Inactive)
REMARK    1  A    between atoms: C2_2  and  C3_3 
REMARK    2  A    between atoms: C3_3  and  N1_4 
REMARK    3  A    between atoms: N1_4  and  S1_6 
REMARK    4  A    between atoms: S1_6  and  C5_9 
REMARK    5  A    between atoms: C9_14  and  C10_15 
REMARK    6  A    between atoms: C10_15  and  C11_16 
ROOT
HETATM    1  C5  UNL     1     -14.743 -11.560 -20.033  1.00  0.00     0.081 A 
HETATM    2  C6  UNL     1     -14.717 -11.694 -18.660  1.00  0.00     0.044 A 
HETATM    3  C7  UNL     1     -15.846 -11.564 -17.873  1.00  0.00     0.013 A 
HETATM    4 BR1  UNL     1     -15.798 -11.752 -15.978  1.00  0.00    -0.051 Br
HETATM    5  C8  UNL     1     -17.027 -11.289 -18.527  1.00  0.00     0.026 A 
HETATM    6  C9  UNL     1     -17.081 -11.148 -19.912  1.00  0.00    -0.050 A 
HETATM    7  C14 UNL     1     -15.944 -11.282 -20.665  1.00  0.00     0.033 A 
ENDROOT
BRANCH   6   8
HETATM    8  C10 UNL     1     -18.371 -10.852 -20.577  1.00  0.00     0.097 C 
BRANCH   8   9
HETATM    9  C11 UNL     1     -19.023 -12.074 -21.080  1.00  0.00     0.033 A 
HETATM   10  C12 UNL     1     -20.042 -12.766 -20.460  1.00  0.00     0.118 A 
HETATM   11  N2  UNL     1     -20.329 -13.802 -21.257  1.00  0.00    -0.317 N 
HETATM   12  C13 UNL     1     -19.540 -13.795 -22.348  1.00  0.00     0.324 A 
ATOM     13  H2  UNL     1     -21.046 -14.502 -21.064  1.00  0.00     0.170 HD
HETATM   14  O3  UNL     1     -19.545 -14.621 -23.294  1.00  0.00    -0.247 OA
HETATM   15  N3  UNL     1     -18.750 -12.733 -22.220  1.00  0.00    -0.311 N 
ATOM     16  H3  UNL     1     -18.037 -12.456 -22.895  1.00  0.00     0.170 HD
ENDBRANCH   8   9
ENDBRANCH   6   8
BRANCH   1  17
HETATM   17  S1  UNL     1     -13.250 -11.743 -20.940  1.00  0.00     0.264 S 
HETATM   18  O1  UNL     1     -12.282 -12.606 -20.178  1.00  0.00    -0.200 OA
HETATM   19  O2  UNL     1     -13.612 -12.353 -22.259  1.00  0.00    -0.200 OA
BRANCH  17  20
HETATM   20  N1  UNL     1     -12.578 -10.222 -21.176  1.00  0.00    -0.287 N 
HETATM   21  C4  UNL     1     -13.194  -9.138 -20.516  1.00  0.00     0.169 C 
BRANCH  20  22
HETATM   22  C3  UNL     1     -11.873  -9.981 -22.359  1.00  0.00     0.102 C 
BRANCH  22  23
HETATM   23  C2  UNL     1     -12.351  -8.801 -23.139  1.00  0.00     0.008 C 
HETATM   24  C1  UNL     1     -11.741  -8.390 -24.242  1.00  0.00     0.013 C 
ENDBRANCH  22  23
ENDBRANCH  20  22
ENDBRANCH  17  20
ENDBRANCH   1  17
TORSDOF 6
ENDMDL
MODEL 2
REMARK VINA RESULT: -7.234215759      3.220      4.439
REMARK  6 active torsions:
REMARK  status: ('A' for Active; 'I' for Inactive)
REMARK    1  A    between atoms: C2_2  and  C3_3 
REMARK    2  A    between atoms: C3_3  and  N1_4 
REMARK    3  A    between atoms: N1_4  and  S1_6 
REMARK    4  A    between atoms: S1_6  and  C5_9 
REMARK    5  A    between atoms: C9_14  and  C10_15 
REMARK    6  A    between atoms: C10_15  and  C11_16 
ROOT
HETATM    1  C5  UNL     1     -16.908 -11.735 -21.021  1.00  0.00     0.081 A 
HETATM    2  C6  UNL     1     -17.842 -11.436 -20.050  1.00  0.00     0.044 A 
HETATM    3  C7  UNL     1     -19.181 -11.751 -20.175  1.00  0.00     0.013 A 
HETATM    4 BR1  UNL     1     -20.461 -11.335 -18.828  1.00  0.00    -0.051 Br
HETATM    5  C8  UNL     1     -19.559 -12.391 -21.337  1.00  0.00     0.026 A 
HETATM    6  C9  UNL     1     -18.637 -12.703 -22.333  1.00  0.00    -0.050 A 
HETATM    7  C14 UNL     1     -17.316 -12.377 -22.179  1.00  0.00     0.033 A 
ENDROOT
BRANCH   6   8
HETATM    8  C10 UNL     1     -19.085 -13.391 -23.566  1.00  0.00     0.097 C 
BRANCH   8   9
HETATM    9  C11 UNL     1     -20.475 -13.047 -23.913  1.00  0.00     0.033 A 
HETATM   10  C12 UNL     1     -20.873 -12.117 -24.851  1.00  0.00     0.118 A 
HETATM   11  N2  UNL     1     -22.211 -12.125 -24.842  1.00  0.00    -0.317 N 
HETATM   12  C13 UNL     1     -22.674 -13.016 -23.944  1.00  0.00     0.324 A 
ATOM     13  H2  UNL     1     -22.799 -11.538 -25.433  1.00  0.00     0.170 HD
HETATM   14  O3  UNL     1     -23.874 -13.275 -23.682  1.00  0.00    -0.247 OA
HETATM   15  N3  UNL     1     -21.599 -13.567 -23.388  1.00  0.00    -0.311 N 
ATOM     16  H3  UNL     1     -21.624 -14.285 -22.664  1.00  0.00     0.170 HD
ENDBRANCH   8   9
ENDBRANCH   6   8
BRANCH   1  17
HETATM   17  S1  UNL     1     -15.229 -11.289 -20.762  1.00  0.00     0.264 S 
HETATM   18  O1  UNL     1     -14.439 -11.483 -22.027  1.00  0.00    -0.200 OA
HETATM   19  O2  UNL     1     -15.220  -9.858 -20.322  1.00  0.00    -0.200 OA
BRANCH  17  20
HETATM   20  N1  UNL     1     -14.598 -12.266 -19.551  1.00  0.00    -0.287 N 
HETATM   21  C4  UNL     1     -14.800 -13.657 -19.677  1.00  0.00     0.169 C 
BRANCH  20  22
HETATM   22  C3  UNL     1     -14.426 -11.721 -18.275  1.00  0.00     0.102 C 
BRANCH  22  23
HETATM   23  C2  UNL     1     -15.466 -12.123 -17.281  1.00  0.00     0.008 C 
HETATM   24  C1  UNL     1     -16.232 -11.234 -16.663  1.00  0.00     0.013 C 
ENDBRANCH  22  23
ENDBRANCH  20  22
ENDBRANCH  17  20
ENDBRANCH   1  17
TORSDOF 6
ENDMDL
MODEL 3
REMARK VINA RESULT: -7.197412365      3.162      6.855
REMARK  6 active torsions:
REMARK  status: ('A' for Active; 'I' for Inactive)
REMARK    1  A    between atoms: C2_2  and  C3_3 
REMARK    2  A    between atoms: C3_3  and  N1_4 
REMARK    3  A    between atoms: N1_4  and  S1_6 
REMARK    4  A    between atoms: S1_6  and  C5_9 
REMARK    5  A    between atoms: C9_14  and  C10_15 
REMARK    6  A    between atoms: C10_15  and  C11_16 
ROOT
HETATM    1  C5  UNL     1     -18.436 -13.693 -21.346  1.00  0.00     0.081 A 
HETATM    2  C6  UNL     1     -17.517 -14.661 -21.700  1.00  0.00     0.044 A 
HETATM    3  C7  UNL     1     -16.190 -14.609 -21.321  1.00  0.00     0.013 A 
HETATM    4 BR1  UNL     1     -14.932 -15.950 -21.814  1.00  0.00    -0.051 Br
HETATM    5  C8  UNL     1     -15.808 -13.527 -20.557  1.00  0.00     0.026 A 
HETATM    6  C9  UNL     1     -16.714 -12.536 -20.186  1.00  0.00    -0.050 A 
HETATM    7  C14 UNL     1     -18.023 -12.616 -20.578  1.00  0.00     0.033 A 
ENDROOT
BRANCH   6   8
HETATM    8  C10 UNL     1     -16.262 -11.389 -19.365  1.00  0.00     0.097 C 
BRANCH   8   9
HETATM    9  C11 UNL     1     -15.124 -10.686 -19.982  1.00  0.00     0.033 A 
HETATM   10  C12 UNL     1     -13.823 -10.687 -19.525  1.00  0.00     0.118 A 
HETATM   11  N2  UNL     1     -13.125  -9.928 -20.379  1.00  0.00    -0.317 N 
HETATM   12  C13 UNL     1     -13.926  -9.450 -21.351  1.00  0.00     0.324 A 
ATOM     13  H2  UNL     1     -12.126  -9.737 -20.304  1.00  0.00     0.170 HD
HETATM   14  O3  UNL     1     -13.596  -8.708 -22.309  1.00  0.00    -0.247 OA
HETATM   15  N3  UNL     1     -15.140  -9.924 -21.091  1.00  0.00    -0.311 N 
ATOM     16  H3  UNL     1     -15.969  -9.736 -21.654  1.00  0.00     0.170 HD
ENDBRANCH   8   9
ENDBRANCH   6   8
BRANCH   1  17
HETATM   17  S1  UNL     1     -20.101 -13.855 -21.882  1.00  0.00     0.264 S 
HETATM   18  O1  UNL     1     -20.709 -15.107 -21.314  1.00  0.00    -0.200 OA
HETATM   19  O2  UNL     1     -20.829 -12.630 -21.421  1.00  0.00    -0.200 OA
BRANCH  17  20
HETATM   20  N1  UNL     1     -20.117 -13.935 -23.559  1.00  0.00    -0.287 N 
HETATM   21  C4  UNL     1     -20.028 -15.217 -24.142  1.00  0.00     0.169 C 
BRANCH  20  22
HETATM   22  C3  UNL     1     -19.659 -12.830 -24.284  1.00  0.00     0.102 C 
BRANCH  22  23
HETATM   23  C2  UNL     1     -20.737 -12.009 -24.913  1.00  0.00     0.008 C 
HETATM   24  C1  UNL     1     -20.937 -11.993 -26.223  1.00  0.00     0.013 C 
ENDBRANCH  22  23
ENDBRANCH  20  22
ENDBRANCH  17  20
ENDBRANCH   1  17
TORSDOF 6
ENDMDL
MODEL 4
REMARK VINA RESULT: -7.157635245      3.535      6.639
REMARK  6 active torsions:
REMARK  status: ('A' for Active; 'I' for Inactive)
REMARK    1  A    between atoms: C2_2  and  C3_3 
REMARK    2  A    between atoms: C3_3  and  N1_4 
REMARK    3  A    between atoms: N1_4  and  S1_6 
REMARK    4  A    between atoms: S1_6  and  C5_9 
REMARK    5  A    between atoms: C9_14  and  C10_15 
REMARK    6  A    between atoms: C10_15  and  C11_16 
ROOT
HETATM    1  C5  UNL     1     -14.026 -13.566 -21.267  1.00  0.00     0.081 A 
HETATM    2  C6  UNL     1     -15.380 -13.315 -21.361  1.00  0.00     0.044 A 
HETATM    3  C7  UNL     1     -15.907 -12.038 -21.361  1.00  0.00     0.013 A 
HETATM    4 BR1  UNL     1     -17.777 -11.703 -21.492  1.00  0.00    -0.051 Br
HETATM    5  C8  UNL     1     -15.007 -10.998 -21.262  1.00  0.00     0.026 A 
HETATM    6  C9  UNL     1     -13.636 -11.224 -21.166  1.00  0.00    -0.050 A 
HETATM    7  C14 UNL     1     -13.144 -12.502 -21.168  1.00  0.00     0.033 A 
ENDROOT
BRANCH   6   8
HETATM    8  C10 UNL     1     -12.702 -10.078 -21.061  1.00  0.00     0.097 C 
BRANCH   8   9
HETATM    9  C11 UNL     1     -12.365  -9.522 -22.383  1.00  0.00     0.033 A 
HETATM   10  C12 UNL     1     -11.659 -10.163 -23.379  1.00  0.00     0.118 A 
HETATM   11  N2  UNL     1     -11.583  -9.300 -24.400  1.00  0.00    -0.317 N 
HETATM   12  C13 UNL     1     -12.209  -8.148 -24.093  1.00  0.00     0.324 A 
ATOM     13  H2  UNL     1     -11.116  -9.489 -25.287  1.00  0.00     0.170 HD
HETATM   14  O3  UNL     1     -12.326  -7.132 -24.822  1.00  0.00    -0.247 OA
HETATM   15  N3  UNL     1     -12.679  -8.304 -22.860  1.00  0.00    -0.311 N 
ATOM     16  H3  UNL     1     -13.204  -7.597 -22.345  1.00  0.00     0.170 HD
ENDBRANCH   8   9
ENDBRANCH   6   8
BRANCH   1  17
HETATM   17  S1  UNL     1     -13.460 -15.229 -21.275  1.00  0.00     0.264 S 
HETATM   18  O1  UNL     1     -14.039 -15.969 -22.449  1.00  0.00    -0.200 OA
HETATM   19  O2  UNL     1     -11.965 -15.182 -21.336  1.00  0.00    -0.200 OA
BRANCH  17  20
HETATM   20  N1  UNL     1     -13.954 -15.967 -19.849  1.00  0.00    -0.287 N 
HETATM   21  C4  UNL     1     -15.098 -16.790 -19.915  1.00  0.00     0.169 C 
BRANCH  20  22
HETATM   22  C3  UNL     1     -13.629 -15.355 -18.634  1.00  0.00     0.102 C 
BRANCH  22  23
HETATM   23  C2  UNL     1     -14.797 -14.812 -17.880  1.00  0.00     0.008 C 
HETATM   24  C1  UNL     1     -14.955 -13.513 -17.663  1.00  0.00     0.013 C 
ENDBRANCH  22  23
ENDBRANCH  20  22
ENDBRANCH  17  20
ENDBRANCH   1  17
TORSDOF 6
ENDMDL
MODEL 5
REMARK VINA RESULT: -7.141822338      2.467      6.602
REMARK  6 active torsions:
REMARK  status: ('A' for Active; 'I' for Inactive)
REMARK    1  A    between atoms: C2_2  and  C3_3 
REMARK    2  A    between atoms: C3_3  and  N1_4 
REMARK    3  A    between atoms: N1_4  and  S1_6 
REMARK    4  A    between atoms: S1_6  and  C5_9 
REMARK    5  A    between atoms: C9_14  and  C10_15 
REMARK    6  A    between atoms: C10_15  and  C11_16 
ROOT
HETATM    1  C5  UNL     1     -16.266 -13.375 -21.070  1.00  0.00     0.081 A 
HETATM    2  C6  UNL     1     -16.033 -14.217 -20.001  1.00  0.00     0.044 A 
HETATM    3  C7  UNL     1     -15.074 -13.960 -19.040  1.00  0.00     0.013 A 
HETATM    4 BR1  UNL     1     -14.760 -15.128 -17.570  1.00  0.00    -0.051 Br
HETATM    5  C8  UNL     1     -14.341 -12.802 -19.193  1.00  0.00     0.026 A 
HETATM    6  C9  UNL     1     -14.556 -11.936 -20.263  1.00  0.00    -0.050 A 
HETATM    7  C14 UNL     1     -15.514 -12.219 -21.199  1.00  0.00     0.033 A 
ENDROOT
BRANCH   6   8
HETATM    8  C10 UNL     1     -13.746 -10.702 -20.391  1.00  0.00     0.097 C 
BRANCH   8   9
HETATM    9  C11 UNL     1     -12.768 -10.799 -21.488  1.00  0.00     0.033 A 
HETATM   10  C12 UNL     1     -11.856 -11.815 -21.679  1.00  0.00     0.118 A 
HETATM   11  N2  UNL     1     -11.173 -11.504 -22.787  1.00  0.00    -0.317 N 
HETATM   12  C13 UNL     1     -11.613 -10.340 -23.303  1.00  0.00     0.324 A 
ATOM     13  H2  UNL     1     -10.424 -12.069 -23.185  1.00  0.00     0.170 HD
HETATM   14  O3  UNL     1     -11.192  -9.761 -24.335  1.00  0.00    -0.247 OA
HETATM   15  N3  UNL     1     -12.585  -9.926 -22.496  1.00  0.00    -0.311 N 
ATOM     16  H3  UNL     1     -13.119  -9.067 -22.624  1.00  0.00     0.170 HD
ENDBRANCH   8   9
ENDBRANCH   6   8
BRANCH   1  17
HETATM   17  S1  UNL     1     -17.510 -13.797 -22.236  1.00  0.00     0.264 S 
HETATM   18  O1  UNL     1     -17.490 -12.831 -23.389  1.00  0.00    -0.200 OA
HETATM   19  O2  UNL     1     -17.231 -15.197 -22.686  1.00  0.00    -0.200 OA
BRANCH  17  20
HETATM   20  N1  UNL     1     -19.004 -13.726 -21.473  1.00  0.00    -0.287 N 
HETATM   21  C4  UNL     1     -19.782 -14.903 -21.474  1.00  0.00     0.169 C 
BRANCH  20  22
HETATM   22  C3  UNL     1     -19.650 -12.488 -21.385  1.00  0.00     0.102 C 
BRANCH  22  23
HETATM   23  C2  UNL     1     -19.488 -11.793 -20.074  1.00  0.00     0.008 C 
HETATM   24  C1  UNL     1     -20.526 -11.453 -19.323  1.00  0.00     0.013 C 
ENDBRANCH  22  23
ENDBRANCH  20  22
ENDBRANCH  17  20
ENDBRANCH   1  17
TORSDOF 6
ENDMDL
