MODEL 1
REMARK VINA RESULT: -7.253269623      0.000      0.000
REMARK  7 active torsions:
REMARK  status: ('A' for Active; 'I' for Inactive)
REMARK    1  A    between atoms: N1_2  and  C3_4 
REMARK    2  A    between atoms: C3_4  and  C4_5 
REMARK    3  A    between atoms: C4_5  and  C5_6 
REMARK    4  A    between atoms: C5_6  and  N2_7 
REMARK    5  A    between atoms: N2_7  and  C6_9 
REMARK    6  A    between atoms: C8_14  and  C9_15 
REMARK    7  A    between atoms: C9_15  and  N4_16 
ROOT
HETATM    1  C6  UNL     1      16.307 -11.690  21.084  1.00  0.00     0.679 A 
HETATM    2  N3  UNL     1      17.430 -11.364  20.447  1.00  0.00    -0.183 N 
ATOM      3  H3  UNL     1      17.593 -10.513  19.908  1.00  0.00     0.185 HD
HETATM    4  C7  UNL     1      18.328 -12.381  20.648  1.00  0.00     0.120 A 
HETATM    5 BR1  UNL     1      20.048 -12.328  19.860  1.00  0.00    -0.029 Br
HETATM    6  C8  UNL     1      17.775 -13.342  21.410  1.00  0.00     0.079 A 
HETATM    7  N5  UNL     1      16.495 -12.875  21.669  1.00  0.00    -0.191 N 
ATOM      8  H5  UNL     1      15.797 -13.367  22.226  1.00  0.00     0.184 HD
ENDROOT
BRANCH   6   9
HETATM    9  C9  UNL     1      18.241 -14.626  21.980  1.00  0.00     0.189 C 
BRANCH   9  10
HETATM   10  N4  UNL     1      18.636 -14.617  23.349  1.00  0.00    -0.352 N 
HETATM   11  C10 UNL     1      17.728 -15.142  24.242  1.00  0.00     0.091 A 
HETATM   12  C11 UNL     1      17.948 -15.165  25.596  1.00  0.00     0.020 A 
HETATM   13  C12 UNL     1      19.118 -14.649  26.109  1.00  0.00     0.040 A 
HETATM   14  C13 UNL     1      20.026 -14.128  25.227  1.00  0.00     0.091 A 
HETATM   15  C14 UNL     1      19.743 -14.133  23.859  1.00  0.00     0.047 A 
HETATM   16  O1  UNL     1      21.261 -13.559  25.475  1.00  0.00    -0.349 OA
HETATM   17  C15 UNL     1      20.966 -13.543  23.224  1.00  0.00     0.086 C 
HETATM   18  C16 UNL     1      22.039 -13.818  24.301  1.00  0.00     0.181 C 
ENDBRANCH   9  10
ENDBRANCH   6   9
BRANCH   1  19
HETATM   19  N2  UNL     1      15.220 -10.954  21.105  1.00  0.00    -0.226 N 
ATOM     20  H2  UNL     1      15.218 -10.094  21.654  1.00  0.00     0.177 HD
BRANCH  19  21
HETATM   21  C5  UNL     1      14.032 -11.317  20.381  1.00  0.00     0.140 C 
BRANCH  21  22
HETATM   22  C4  UNL     1      12.970 -10.277  20.754  1.00  0.00     0.050 C 
BRANCH  22  23
HETATM   23  C3  UNL     1      13.014 -10.072  22.238  1.00  0.00     0.273 C 
BRANCH  23  24
HETATM   24  N1  UNL     1      11.685 -10.362  22.765  1.00  0.00     0.080 N 
HETATM   25  C1  UNL     1      11.520  -9.675  24.040  1.00  0.00     0.309 C 
HETATM   26  C2  UNL     1      11.546 -11.803  22.943  1.00  0.00     0.309 C 
ENDBRANCH  23  24
ENDBRANCH  22  23
ENDBRANCH  21  22
ENDBRANCH  19  21
ENDBRANCH   1  19
TORSDOF 7
ENDMDL
MODEL 2
REMARK VINA RESULT: -7.095508866      1.034      1.121
REMARK  7 active torsions:
REMARK  status: ('A' for Active; 'I' for Inactive)
REMARK    1  A    between atoms: N1_2  and  C3_4 
REMARK    2  A    between atoms: C3_4  and  C4_5 
REMARK    3  A    between atoms: C4_5  and  C5_6 
REMARK    4  A    between atoms: C5_6  and  N2_7 
REMARK    5  A    between atoms: N2_7  and  C6_9 
REMARK    6  A    between atoms: C8_14  and  C9_15 
REMARK    7  A    between atoms: C9_15  and  N4_16 
ROOT
HETATM    1  C6  UNL     1      15.817 -12.994  21.790  1.00  0.00     0.679 A 
HETATM    2  N3  UNL     1      16.737 -12.385  21.045  1.00  0.00    -0.183 N 
ATOM      3  H3  UNL     1      16.589 -11.567  20.453  1.00  0.00     0.185 HD
HETATM    4  C7  UNL     1      17.919 -13.058  21.218  1.00  0.00     0.120 A 
HETATM    5 BR1  UNL     1      19.481 -12.535  20.284  1.00  0.00    -0.029 Br
HETATM    6  C8  UNL     1      17.746 -14.086  22.070  1.00  0.00     0.079 A 
HETATM    7  N5  UNL     1      16.404 -14.018  22.413  1.00  0.00    -0.191 N 
ATOM      8  H5  UNL     1      15.933 -14.660  23.051  1.00  0.00     0.184 HD
ENDROOT
BRANCH   6   9
HETATM    9  C9  UNL     1      18.626 -15.119  22.659  1.00  0.00     0.189 C 
BRANCH   9  10
HETATM   10  N4  UNL     1      19.145 -14.855  23.960  1.00  0.00    -0.352 N 
HETATM   11  C10 UNL     1      18.402 -15.338  25.015  1.00  0.00     0.091 A 
HETATM   12  C11 UNL     1      18.752 -15.129  26.324  1.00  0.00     0.020 A 
HETATM   13  C12 UNL     1      19.889 -14.411  26.625  1.00  0.00     0.040 A 
HETATM   14  C13 UNL     1      20.633 -13.931  25.581  1.00  0.00     0.091 A 
HETATM   15  C14 UNL     1      20.224 -14.177  24.268  1.00  0.00     0.047 A 
HETATM   16  O1  UNL     1      21.803 -13.193  25.605  1.00  0.00    -0.349 OA
HETATM   17  C15 UNL     1      21.295 -13.555  23.422  1.00  0.00     0.086 C 
HETATM   18  C16 UNL     1      22.492 -13.539  24.399  1.00  0.00     0.181 C 
ENDBRANCH   9  10
ENDBRANCH   6   9
BRANCH   1  19
HETATM   19  N2  UNL     1      14.557 -12.629  21.868  1.00  0.00    -0.226 N 
ATOM     20  H2  UNL     1      13.882 -13.276  22.276  1.00  0.00     0.177 HD
BRANCH  19  21
HETATM   21  C5  UNL     1      14.097 -11.351  21.398  1.00  0.00     0.140 C 
BRANCH  21  22
HETATM   22  C4  UNL     1      12.792 -11.064  22.148  1.00  0.00     0.050 C 
BRANCH  22  23
HETATM   23  C3  UNL     1      12.792  -9.621  22.554  1.00  0.00     0.273 C 
BRANCH  23  24
HETATM   24  N1  UNL     1      11.645  -9.408  23.431  1.00  0.00     0.080 N 
HETATM   25  C1  UNL     1      12.002  -8.426  24.447  1.00  0.00     0.309 C 
HETATM   26  C2  UNL     1      11.279 -10.674  24.055  1.00  0.00     0.309 C 
ENDBRANCH  23  24
ENDBRANCH  22  23
ENDBRANCH  21  22
ENDBRANCH  19  21
ENDBRANCH   1  19
TORSDOF 7
ENDMDL
MODEL 3
REMARK VINA RESULT: -7.085707788      1.445      1.978
REMARK  7 active torsions:
REMARK  status: ('A' for Active; 'I' for Inactive)
REMARK    1  A    between atoms: N1_2  and  C3_4 
REMARK    2  A    between atoms: C3_4  and  C4_5 
REMARK    3  A    between atoms: C4_5  and  C5_6 
REMARK    4  A    between atoms: C5_6  and  N2_7 
REMARK    5  A    between atoms: N2_7  and  C6_9 
REMARK    6  A    between atoms: C8_14  and  C9_15 
REMARK    7  A    between atoms: C9_15  and  N4_16 
ROOT
HETATM    1  C6  UNL     1      16.076 -12.849  21.836  1.00  0.00     0.679 A 
HETATM    2  N3  UNL     1      17.128 -12.604  21.057  1.00  0.00    -0.183 N 
ATOM      3  H3  UNL     1      17.141 -12.000  20.235  1.00  0.00     0.185 HD
HETATM    4  C7  UNL     1      18.188 -13.312  21.560  1.00  0.00     0.120 A 
HETATM    5 BR1  UNL     1      19.876 -13.276  20.703  1.00  0.00    -0.029 Br
HETATM    6  C8  UNL     1      17.808 -13.999  22.653  1.00  0.00     0.079 A 
HETATM    7  N5  UNL     1      16.466 -13.685  22.801  1.00  0.00    -0.191 N 
ATOM      8  H5  UNL     1      15.862 -14.042  23.542  1.00  0.00     0.184 HD
ENDROOT
BRANCH   6   9
HETATM    9  C9  UNL     1      18.489 -14.885  23.624  1.00  0.00     0.189 C 
BRANCH   9  10
HETATM   10  N4  UNL     1      19.777 -14.476  24.076  1.00  0.00    -0.352 N 
HETATM   11  C10 UNL     1      19.825 -13.276  24.752  1.00  0.00     0.091 A 
HETATM   12  C11 UNL     1      20.997 -12.732  25.212  1.00  0.00     0.020 A 
HETATM   13  C12 UNL     1      22.189 -13.392  25.003  1.00  0.00     0.040 A 
HETATM   14  C13 UNL     1      22.147 -14.585  24.334  1.00  0.00     0.091 A 
HETATM   15  C14 UNL     1      20.922 -15.087  23.889  1.00  0.00     0.047 A 
HETATM   16  O1  UNL     1      23.183 -15.438  23.999  1.00  0.00    -0.349 OA
HETATM   17  C15 UNL     1      21.265 -16.406  23.264  1.00  0.00     0.086 C 
HETATM   18  C16 UNL     1      22.599 -16.745  23.966  1.00  0.00     0.181 C 
ENDBRANCH   9  10
ENDBRANCH   6   9
BRANCH   1  19
HETATM   19  N2  UNL     1      14.877 -12.346  21.653  1.00  0.00    -0.226 N 
ATOM     20  H2  UNL     1      14.066 -12.888  21.950  1.00  0.00     0.177 HD
BRANCH  19  21
HETATM   21  C5  UNL     1      14.668 -11.058  21.049  1.00  0.00     0.140 C 
BRANCH  21  22
HETATM   22  C4  UNL     1      13.160 -10.794  21.118  1.00  0.00     0.050 C 
BRANCH  22  23
HETATM   23  C3  UNL     1      12.893  -9.905  22.295  1.00  0.00     0.273 C 
BRANCH  23  24
HETATM   24  N1  UNL     1      11.601 -10.288  22.855  1.00  0.00     0.080 N 
HETATM   25  C1  UNL     1      11.466  -9.699  24.181  1.00  0.00     0.309 C 
HETATM   26  C2  UNL     1      11.528 -11.743  22.937  1.00  0.00     0.309 C 
ENDBRANCH  23  24
ENDBRANCH  22  23
ENDBRANCH  21  22
ENDBRANCH  19  21
ENDBRANCH   1  19
TORSDOF 7
ENDMDL
MODEL 4
REMARK VINA RESULT: -7.047575861      1.327      2.137
REMARK  7 active torsions:
REMARK  status: ('A' for Active; 'I' for Inactive)
REMARK    1  A    between atoms: N1_2  and  C3_4 
REMARK    2  A    between atoms: C3_4  and  C4_5 
REMARK    3  A    between atoms: C4_5  and  C5_6 
REMARK    4  A    between atoms: C5_6  and  N2_7 
REMARK    5  A    between atoms: N2_7  and  C6_9 
REMARK    6  A    between atoms: C8_14  and  C9_15 
REMARK    7  A    between atoms: C9_15  and  N4_16 
ROOT
HETATM    1  C6  UNL     1      16.944 -12.672  21.596  1.00  0.00     0.679 A 
HETATM    2  N3  UNL     1      17.666 -12.192  20.585  1.00  0.00    -0.183 N 
ATOM      3  H3  UNL     1      17.321 -11.610  19.821  1.00  0.00     0.185 HD
HETATM    4  C7  UNL     1      18.956 -12.622  20.757  1.00  0.00     0.120 A 
HETATM    5 BR1  UNL     1      20.300 -12.193  19.496  1.00  0.00    -0.029 Br
HETATM    6  C8  UNL     1      19.049 -13.368  21.873  1.00  0.00     0.079 A 
HETATM    7  N5  UNL     1      17.758 -13.382  22.380  1.00  0.00    -0.191 N 
ATOM      8  H5  UNL     1      17.472 -13.865  23.232  1.00  0.00     0.184 HD
ENDROOT
BRANCH   6   9
HETATM    9  C9  UNL     1      20.148 -14.057  22.586  1.00  0.00     0.189 C 
BRANCH   9  10
HETATM   10  N4  UNL     1      20.108 -14.032  24.009  1.00  0.00    -0.352 N 
HETATM   11  C10 UNL     1      20.696 -12.941  24.610  1.00  0.00     0.091 A 
HETATM   12  C11 UNL     1      20.772 -12.796  25.972  1.00  0.00     0.020 A 
HETATM   13  C12 UNL     1      20.245 -13.767  26.796  1.00  0.00     0.040 A 
HETATM   14  C13 UNL     1      19.657 -14.852  26.205  1.00  0.00     0.091 A 
HETATM   15  C14 UNL     1      19.611 -14.943  24.812  1.00  0.00     0.047 A 
HETATM   16  O1  UNL     1      19.057 -15.951  26.792  1.00  0.00    -0.349 OA
HETATM   17  C15 UNL     1      18.861 -16.213  24.546  1.00  0.00     0.086 C 
HETATM   18  C16 UNL     1      18.062 -16.383  25.858  1.00  0.00     0.181 C 
ENDBRANCH   9  10
ENDBRANCH   6   9
BRANCH   1  19
HETATM   19  N2  UNL     1      15.657 -12.471  21.757  1.00  0.00    -0.226 N 
ATOM     20  H2  UNL     1      15.132 -13.102  22.362  1.00  0.00     0.177 HD
BRANCH  19  21
HETATM   21  C5  UNL     1      14.961 -11.392  21.110  1.00  0.00     0.140 C 
BRANCH  21  22
HETATM   22  C4  UNL     1      13.491 -11.523  21.523  1.00  0.00     0.050 C 
BRANCH  22  23
HETATM   23  C3  UNL     1      13.057 -10.224  22.132  1.00  0.00     0.273 C 
BRANCH  23  24
HETATM   24  N1  UNL     1      11.717 -10.417  22.677  1.00  0.00     0.080 N 
HETATM   25  C1  UNL     1      11.610  -9.692  23.937  1.00  0.00     0.309 C 
HETATM   26  C2  UNL     1      11.488 -11.841  22.890  1.00  0.00     0.309 C 
ENDBRANCH  23  24
ENDBRANCH  22  23
ENDBRANCH  21  22
ENDBRANCH  19  21
ENDBRANCH   1  19
TORSDOF 7
ENDMDL
MODEL 5
REMARK VINA RESULT: -6.929565536      2.079      3.334
REMARK  7 active torsions:
REMARK  status: ('A' for Active; 'I' for Inactive)
REMARK    1  A    between atoms: N1_2  and  C3_4 
REMARK    2  A    between atoms: C3_4  and  C4_5 
REMARK    3  A    between atoms: C4_5  and  C5_6 
REMARK    4  A    between atoms: C5_6  and  N2_7 
REMARK    5  A    between atoms: N2_7  and  C6_9 
REMARK    6  A    between atoms: C8_14  and  C9_15 
REMARK    7  A    between atoms: C9_15  and  N4_16 
ROOT
HETATM    1  C6  UNL     1      13.865 -11.744  20.040  1.00  0.00     0.679 A 
HETATM    2  N3  UNL     1      13.769 -12.976  19.543  1.00  0.00    -0.183 N 
ATOM      3  H3  UNL     1      13.138 -13.279  18.801  1.00  0.00     0.185 HD
HETATM    4  C7  UNL     1      14.672 -13.762  20.210  1.00  0.00     0.120 A 
HETATM    5 BR1  UNL     1      14.818 -15.611  19.833  1.00  0.00    -0.029 Br
HETATM    6  C8  UNL     1      15.337 -13.029  21.123  1.00  0.00     0.079 A 
HETATM    7  N5  UNL     1      14.802 -11.757  20.991  1.00  0.00    -0.191 N 
ATOM      8  H5  UNL     1      15.084 -10.945  21.541  1.00  0.00     0.184 HD
ENDROOT
BRANCH   6   9
HETATM    9  C9  UNL     1      16.423 -13.295  22.092  1.00  0.00     0.189 C 
BRANCH   9  10
HETATM   10  N4  UNL     1      17.759 -13.139  21.620  1.00  0.00    -0.352 N 
HETATM   11  C10 UNL     1      17.892 -12.650  20.340  1.00  0.00     0.091 A 
HETATM   12  C11 UNL     1      19.111 -12.483  19.733  1.00  0.00     0.020 A 
HETATM   13  C12 UNL     1      20.265 -12.811  20.411  1.00  0.00     0.040 A 
HETATM   14  C13 UNL     1      20.139 -13.295  21.685  1.00  0.00     0.091 A 
HETATM   15  C14 UNL     1      18.869 -13.443  22.248  1.00  0.00     0.047 A 
HETATM   16  O1  UNL     1      21.123 -13.691  22.573  1.00  0.00    -0.349 OA
HETATM   17  C15 UNL     1      19.134 -13.936  23.639  1.00  0.00     0.086 C 
HETATM   18  C16 UNL     1      20.579 -13.444  23.874  1.00  0.00     0.181 C 
ENDBRANCH   9  10
ENDBRANCH   6   9
BRANCH   1  19
HETATM   19  N2  UNL     1      13.141 -10.721  19.646  1.00  0.00    -0.226 N 
ATOM     20  H2  UNL     1      12.739 -10.735  18.709  1.00  0.00     0.177 HD
BRANCH  19  21
HETATM   21  C5  UNL     1      12.897  -9.583  20.490  1.00  0.00     0.140 C 
BRANCH  21  22
HETATM   22  C4  UNL     1      12.010 -10.083  21.635  1.00  0.00     0.050 C 
BRANCH  22  23
HETATM   23  C3  UNL     1      12.577  -9.570  22.925  1.00  0.00     0.273 C 
BRANCH  23  24
HETATM   24  N1  UNL     1      11.458  -9.275  23.814  1.00  0.00     0.080 N 
HETATM   25  C1  UNL     1      11.828  -8.171  24.691  1.00  0.00     0.309 C 
HETATM   26  C2  UNL     1      11.144 -10.463  24.599  1.00  0.00     0.309 C 
ENDBRANCH  23  24
ENDBRANCH  22  23
ENDBRANCH  21  22
ENDBRANCH  19  21
ENDBRANCH   1  19
TORSDOF 7
ENDMDL
