MODEL 1
REMARK VINA RESULT: -7.014905304      0.000      0.000
REMARK  12 active torsions:
REMARK  status: ('A' for Active; 'I' for Inactive)
REMARK    1  A    between atoms: N1_1  and  N2_4 
REMARK    2  A    between atoms: N2_4  and  C1_5 
REMARK    3  A    between atoms: C1_5  and  C2_6 
REMARK    4  A    between atoms: C2_6  and  C3_7 
REMARK    5  A    between atoms: C3_7  and  N3_8 
REMARK    6  A    between atoms: C6_11  and  C7_12 
REMARK    7  A    between atoms: C6_11  and  C12_21 
REMARK    8  A    between atoms: C8_13  and  C9_14 
REMARK    9  A    between atoms: C9_14  and  N4_15 
REMARK       I    between atoms: N4_15  and  C10_17 
REMARK   10  A    between atoms: C10_17  and  C11_19 
REMARK   11  A    between atoms: C13_22  and  C14_23 
REMARK   12  A    between atoms: C14_23  and  N5_24 
ROOT
HETATM    1  N3  UNL     1      15.451 -12.165  20.630  1.00  0.00     0.091 N 
HETATM    2  C4  UNL     1      16.126 -11.957  19.410  1.00  0.00     0.275 C 
HETATM    3  C5  UNL     1      17.528 -12.530  19.621  1.00  0.00     0.068 C 
HETATM    4  C6  UNL     1      17.434 -13.238  20.953  1.00  0.00     0.115 C 
HETATM    5  C20 UNL     1      16.449 -12.349  21.677  1.00  0.00     0.308 C 
ENDROOT
BRANCH   4   6
HETATM    6  C7  UNL     1      16.817 -14.543  20.722  1.00  0.00    -0.080 C 
HETATM    7  C8  UNL     1      16.302 -15.631  20.552  1.00  0.00    -0.085 C 
BRANCH   7   8
HETATM    8  C9  UNL     1      15.684 -16.956  20.370  1.00  0.00     0.217 C 
BRANCH   8   9
HETATM    9  N4  UNL     1      14.322 -16.736  19.999  1.00  0.00    -0.350 N 
HETATM   10  C10 UNL     1      13.276 -16.817  20.948  1.00  0.00     0.232 C 
HETATM   11  O1  UNL     1      13.564 -17.093  22.159  1.00  0.00    -0.272 OA
ATOM     12  H4  UNL     1      14.099 -16.514  19.028  1.00  0.00     0.163 HD
BRANCH  10  13
HETATM   13  C11 UNL     1      11.847 -16.606  20.657  1.00  0.00     0.217 C 
HETATM   14 CL1  UNL     1      11.621 -15.688  19.157  1.00  0.00    -0.121 Cl
ENDBRANCH  10  13
ENDBRANCH   8   9
ENDBRANCH   7   8
ENDBRANCH   4   6
BRANCH   4  15
HETATM   15  C12 UNL     1      18.687 -13.369  21.640  1.00  0.00    -0.075 C 
HETATM   16  C13 UNL     1      19.758 -13.473  22.197  1.00  0.00    -0.059 C 
BRANCH  16  17
HETATM   17  C14 UNL     1      21.073 -13.606  22.848  1.00  0.00     0.159 C 
BRANCH  17  18
HETATM   18  N5  UNL     1      20.883 -13.786  24.233  1.00  0.00    -0.343 N 
HETATM   19  C15 UNL     1      20.253 -14.936  24.709  1.00  0.00     0.069 C 
HETATM   20  C16 UNL     1      19.475 -14.765  25.991  1.00  0.00     0.045 C 
HETATM   21  C17 UNL     1      20.217 -13.981  27.031  1.00  0.00     0.010 C 
HETATM   22  C18 UNL     1      20.700 -12.700  26.427  1.00  0.00     0.045 C 
HETATM   23  C19 UNL     1      21.432 -12.856  25.129  1.00  0.00     0.069 C 
ENDBRANCH  17  18
ENDBRANCH  16  17
ENDBRANCH   4  15
BRANCH   1  24
HETATM   24  C3  UNL     1      14.390 -11.318  21.000  1.00  0.00     0.279 C 
BRANCH  24  25
HETATM   25  C2  UNL     1      13.327 -12.032  21.782  1.00  0.00     0.092 C 
BRANCH  25  26
HETATM   26  C1  UNL     1      12.218 -11.189  22.247  1.00  0.00     0.182 C 
BRANCH  26  27
HETATM   27  N2  UNL     1      11.501 -11.529  23.233  1.00  0.00    -0.350 NA
BRANCH  27  28
HETATM   28  N1  UNL     1      10.574 -11.733  24.032  1.00  0.00    -0.281 N 
ATOM     29  H12 UNL     1       9.988 -12.160  23.315  1.00  0.00     0.191 HD
ATOM     30  H11 UNL     1       9.972 -11.792  24.852  1.00  0.00     0.191 HD
ENDBRANCH  27  28
ENDBRANCH  26  27
ENDBRANCH  25  26
ENDBRANCH  24  25
ENDBRANCH   1  24
TORSDOF 12
ENDMDL
MODEL 2
REMARK VINA RESULT: -7.000758159      1.801      1.902
REMARK  12 active torsions:
REMARK  status: ('A' for Active; 'I' for Inactive)
REMARK    1  A    between atoms: N1_1  and  N2_4 
REMARK    2  A    between atoms: N2_4  and  C1_5 
REMARK    3  A    between atoms: C1_5  and  C2_6 
REMARK    4  A    between atoms: C2_6  and  C3_7 
REMARK    5  A    between atoms: C3_7  and  N3_8 
REMARK    6  A    between atoms: C6_11  and  C7_12 
REMARK    7  A    between atoms: C6_11  and  C12_21 
REMARK    8  A    between atoms: C8_13  and  C9_14 
REMARK    9  A    between atoms: C9_14  and  N4_15 
REMARK       I    between atoms: N4_15  and  C10_17 
REMARK   10  A    between atoms: C10_17  and  C11_19 
REMARK   11  A    between atoms: C13_22  and  C14_23 
REMARK   12  A    between atoms: C14_23  and  N5_24 
ROOT
HETATM    1  N3  UNL     1      15.368 -12.105  20.515  1.00  0.00     0.091 N 
HETATM    2  C4  UNL     1      15.978 -11.943  19.253  1.00  0.00     0.275 C 
HETATM    3  C5  UNL     1      17.389 -12.512  19.411  1.00  0.00     0.068 C 
HETATM    4  C6  UNL     1      17.365 -13.172  20.771  1.00  0.00     0.115 C 
HETATM    5  C20 UNL     1      16.420 -12.254  21.513  1.00  0.00     0.308 C 
ENDROOT
BRANCH   4   6
HETATM    6  C7  UNL     1      16.735 -14.483  20.620  1.00  0.00    -0.080 C 
HETATM    7  C8  UNL     1      16.191 -15.562  20.499  1.00  0.00    -0.085 C 
BRANCH   7   8
HETATM    8  C9  UNL     1      15.510 -16.862  20.364  1.00  0.00     0.217 C 
BRANCH   8   9
HETATM    9  N4  UNL     1      15.821 -17.621  21.535  1.00  0.00    -0.350 N 
HETATM   10  C10 UNL     1      14.935 -17.675  22.636  1.00  0.00     0.232 C 
HETATM   11  O1  UNL     1      13.836 -17.030  22.574  1.00  0.00    -0.272 OA
ATOM     12  H4  UNL     1      16.701 -18.135  21.577  1.00  0.00     0.163 HD
BRANCH  10  13
HETATM   13  C11 UNL     1      15.171 -18.429  23.880  1.00  0.00     0.217 C 
HETATM   14 CL1  UNL     1      16.422 -17.660  24.875  1.00  0.00    -0.121 Cl
ENDBRANCH  10  13
ENDBRANCH   8   9
ENDBRANCH   7   8
ENDBRANCH   4   6
BRANCH   4  15
HETATM   15  C12 UNL     1      18.652 -13.282  21.395  1.00  0.00    -0.075 C 
HETATM   16  C13 UNL     1      19.728 -13.391  21.941  1.00  0.00    -0.059 C 
BRANCH  16  17
HETATM   17  C14 UNL     1      21.023 -13.528  22.631  1.00  0.00     0.159 C 
BRANCH  17  18
HETATM   18  N5  UNL     1      20.790 -13.762  24.001  1.00  0.00    -0.343 N 
HETATM   19  C15 UNL     1      19.936 -14.791  24.400  1.00  0.00     0.069 C 
HETATM   20  C16 UNL     1      19.199 -14.556  25.695  1.00  0.00     0.045 C 
HETATM   21  C17 UNL     1      20.076 -14.012  26.783  1.00  0.00     0.010 C 
HETATM   22  C18 UNL     1      20.812 -12.816  26.266  1.00  0.00     0.045 C 
HETATM   23  C19 UNL     1      21.508 -13.027  24.957  1.00  0.00     0.069 C 
ENDBRANCH  17  18
ENDBRANCH  16  17
ENDBRANCH   4  15
BRANCH   1  24
HETATM   24  C3  UNL     1      14.329 -11.242  20.909  1.00  0.00     0.279 C 
BRANCH  24  25
HETATM   25  C2  UNL     1      13.327 -11.915  21.799  1.00  0.00     0.092 C 
BRANCH  25  26
HETATM   26  C1  UNL     1      12.338 -11.022  22.418  1.00  0.00     0.182 C 
BRANCH  26  27
HETATM   27  N2  UNL     1      11.559 -11.432  23.327  1.00  0.00    -0.350 NA
BRANCH  27  28
HETATM   28  N1  UNL     1      10.619 -11.912  23.978  1.00  0.00    -0.281 N 
ATOM     29  H12 UNL     1      10.998 -12.857  23.919  1.00  0.00     0.191 HD
ATOM     30  H11 UNL     1       9.767 -12.065  24.517  1.00  0.00     0.191 HD
ENDBRANCH  27  28
ENDBRANCH  26  27
ENDBRANCH  25  26
ENDBRANCH  24  25
ENDBRANCH   1  24
TORSDOF 12
ENDMDL
MODEL 3
REMARK VINA RESULT: -6.973826209      3.034      3.827
REMARK  12 active torsions:
REMARK  status: ('A' for Active; 'I' for Inactive)
REMARK    1  A    between atoms: N1_1  and  N2_4 
REMARK    2  A    between atoms: N2_4  and  C1_5 
REMARK    3  A    between atoms: C1_5  and  C2_6 
REMARK    4  A    between atoms: C2_6  and  C3_7 
REMARK    5  A    between atoms: C3_7  and  N3_8 
REMARK    6  A    between atoms: C6_11  and  C7_12 
REMARK    7  A    between atoms: C6_11  and  C12_21 
REMARK    8  A    between atoms: C8_13  and  C9_14 
REMARK    9  A    between atoms: C9_14  and  N4_15 
REMARK       I    between atoms: N4_15  and  C10_17 
REMARK   10  A    between atoms: C10_17  and  C11_19 
REMARK   11  A    between atoms: C13_22  and  C14_23 
REMARK   12  A    between atoms: C14_23  and  N5_24 
ROOT
HETATM    1  N3  UNL     1      14.172 -12.098  21.137  1.00  0.00     0.091 N 
HETATM    2  C4  UNL     1      14.915 -10.907  20.999  1.00  0.00     0.275 C 
HETATM    3  C5  UNL     1      16.376 -11.350  20.910  1.00  0.00     0.068 C 
HETATM    4  C6  UNL     1      16.293 -12.855  20.787  1.00  0.00     0.115 C 
HETATM    5  C20 UNL     1      15.068 -13.139  21.627  1.00  0.00     0.308 C 
ENDROOT
BRANCH   4   6
HETATM    6  C7  UNL     1      15.996 -13.173  19.391  1.00  0.00    -0.080 C 
HETATM    7  C8  UNL     1      15.730 -13.446  18.237  1.00  0.00    -0.085 C 
BRANCH   7   8
HETATM    8  C9  UNL     1      15.389 -13.795  16.847  1.00  0.00     0.217 C 
BRANCH   8   9
HETATM    9  N4  UNL     1      15.840 -12.718  16.022  1.00  0.00    -0.350 N 
HETATM   10  C10 UNL     1      15.227 -11.445  16.072  1.00  0.00     0.232 C 
HETATM   11  O1  UNL     1      14.252 -11.261  16.873  1.00  0.00    -0.272 OA
ATOM     12  H4  UNL     1      16.621 -12.872  15.385  1.00  0.00     0.163 HD
BRANCH  10  13
HETATM   13  C11 UNL     1      15.624 -10.279  15.261  1.00  0.00     0.217 C 
HETATM   14 CL1  UNL     1      17.333  -9.874  15.504  1.00  0.00    -0.121 Cl
ENDBRANCH  10  13
ENDBRANCH   8   9
ENDBRANCH   7   8
ENDBRANCH   4   6
BRANCH   4  15
HETATM   15  C12 UNL     1      17.463 -13.549  21.242  1.00  0.00    -0.075 C 
HETATM   16  C13 UNL     1      18.461 -14.135  21.601  1.00  0.00    -0.059 C 
BRANCH  16  17
HETATM   17  C14 UNL     1      19.677 -14.859  22.010  1.00  0.00     0.159 C 
BRANCH  17  18
HETATM   18  N5  UNL     1      19.922 -14.610  23.376  1.00  0.00    -0.343 N 
HETATM   19  C15 UNL     1      19.382 -15.451  24.348  1.00  0.00     0.069 C 
HETATM   20  C16 UNL     1      19.068 -14.796  25.671  1.00  0.00     0.045 C 
HETATM   21  C17 UNL     1      20.164 -13.896  26.158  1.00  0.00     0.010 C 
HETATM   22  C18 UNL     1      20.534 -12.941  25.068  1.00  0.00     0.045 C 
HETATM   23  C19 UNL     1      20.802 -13.579  23.740  1.00  0.00     0.069 C 
ENDBRANCH  17  18
ENDBRANCH  16  17
ENDBRANCH   4  15
BRANCH   1  24
HETATM   24  C3  UNL     1      12.922 -12.075  21.781  1.00  0.00     0.279 C 
BRANCH  24  25
HETATM   25  C2  UNL     1      12.265 -10.729  21.720  1.00  0.00     0.092 C 
BRANCH  25  26
HETATM   26  C1  UNL     1      11.779 -10.208  23.005  1.00  0.00     0.182 C 
BRANCH  26  27
HETATM   27  N2  UNL     1      11.217 -10.962  23.851  1.00  0.00    -0.350 NA
BRANCH  27  28
HETATM   28  N1  UNL     1      10.481 -11.766  24.442  1.00  0.00    -0.281 N 
ATOM     29  H12 UNL     1       9.872 -11.877  23.631  1.00  0.00     0.191 HD
ATOM     30  H11 UNL     1      10.038 -12.387  25.118  1.00  0.00     0.191 HD
ENDBRANCH  27  28
ENDBRANCH  26  27
ENDBRANCH  25  26
ENDBRANCH  24  25
ENDBRANCH   1  24
TORSDOF 12
ENDMDL
MODEL 4
REMARK VINA RESULT: -6.934624670      1.285      1.324
REMARK  12 active torsions:
REMARK  status: ('A' for Active; 'I' for Inactive)
REMARK    1  A    between atoms: N1_1  and  N2_4 
REMARK    2  A    between atoms: N2_4  and  C1_5 
REMARK    3  A    between atoms: C1_5  and  C2_6 
REMARK    4  A    between atoms: C2_6  and  C3_7 
REMARK    5  A    between atoms: C3_7  and  N3_8 
REMARK    6  A    between atoms: C6_11  and  C7_12 
REMARK    7  A    between atoms: C6_11  and  C12_21 
REMARK    8  A    between atoms: C8_13  and  C9_14 
REMARK    9  A    between atoms: C9_14  and  N4_15 
REMARK       I    between atoms: N4_15  and  C10_17 
REMARK   10  A    between atoms: C10_17  and  C11_19 
REMARK   11  A    between atoms: C13_22  and  C14_23 
REMARK   12  A    between atoms: C14_23  and  N5_24 
ROOT
HETATM    1  N3  UNL     1      15.552 -12.198  20.869  1.00  0.00     0.091 N 
HETATM    2  C4  UNL     1      16.454 -11.768  19.873  1.00  0.00     0.275 C 
HETATM    3  C5  UNL     1      17.697 -12.642  20.050  1.00  0.00     0.068 C 
HETATM    4  C6  UNL     1      17.267 -13.687  21.056  1.00  0.00     0.115 C 
HETATM    5  C20 UNL     1      16.313 -12.881  21.909  1.00  0.00     0.308 C 
ENDROOT
BRANCH   4   6
HETATM    6  C7  UNL     1      16.513 -14.713  20.337  1.00  0.00    -0.080 C 
HETATM    7  C8  UNL     1      15.901 -15.581  19.747  1.00  0.00    -0.085 C 
BRANCH   7   8
HETATM    8  C9  UNL     1      15.180 -16.650  19.034  1.00  0.00     0.217 C 
BRANCH   8   9
HETATM    9  N4  UNL     1      14.115 -17.078  19.885  1.00  0.00    -0.350 N 
HETATM   10  C10 UNL     1      12.776 -16.692  19.641  1.00  0.00     0.232 C 
HETATM   11  O1  UNL     1      12.523 -15.947  18.637  1.00  0.00    -0.272 OA
ATOM     12  H4  UNL     1      14.325 -17.674  20.685  1.00  0.00     0.163 HD
BRANCH  10  13
HETATM   13  C11 UNL     1      11.617 -17.084  20.463  1.00  0.00     0.217 C 
HETATM   14 CL1  UNL     1      11.810 -18.721  21.116  1.00  0.00    -0.121 Cl
ENDBRANCH  10  13
ENDBRANCH   8   9
ENDBRANCH   7   8
ENDBRANCH   4   6
BRANCH   4  15
HETATM   15  C12 UNL     1      18.346 -14.262  21.805  1.00  0.00    -0.075 C 
HETATM   16  C13 UNL     1      19.265 -14.761  22.416  1.00  0.00    -0.059 C 
BRANCH  16  17
HETATM   17  C14 UNL     1      20.383 -15.392  23.141  1.00  0.00     0.159 C 
BRANCH  17  18
HETATM   18  N5  UNL     1      20.594 -14.701  24.351  1.00  0.00    -0.343 N 
HETATM   19  C15 UNL     1      20.246 -15.293  25.565  1.00  0.00     0.069 C 
HETATM   20  C16 UNL     1      19.828 -14.338  26.656  1.00  0.00     0.045 C 
HETATM   21  C17 UNL     1      20.731 -13.147  26.775  1.00  0.00     0.010 C 
HETATM   22  C18 UNL     1      20.888 -12.515  25.428  1.00  0.00     0.045 C 
HETATM   23  C19 UNL     1      21.257 -13.464  24.330  1.00  0.00     0.069 C 
ENDBRANCH  17  18
ENDBRANCH  16  17
ENDBRANCH   4  15
BRANCH   1  24
HETATM   24  C3  UNL     1      14.581 -11.311  21.367  1.00  0.00     0.279 C 
BRANCH  24  25
HETATM   25  C2  UNL     1      13.323 -12.010  21.790  1.00  0.00     0.092 C 
BRANCH  25  26
HETATM   26  C1  UNL     1      12.293 -11.146  22.381  1.00  0.00     0.182 C 
BRANCH  26  27
HETATM   27  N2  UNL     1      11.551 -11.555  23.322  1.00  0.00    -0.350 NA
BRANCH  27  28
HETATM   28  N1  UNL     1      10.600 -11.845  24.063  1.00  0.00    -0.281 N 
ATOM     29  H12 UNL     1       9.973 -12.003  23.275  1.00  0.00     0.191 HD
ATOM     30  H11 UNL     1       9.988 -12.040  24.855  1.00  0.00     0.191 HD
ENDBRANCH  27  28
ENDBRANCH  26  27
ENDBRANCH  25  26
ENDBRANCH  24  25
ENDBRANCH   1  24
TORSDOF 12
ENDMDL
MODEL 5
REMARK VINA RESULT: -6.932023030      1.636      1.970
REMARK  12 active torsions:
REMARK  status: ('A' for Active; 'I' for Inactive)
REMARK    1  A    between atoms: N1_1  and  N2_4 
REMARK    2  A    between atoms: N2_4  and  C1_5 
REMARK    3  A    between atoms: C1_5  and  C2_6 
REMARK    4  A    between atoms: C2_6  and  C3_7 
REMARK    5  A    between atoms: C3_7  and  N3_8 
REMARK    6  A    between atoms: C6_11  and  C7_12 
REMARK    7  A    between atoms: C6_11  and  C12_21 
REMARK    8  A    between atoms: C8_13  and  C9_14 
REMARK    9  A    between atoms: C9_14  and  N4_15 
REMARK       I    between atoms: N4_15  and  C10_17 
REMARK   10  A    between atoms: C10_17  and  C11_19 
REMARK   11  A    between atoms: C13_22  and  C14_23 
REMARK   12  A    between atoms: C14_23  and  N5_24 
ROOT
HETATM    1  N3  UNL     1      14.347 -12.006  21.132  1.00  0.00     0.091 N 
HETATM    2  C4  UNL     1      15.244 -11.091  20.543  1.00  0.00     0.275 C 
HETATM    3  C5  UNL     1      16.616 -11.761  20.624  1.00  0.00     0.068 C 
HETATM    4  C6  UNL     1      16.307 -13.167  21.089  1.00  0.00     0.115 C 
HETATM    5  C20 UNL     1      15.112 -12.912  21.980  1.00  0.00     0.308 C 
ENDROOT
BRANCH   4   6
HETATM    6  C7  UNL     1      15.877 -13.938  19.924  1.00  0.00    -0.080 C 
HETATM    7  C8  UNL     1      15.501 -14.565  18.953  1.00  0.00    -0.085 C 
BRANCH   7   8
HETATM    8  C9  UNL     1      15.022 -15.315  17.779  1.00  0.00     0.217 C 
BRANCH   8   9
HETATM    9  N4  UNL     1      13.617 -15.510  17.951  1.00  0.00    -0.350 N 
HETATM   10  C10 UNL     1      13.098 -16.715  18.480  1.00  0.00     0.232 C 
HETATM   11  O1  UNL     1      13.910 -17.642  18.809  1.00  0.00    -0.272 OA
ATOM     12  H4  UNL     1      12.974 -14.763  17.687  1.00  0.00     0.163 HD
BRANCH  10  13
HETATM   13  C11 UNL     1      11.668 -17.003  18.692  1.00  0.00     0.217 C 
HETATM   14 CL1  UNL     1      11.258 -17.003  20.417  1.00  0.00    -0.121 Cl
ENDBRANCH  10  13
ENDBRANCH   8   9
ENDBRANCH   7   8
ENDBRANCH   4   6
BRANCH   4  15
HETATM   15  C12 UNL     1      17.392 -13.813  21.771  1.00  0.00    -0.075 C 
HETATM   16  C13 UNL     1      18.290 -14.378  22.355  1.00  0.00    -0.059 C 
BRANCH  16  17
HETATM   17  C14 UNL     1      19.363 -15.075  23.086  1.00  0.00     0.159 C 
BRANCH  17  18
HETATM   18  N5  UNL     1      19.747 -14.291  24.193  1.00  0.00    -0.343 N 
HETATM   19  C15 UNL     1      20.639 -13.232  24.025  1.00  0.00     0.069 C 
HETATM   20  C16 UNL     1      21.516 -12.927  25.214  1.00  0.00     0.045 C 
HETATM   21  C17 UNL     1      20.766 -12.914  26.512  1.00  0.00     0.010 C 
HETATM   22  C18 UNL     1      19.977 -14.180  26.634  1.00  0.00     0.045 C 
HETATM   23  C19 UNL     1      19.140 -14.514  25.438  1.00  0.00     0.069 C 
ENDBRANCH  17  18
ENDBRANCH  16  17
ENDBRANCH   4  15
BRANCH   1  24
HETATM   24  C3  UNL     1      13.158 -11.543  21.723  1.00  0.00     0.279 C 
BRANCH  24  25
HETATM   25  C2  UNL     1      13.201 -10.077  22.034  1.00  0.00     0.092 C 
BRANCH  25  26
HETATM   26  C1  UNL     1      12.181  -9.605  22.981  1.00  0.00     0.182 C 
BRANCH  26  27
HETATM   27  N2  UNL     1      11.553 -10.411  23.727  1.00  0.00    -0.350 NA
BRANCH  27  28
HETATM   28  N1  UNL     1      10.705 -11.003  24.412  1.00  0.00    -0.281 N 
ATOM     29  H12 UNL     1      10.954 -10.485  25.254  1.00  0.00     0.191 HD
ATOM     30  H11 UNL     1       9.960 -11.609  24.755  1.00  0.00     0.191 HD
ENDBRANCH  27  28
ENDBRANCH  26  27
ENDBRANCH  25  26
ENDBRANCH  24  25
ENDBRANCH   1  24
TORSDOF 12
ENDMDL
