MODEL 1
REMARK VINA RESULT: -7.887014302      0.000      0.000
REMARK  7 active torsions:
REMARK  status: ('A' for Active; 'I' for Inactive)
REMARK    1  A    between atoms: C2_2  and  C3_3 
REMARK    2  A    between atoms: C3_3  and  C4_5 
REMARK    3  A    between atoms: C3_3  and  C8_10 
REMARK    4  A    between atoms: C4_5  and  N1_6 
REMARK       I    between atoms: C8_10  and  N2_12 
REMARK    5  A    between atoms: N2_12  and  C9_14 
REMARK    6  A    between atoms: C14_21  and  C15_22 
REMARK    7  A    between atoms: C16_23  and  C17_24 
ROOT
HETATM    1  C9  UNL     1      17.689 -13.421  20.606  1.00  0.00     0.105 A 
HETATM    2  C10 UNL     1      17.124 -14.144  21.770  1.00  0.00     0.067 A 
HETATM    3  C11 UNL     1      17.792 -14.203  22.912  1.00  0.00     0.062 A 
HETATM    4  N3  UNL     1      17.464 -14.797  24.068  1.00  0.00    -0.357 N 
ATOM      5  H3  UNL     1      16.601 -15.316  24.227  1.00  0.00     0.166 HD
HETATM    6  C12 UNL     1      18.431 -14.619  24.994  1.00  0.00     0.018 A 
HETATM    7  C13 UNL     1      18.331 -15.282  26.343  1.00  0.00     0.069 C 
HETATM    8  C14 UNL     1      19.432 -13.882  24.443  1.00  0.00     0.015 A 
HETATM    9  C19 UNL     1      19.003 -13.624  23.095  1.00  0.00     0.074 A 
HETATM   10  N4  UNL     1      19.556 -12.983  22.143  1.00  0.00    -0.319 N 
ATOM     11  H4  UNL     1      20.468 -12.562  22.321  1.00  0.00     0.169 HD
HETATM   12  C20 UNL     1      18.986 -12.814  20.838  1.00  0.00     0.273 A 
HETATM   13  O3  UNL     1      19.626 -12.156  19.970  1.00  0.00    -0.266 OA
ENDROOT
BRANCH   1  14
HETATM   14  N2  UNL     1      17.048 -13.369  19.533  1.00  0.00    -0.320 N 
HETATM   15  C8  UNL     1      16.170 -12.472  18.976  1.00  0.00     0.264 C 
HETATM   16  O1  UNL     1      16.516 -11.243  18.862  1.00  0.00    -0.269 OA
ATOM     17  H2  UNL     1      17.216 -14.179  18.935  1.00  0.00     0.169 HD
BRANCH  15  18
HETATM   18  C3  UNL     1      14.794 -12.872  18.481  1.00  0.00     0.207 C 
HETATM   19  F1  UNL     1      14.312 -11.712  17.877  1.00  0.00    -0.231 F 
BRANCH  18  20
HETATM   20  C2  UNL     1      14.986 -13.865  17.391  1.00  0.00     0.051 C 
HETATM   21  C1  UNL     1      15.599 -13.364  16.132  1.00  0.00     0.009 C 
ENDBRANCH  18  20
BRANCH  18  22
HETATM   22  C4  UNL     1      13.992 -13.285  19.648  1.00  0.00     0.289 C 
BRANCH  22  23
HETATM   23  N1  UNL     1      13.524 -12.308  20.553  1.00  0.00    -0.075 N 
HETATM   24  C5  UNL     1      14.325 -12.121  21.748  1.00  0.00     0.271 C 
HETATM   25  C6  UNL     1      12.226 -12.821  21.065  1.00  0.00     0.271 C 
HETATM   26  C7  UNL     1      13.192 -11.020  19.985  1.00  0.00     0.271 C 
ENDBRANCH  22  23
ENDBRANCH  18  22
ENDBRANCH  15  18
ENDBRANCH   1  14
BRANCH   8  27
HETATM   27  C15 UNL     1      20.631 -13.284  24.967  1.00  0.00     0.019 C 
HETATM   28  C16 UNL     1      21.884 -13.354  24.928  1.00  0.00     0.051 C 
BRANCH  28  29
HETATM   29  C17 UNL     1      22.845 -14.161  24.277  1.00  0.00     0.145 C 
HETATM   30  C18 UNL     1      22.778 -15.696  24.415  1.00  0.00     0.096 C 
HETATM   31  O2  UNL     1      23.786 -13.792  23.574  1.00  0.00    -0.294 OA
ENDBRANCH  28  29
ENDBRANCH   8  27
TORSDOF 7
ENDMDL
MODEL 2
REMARK VINA RESULT: -7.839797377      1.193      1.434
REMARK  7 active torsions:
REMARK  status: ('A' for Active; 'I' for Inactive)
REMARK    1  A    between atoms: C2_2  and  C3_3 
REMARK    2  A    between atoms: C3_3  and  C4_5 
REMARK    3  A    between atoms: C3_3  and  C8_10 
REMARK    4  A    between atoms: C4_5  and  N1_6 
REMARK       I    between atoms: C8_10  and  N2_12 
REMARK    5  A    between atoms: N2_12  and  C9_14 
REMARK    6  A    between atoms: C14_21  and  C15_22 
REMARK    7  A    between atoms: C16_23  and  C17_24 
ROOT
HETATM    1  C9  UNL     1      18.240 -13.064  20.340  1.00  0.00     0.105 A 
HETATM    2  C10 UNL     1      17.714 -13.509  21.654  1.00  0.00     0.067 A 
HETATM    3  C11 UNL     1      18.537 -13.728  22.666  1.00  0.00     0.062 A 
HETATM    4  N3  UNL     1      18.271 -14.129  23.918  1.00  0.00    -0.357 N 
ATOM      5  H3  UNL     1      17.337 -14.331  24.274  1.00  0.00     0.166 HD
HETATM    6  C12 UNL     1      19.406 -14.231  24.645  1.00  0.00     0.018 A 
HETATM    7  C13 UNL     1      19.367 -14.762  26.054  1.00  0.00     0.069 C 
HETATM    8  C14 UNL     1      20.459 -13.886  23.858  1.00  0.00     0.015 A 
HETATM    9  C19 UNL     1      19.880 -13.566  22.581  1.00  0.00     0.074 A 
HETATM   10  N4  UNL     1      20.410 -13.186  21.487  1.00  0.00    -0.319 N 
ATOM     11  H4  UNL     1      21.424 -13.076  21.464  1.00  0.00     0.169 HD
HETATM   12  C20 UNL     1      19.680 -12.901  20.286  1.00  0.00     0.273 A 
HETATM   13  O3  UNL     1      20.313 -12.529  19.258  1.00  0.00    -0.266 OA
ENDROOT
BRANCH   1  14
HETATM   14  N2  UNL     1      17.452 -12.858  19.391  1.00  0.00    -0.320 N 
HETATM   15  C8  UNL     1      16.276 -12.163  19.247  1.00  0.00     0.264 C 
HETATM   16  O1  UNL     1      16.229 -10.929  19.593  1.00  0.00    -0.269 OA
ATOM     17  H2  UNL     1      17.751 -13.308  18.527  1.00  0.00     0.169 HD
BRANCH  15  18
HETATM   18  C3  UNL     1      15.015 -12.793  18.690  1.00  0.00     0.207 C 
HETATM   19  F1  UNL     1      14.040 -11.820  18.903  1.00  0.00    -0.231 F 
BRANCH  18  20
HETATM   20  C2  UNL     1      15.187 -12.900  17.216  1.00  0.00     0.051 C 
HETATM   21  C1  UNL     1      14.984 -11.656  16.428  1.00  0.00     0.009 C 
ENDBRANCH  18  20
BRANCH  18  22
HETATM   22  C4  UNL     1      14.756 -14.036  19.440  1.00  0.00     0.289 C 
BRANCH  22  23
HETATM   23  N1  UNL     1      13.801 -14.036  20.480  1.00  0.00    -0.075 N 
HETATM   24  C5  UNL     1      13.991 -13.031  21.510  1.00  0.00     0.271 C 
HETATM   25  C6  UNL     1      13.984 -15.326  21.196  1.00  0.00     0.271 C 
HETATM   26  C7  UNL     1      12.414 -14.056  20.072  1.00  0.00     0.271 C 
ENDBRANCH  22  23
ENDBRANCH  18  22
ENDBRANCH  15  18
ENDBRANCH   1  14
BRANCH   8  27
HETATM   27  C15 UNL     1      21.862 -13.686  24.107  1.00  0.00     0.019 C 
HETATM   28  C16 UNL     1      22.951 -14.295  24.243  1.00  0.00     0.051 C 
BRANCH  28  29
HETATM   29  C17 UNL     1      23.380 -15.643  24.226  1.00  0.00     0.145 C 
HETATM   30  C18 UNL     1      22.769 -16.655  25.216  1.00  0.00     0.096 C 
HETATM   31  O2  UNL     1      24.225 -16.154  23.491  1.00  0.00    -0.294 OA
ENDBRANCH  28  29
ENDBRANCH   8  27
TORSDOF 7
ENDMDL
MODEL 3
REMARK VINA RESULT: -7.793428400      2.566      7.634
REMARK  7 active torsions:
REMARK  status: ('A' for Active; 'I' for Inactive)
REMARK    1  A    between atoms: C2_2  and  C3_3 
REMARK    2  A    between atoms: C3_3  and  C4_5 
REMARK    3  A    between atoms: C3_3  and  C8_10 
REMARK    4  A    between atoms: C4_5  and  N1_6 
REMARK       I    between atoms: C8_10  and  N2_12 
REMARK    5  A    between atoms: N2_12  and  C9_14 
REMARK    6  A    between atoms: C14_21  and  C15_22 
REMARK    7  A    between atoms: C16_23  and  C17_24 
ROOT
HETATM    1  C9  UNL     1      18.201 -13.092  21.911  1.00  0.00     0.105 A 
HETATM    2  C10 UNL     1      16.863 -13.658  22.209  1.00  0.00     0.067 A 
HETATM    3  C11 UNL     1      15.980 -13.838  21.239  1.00  0.00     0.062 A 
HETATM    4  N3  UNL     1      14.733 -14.327  21.294  1.00  0.00    -0.357 N 
ATOM      5  H3  UNL     1      14.273 -14.644  22.148  1.00  0.00     0.166 HD
HETATM    6  C12 UNL     1      14.165 -14.344  20.068  1.00  0.00     0.018 A 
HETATM    7  C13 UNL     1      12.728 -14.760  19.895  1.00  0.00     0.069 C 
HETATM    8  C14 UNL     1      15.059 -13.855  19.168  1.00  0.00     0.015 A 
HETATM    9  C19 UNL     1      16.226 -13.529  19.943  1.00  0.00     0.074 A 
HETATM   10  N4  UNL     1      17.352 -13.040  19.605  1.00  0.00    -0.319 N 
ATOM     11  H4  UNL     1      17.498 -12.821  18.619  1.00  0.00     0.169 HD
HETATM   12  C20 UNL     1      18.429 -12.775  20.514  1.00  0.00     0.273 A 
HETATM   13  O3  UNL     1      19.505 -12.287  20.065  1.00  0.00    -0.266 OA
ENDROOT
BRANCH   1  14
HETATM   14  N2  UNL     1      19.028 -12.929  22.834  1.00  0.00    -0.320 N 
HETATM   15  C8  UNL     1      20.106 -13.641  23.301  1.00  0.00     0.264 C 
HETATM   16  O1  UNL     1      21.037 -13.977  22.487  1.00  0.00    -0.269 OA
ATOM     17  H2  UNL     1      18.865 -12.071  23.361  1.00  0.00     0.169 HD
BRANCH  15  18
HETATM   18  C3  UNL     1      20.249 -14.052  24.754  1.00  0.00     0.207 C 
HETATM   19  F1  UNL     1      21.288 -14.981  24.731  1.00  0.00    -0.231 F 
BRANCH  18  20
HETATM   20  C2  UNL     1      20.756 -12.870  25.501  1.00  0.00     0.051 C 
HETATM   21  C1  UNL     1      20.788 -12.981  26.983  1.00  0.00     0.009 C 
ENDBRANCH  18  20
BRANCH  18  22
HETATM   22  C4  UNL     1      18.967 -14.638  25.190  1.00  0.00     0.289 C 
BRANCH  22  23
HETATM   23  N1  UNL     1      18.796 -16.039  25.159  1.00  0.00    -0.075 N 
HETATM   24  C5  UNL     1      19.209 -16.697  23.934  1.00  0.00     0.271 C 
HETATM   25  C6  UNL     1      17.328 -16.267  25.215  1.00  0.00     0.271 C 
HETATM   26  C7  UNL     1      19.306 -16.769  26.298  1.00  0.00     0.271 C 
ENDBRANCH  22  23
ENDBRANCH  18  22
ENDBRANCH  15  18
ENDBRANCH   1  14
BRANCH   8  27
HETATM   27  C15 UNL     1      15.069 -13.750  17.733  1.00  0.00     0.019 C 
HETATM   28  C16 UNL     1      15.318 -12.962  16.788  1.00  0.00     0.051 C 
BRANCH  28  29
HETATM   29  C17 UNL     1      15.754 -11.623  16.660  1.00  0.00     0.145 C 
HETATM   30  C18 UNL     1      15.304 -10.782  15.448  1.00  0.00     0.096 C 
HETATM   31  O2  UNL     1      16.489 -10.994  17.423  1.00  0.00    -0.294 OA
ENDBRANCH  28  29
ENDBRANCH   8  27
TORSDOF 7
ENDMDL
MODEL 4
REMARK VINA RESULT: -7.765586523      2.864      8.092
REMARK  7 active torsions:
REMARK  status: ('A' for Active; 'I' for Inactive)
REMARK    1  A    between atoms: C2_2  and  C3_3 
REMARK    2  A    between atoms: C3_3  and  C4_5 
REMARK    3  A    between atoms: C3_3  and  C8_10 
REMARK    4  A    between atoms: C4_5  and  N1_6 
REMARK       I    between atoms: C8_10  and  N2_12 
REMARK    5  A    between atoms: N2_12  and  C9_14 
REMARK    6  A    between atoms: C14_21  and  C15_22 
REMARK    7  A    between atoms: C16_23  and  C17_24 
ROOT
HETATM    1  C9  UNL     1      18.623 -13.066  21.716  1.00  0.00     0.105 A 
HETATM    2  C10 UNL     1      18.740 -12.637  20.302  1.00  0.00     0.067 A 
HETATM    3  C11 UNL     1      17.657 -12.480  19.557  1.00  0.00     0.062 A 
HETATM    4  N3  UNL     1      17.545 -12.105  18.275  1.00  0.00    -0.357 N 
ATOM      5  H3  UNL     1      18.332 -11.878  17.667  1.00  0.00     0.166 HD
HETATM    6  C12 UNL     1      16.249 -12.068  17.893  1.00  0.00     0.018 A 
HETATM    7  C13 UNL     1      15.880 -11.770  16.463  1.00  0.00     0.069 C 
HETATM    8  C14 UNL     1      15.474 -12.426  18.951  1.00  0.00     0.015 A 
HETATM    9  C19 UNL     1      16.400 -12.692  20.017  1.00  0.00     0.074 A 
HETATM   10  N4  UNL     1      16.215 -13.061  21.222  1.00  0.00    -0.319 N 
ATOM     11  H4  UNL     1      15.254 -13.210  21.531  1.00  0.00     0.169 HD
HETATM   12  C20 UNL     1      17.264 -13.283  22.175  1.00  0.00     0.273 A 
HETATM   13  O3  UNL     1      16.961 -13.649  23.346  1.00  0.00    -0.266 OA
ENDROOT
BRANCH   1  14
HETATM   14  N2  UNL     1      19.653 -13.209  22.411  1.00  0.00    -0.320 N 
HETATM   15  C8  UNL     1      20.340 -14.290  22.907  1.00  0.00     0.264 C 
HETATM   16  O1  UNL     1      20.718 -15.216  22.104  1.00  0.00    -0.269 OA
ATOM     17  H2  UNL     1      20.080 -12.319  22.669  1.00  0.00     0.169 HD
BRANCH  15  18
HETATM   18  C3  UNL     1      20.679 -14.442  24.377  1.00  0.00     0.207 C 
HETATM   19  F1  UNL     1      21.912 -15.091  24.364  1.00  0.00    -0.231 F 
BRANCH  18  20
HETATM   20  C2  UNL     1      20.926 -13.079  24.917  1.00  0.00     0.051 C 
HETATM   21  C1  UNL     1      20.766 -12.904  26.386  1.00  0.00     0.009 C 
ENDBRANCH  18  20
BRANCH  18  22
HETATM   22  C4  UNL     1      19.616 -15.246  25.009  1.00  0.00     0.289 C 
BRANCH  22  23
HETATM   23  N1  UNL     1      19.900 -16.559  25.441  1.00  0.00    -0.075 N 
HETATM   24  C5  UNL     1      19.680 -17.606  24.460  1.00  0.00     0.271 C 
HETATM   25  C6  UNL     1      18.912 -16.854  26.512  1.00  0.00     0.271 C 
HETATM   26  C7  UNL     1      21.180 -16.757  26.082  1.00  0.00     0.271 C 
ENDBRANCH  22  23
ENDBRANCH  18  22
ENDBRANCH  15  18
ENDBRANCH   1  14
BRANCH   8  27
HETATM   27  C15 UNL     1      14.053 -12.447  19.180  1.00  0.00     0.019 C 
HETATM   28  C16 UNL     1      13.165 -12.091  19.993  1.00  0.00     0.051 C 
BRANCH  28  29
HETATM   29  C17 UNL     1      13.125 -11.420  21.238  1.00  0.00     0.145 C 
HETATM   30  C18 UNL     1      12.406 -10.061  21.354  1.00  0.00     0.096 C 
HETATM   31  O2  UNL     1      13.613 -11.789  22.307  1.00  0.00    -0.294 OA
ENDBRANCH  28  29
ENDBRANCH   8  27
TORSDOF 7
ENDMDL
MODEL 5
REMARK VINA RESULT: -7.697312887      2.166      3.827
REMARK  7 active torsions:
REMARK  status: ('A' for Active; 'I' for Inactive)
REMARK    1  A    between atoms: C2_2  and  C3_3 
REMARK    2  A    between atoms: C3_3  and  C4_5 
REMARK    3  A    between atoms: C3_3  and  C8_10 
REMARK    4  A    between atoms: C4_5  and  N1_6 
REMARK       I    between atoms: C8_10  and  N2_12 
REMARK    5  A    between atoms: N2_12  and  C9_14 
REMARK    6  A    between atoms: C14_21  and  C15_22 
REMARK    7  A    between atoms: C16_23  and  C17_24 
ROOT
HETATM    1  C9  UNL     1      17.871 -13.205  20.710  1.00  0.00     0.105 A 
HETATM    2  C10 UNL     1      19.339 -13.165  20.914  1.00  0.00     0.067 A 
HETATM    3  C11 UNL     1      19.858 -13.414  22.106  1.00  0.00     0.062 A 
HETATM    4  N3  UNL     1      21.139 -13.428  22.499  1.00  0.00    -0.357 N 
ATOM      5  H3  UNL     1      21.933 -13.235  21.888  1.00  0.00     0.166 HD
HETATM    6  C12 UNL     1      21.240 -13.732  23.811  1.00  0.00     0.018 A 
HETATM    7  C13 UNL     1      22.579 -13.710  24.502  1.00  0.00     0.069 C 
HETATM    8  C14 UNL     1      19.991 -13.930  24.309  1.00  0.00     0.015 A 
HETATM    9  C19 UNL     1      19.109 -13.717  23.194  1.00  0.00     0.074 A 
HETATM   10  N4  UNL     1      17.840 -13.773  23.101  1.00  0.00    -0.319 N 
ATOM     11  H4  UNL     1      17.311 -14.004  23.943  1.00  0.00     0.169 HD
HETATM   12  C20 UNL     1      17.101 -13.533  21.895  1.00  0.00     0.273 A 
HETATM   13  O3  UNL     1      15.841 -13.617  21.921  1.00  0.00    -0.266 OA
ENDROOT
BRANCH   1  14
HETATM   14  N2  UNL     1      17.392 -12.970  19.579  1.00  0.00    -0.320 N 
HETATM   15  C8  UNL     1      16.340 -12.220  19.113  1.00  0.00     0.264 C 
HETATM   16  O1  UNL     1      16.261 -10.982  19.436  1.00  0.00    -0.269 OA
ATOM     17  H2  UNL     1      17.899 -13.444  18.831  1.00  0.00     0.169 HD
BRANCH  15  18
HETATM   18  C3  UNL     1      15.256 -12.793  18.222  1.00  0.00     0.207 C 
HETATM   19  F1  UNL     1      15.785 -14.012  17.804  1.00  0.00    -0.231 F 
BRANCH  18  20
HETATM   20  C2  UNL     1      14.092 -13.113  19.090  1.00  0.00     0.051 C 
HETATM   21  C1  UNL     1      13.602 -14.518  19.058  1.00  0.00     0.009 C 
ENDBRANCH  18  20
BRANCH  18  22
HETATM   22  C4  UNL     1      15.038 -11.851  17.107  1.00  0.00     0.289 C 
BRANCH  22  23
HETATM   23  N1  UNL     1      15.829 -11.955  15.943  1.00  0.00    -0.075 N 
HETATM   24  C5  UNL     1      17.208 -11.525  16.077  1.00  0.00     0.271 C 
HETATM   25  C6  UNL     1      15.243 -10.995  14.970  1.00  0.00     0.271 C 
HETATM   26  C7  UNL     1      15.782 -13.225  15.252  1.00  0.00     0.271 C 
ENDBRANCH  22  23
ENDBRANCH  18  22
ENDBRANCH  15  18
ENDBRANCH   1  14
BRANCH   8  27
HETATM   27  C15 UNL     1      19.487 -14.390  25.576  1.00  0.00     0.019 C 
HETATM   28  C16 UNL     1      18.778 -15.278  26.109  1.00  0.00     0.051 C 
BRANCH  28  29
HETATM   29  C17 UNL     1      18.027 -16.392  25.666  1.00  0.00     0.145 C 
HETATM   30  C18 UNL     1      18.300 -17.787  26.263  1.00  0.00     0.096 C 
HETATM   31  O2  UNL     1      17.134 -16.408  24.818  1.00  0.00    -0.294 OA
ENDBRANCH  28  29
ENDBRANCH   8  27
TORSDOF 7
ENDMDL
