MODEL 1
REMARK VINA RESULT: -7.165024848      0.000      0.000
REMARK  8 active torsions:
REMARK  status: ('A' for Active; 'I' for Inactive)
REMARK    1  A    between atoms: C4_4  and  C5_5 
REMARK    2  A    between atoms: C5_5  and  C6_6 
REMARK    3  A    between atoms: C6_6  and  O1_7 
REMARK    4  A    between atoms: N1_11  and  C8_12 
REMARK    5  A    between atoms: C8_12  and  C9_13 
REMARK    6  A    between atoms: C9_13  and  C10_14 
REMARK    7  A    between atoms: C10_14  and  C11_15 
REMARK       I    between atoms: C11_15  and  N2_17 
REMARK    8  A    between atoms: N2_17  and  C12_19 
ROOT
HETATM    1  C8  UNL     1      16.260 -13.251  22.146  1.00  0.00     0.129 C 
ENDROOT
BRANCH   1   2
HETATM    2  N1  UNL     1      17.688 -13.264  21.923  1.00  0.00    -0.350 N 
HETATM    3  C7  UNL     1      18.519 -13.765  22.889  1.00  0.00     0.088 A 
HETATM    4  C4  UNL     1      19.894 -13.789  22.740  1.00  0.00    -0.021 A 
HETATM    5 BR1  UNL     1      17.718 -14.450  24.480  1.00  0.00    -0.030 Br
HETATM    6  C3  UNL     1      20.489 -13.302  21.596  1.00  0.00     0.018 A 
HETATM    7  C2  UNL     1      19.644 -12.800  20.629  1.00  0.00    -0.046 A 
HETATM    8  C1  UNL     1      20.252 -12.270  19.387  1.00  0.00     0.049 C 
HETATM    9  C15 UNL     1      18.278 -12.795  20.820  1.00  0.00     0.098 A 
BRANCH   4  10
HETATM   10  C5  UNL     1      20.729 -14.339  23.844  1.00  0.00     0.067 C 
BRANCH  10  11
HETATM   11  C6  UNL     1      21.542 -13.241  24.489  1.00  0.00     0.168 C 
BRANCH  11  12
HETATM   12  O1  UNL     1      20.766 -12.463  25.348  1.00  0.00    -0.401 OA
ATOM     13  H1  UNL     1      20.998 -11.543  25.293  1.00  0.00     0.209 HD
ENDBRANCH  11  12
ENDBRANCH  10  11
ENDBRANCH   4  10
ENDBRANCH   1   2
BRANCH   1  14
HETATM   14  C9  UNL     1      15.413 -13.506  20.958  1.00  0.00     0.029 C 
BRANCH  14  15
HETATM   15  C10 UNL     1      14.269 -14.436  21.107  1.00  0.00     0.105 C 
BRANCH  15  16
HETATM   16  C11 UNL     1      12.932 -13.831  21.043  1.00  0.00     0.223 C 
HETATM   17  O2  UNL     1      12.288 -13.610  19.992  1.00  0.00    -0.273 OA
HETATM   18  N2  UNL     1      12.264 -13.443  22.259  1.00  0.00    -0.307 N 
ATOM     19  H2  UNL     1      11.843 -14.128  22.886  1.00  0.00     0.171 HD
BRANCH  18  20
HETATM   20  C12 UNL     1      12.229 -12.152  22.515  1.00  0.00     0.150 A 
HETATM   21  N3  UNL     1      12.935 -11.175  21.950  1.00  0.00    -0.346 N 
HETATM   22  C13 UNL     1      12.738  -9.942  22.367  1.00  0.00     0.097 A 
ATOM     23  H3  UNL     1      13.611 -11.377  21.213  1.00  0.00     0.167 HD
HETATM   24  C14 UNL     1      11.820  -9.743  23.356  1.00  0.00     0.070 A 
HETATM   25  S1  UNL     1      11.266 -11.324  23.659  1.00  0.00    -0.064 SA
ENDBRANCH  18  20
ENDBRANCH  15  16
ENDBRANCH  14  15
ENDBRANCH   1  14
TORSDOF 8
ENDMDL
MODEL 2
REMARK VINA RESULT: -7.162064063      1.203      1.216
REMARK  8 active torsions:
REMARK  status: ('A' for Active; 'I' for Inactive)
REMARK    1  A    between atoms: C4_4  and  C5_5 
REMARK    2  A    between atoms: C5_5  and  C6_6 
REMARK    3  A    between atoms: C6_6  and  O1_7 
REMARK    4  A    between atoms: N1_11  and  C8_12 
REMARK    5  A    between atoms: C8_12  and  C9_13 
REMARK    6  A    between atoms: C9_13  and  C10_14 
REMARK    7  A    between atoms: C10_14  and  C11_15 
REMARK       I    between atoms: C11_15  and  N2_17 
REMARK    8  A    between atoms: N2_17  and  C12_19 
ROOT
HETATM    1  C8  UNL     1      16.293 -13.631  22.142  1.00  0.00     0.129 C 
ENDROOT
BRANCH   1   2
HETATM    2  N1  UNL     1      17.726 -13.506  21.996  1.00  0.00    -0.350 N 
HETATM    3  C7  UNL     1      18.547 -13.908  23.016  1.00  0.00     0.088 A 
HETATM    4  C4  UNL     1      19.923 -13.798  22.942  1.00  0.00    -0.021 A 
HETATM    5 BR1  UNL     1      17.728 -14.645  24.575  1.00  0.00    -0.030 Br
HETATM    6  C3  UNL     1      20.531 -13.271  21.822  1.00  0.00     0.018 A 
HETATM    7  C2  UNL     1      19.696 -12.870  20.801  1.00  0.00    -0.046 A 
HETATM    8  C1  UNL     1      20.317 -12.301  19.583  1.00  0.00     0.049 C 
HETATM    9  C15 UNL     1      18.328 -12.998  20.918  1.00  0.00     0.098 A 
BRANCH   4  10
HETATM   10  C5  UNL     1      20.745 -14.246  24.101  1.00  0.00     0.067 C 
BRANCH  10  11
HETATM   11  C6  UNL     1      21.360 -13.058  24.803  1.00  0.00     0.168 C 
BRANCH  11  12
HETATM   12  O1  UNL     1      22.740 -13.201  24.944  1.00  0.00    -0.401 OA
ATOM     13  H1  UNL     1      22.976 -13.481  25.821  1.00  0.00     0.209 HD
ENDBRANCH  11  12
ENDBRANCH  10  11
ENDBRANCH   4  10
ENDBRANCH   1   2
BRANCH   1  14
HETATM   14  C9  UNL     1      15.485 -12.498  21.634  1.00  0.00     0.029 C 
BRANCH  14  15
HETATM   15  C10 UNL     1      14.714 -12.700  20.385  1.00  0.00     0.105 C 
BRANCH  15  16
HETATM   16  C11 UNL     1      13.516 -11.865  20.223  1.00  0.00     0.223 C 
HETATM   17  O2  UNL     1      13.411 -10.898  19.434  1.00  0.00    -0.273 OA
HETATM   18  N2  UNL     1      12.342 -12.139  21.011  1.00  0.00    -0.307 N 
ATOM     19  H2  UNL     1      11.728 -12.928  20.808  1.00  0.00     0.171 HD
BRANCH  18  20
HETATM   20  C12 UNL     1      12.105 -11.313  22.007  1.00  0.00     0.150 A 
HETATM   21  N3  UNL     1      12.526 -10.058  22.162  1.00  0.00    -0.346 N 
HETATM   22  C13 UNL     1      12.167  -9.411  23.250  1.00  0.00     0.097 A 
ATOM     23  H3  UNL     1      13.110  -9.612  21.456  1.00  0.00     0.167 HD
HETATM   24  C14 UNL     1      11.385 -10.068  24.155  1.00  0.00     0.070 A 
HETATM   25  S1  UNL     1      11.186 -11.592  23.421  1.00  0.00    -0.064 SA
ENDBRANCH  18  20
ENDBRANCH  15  16
ENDBRANCH  14  15
ENDBRANCH   1  14
TORSDOF 8
ENDMDL
MODEL 3
REMARK VINA RESULT: -7.145716903      2.459      3.658
REMARK  8 active torsions:
REMARK  status: ('A' for Active; 'I' for Inactive)
REMARK    1  A    between atoms: C4_4  and  C5_5 
REMARK    2  A    between atoms: C5_5  and  C6_6 
REMARK    3  A    between atoms: C6_6  and  O1_7 
REMARK    4  A    between atoms: N1_11  and  C8_12 
REMARK    5  A    between atoms: C8_12  and  C9_13 
REMARK    6  A    between atoms: C9_13  and  C10_14 
REMARK    7  A    between atoms: C10_14  and  C11_15 
REMARK       I    between atoms: C11_15  and  N2_17 
REMARK    8  A    between atoms: N2_17  and  C12_19 
ROOT
HETATM    1  C8  UNL     1      19.346 -13.903  21.002  1.00  0.00     0.129 C 
ENDROOT
BRANCH   1   2
HETATM    2  N1  UNL     1      19.523 -13.973  22.434  1.00  0.00    -0.350 N 
HETATM    3  C7  UNL     1      18.589 -14.619  23.201  1.00  0.00     0.088 A 
HETATM    4  C4  UNL     1      18.695 -14.705  24.576  1.00  0.00    -0.021 A 
HETATM    5 BR1  UNL     1      17.107 -15.419  22.304  1.00  0.00    -0.030 Br
HETATM    6  C3  UNL     1      19.761 -14.135  25.240  1.00  0.00     0.018 A 
HETATM    7  C2  UNL     1      20.695 -13.489  24.460  1.00  0.00    -0.046 A 
HETATM    8  C1  UNL     1      21.854 -12.867  25.143  1.00  0.00     0.049 C 
HETATM    9  C15 UNL     1      20.550 -13.426  23.090  1.00  0.00     0.098 A 
BRANCH   4  10
HETATM   10  C5  UNL     1      17.629 -15.413  25.339  1.00  0.00     0.067 C 
BRANCH  10  11
HETATM   11  C6  UNL     1      18.092 -16.797  25.732  1.00  0.00     0.168 C 
BRANCH  11  12
HETATM   12  O1  UNL     1      18.469 -16.851  27.073  1.00  0.00    -0.401 OA
ATOM     13  H1  UNL     1      19.327 -16.469  27.212  1.00  0.00     0.209 HD
ENDBRANCH  11  12
ENDBRANCH  10  11
ENDBRANCH   4  10
ENDBRANCH   1   2
BRANCH   1  14
HETATM   14  C9  UNL     1      19.162 -12.547  20.434  1.00  0.00     0.029 C 
BRANCH  14  15
HETATM   15  C10 UNL     1      18.036 -11.729  20.942  1.00  0.00     0.105 C 
BRANCH  15  16
HETATM   16  C11 UNL     1      16.805 -11.758  20.142  1.00  0.00     0.223 C 
HETATM   17  O2  UNL     1      16.674 -11.264  18.998  1.00  0.00    -0.273 OA
HETATM   18  N2  UNL     1      15.624 -12.393  20.669  1.00  0.00    -0.307 N 
ATOM     19  H2  UNL     1      15.532 -13.408  20.712  1.00  0.00     0.171 HD
BRANCH  18  20
HETATM   20  C12 UNL     1      14.672 -11.589  21.091  1.00  0.00     0.150 A 
HETATM   21  N3  UNL     1      14.661 -10.257  21.117  1.00  0.00    -0.346 N 
HETATM   22  C13 UNL     1      13.592  -9.652  21.588  1.00  0.00     0.097 A 
ATOM     23  H3  UNL     1      15.460  -9.722  20.779  1.00  0.00     0.167 HD
HETATM   24  C14 UNL     1      12.558 -10.429  22.024  1.00  0.00     0.070 A 
HETATM   25  S1  UNL     1      13.147 -12.002  21.745  1.00  0.00    -0.064 SA
ENDBRANCH  18  20
ENDBRANCH  15  16
ENDBRANCH  14  15
ENDBRANCH   1  14
TORSDOF 8
ENDMDL
MODEL 4
REMARK VINA RESULT: -6.985733581      2.879      4.107
REMARK  8 active torsions:
REMARK  status: ('A' for Active; 'I' for Inactive)
REMARK    1  A    between atoms: C4_4  and  C5_5 
REMARK    2  A    between atoms: C5_5  and  C6_6 
REMARK    3  A    between atoms: C6_6  and  O1_7 
REMARK    4  A    between atoms: N1_11  and  C8_12 
REMARK    5  A    between atoms: C8_12  and  C9_13 
REMARK    6  A    between atoms: C9_13  and  C10_14 
REMARK    7  A    between atoms: C10_14  and  C11_15 
REMARK       I    between atoms: C11_15  and  N2_17 
REMARK    8  A    between atoms: N2_17  and  C12_19 
ROOT
HETATM    1  C8  UNL     1      19.187 -13.563  22.301  1.00  0.00     0.129 C 
ENDROOT
BRANCH   1   2
HETATM    2  N1  UNL     1      19.348 -14.009  23.666  1.00  0.00    -0.350 N 
HETATM    3  C7  UNL     1      18.839 -15.222  24.046  1.00  0.00     0.088 A 
HETATM    4  C4  UNL     1      18.949 -15.695  25.341  1.00  0.00    -0.021 A 
HETATM    5 BR1  UNL     1      17.961 -16.271  22.716  1.00  0.00    -0.030 Br
HETATM    6  C3  UNL     1      19.584 -14.952  26.314  1.00  0.00     0.018 A 
HETATM    7  C2  UNL     1      20.093 -13.733  25.921  1.00  0.00    -0.046 A 
HETATM    8  C1  UNL     1      20.782 -12.911  26.943  1.00  0.00     0.049 C 
HETATM    9  C15 UNL     1      19.961 -13.300  24.619  1.00  0.00     0.098 A 
BRANCH   4  10
HETATM   10  C5  UNL     1      18.356 -17.020  25.677  1.00  0.00     0.067 C 
BRANCH  10  11
HETATM   11  C6  UNL     1      19.335 -17.850  26.474  1.00  0.00     0.168 C 
BRANCH  11  12
HETATM   12  O1  UNL     1      18.849 -18.134  27.750  1.00  0.00    -0.401 OA
ATOM     13  H1  UNL     1      19.332 -18.842  28.160  1.00  0.00     0.209 HD
ENDBRANCH  11  12
ENDBRANCH  10  11
ENDBRANCH   4  10
ENDBRANCH   1   2
BRANCH   1  14
HETATM   14  C9  UNL     1      18.017 -12.693  22.035  1.00  0.00     0.029 C 
BRANCH  14  15
HETATM   15  C10 UNL     1      18.046 -11.845  20.820  1.00  0.00     0.105 C 
BRANCH  15  16
HETATM   16  C11 UNL     1      16.807 -11.804  20.032  1.00  0.00     0.223 C 
HETATM   17  O2  UNL     1      16.679 -11.253  18.914  1.00  0.00    -0.273 OA
HETATM   18  N2  UNL     1      15.615 -12.433  20.540  1.00  0.00    -0.307 N 
ATOM     19  H2  UNL     1      15.496 -13.446  20.537  1.00  0.00     0.171 HD
BRANCH  18  20
HETATM   20  C12 UNL     1      14.687 -11.626  21.009  1.00  0.00     0.150 A 
HETATM   21  N3  UNL     1      14.705 -10.296  21.083  1.00  0.00    -0.346 N 
HETATM   22  C13 UNL     1      13.658  -9.686  21.597  1.00  0.00     0.097 A 
ATOM     23  H3  UNL     1      15.510  -9.765  20.750  1.00  0.00     0.167 HD
HETATM   24  C14 UNL     1      12.617 -10.458  22.024  1.00  0.00     0.070 A 
HETATM   25  S1  UNL     1      13.167 -12.032  21.677  1.00  0.00    -0.064 SA
ENDBRANCH  18  20
ENDBRANCH  15  16
ENDBRANCH  14  15
ENDBRANCH   1  14
TORSDOF 8
ENDMDL
MODEL 5
REMARK VINA RESULT: -6.882822255      2.212      3.110
REMARK  8 active torsions:
REMARK  status: ('A' for Active; 'I' for Inactive)
REMARK    1  A    between atoms: C4_4  and  C5_5 
REMARK    2  A    between atoms: C5_5  and  C6_6 
REMARK    3  A    between atoms: C6_6  and  O1_7 
REMARK    4  A    between atoms: N1_11  and  C8_12 
REMARK    5  A    between atoms: C8_12  and  C9_13 
REMARK    6  A    between atoms: C9_13  and  C10_14 
REMARK    7  A    between atoms: C10_14  and  C11_15 
REMARK       I    between atoms: C11_15  and  N2_17 
REMARK    8  A    between atoms: N2_17  and  C12_19 
ROOT
HETATM    1  C8  UNL     1      17.274 -14.250  22.010  1.00  0.00     0.129 C 
ENDROOT
BRANCH   1   2
HETATM    2  N1  UNL     1      18.223 -14.303  23.099  1.00  0.00    -0.350 N 
HETATM    3  C7  UNL     1      19.503 -13.854  22.904  1.00  0.00     0.088 A 
HETATM    4  C4  UNL     1      20.459 -13.894  23.901  1.00  0.00    -0.021 A 
HETATM    5 BR1  UNL     1      19.943 -13.152  21.184  1.00  0.00    -0.030 Br
HETATM    6  C3  UNL     1      20.157 -14.394  25.150  1.00  0.00     0.018 A 
HETATM    7  C2  UNL     1      18.867 -14.842  25.337  1.00  0.00    -0.046 A 
HETATM    8  C1  UNL     1      18.510 -15.385  26.668  1.00  0.00     0.049 C 
HETATM    9  C15 UNL     1      17.945 -14.784  24.314  1.00  0.00     0.098 A 
BRANCH   4  10
HETATM   10  C5  UNL     1      21.832 -13.398  23.604  1.00  0.00     0.067 C 
BRANCH  10  11
HETATM   11  C6  UNL     1      22.868 -14.320  24.203  1.00  0.00     0.168 C 
BRANCH  11  12
HETATM   12  O1  UNL     1      24.155 -13.993  23.778  1.00  0.00    -0.401 OA
ATOM     13  H1  UNL     1      24.584 -14.730  23.360  1.00  0.00     0.209 HD
ENDBRANCH  11  12
ENDBRANCH  10  11
ENDBRANCH   4  10
ENDBRANCH   1   2
BRANCH   1  14
HETATM   14  C9  UNL     1      16.233 -13.200  22.105  1.00  0.00     0.029 C 
BRANCH  14  15
HETATM   15  C10 UNL     1      15.232 -13.116  21.015  1.00  0.00     0.105 C 
BRANCH  15  16
HETATM   16  C11 UNL     1      14.666 -11.785  20.759  1.00  0.00     0.223 C 
HETATM   17  O2  UNL     1      15.332 -10.742  20.561  1.00  0.00    -0.273 OA
HETATM   18  N2  UNL     1      13.237 -11.610  20.723  1.00  0.00    -0.307 N 
ATOM     19  H2  UNL     1      12.676 -11.919  19.930  1.00  0.00     0.171 HD
BRANCH  18  20
HETATM   20  C12 UNL     1      12.696 -11.029  21.773  1.00  0.00     0.150 A 
HETATM   21  N3  UNL     1      12.904  -9.798  22.238  1.00  0.00    -0.346 N 
HETATM   22  C13 UNL     1      12.250  -9.420  23.315  1.00  0.00     0.097 A 
ATOM     23  H3  UNL     1      13.552  -9.165  21.770  1.00  0.00     0.167 HD
HETATM   24  C14 UNL     1      11.399 -10.317  23.892  1.00  0.00     0.070 A 
HETATM   25  S1  UNL     1      11.558 -11.673  22.874  1.00  0.00    -0.064 SA
ENDBRANCH  18  20
ENDBRANCH  15  16
ENDBRANCH  14  15
ENDBRANCH   1  14
TORSDOF 8
ENDMDL
