MODEL 1
REMARK VINA RESULT: -8.638458860      0.000      0.000
REMARK  14 active torsions:
REMARK  status: ('A' for Active; 'I' for Inactive)
REMARK    1  A    between atoms: O1_2  and  C2_3 
REMARK    2  A    between atoms: C5_6  and  C6_7 
REMARK    3  A    between atoms: C6_7  and  C7_8 
REMARK    4  A    between atoms: C7_8  and  C8_9 
REMARK    5  A    between atoms: C7_8  and  C11_15 
REMARK    6  A    between atoms: C8_9  and  O3_11 
REMARK    7  A    between atoms: O3_11  and  C9_12 
REMARK    8  A    between atoms: C11_15  and  O5_16 
REMARK    9  A    between atoms: C11_15  and  N1_18 
REMARK   10  A    between atoms: N1_18  and  C12_19 
REMARK   11  A    between atoms: N1_18  and  C14_23 
REMARK   12  A    between atoms: C12_19  and  C13_20 
REMARK   13  A    between atoms: C14_23  and  O7_24 
REMARK   14  A    between atoms: C14_23  and  C15_26 
ROOT
HETATM    1  C11 UNL     1      43.999 -12.782  37.241  1.00  0.00     0.161 C 
ENDROOT
BRANCH   1   2
HETATM    2  C7  UNL     1      43.689 -12.505  38.575  1.00  0.00     0.091 C 
BRANCH   2   3
HETATM    3  C6  UNL     1      43.238 -13.527  39.352  1.00  0.00     0.033 C 
BRANCH   3   4
HETATM    4  C5  UNL     1      43.887 -14.224  40.389  1.00  0.00    -0.035 A 
HETATM    5  C4  UNL     1      43.678 -13.895  41.735  1.00  0.00     0.014 A 
HETATM    6  C3  UNL     1      44.239 -14.666  42.710  1.00  0.00     0.037 A 
HETATM    7  C2  UNL     1      45.027 -15.788  42.458  1.00  0.00     0.068 A 
HETATM    8  C22 UNL     1      45.235 -16.115  41.147  1.00  0.00     0.037 A 
HETATM    9  C21 UNL     1      44.687 -15.364  40.137  1.00  0.00     0.014 A 
BRANCH   7  10
HETATM   10  O1  UNL     1      45.578 -16.546  43.495  1.00  0.00    -0.356 OA
HETATM   11  C1  UNL     1      46.931 -16.475  43.829  1.00  0.00     0.210 C 
ENDBRANCH   7  10
ENDBRANCH   3   4
ENDBRANCH   2   3
BRANCH   2  12
HETATM   12  C8  UNL     1      43.866 -11.302  39.380  1.00  0.00     0.305 C 
HETATM   13  O2  UNL     1      43.189 -10.812  40.264  1.00  0.00    -0.259 OA
BRANCH  12  14
HETATM   14  O3  UNL     1      45.060 -10.499  39.118  1.00  0.00    -0.241 OA
BRANCH  14  15
HETATM   15  C9  UNL     1      44.958  -9.309  38.419  1.00  0.00     0.262 C 
HETATM   16  C10 UNL     1      44.910  -7.992  39.154  1.00  0.00     0.126 C 
HETATM   17  O4  UNL     1      44.906  -9.347  37.170  1.00  0.00    -0.265 OA
ENDBRANCH  14  15
ENDBRANCH  12  14
ENDBRANCH   2  12
ENDBRANCH   1   2
BRANCH   1  18
HETATM   18  O5  UNL     1      45.275 -12.476  36.956  1.00  0.00    -0.345 OA
ATOM     19  H5  UNL     1      45.431 -11.540  37.008  1.00  0.00     0.219 HD
ENDBRANCH   1  18
BRANCH   1  20
HETATM   20  N1  UNL     1      43.340 -13.301  36.112  1.00  0.00    -0.298 N 
BRANCH  20  21
HETATM   21  C12 UNL     1      42.467 -12.506  35.273  1.00  0.00     0.232 C 
BRANCH  21  22
HETATM   22  C13 UNL     1      43.250 -11.574  34.385  1.00  0.00     0.249 C 
HETATM   23  N2  UNL     1      43.169 -10.179  34.482  1.00  0.00    -0.061 NA
HETATM   24  O6  UNL     1      43.992 -12.111  33.537  1.00  0.00    -0.275 OA
ENDBRANCH  21  22
ENDBRANCH  20  21
BRANCH  20  25
HETATM   25  C14 UNL     1      43.525 -14.635  35.634  1.00  0.00     0.155 C 
BRANCH  25  26
HETATM   26  O7  UNL     1      43.222 -14.759  34.353  1.00  0.00    -0.345 OA
ATOM     27  H7  UNL     1      43.232 -15.663  34.064  1.00  0.00     0.219 HD
ENDBRANCH  25  26
BRANCH  25  28
HETATM   28  C15 UNL     1      43.955 -15.879  36.188  1.00  0.00     0.015 A 
HETATM   29  C16 UNL     1      45.161 -16.150  36.775  1.00  0.00     0.017 A 
HETATM   30  C17 UNL     1      45.495 -17.404  37.182  1.00  0.00     0.025 A 
HETATM   31  C18 UNL     1      44.666 -18.494  37.047  1.00  0.00     0.034 A 
HETATM   32 CL1  UNL     1      45.105 -20.103  37.573  1.00  0.00    -0.084 Cl
HETATM   33  C19 UNL     1      43.447 -18.235  36.460  1.00  0.00     0.025 A 
HETATM   34  C20 UNL     1      43.085 -16.998  36.043  1.00  0.00     0.017 A 
ENDBRANCH  25  28
ENDBRANCH  20  25
ENDBRANCH   1  20
TORSDOF 14
ENDMDL
MODEL 2
REMARK VINA RESULT: -8.421084308      0.896      1.548
REMARK  14 active torsions:
REMARK  status: ('A' for Active; 'I' for Inactive)
REMARK    1  A    between atoms: O1_2  and  C2_3 
REMARK    2  A    between atoms: C5_6  and  C6_7 
REMARK    3  A    between atoms: C6_7  and  C7_8 
REMARK    4  A    between atoms: C7_8  and  C8_9 
REMARK    5  A    between atoms: C7_8  and  C11_15 
REMARK    6  A    between atoms: C8_9  and  O3_11 
REMARK    7  A    between atoms: O3_11  and  C9_12 
REMARK    8  A    between atoms: C11_15  and  O5_16 
REMARK    9  A    between atoms: C11_15  and  N1_18 
REMARK   10  A    between atoms: N1_18  and  C12_19 
REMARK   11  A    between atoms: N1_18  and  C14_23 
REMARK   12  A    between atoms: C12_19  and  C13_20 
REMARK   13  A    between atoms: C14_23  and  O7_24 
REMARK   14  A    between atoms: C14_23  and  C15_26 
ROOT
HETATM    1  C11 UNL     1      44.264 -12.855  37.110  1.00  0.00     0.161 C 
ENDROOT
BRANCH   1   2
HETATM    2  C7  UNL     1      44.069 -12.367  38.404  1.00  0.00     0.091 C 
BRANCH   2   3
HETATM    3  C6  UNL     1      43.347 -13.126  39.272  1.00  0.00     0.033 C 
BRANCH   3   4
HETATM    4  C5  UNL     1      43.786 -14.022  40.267  1.00  0.00    -0.035 A 
HETATM    5  C4  UNL     1      44.543 -15.157  39.946  1.00  0.00     0.014 A 
HETATM    6  C3  UNL     1      45.041 -15.936  40.948  1.00  0.00     0.037 A 
HETATM    7  C2  UNL     1      44.846 -15.679  42.304  1.00  0.00     0.068 A 
HETATM    8  C22 UNL     1      44.107 -14.575  42.624  1.00  0.00     0.037 A 
HETATM    9  C21 UNL     1      43.589 -13.765  41.644  1.00  0.00     0.014 A 
BRANCH   7  10
HETATM   10  O1  UNL     1      45.380 -16.512  43.293  1.00  0.00    -0.356 OA
HETATM   11  C1  UNL     1      46.653 -16.308  43.826  1.00  0.00     0.210 C 
ENDBRANCH   7  10
ENDBRANCH   3   4
ENDBRANCH   2   3
BRANCH   2  12
HETATM   12  C8  UNL     1      44.605 -11.195  39.087  1.00  0.00     0.305 C 
HETATM   13  O2  UNL     1      45.630 -10.560  38.924  1.00  0.00    -0.259 OA
BRANCH  12  14
HETATM   14  O3  UNL     1      43.803 -10.638  40.177  1.00  0.00    -0.241 OA
BRANCH  14  15
HETATM   15  C9  UNL     1      44.409  -9.899  41.177  1.00  0.00     0.262 C 
HETATM   16  C10 UNL     1      45.184 -10.588  42.274  1.00  0.00     0.126 C 
HETATM   17  O4  UNL     1      44.302  -8.653  41.154  1.00  0.00    -0.265 OA
ENDBRANCH  14  15
ENDBRANCH  12  14
ENDBRANCH   2  12
ENDBRANCH   1   2
BRANCH   1  18
HETATM   18  O5  UNL     1      45.560 -12.821  36.758  1.00  0.00    -0.345 OA
ATOM     19  H5  UNL     1      45.839 -11.941  36.536  1.00  0.00     0.219 HD
ENDBRANCH   1  18
BRANCH   1  20
HETATM   20  N1  UNL     1      43.473 -13.381  36.072  1.00  0.00    -0.298 N 
BRANCH  20  21
HETATM   21  C12 UNL     1      42.545 -12.577  35.304  1.00  0.00     0.232 C 
BRANCH  21  22
HETATM   22  C13 UNL     1      43.264 -11.590  34.422  1.00  0.00     0.249 C 
HETATM   23  N2  UNL     1      43.181 -10.204  34.602  1.00  0.00    -0.061 NA
HETATM   24  O6  UNL     1      43.953 -12.072  33.500  1.00  0.00    -0.275 OA
ENDBRANCH  21  22
ENDBRANCH  20  21
BRANCH  20  25
HETATM   25  C14 UNL     1      43.562 -14.733  35.619  1.00  0.00     0.155 C 
BRANCH  25  26
HETATM   26  O7  UNL     1      43.162 -14.873  34.366  1.00  0.00    -0.345 OA
ATOM     27  H7  UNL     1      42.226 -14.738  34.268  1.00  0.00     0.219 HD
ENDBRANCH  25  26
BRANCH  25  28
HETATM   28  C15 UNL     1      43.973 -15.982  36.175  1.00  0.00     0.015 A 
HETATM   29  C16 UNL     1      45.179 -16.273  36.753  1.00  0.00     0.017 A 
HETATM   30  C17 UNL     1      45.492 -17.532  37.163  1.00  0.00     0.025 A 
HETATM   31  C18 UNL     1      44.641 -18.606  37.040  1.00  0.00     0.034 A 
HETATM   32 CL1  UNL     1      45.054 -20.221  37.570  1.00  0.00    -0.084 Cl
HETATM   33  C19 UNL     1      43.422 -18.327  36.463  1.00  0.00     0.025 A 
HETATM   34  C20 UNL     1      43.080 -17.085  36.044  1.00  0.00     0.017 A 
ENDBRANCH  25  28
ENDBRANCH  20  25
ENDBRANCH   1  20
TORSDOF 14
ENDMDL
MODEL 3
REMARK VINA RESULT: -8.386564324      0.795      1.148
REMARK  14 active torsions:
REMARK  status: ('A' for Active; 'I' for Inactive)
REMARK    1  A    between atoms: O1_2  and  C2_3 
REMARK    2  A    between atoms: C5_6  and  C6_7 
REMARK    3  A    between atoms: C6_7  and  C7_8 
REMARK    4  A    between atoms: C7_8  and  C8_9 
REMARK    5  A    between atoms: C7_8  and  C11_15 
REMARK    6  A    between atoms: C8_9  and  O3_11 
REMARK    7  A    between atoms: O3_11  and  C9_12 
REMARK    8  A    between atoms: C11_15  and  O5_16 
REMARK    9  A    between atoms: C11_15  and  N1_18 
REMARK   10  A    between atoms: N1_18  and  C12_19 
REMARK   11  A    between atoms: N1_18  and  C14_23 
REMARK   12  A    between atoms: C12_19  and  C13_20 
REMARK   13  A    between atoms: C14_23  and  O7_24 
REMARK   14  A    between atoms: C14_23  and  C15_26 
ROOT
HETATM    1  C11 UNL     1      43.888 -12.633  37.202  1.00  0.00     0.161 C 
ENDROOT
BRANCH   1   2
HETATM    2  C7  UNL     1      43.621 -12.271  38.525  1.00  0.00     0.091 C 
BRANCH   2   3
HETATM    3  C6  UNL     1      43.113 -13.219  39.358  1.00  0.00     0.033 C 
BRANCH   3   4
HETATM    4  C5  UNL     1      43.754 -13.978  40.356  1.00  0.00    -0.035 A 
HETATM    5  C4  UNL     1      43.578 -13.694  41.717  1.00  0.00     0.014 A 
HETATM    6  C3  UNL     1      44.128 -14.521  42.651  1.00  0.00     0.037 A 
HETATM    7  C2  UNL     1      44.871 -15.658  42.343  1.00  0.00     0.068 A 
HETATM    8  C22 UNL     1      45.048 -15.941  41.017  1.00  0.00     0.037 A 
HETATM    9  C21 UNL     1      44.509 -15.134  40.047  1.00  0.00     0.014 A 
BRANCH   7  10
HETATM   10  O1  UNL     1      45.413 -16.474  43.342  1.00  0.00    -0.356 OA
HETATM   11  C1  UNL     1      45.271 -16.182  44.698  1.00  0.00     0.210 C 
ENDBRANCH   7  10
ENDBRANCH   3   4
ENDBRANCH   2   3
BRANCH   2  12
HETATM   12  C8  UNL     1      43.894 -11.045  39.266  1.00  0.00     0.305 C 
HETATM   13  O2  UNL     1      43.340 -10.535  40.221  1.00  0.00    -0.259 OA
BRANCH  12  14
HETATM   14  O3  UNL     1      45.035 -10.243  38.824  1.00  0.00    -0.241 OA
BRANCH  14  15
HETATM   15  C9  UNL     1      44.839  -9.157  37.991  1.00  0.00     0.262 C 
HETATM   16  C10 UNL     1      44.542  -7.795  38.568  1.00  0.00     0.126 C 
HETATM   17  O4  UNL     1      44.913  -9.326  36.754  1.00  0.00    -0.265 OA
ENDBRANCH  14  15
ENDBRANCH  12  14
ENDBRANCH   2  12
ENDBRANCH   1   2
BRANCH   1  18
HETATM   18  O5  UNL     1      45.173 -12.415  36.879  1.00  0.00    -0.345 OA
ATOM     19  H5  UNL     1      45.565 -13.176  36.468  1.00  0.00     0.219 HD
ENDBRANCH   1  18
BRANCH   1  20
HETATM   20  N1  UNL     1      43.179 -13.172  36.113  1.00  0.00    -0.298 N 
BRANCH  20  21
HETATM   21  C12 UNL     1      42.089 -12.478  35.461  1.00  0.00     0.232 C 
BRANCH  21  22
HETATM   22  C13 UNL     1      42.533 -11.150  34.902  1.00  0.00     0.249 C 
HETATM   23  N2  UNL     1      43.480 -11.030  33.879  1.00  0.00    -0.061 NA
HETATM   24  O6  UNL     1      42.008 -10.136  35.406  1.00  0.00    -0.275 OA
ENDBRANCH  21  22
ENDBRANCH  20  21
BRANCH  20  25
HETATM   25  C14 UNL     1      43.511 -14.416  35.493  1.00  0.00     0.155 C 
BRANCH  25  26
HETATM   26  O7  UNL     1      43.542 -14.330  34.174  1.00  0.00    -0.345 OA
ATOM     27  H7  UNL     1      43.264 -15.134  33.751  1.00  0.00     0.219 HD
ENDBRANCH  25  26
BRANCH  25  28
HETATM   28  C15 UNL     1      43.817 -15.739  35.934  1.00  0.00     0.015 A 
HETATM   29  C16 UNL     1      43.028 -16.852  35.820  1.00  0.00     0.017 A 
HETATM   30  C17 UNL     1      43.388 -18.045  36.366  1.00  0.00     0.025 A 
HETATM   31  C18 UNL     1      44.556 -18.240  37.066  1.00  0.00     0.034 A 
HETATM   32 CL1  UNL     1      45.008 -19.778  37.765  1.00  0.00    -0.084 Cl
HETATM   33  C19 UNL     1      45.362 -17.129  37.186  1.00  0.00     0.025 A 
HETATM   34  C20 UNL     1      45.031 -15.928  36.655  1.00  0.00     0.017 A 
ENDBRANCH  25  28
ENDBRANCH  20  25
ENDBRANCH   1  20
TORSDOF 14
ENDMDL
MODEL 4
REMARK VINA RESULT: -8.336290243      2.548      5.232
REMARK  14 active torsions:
REMARK  status: ('A' for Active; 'I' for Inactive)
REMARK    1  A    between atoms: O1_2  and  C2_3 
REMARK    2  A    between atoms: C5_6  and  C6_7 
REMARK    3  A    between atoms: C6_7  and  C7_8 
REMARK    4  A    between atoms: C7_8  and  C8_9 
REMARK    5  A    between atoms: C7_8  and  C11_15 
REMARK    6  A    between atoms: C8_9  and  O3_11 
REMARK    7  A    between atoms: O3_11  and  C9_12 
REMARK    8  A    between atoms: C11_15  and  O5_16 
REMARK    9  A    between atoms: C11_15  and  N1_18 
REMARK   10  A    between atoms: N1_18  and  C12_19 
REMARK   11  A    between atoms: N1_18  and  C14_23 
REMARK   12  A    between atoms: C12_19  and  C13_20 
REMARK   13  A    between atoms: C14_23  and  O7_24 
REMARK   14  A    between atoms: C14_23  and  C15_26 
ROOT
HETATM    1  C11 UNL     1      43.437 -14.877  35.697  1.00  0.00     0.161 C 
ENDROOT
BRANCH   1   2
HETATM    2  C7  UNL     1      43.170 -13.505  35.719  1.00  0.00     0.091 C 
BRANCH   2   3
HETATM    3  C6  UNL     1      42.852 -12.934  36.912  1.00  0.00     0.033 C 
BRANCH   3   4
HETATM    4  C5  UNL     1      43.661 -12.208  37.807  1.00  0.00    -0.035 A 
HETATM    5  C4  UNL     1      44.995 -11.900  37.504  1.00  0.00     0.014 A 
HETATM    6  C3  UNL     1      45.707 -11.102  38.348  1.00  0.00     0.037 A 
HETATM    7  C2  UNL     1      45.193 -10.554  39.522  1.00  0.00     0.068 A 
HETATM    8  C22 UNL     1      43.893 -10.850  39.824  1.00  0.00     0.037 A 
HETATM    9  C21 UNL     1      43.142 -11.650  38.999  1.00  0.00     0.014 A 
BRANCH   7  10
HETATM   10  O1  UNL     1      45.968  -9.739  40.353  1.00  0.00    -0.356 OA
HETATM   11  C1  UNL     1      45.411  -8.998  41.395  1.00  0.00     0.210 C 
ENDBRANCH   7  10
ENDBRANCH   3   4
ENDBRANCH   2   3
BRANCH   2  12
HETATM   12  C8  UNL     1      43.279 -12.483  34.685  1.00  0.00     0.305 C 
HETATM   13  O2  UNL     1      43.996 -12.392  33.706  1.00  0.00    -0.259 OA
BRANCH  12  14
HETATM   14  O3  UNL     1      42.383 -11.332  34.794  1.00  0.00    -0.241 OA
BRANCH  14  15
HETATM   15  C9  UNL     1      42.822 -10.073  34.426  1.00  0.00     0.262 C 
HETATM   16  C10 UNL     1      43.508  -9.178  35.428  1.00  0.00     0.126 C 
HETATM   17  O4  UNL     1      42.639  -9.693  33.248  1.00  0.00    -0.265 OA
ENDBRANCH  14  15
ENDBRANCH  12  14
ENDBRANCH   2  12
ENDBRANCH   1   2
BRANCH   1  18
HETATM   18  O5  UNL     1      43.377 -15.373  34.451  1.00  0.00    -0.345 OA
ATOM     19  H5  UNL     1      42.803 -16.128  34.401  1.00  0.00     0.219 HD
ENDBRANCH   1  18
BRANCH   1  20
HETATM   20  N1  UNL     1      43.757 -15.884  36.626  1.00  0.00    -0.298 N 
BRANCH  20  21
HETATM   21  C12 UNL     1      43.166 -17.205  36.592  1.00  0.00     0.232 C 
BRANCH  21  22
HETATM   22  C13 UNL     1      44.188 -18.261  36.256  1.00  0.00     0.249 C 
HETATM   23  N2  UNL     1      44.114 -19.575  36.734  1.00  0.00    -0.061 NA
HETATM   24  O6  UNL     1      45.128 -17.904  35.516  1.00  0.00    -0.275 OA
ENDBRANCH  21  22
ENDBRANCH  20  21
BRANCH  20  25
HETATM   25  C14 UNL     1      44.750 -15.733  37.642  1.00  0.00     0.155 C 
BRANCH  25  26
HETATM   26  O7  UNL     1      45.939 -15.433  37.146  1.00  0.00    -0.345 OA
ATOM     27  H7  UNL     1      46.392 -14.778  37.663  1.00  0.00     0.219 HD
ENDBRANCH  25  26
BRANCH  25  28
HETATM   28  C15 UNL     1      44.790 -15.826  39.067  1.00  0.00     0.015 A 
HETATM   29  C16 UNL     1      44.314 -14.912  39.968  1.00  0.00     0.017 A 
HETATM   30  C17 UNL     1      44.496 -15.065  41.308  1.00  0.00     0.025 A 
HETATM   31  C18 UNL     1      45.159 -16.132  41.868  1.00  0.00     0.034 A 
HETATM   32 CL1  UNL     1      45.388 -16.318  43.592  1.00  0.00    -0.084 Cl
HETATM   33  C19 UNL     1      45.641 -17.061  40.973  1.00  0.00     0.025 A 
HETATM   34  C20 UNL     1      45.478 -16.937  39.634  1.00  0.00     0.017 A 
ENDBRANCH  25  28
ENDBRANCH  20  25
ENDBRANCH   1  20
TORSDOF 14
ENDMDL
MODEL 5
REMARK VINA RESULT: -8.138078541      2.187      5.250
REMARK  14 active torsions:
REMARK  status: ('A' for Active; 'I' for Inactive)
REMARK    1  A    between atoms: O1_2  and  C2_3 
REMARK    2  A    between atoms: C5_6  and  C6_7 
REMARK    3  A    between atoms: C6_7  and  C7_8 
REMARK    4  A    between atoms: C7_8  and  C8_9 
REMARK    5  A    between atoms: C7_8  and  C11_15 
REMARK    6  A    between atoms: C8_9  and  O3_11 
REMARK    7  A    between atoms: O3_11  and  C9_12 
REMARK    8  A    between atoms: C11_15  and  O5_16 
REMARK    9  A    between atoms: C11_15  and  N1_18 
REMARK   10  A    between atoms: N1_18  and  C12_19 
REMARK   11  A    between atoms: N1_18  and  C14_23 
REMARK   12  A    between atoms: C12_19  and  C13_20 
REMARK   13  A    between atoms: C14_23  and  O7_24 
REMARK   14  A    between atoms: C14_23  and  C15_26 
ROOT
HETATM    1  C11 UNL     1      44.889 -12.936  37.315  1.00  0.00     0.161 C 
ENDROOT
BRANCH   1   2
HETATM    2  C7  UNL     1      44.077 -13.527  36.343  1.00  0.00     0.091 C 
BRANCH   2   3
HETATM    3  C6  UNL     1      43.447 -14.691  36.658  1.00  0.00     0.033 C 
BRANCH   3   4
HETATM    4  C5  UNL     1      43.933 -16.013  36.637  1.00  0.00    -0.035 A 
HETATM    5  C4  UNL     1      45.213 -16.329  37.114  1.00  0.00     0.014 A 
HETATM    6  C3  UNL     1      45.601 -17.634  37.179  1.00  0.00     0.037 A 
HETATM    7  C2  UNL     1      44.797 -18.706  36.794  1.00  0.00     0.068 A 
HETATM    8  C22 UNL     1      43.548 -18.405  36.326  1.00  0.00     0.037 A 
HETATM    9  C21 UNL     1      43.120 -17.103  36.247  1.00  0.00     0.014 A 
BRANCH   7  10
HETATM   10  O1  UNL     1      45.245 -20.028  36.881  1.00  0.00    -0.356 OA
HETATM   11  C1  UNL     1      46.543 -20.348  37.277  1.00  0.00     0.210 C 
ENDBRANCH   7  10
ENDBRANCH   3   4
ENDBRANCH   2   3
BRANCH   2  12
HETATM   12  C8  UNL     1      43.655 -13.067  35.025  1.00  0.00     0.305 C 
HETATM   13  O2  UNL     1      43.140 -13.650  34.090  1.00  0.00    -0.259 OA
BRANCH  12  14
HETATM   14  O3  UNL     1      43.865 -11.652  34.718  1.00  0.00    -0.241 OA
BRANCH  14  15
HETATM   15  C9  UNL     1      42.781 -10.804  34.577  1.00  0.00     0.262 C 
HETATM   16  C10 UNL     1      41.639 -10.853  35.561  1.00  0.00     0.126 C 
HETATM   17  O4  UNL     1      42.768  -9.999  33.620  1.00  0.00    -0.265 OA
ENDBRANCH  14  15
ENDBRANCH  12  14
ENDBRANCH   2  12
ENDBRANCH   1   2
BRANCH   1  18
HETATM   18  O5  UNL     1      46.173 -12.889  36.925  1.00  0.00    -0.345 OA
ATOM     19  H5  UNL     1      46.750 -12.671  37.647  1.00  0.00     0.219 HD
ENDBRANCH   1  18
BRANCH   1  20
HETATM   20  N1  UNL     1      44.728 -12.369  38.592  1.00  0.00    -0.298 N 
BRANCH  20  21
HETATM   21  C12 UNL     1      45.135 -11.016  38.912  1.00  0.00     0.232 C 
BRANCH  21  22
HETATM   22  C13 UNL     1      44.303 -10.000  38.173  1.00  0.00     0.249 C 
HETATM   23  N2  UNL     1      44.799  -9.234  37.111  1.00  0.00    -0.061 NA
HETATM   24  O6  UNL     1      43.124  -9.864  38.559  1.00  0.00    -0.275 OA
ENDBRANCH  21  22
ENDBRANCH  20  21
BRANCH  20  25
HETATM   25  C14 UNL     1      44.081 -13.037  39.677  1.00  0.00     0.155 C 
BRANCH  25  26
HETATM   26  O7  UNL     1      42.808 -12.698  39.791  1.00  0.00    -0.345 OA
ATOM     27  H7  UNL     1      42.277 -13.399  40.151  1.00  0.00     0.219 HD
ENDBRANCH  25  26
BRANCH  25  28
HETATM   28  C15 UNL     1      44.458 -13.982  40.679  1.00  0.00     0.015 A 
HETATM   29  C16 UNL     1      44.783 -15.299  40.493  1.00  0.00     0.017 A 
HETATM   30  C17 UNL     1      45.033 -16.130  41.541  1.00  0.00     0.025 A 
HETATM   31  C18 UNL     1      44.987 -15.731  42.856  1.00  0.00     0.034 A 
HETATM   32 CL1  UNL     1      45.310 -16.808  44.196  1.00  0.00    -0.084 Cl
HETATM   33  C19 UNL     1      44.665 -14.407  43.058  1.00  0.00     0.025 A 
HETATM   34  C20 UNL     1      44.409 -13.555  42.037  1.00  0.00     0.017 A 
ENDBRANCH  25  28
ENDBRANCH  20  25
ENDBRANCH   1  20
TORSDOF 14
ENDMDL
