MODEL 1
REMARK VINA RESULT: -8.351835175      0.000      0.000
REMARK  10 active torsions:
REMARK  status: ('A' for Active; 'I' for Inactive)
REMARK    1  A    between atoms: C2_2  and  C3_3 
REMARK    2  A    between atoms: C2_2  and  C12_21 
REMARK    3  A    between atoms: C3_3  and  O2_5 
REMARK    4  A    between atoms: O2_5  and  C4_6 
REMARK    5  A    between atoms: C4_6  and  C5_7 
REMARK       I    between atoms: C5_7  and  N1_9 
REMARK    6  A    between atoms: N1_9  and  C6_11 
REMARK    7  A    between atoms: C11_17  and  N2_18 
REMARK    8  A    between atoms: C12_21  and  O6_22 
REMARK    9  A    between atoms: C12_21  and  N3_24 
REMARK   10  A    between atoms: N3_24  and  C14_26 
ROOT
HETATM    1  O2  UNL     1      42.849 -15.446  35.583  1.00  0.00    -0.308 OA
ENDROOT
BRANCH   1   2
HETATM    2  C3  UNL     1      43.399 -16.730  35.643  1.00  0.00     0.293 C 
HETATM    3  O1  UNL     1      43.429 -17.319  34.494  1.00  0.00    -0.259 OA
BRANCH   2   4
HETATM    4  C2  UNL     1      43.895 -17.365  36.843  1.00  0.00     0.064 C 
HETATM    5  C1  UNL     1      44.080 -18.881  36.694  1.00  0.00     0.059 C 
BRANCH   4   6
HETATM    6  C12 UNL     1      44.991 -16.785  37.601  1.00  0.00     0.154 C 
BRANCH   6   7
HETATM    7  O6  UNL     1      45.776 -15.981  36.898  1.00  0.00    -0.345 OA
ATOM      8  H6  UNL     1      46.588 -15.747  37.333  1.00  0.00     0.219 HD
ENDBRANCH   6   7
BRANCH   6   9
HETATM    9  N3  UNL     1      45.397 -16.901  38.925  1.00  0.00    -0.332 N 
HETATM   10  C13 UNL     1      46.255 -17.947  39.390  1.00  0.00     0.158 C 
BRANCH   9  11
HETATM   11  C14 UNL     1      44.922 -15.957  39.910  1.00  0.00     0.035 A 
HETATM   12  C15 UNL     1      44.315 -14.779  39.605  1.00  0.00     0.029 A 
HETATM   13  C16 UNL     1      43.888 -13.913  40.573  1.00  0.00     0.002 A 
HETATM   14  C17 UNL     1      44.069 -14.223  41.900  1.00  0.00     0.000 A 
HETATM   15  C18 UNL     1      44.677 -15.403  42.237  1.00  0.00     0.002 A 
HETATM   16  C19 UNL     1      45.106 -16.276  41.249  1.00  0.00     0.029 A 
ENDBRANCH   9  11
ENDBRANCH   6   9
ENDBRANCH   4   6
ENDBRANCH   2   4
ENDBRANCH   1   2
BRANCH   1  17
HETATM   17  C4  UNL     1      43.417 -14.423  34.818  1.00  0.00     0.282 C 
BRANCH  17  18
HETATM   18  C5  UNL     1      43.878 -13.238  35.626  1.00  0.00     0.246 C 
HETATM   19  O3  UNL     1      45.080 -13.285  35.975  1.00  0.00    -0.271 OA
HETATM   20  N1  UNL     1      43.050 -12.173  35.962  1.00  0.00    -0.323 N 
ATOM     21  H1  UNL     1      42.089 -12.208  35.622  1.00  0.00     0.169 HD
BRANCH  20  22
HETATM   22  C6  UNL     1      43.417 -11.050  36.731  1.00  0.00     0.068 A 
HETATM   23  C7  UNL     1      43.732 -11.158  38.064  1.00  0.00     0.033 A 
HETATM   24  C8  UNL     1      43.993 -10.013  38.824  1.00  0.00     0.021 A 
HETATM   25  C9  UNL     1      43.949  -8.758  38.296  1.00  0.00     0.013 A 
HETATM   26 BR1  UNL     1      44.315  -7.244  39.410  1.00  0.00    -0.051 Br
HETATM   27  C10 UNL     1      43.638  -8.627  36.974  1.00  0.00     0.057 A 
HETATM   28  C11 UNL     1      43.375  -9.762  36.194  1.00  0.00     0.130 A 
BRANCH  28  29
HETATM   29  N2  UNL     1      43.074  -9.509  34.832  1.00  0.00    -0.113 N 
HETATM   30  O4  UNL     1      42.366  -8.487  34.551  1.00  0.00    -0.532 OA
HETATM   31  O5  UNL     1      43.495 -10.293  33.816  1.00  0.00    -0.532 OA
ENDBRANCH  28  29
ENDBRANCH  20  22
ENDBRANCH  17  18
ENDBRANCH   1  17
TORSDOF 10
ENDMDL
MODEL 2
REMARK VINA RESULT: -8.244903562      1.376      2.047
REMARK  10 active torsions:
REMARK  status: ('A' for Active; 'I' for Inactive)
REMARK    1  A    between atoms: C2_2  and  C3_3 
REMARK    2  A    between atoms: C2_2  and  C12_21 
REMARK    3  A    between atoms: C3_3  and  O2_5 
REMARK    4  A    between atoms: O2_5  and  C4_6 
REMARK    5  A    between atoms: C4_6  and  C5_7 
REMARK       I    between atoms: C5_7  and  N1_9 
REMARK    6  A    between atoms: N1_9  and  C6_11 
REMARK    7  A    between atoms: C11_17  and  N2_18 
REMARK    8  A    between atoms: C12_21  and  O6_22 
REMARK    9  A    between atoms: C12_21  and  N3_24 
REMARK   10  A    between atoms: N3_24  and  C14_26 
ROOT
HETATM    1  O2  UNL     1      43.085 -15.180  35.644  1.00  0.00    -0.308 OA
ENDROOT
BRANCH   1   2
HETATM    2  C3  UNL     1      43.482 -16.519  35.721  1.00  0.00     0.293 C 
HETATM    3  O1  UNL     1      43.401 -17.134  34.589  1.00  0.00    -0.259 OA
BRANCH   2   4
HETATM    4  C2  UNL     1      43.944 -17.178  36.921  1.00  0.00     0.064 C 
HETATM    5  C1  UNL     1      44.165 -18.686  36.738  1.00  0.00     0.059 C 
BRANCH   4   6
HETATM    6  C12 UNL     1      44.998 -16.599  37.738  1.00  0.00     0.154 C 
BRANCH   6   7
HETATM    7  O6  UNL     1      45.735 -15.691  37.115  1.00  0.00    -0.345 OA
ATOM      8  H6  UNL     1      46.655 -15.916  37.041  1.00  0.00     0.219 HD
ENDBRANCH   6   7
BRANCH   6   9
HETATM    9  N3  UNL     1      45.404 -16.805  39.051  1.00  0.00    -0.332 N 
HETATM   10  C13 UNL     1      46.266 -17.877  39.443  1.00  0.00     0.158 C 
BRANCH   9  11
HETATM   11  C14 UNL     1      44.926 -15.933  40.098  1.00  0.00     0.035 A 
HETATM   12  C15 UNL     1      44.270 -14.763  39.875  1.00  0.00     0.029 A 
HETATM   13  C16 UNL     1      43.843 -13.965  40.900  1.00  0.00     0.002 A 
HETATM   14  C17 UNL     1      44.071 -14.339  42.202  1.00  0.00     0.000 A 
HETATM   15  C18 UNL     1      44.729 -15.513  42.458  1.00  0.00     0.002 A 
HETATM   16  C19 UNL     1      45.160 -16.316  41.413  1.00  0.00     0.029 A 
ENDBRANCH   9  11
ENDBRANCH   6   9
ENDBRANCH   4   6
ENDBRANCH   2   4
ENDBRANCH   1   2
BRANCH   1  17
HETATM   17  C4  UNL     1      43.168 -14.442  34.459  1.00  0.00     0.282 C 
BRANCH  17  18
HETATM   18  C5  UNL     1      43.441 -12.975  34.670  1.00  0.00     0.246 C 
HETATM   19  O3  UNL     1      44.051 -12.422  33.726  1.00  0.00    -0.271 OA
HETATM   20  N1  UNL     1      43.052 -12.282  35.810  1.00  0.00    -0.323 N 
ATOM     21  H1  UNL     1      42.544 -12.807  36.521  1.00  0.00     0.169 HD
BRANCH  20  22
HETATM   22  C6  UNL     1      43.297 -10.918  36.073  1.00  0.00     0.068 A 
HETATM   23  C7  UNL     1      42.692  -9.922  35.345  1.00  0.00     0.033 A 
HETATM   24  C8  UNL     1      43.032  -8.583  35.562  1.00  0.00     0.021 A 
HETATM   25  C9  UNL     1      43.962  -8.202  36.483  1.00  0.00     0.013 A 
HETATM   26 BR1  UNL     1      44.371  -6.345  36.711  1.00  0.00    -0.051 Br
HETATM   27  C10 UNL     1      44.574  -9.175  37.217  1.00  0.00     0.057 A 
HETATM   28  C11 UNL     1      44.247 -10.524  37.017  1.00  0.00     0.130 A 
BRANCH  28  29
HETATM   29  N2  UNL     1      44.937 -11.447  37.841  1.00  0.00    -0.113 N 
HETATM   30  O4  UNL     1      45.011 -11.203  39.090  1.00  0.00    -0.532 OA
HETATM   31  O5  UNL     1      45.523 -12.572  37.376  1.00  0.00    -0.532 OA
ENDBRANCH  28  29
ENDBRANCH  20  22
ENDBRANCH  17  18
ENDBRANCH   1  17
TORSDOF 10
ENDMDL
MODEL 3
REMARK VINA RESULT: -8.073038482      2.444      6.929
REMARK  10 active torsions:
REMARK  status: ('A' for Active; 'I' for Inactive)
REMARK    1  A    between atoms: C2_2  and  C3_3 
REMARK    2  A    between atoms: C2_2  and  C12_21 
REMARK    3  A    between atoms: C3_3  and  O2_5 
REMARK    4  A    between atoms: O2_5  and  C4_6 
REMARK    5  A    between atoms: C4_6  and  C5_7 
REMARK       I    between atoms: C5_7  and  N1_9 
REMARK    6  A    between atoms: N1_9  and  C6_11 
REMARK    7  A    between atoms: C11_17  and  N2_18 
REMARK    8  A    between atoms: C12_21  and  O6_22 
REMARK    9  A    between atoms: C12_21  and  N3_24 
REMARK   10  A    between atoms: N3_24  and  C14_26 
ROOT
HETATM    1  O2  UNL     1      43.190 -11.135  34.447  1.00  0.00    -0.308 OA
ENDROOT
BRANCH   1   2
HETATM    2  C3  UNL     1      42.272 -10.392  35.196  1.00  0.00     0.293 C 
HETATM    3  O1  UNL     1      41.244 -11.083  35.561  1.00  0.00    -0.259 OA
BRANCH   2   4
HETATM    4  C2  UNL     1      42.424  -8.999  35.549  1.00  0.00     0.064 C 
HETATM    5  C1  UNL     1      41.534  -8.571  36.724  1.00  0.00     0.059 C 
BRANCH   4   6
HETATM    6  C12 UNL     1      43.739  -8.390  35.651  1.00  0.00     0.154 C 
BRANCH   6   7
HETATM    7  O6  UNL     1      44.435  -8.400  34.523  1.00  0.00    -0.345 OA
ATOM      8  H6  UNL     1      45.186  -8.982  34.531  1.00  0.00     0.219 HD
ENDBRANCH   6   7
BRANCH   6   9
HETATM    9  N3  UNL     1      44.432  -7.795  36.698  1.00  0.00    -0.332 N 
HETATM   10  C13 UNL     1      44.850  -6.426  36.681  1.00  0.00     0.158 C 
BRANCH   9  11
HETATM   11  C14 UNL     1      44.792  -8.574  37.859  1.00  0.00     0.035 A 
HETATM   12  C15 UNL     1      44.967  -9.923  37.847  1.00  0.00     0.029 A 
HETATM   13  C16 UNL     1      45.300 -10.620  38.975  1.00  0.00     0.002 A 
HETATM   14  C17 UNL     1      45.469  -9.958  40.166  1.00  0.00     0.000 A 
HETATM   15  C18 UNL     1      45.300  -8.599  40.210  1.00  0.00     0.002 A 
HETATM   16  C19 UNL     1      44.962  -7.900  39.061  1.00  0.00     0.029 A 
ENDBRANCH   9  11
ENDBRANCH   6   9
ENDBRANCH   4   6
ENDBRANCH   2   4
ENDBRANCH   1   2
BRANCH   1  17
HETATM   17  C4  UNL     1      43.221 -12.533  34.472  1.00  0.00     0.282 C 
BRANCH  17  18
HETATM   18  C5  UNL     1      43.818 -13.109  35.730  1.00  0.00     0.246 C 
HETATM   19  O3  UNL     1      45.007 -12.776  35.938  1.00  0.00    -0.271 OA
HETATM   20  N1  UNL     1      43.118 -13.938  36.598  1.00  0.00    -0.323 N 
ATOM     21  H1  UNL     1      42.147 -14.144  36.361  1.00  0.00     0.169 HD
BRANCH  20  22
HETATM   22  C6  UNL     1      43.628 -14.523  37.776  1.00  0.00     0.068 A 
HETATM   23  C7  UNL     1      43.540 -13.890  38.992  1.00  0.00     0.033 A 
HETATM   24  C8  UNL     1      44.145 -14.448  40.124  1.00  0.00     0.021 A 
HETATM   25  C9  UNL     1      44.838 -15.620  40.082  1.00  0.00     0.013 A 
HETATM   26 BR1  UNL     1      45.640 -16.310  41.679  1.00  0.00    -0.051 Br
HETATM   27  C10 UNL     1      44.937 -16.265  38.884  1.00  0.00     0.057 A 
HETATM   28  C11 UNL     1      44.337 -15.724  37.738  1.00  0.00     0.130 A 
BRANCH  28  29
HETATM   29  N2  UNL     1      44.495 -16.483  36.551  1.00  0.00    -0.113 N 
HETATM   30  O4  UNL     1      45.612 -17.065  36.351  1.00  0.00    -0.532 OA
HETATM   31  O5  UNL     1      43.527 -16.623  35.619  1.00  0.00    -0.532 OA
ENDBRANCH  28  29
ENDBRANCH  20  22
ENDBRANCH  17  18
ENDBRANCH   1  17
TORSDOF 10
ENDMDL
MODEL 4
REMARK VINA RESULT: -8.060543008      2.593      6.946
REMARK  10 active torsions:
REMARK  status: ('A' for Active; 'I' for Inactive)
REMARK    1  A    between atoms: C2_2  and  C3_3 
REMARK    2  A    between atoms: C2_2  and  C12_21 
REMARK    3  A    between atoms: C3_3  and  O2_5 
REMARK    4  A    between atoms: O2_5  and  C4_6 
REMARK    5  A    between atoms: C4_6  and  C5_7 
REMARK       I    between atoms: C5_7  and  N1_9 
REMARK    6  A    between atoms: N1_9  and  C6_11 
REMARK    7  A    between atoms: C11_17  and  N2_18 
REMARK    8  A    between atoms: C12_21  and  O6_22 
REMARK    9  A    between atoms: C12_21  and  N3_24 
REMARK   10  A    between atoms: N3_24  and  C14_26 
ROOT
HETATM    1  O2  UNL     1      42.858 -13.587  35.138  1.00  0.00    -0.308 OA
ENDROOT
BRANCH   1   2
HETATM    2  C3  UNL     1      43.133 -12.359  34.529  1.00  0.00     0.293 C 
HETATM    3  O1  UNL     1      44.117 -12.420  33.695  1.00  0.00    -0.259 OA
BRANCH   2   4
HETATM    4  C2  UNL     1      42.412 -11.131  34.777  1.00  0.00     0.064 C 
HETATM    5  C1  UNL     1      41.209 -11.312  35.712  1.00  0.00     0.059 C 
BRANCH   4   6
HETATM    6  C12 UNL     1      43.116  -9.895  35.076  1.00  0.00     0.154 C 
BRANCH   6   7
HETATM    7  O6  UNL     1      43.791  -9.390  34.054  1.00  0.00    -0.345 OA
ATOM      8  H6  UNL     1      43.251  -8.956  33.403  1.00  0.00     0.219 HD
ENDBRANCH   6   7
BRANCH   6   9
HETATM    9  N3  UNL     1      43.235  -9.125  36.226  1.00  0.00    -0.332 N 
HETATM   10  C13 UNL     1      42.895  -7.735  36.275  1.00  0.00     0.158 C 
BRANCH   9  11
HETATM   11  C14 UNL     1      43.753  -9.714  37.438  1.00  0.00     0.035 A 
HETATM   12  C15 UNL     1      44.694 -10.696  37.466  1.00  0.00     0.029 A 
HETATM   13  C16 UNL     1      45.149 -11.229  38.640  1.00  0.00     0.002 A 
HETATM   14  C17 UNL     1      44.655 -10.775  39.838  1.00  0.00     0.000 A 
HETATM   15  C18 UNL     1      43.706  -9.787  39.842  1.00  0.00     0.002 A 
HETATM   16  C19 UNL     1      43.250  -9.251  38.647  1.00  0.00     0.029 A 
ENDBRANCH   9  11
ENDBRANCH   6   9
ENDBRANCH   4   6
ENDBRANCH   2   4
ENDBRANCH   1   2
BRANCH   1  17
HETATM   17  C4  UNL     1      43.864 -14.406  35.661  1.00  0.00     0.282 C 
BRANCH  17  18
HETATM   18  C5  UNL     1      43.816 -14.553  37.160  1.00  0.00     0.246 C 
HETATM   19  O3  UNL     1      42.893 -13.913  37.713  1.00  0.00    -0.271 OA
HETATM   20  N1  UNL     1      44.713 -15.334  37.880  1.00  0.00    -0.323 N 
ATOM     21  H1  UNL     1      45.423 -15.836  37.347  1.00  0.00     0.169 HD
BRANCH  20  22
HETATM   22  C6  UNL     1      44.731 -15.494  39.281  1.00  0.00     0.068 A 
HETATM   23  C7  UNL     1      44.349 -14.483  40.128  1.00  0.00     0.033 A 
HETATM   24  C8  UNL     1      44.474 -14.636  41.513  1.00  0.00     0.021 A 
HETATM   25  C9  UNL     1      44.972 -15.770  42.083  1.00  0.00     0.013 A 
HETATM   26 BR1  UNL     1      45.113 -15.893  43.989  1.00  0.00    -0.051 Br
HETATM   27  C10 UNL     1      45.357 -16.786  41.260  1.00  0.00     0.057 A 
HETATM   28  C11 UNL     1      45.238 -16.654  39.869  1.00  0.00     0.130 A 
BRANCH  28  29
HETATM   29  N2  UNL     1      45.658 -17.776  39.112  1.00  0.00    -0.113 N 
HETATM   30  O4  UNL     1      46.723 -18.379  39.468  1.00  0.00    -0.532 OA
HETATM   31  O5  UNL     1      44.994 -18.240  38.031  1.00  0.00    -0.532 OA
ENDBRANCH  28  29
ENDBRANCH  20  22
ENDBRANCH  17  18
ENDBRANCH   1  17
TORSDOF 10
ENDMDL
MODEL 5
REMARK VINA RESULT: -8.060348628      2.658      7.827
REMARK  10 active torsions:
REMARK  status: ('A' for Active; 'I' for Inactive)
REMARK    1  A    between atoms: C2_2  and  C3_3 
REMARK    2  A    between atoms: C2_2  and  C12_21 
REMARK    3  A    between atoms: C3_3  and  O2_5 
REMARK    4  A    between atoms: O2_5  and  C4_6 
REMARK    5  A    between atoms: C4_6  and  C5_7 
REMARK       I    between atoms: C5_7  and  N1_9 
REMARK    6  A    between atoms: N1_9  and  C6_11 
REMARK    7  A    between atoms: C11_17  and  N2_18 
REMARK    8  A    between atoms: C12_21  and  O6_22 
REMARK    9  A    between atoms: C12_21  and  N3_24 
REMARK   10  A    between atoms: N3_24  and  C14_26 
ROOT
HETATM    1  O2  UNL     1      42.499 -11.720  34.514  1.00  0.00    -0.308 OA
ENDROOT
BRANCH   1   2
HETATM    2  C3  UNL     1      42.803 -10.371  34.723  1.00  0.00     0.293 C 
HETATM    3  O1  UNL     1      43.501  -9.858  33.765  1.00  0.00    -0.259 OA
BRANCH   2   4
HETATM    4  C2  UNL     1      42.394  -9.598  35.873  1.00  0.00     0.064 C 
HETATM    5  C1  UNL     1      43.090 -10.028  37.172  1.00  0.00     0.059 C 
BRANCH   4   6
HETATM    6  C12 UNL     1      42.282  -8.150  35.804  1.00  0.00     0.154 C 
BRANCH   6   7
HETATM    7  O6  UNL     1      42.013  -7.681  34.594  1.00  0.00    -0.345 OA
ATOM      8  H6  UNL     1      41.276  -7.081  34.562  1.00  0.00     0.219 HD
ENDBRANCH   6   7
BRANCH   6   9
HETATM    9  N3  UNL     1      42.406  -7.141  36.751  1.00  0.00    -0.332 N 
HETATM   10  C13 UNL     1      41.300  -6.644  37.511  1.00  0.00     0.158 C 
BRANCH   9  11
HETATM   11  C14 UNL     1      43.690  -6.522  36.981  1.00  0.00     0.035 A 
HETATM   12  C15 UNL     1      44.234  -5.575  36.171  1.00  0.00     0.029 A 
HETATM   13  C16 UNL     1      45.459  -5.022  36.426  1.00  0.00     0.002 A 
HETATM   14  C17 UNL     1      46.176  -5.420  37.528  1.00  0.00     0.000 A 
HETATM   15  C18 UNL     1      45.653  -6.372  38.363  1.00  0.00     0.002 A 
HETATM   16  C19 UNL     1      44.411  -6.928  38.097  1.00  0.00     0.029 A 
ENDBRANCH   9  11
ENDBRANCH   6   9
ENDBRANCH   4   6
ENDBRANCH   2   4
ENDBRANCH   1   2
BRANCH   1  17
HETATM   17  C4  UNL     1      43.489 -12.700  34.391  1.00  0.00     0.282 C 
BRANCH  17  18
HETATM   18  C5  UNL     1      44.005 -13.217  35.709  1.00  0.00     0.246 C 
HETATM   19  O3  UNL     1      45.144 -12.797  36.019  1.00  0.00    -0.271 OA
HETATM   20  N1  UNL     1      43.288 -14.085  36.523  1.00  0.00    -0.323 N 
ATOM     21  H1  UNL     1      42.360 -14.362  36.201  1.00  0.00     0.169 HD
BRANCH  20  22
HETATM   22  C6  UNL     1      43.725 -14.617  37.754  1.00  0.00     0.068 A 
HETATM   23  C7  UNL     1      43.586 -13.924  38.931  1.00  0.00     0.033 A 
HETATM   24  C8  UNL     1      44.121 -14.433  40.119  1.00  0.00     0.021 A 
HETATM   25  C9  UNL     1      44.794 -15.617  40.170  1.00  0.00     0.013 A 
HETATM   26 BR1  UNL     1      45.499 -16.239  41.839  1.00  0.00    -0.051 Br
HETATM   27  C10 UNL     1      44.943 -16.323  39.013  1.00  0.00     0.057 A 
HETATM   28  C11 UNL     1      44.414 -15.830  37.811  1.00  0.00     0.130 A 
BRANCH  28  29
HETATM   29  N2  UNL     1      44.618 -16.650  36.674  1.00  0.00    -0.113 N 
HETATM   30  O4  UNL     1      45.695 -17.329  36.605  1.00  0.00    -0.532 OA
HETATM   31  O5  UNL     1      43.735 -16.751  35.656  1.00  0.00    -0.532 OA
ENDBRANCH  28  29
ENDBRANCH  20  22
ENDBRANCH  17  18
ENDBRANCH   1  17
TORSDOF 10
ENDMDL
