MODEL 1
REMARK VINA RESULT: -8.775517492      0.000      0.000
REMARK  8 active torsions:
REMARK  status: ('A' for Active; 'I' for Inactive)
REMARK    1  A    between atoms: C2_2  and  O2_4 
REMARK    2  A    between atoms: O2_4  and  C3_5 
REMARK    3  A    between atoms: C3_5  and  C4_6 
REMARK    4  A    between atoms: C4_6  and  C20_29 
REMARK       I    between atoms: N1_7  and  C5_9 
REMARK    5  A    between atoms: C5_9  and  C6_11 
REMARK    6  A    between atoms: C11_17  and  C12_18 
REMARK    7  A    between atoms: C12_18  and  N2_19 
REMARK       I    between atoms: N2_19  and  C13_20 
REMARK    8  A    between atoms: C13_20  and  C14_22 
ROOT
HETATM    1  C6  UNL     1      44.370 -12.089  39.292  1.00  0.00     0.119 C 
HETATM    2  C7  UNL     1      44.718 -10.798  38.550  1.00  0.00     0.136 C 
HETATM    3  C8  UNL     1      43.530  -9.873  38.512  1.00  0.00     0.035 C 
HETATM    4  C9  UNL     1      43.450  -9.445  39.977  1.00  0.00     0.035 C 
HETATM    5  C10 UNL     1      44.591 -10.178  40.591  1.00  0.00     0.133 C 
HETATM    6  O4  UNL     1      45.515 -10.172  39.510  1.00  0.00    -0.379 OA
HETATM    7  C11 UNL     1      44.376 -11.689  40.684  1.00  0.00     0.082 C 
ENDROOT
BRANCH   1   8
HETATM    8  C5  UNL     1      43.259 -12.794  38.681  1.00  0.00     0.229 C 
HETATM    9  N1  UNL     1      43.111 -12.826  37.335  1.00  0.00    -0.327 N 
HETATM   10  C4  UNL     1      43.346 -13.618  36.400  1.00  0.00     0.048 C 
ATOM     11  H1  UNL     1      42.691 -11.962  36.990  1.00  0.00     0.168 HD
HETATM   12  O3  UNL     1      42.412 -13.383  39.387  1.00  0.00    -0.273 OA
BRANCH  10  13
HETATM   13  C3  UNL     1      42.959 -13.130  34.980  1.00  0.00     0.236 C 
BRANCH  13  14
HETATM   14  O2  UNL     1      43.672 -11.964  34.664  1.00  0.00    -0.316 OA
BRANCH  14  15
HETATM   15  C2  UNL     1      42.979 -10.787  34.464  1.00  0.00     0.255 C 
HETATM   16  C1  UNL     1      41.813 -10.436  35.288  1.00  0.00     0.126 C 
HETATM   17  O1  UNL     1      43.370 -10.016  33.554  1.00  0.00    -0.266 OA
ENDBRANCH  14  15
ENDBRANCH  13  14
ENDBRANCH  10  13
BRANCH  10  18
HETATM   18  C20 UNL     1      43.959 -14.937  36.403  1.00  0.00     0.004 A 
HETATM   19  C21 UNL     1      45.120 -15.135  37.117  1.00  0.00     0.016 A 
HETATM   20  C22 UNL     1      45.679 -16.407  37.121  1.00  0.00     0.018 A 
HETATM   21  C23 UNL     1      45.110 -17.450  36.438  1.00  0.00     0.087 A 
HETATM   22  N3  UNL     1      43.995 -17.230  35.760  1.00  0.00    -0.374 N 
HETATM   23  C24 UNL     1      43.404 -15.996  35.725  1.00  0.00     0.101 A 
ATOM     24  H3  UNL     1      43.564 -18.001  35.249  1.00  0.00     0.164 HD
ENDBRANCH  10  18
ENDBRANCH   1   8
BRANCH   7  25
HETATM   25  C12 UNL     1      43.270 -12.018  41.612  1.00  0.00     0.167 C 
BRANCH  25  26
HETATM   26  N2  UNL     1      43.478 -13.138  42.349  1.00  0.00    -0.383 NA
HETATM   27  C13 UNL     1      43.686 -14.266  43.094  1.00  0.00     0.325 C 
HETATM   28  O5  UNL     1      43.047 -14.739  44.073  1.00  0.00    -0.251 OA
BRANCH  27  29
HETATM   29  C14 UNL     1      44.862 -15.125  42.725  1.00  0.00     0.046 A 
HETATM   30  C15 UNL     1      45.769 -15.475  43.680  1.00  0.00     0.021 A 
HETATM   31  C16 UNL     1      46.875 -16.267  43.403  1.00  0.00     0.043 A 
HETATM   32  C17 UNL     1      47.023 -16.694  42.104  1.00  0.00     0.116 A 
HETATM   33  F1  UNL     1      48.090 -17.471  41.782  1.00  0.00    -0.206 F 
HETATM   34  C18 UNL     1      46.129 -16.357  41.128  1.00  0.00     0.043 A 
HETATM   35  C19 UNL     1      45.039 -15.567  41.439  1.00  0.00     0.021 A 
ENDBRANCH  27  29
ENDBRANCH  25  26
ENDBRANCH   7  25
TORSDOF 8
ENDMDL
MODEL 2
REMARK VINA RESULT: -8.652941985      2.311      5.055
REMARK  8 active torsions:
REMARK  status: ('A' for Active; 'I' for Inactive)
REMARK    1  A    between atoms: C2_2  and  O2_4 
REMARK    2  A    between atoms: O2_4  and  C3_5 
REMARK    3  A    between atoms: C3_5  and  C4_6 
REMARK    4  A    between atoms: C4_6  and  C20_29 
REMARK       I    between atoms: N1_7  and  C5_9 
REMARK    5  A    between atoms: C5_9  and  C6_11 
REMARK    6  A    between atoms: C11_17  and  C12_18 
REMARK    7  A    between atoms: C12_18  and  N2_19 
REMARK       I    between atoms: N2_19  and  C13_20 
REMARK    8  A    between atoms: C13_20  and  C14_22 
ROOT
HETATM    1  C6  UNL     1      44.289 -17.145  37.183  1.00  0.00     0.119 C 
HETATM    2  C7  UNL     1      44.397 -18.487  36.459  1.00  0.00     0.136 C 
HETATM    3  C8  UNL     1      45.840 -18.867  36.263  1.00  0.00     0.035 C 
HETATM    4  C9  UNL     1      46.252 -19.190  37.699  1.00  0.00     0.035 C 
HETATM    5  C10 UNL     1      44.994 -18.952  38.458  1.00  0.00     0.133 C 
HETATM    6  O4  UNL     1      44.030 -19.351  37.492  1.00  0.00    -0.379 OA
HETATM    7  C11 UNL     1      44.603 -17.477  38.557  1.00  0.00     0.082 C 
ENDROOT
BRANCH   1   8
HETATM    8  C5  UNL     1      44.951 -16.074  36.462  1.00  0.00     0.229 C 
HETATM    9  N1  UNL     1      44.236 -15.147  35.781  1.00  0.00    -0.327 N 
HETATM   10  C4  UNL     1      43.844 -13.975  35.955  1.00  0.00     0.048 C 
ATOM     11  H1  UNL     1      43.935 -15.506  34.875  1.00  0.00     0.168 HD
HETATM   12  O3  UNL     1      46.199 -15.989  36.450  1.00  0.00    -0.273 OA
BRANCH  10  13
HETATM   13  C3  UNL     1      43.020 -13.353  34.798  1.00  0.00     0.236 C 
BRANCH  13  14
HETATM   14  O2  UNL     1      43.668 -12.208  34.311  1.00  0.00    -0.316 OA
BRANCH  14  15
HETATM   15  C2  UNL     1      43.015 -10.993  34.367  1.00  0.00     0.255 C 
HETATM   16  C1  UNL     1      41.914 -10.759  35.311  1.00  0.00     0.126 C 
HETATM   17  O1  UNL     1      43.386 -10.084  33.585  1.00  0.00    -0.266 OA
ENDBRANCH  14  15
ENDBRANCH  13  14
ENDBRANCH  10  13
BRANCH  10  18
HETATM   18  C20 UNL     1      44.002 -13.078  37.089  1.00  0.00     0.004 A 
HETATM   19  C21 UNL     1      45.207 -12.435  37.274  1.00  0.00     0.016 A 
HETATM   20  C22 UNL     1      45.331 -11.571  38.354  1.00  0.00     0.018 A 
HETATM   21  C23 UNL     1      44.297 -11.348  39.226  1.00  0.00     0.087 A 
HETATM   22  N3  UNL     1      43.151 -11.980  39.023  1.00  0.00    -0.374 N 
HETATM   23  C24 UNL     1      42.978 -12.842  37.975  1.00  0.00     0.101 A 
ATOM     24  H3  UNL     1      42.376 -11.820  39.667  1.00  0.00     0.164 HD
ENDBRANCH  10  18
ENDBRANCH   1   8
BRANCH   7  25
HETATM   25  C12 UNL     1      45.588 -16.713  39.357  1.00  0.00     0.167 C 
BRANCH  25  26
HETATM   26  N2  UNL     1      45.032 -15.845  40.240  1.00  0.00    -0.383 NA
HETATM   27  C13 UNL     1      44.472 -14.968  41.127  1.00  0.00     0.325 C 
HETATM   28  O5  UNL     1      43.844 -13.891  40.940  1.00  0.00    -0.251 OA
BRANCH  27  29
HETATM   29  C14 UNL     1      44.596 -15.298  42.588  1.00  0.00     0.046 A 
HETATM   30  C15 UNL     1      43.748 -14.722  43.486  1.00  0.00     0.021 A 
HETATM   31  C16 UNL     1      43.810 -14.986  44.846  1.00  0.00     0.043 A 
HETATM   32  C17 UNL     1      44.780 -15.869  45.264  1.00  0.00     0.116 A 
HETATM   33  F1  UNL     1      44.882 -16.160  46.587  1.00  0.00    -0.206 F 
HETATM   34  C18 UNL     1      45.643 -16.459  44.385  1.00  0.00     0.043 A 
HETATM   35  C19 UNL     1      45.552 -16.173  43.037  1.00  0.00     0.021 A 
ENDBRANCH  27  29
ENDBRANCH  25  26
ENDBRANCH   7  25
TORSDOF 8
ENDMDL
MODEL 3
REMARK VINA RESULT: -8.557423959      3.177      6.139
REMARK  8 active torsions:
REMARK  status: ('A' for Active; 'I' for Inactive)
REMARK    1  A    between atoms: C2_2  and  O2_4 
REMARK    2  A    between atoms: O2_4  and  C3_5 
REMARK    3  A    between atoms: C3_5  and  C4_6 
REMARK    4  A    between atoms: C4_6  and  C20_29 
REMARK       I    between atoms: N1_7  and  C5_9 
REMARK    5  A    between atoms: C5_9  and  C6_11 
REMARK    6  A    between atoms: C11_17  and  C12_18 
REMARK    7  A    between atoms: C12_18  and  N2_19 
REMARK       I    between atoms: N2_19  and  C13_20 
REMARK    8  A    between atoms: C13_20  and  C14_22 
ROOT
HETATM    1  C6  UNL     1      42.748 -10.075  36.852  1.00  0.00     0.119 C 
HETATM    2  C7  UNL     1      41.847 -10.083  35.616  1.00  0.00     0.136 C 
HETATM    3  C8  UNL     1      42.672 -10.205  34.362  1.00  0.00     0.035 C 
HETATM    4  C9  UNL     1      43.155 -11.651  34.474  1.00  0.00     0.035 C 
HETATM    5  C10 UNL     1      42.529 -12.104  35.745  1.00  0.00     0.133 C 
HETATM    6  O4  UNL     1      41.312 -11.369  35.712  1.00  0.00    -0.379 OA
HETATM    7  C11 UNL     1      43.134 -11.463  36.995  1.00  0.00     0.082 C 
ENDROOT
BRANCH   1   8
HETATM    8  C5  UNL     1      43.709  -8.989  36.827  1.00  0.00     0.229 C 
HETATM    9  N1  UNL     1      43.524  -7.879  37.580  1.00  0.00    -0.327 N 
HETATM   10  C4  UNL     1      43.937  -7.420  38.665  1.00  0.00     0.048 C 
ATOM     11  H1  UNL     1      42.862  -7.240  37.138  1.00  0.00     0.168 HD
HETATM   12  O3  UNL     1      44.727  -9.055  36.105  1.00  0.00    -0.273 OA
BRANCH  10  13
HETATM   13  C3  UNL     1      43.375  -6.035  39.078  1.00  0.00     0.236 C 
BRANCH  13  14
HETATM   14  O2  UNL     1      42.569  -5.521  38.051  1.00  0.00    -0.316 OA
BRANCH  14  15
HETATM   15  C2  UNL     1      43.075  -4.529  37.234  1.00  0.00     0.255 C 
HETATM   16  C1  UNL     1      42.722  -3.117  37.438  1.00  0.00     0.126 C 
HETATM   17  O1  UNL     1      43.850  -4.864  36.305  1.00  0.00    -0.266 OA
ENDBRANCH  14  15
ENDBRANCH  13  14
ENDBRANCH  10  13
BRANCH  10  18
HETATM   18  C20 UNL     1      44.853  -7.981  39.646  1.00  0.00     0.004 A 
HETATM   19  C21 UNL     1      44.832  -9.337  39.884  1.00  0.00     0.016 A 
HETATM   20  C22 UNL     1      45.726  -9.854  40.814  1.00  0.00     0.018 A 
HETATM   21  C23 UNL     1      46.613  -9.055  41.488  1.00  0.00     0.087 A 
HETATM   22  N3  UNL     1      46.609  -7.755  41.238  1.00  0.00    -0.374 N 
HETATM   23  C24 UNL     1      45.749  -7.196  40.333  1.00  0.00     0.101 A 
ATOM     24  H3  UNL     1      47.266  -7.153  41.736  1.00  0.00     0.164 HD
ENDBRANCH  10  18
ENDBRANCH   1   8
BRANCH   7  25
HETATM   25  C12 UNL     1      44.543 -11.882  37.184  1.00  0.00     0.167 C 
BRANCH  25  26
HETATM   26  N2  UNL     1      44.708 -13.220  37.339  1.00  0.00    -0.383 NA
HETATM   27  C13 UNL     1      44.875 -14.569  37.492  1.00  0.00     0.325 C 
HETATM   28  O5  UNL     1      45.029 -15.484  36.639  1.00  0.00    -0.251 OA
BRANCH  27  29
HETATM   29  C14 UNL     1      44.884 -15.104  38.896  1.00  0.00     0.046 A 
HETATM   30  C15 UNL     1      44.407 -14.335  39.916  1.00  0.00     0.021 A 
HETATM   31  C16 UNL     1      44.385 -14.772  41.233  1.00  0.00     0.043 A 
HETATM   32  C17 UNL     1      44.874 -16.035  41.475  1.00  0.00     0.116 A 
HETATM   33  F1  UNL     1      44.875 -16.509  42.749  1.00  0.00    -0.206 F 
HETATM   34  C18 UNL     1      45.358 -16.826  40.472  1.00  0.00     0.043 A 
HETATM   35  C19 UNL     1      45.363 -16.359  39.173  1.00  0.00     0.021 A 
ENDBRANCH  27  29
ENDBRANCH  25  26
ENDBRANCH   7  25
TORSDOF 8
ENDMDL
MODEL 4
REMARK VINA RESULT: -8.496400143      2.756      6.020
REMARK  8 active torsions:
REMARK  status: ('A' for Active; 'I' for Inactive)
REMARK    1  A    between atoms: C2_2  and  O2_4 
REMARK    2  A    between atoms: O2_4  and  C3_5 
REMARK    3  A    between atoms: C3_5  and  C4_6 
REMARK    4  A    between atoms: C4_6  and  C20_29 
REMARK       I    between atoms: N1_7  and  C5_9 
REMARK    5  A    between atoms: C5_9  and  C6_11 
REMARK    6  A    between atoms: C11_17  and  C12_18 
REMARK    7  A    between atoms: C12_18  and  N2_19 
REMARK       I    between atoms: N2_19  and  C13_20 
REMARK    8  A    between atoms: C13_20  and  C14_22 
ROOT
HETATM    1  C6  UNL     1      43.278 -11.369  37.152  1.00  0.00     0.119 C 
HETATM    2  C7  UNL     1      42.326 -10.384  36.473  1.00  0.00     0.136 C 
HETATM    3  C8  UNL     1      42.977  -9.770  35.262  1.00  0.00     0.035 C 
HETATM    4  C9  UNL     1      43.007 -10.967  34.312  1.00  0.00     0.035 C 
HETATM    5  C10 UNL     1      42.371 -12.040  35.123  1.00  0.00     0.133 C 
HETATM    6  O4  UNL     1      41.436 -11.277  35.875  1.00  0.00    -0.379 OA
HETATM    7  C11 UNL     1      43.236 -12.529  36.286  1.00  0.00     0.082 C 
ENDROOT
BRANCH   1   8
HETATM    8  C5  UNL     1      44.519 -10.742  37.567  1.00  0.00     0.229 C 
HETATM    9  N1  UNL     1      44.669  -9.397  37.516  1.00  0.00    -0.327 N 
HETATM   10  C4  UNL     1      44.618  -8.433  38.308  1.00  0.00     0.048 C 
ATOM     11  H1  UNL     1      44.883  -9.085  36.569  1.00  0.00     0.168 HD
HETATM   12  O3  UNL     1      45.477 -11.433  37.976  1.00  0.00    -0.273 OA
BRANCH  10  13
HETATM   13  C3  UNL     1      44.883  -7.033  37.695  1.00  0.00     0.236 C 
BRANCH  13  14
HETATM   14  O2  UNL     1      43.902  -6.738  36.736  1.00  0.00    -0.316 OA
BRANCH  14  15
HETATM   15  C2  UNL     1      42.741  -6.108  37.137  1.00  0.00     0.255 C 
HETATM   16  C1  UNL     1      41.458  -6.824  37.180  1.00  0.00     0.126 C 
HETATM   17  O1  UNL     1      42.806  -4.899  37.467  1.00  0.00    -0.266 OA
ENDBRANCH  14  15
ENDBRANCH  13  14
ENDBRANCH  10  13
BRANCH  10  18
HETATM   18  C20 UNL     1      44.317  -8.385  39.730  1.00  0.00     0.004 A 
HETATM   19  C21 UNL     1      43.017  -8.565  40.147  1.00  0.00     0.016 A 
HETATM   20  C22 UNL     1      42.755  -8.533  41.511  1.00  0.00     0.018 A 
HETATM   21  C23 UNL     1      43.747  -8.329  42.434  1.00  0.00     0.087 A 
HETATM   22  N3  UNL     1      44.988  -8.159  42.004  1.00  0.00    -0.374 N 
HETATM   23  C24 UNL     1      45.298  -8.182  40.671  1.00  0.00     0.101 A 
ATOM     24  H3  UNL     1      45.733  -8.007  42.684  1.00  0.00     0.164 HD
ENDBRANCH  10  18
ENDBRANCH   1   8
BRANCH   7  25
HETATM   25  C12 UNL     1      44.461 -13.204  35.798  1.00  0.00     0.167 C 
BRANCH  25  26
HETATM   26  N2  UNL     1      44.659 -14.440  36.319  1.00  0.00    -0.383 NA
HETATM   27  C13 UNL     1      44.859 -15.689  36.842  1.00  0.00     0.325 C 
HETATM   28  O5  UNL     1      45.042 -16.801  36.277  1.00  0.00    -0.251 OA
BRANCH  27  29
HETATM   29  C14 UNL     1      44.872 -15.811  38.339  1.00  0.00     0.046 A 
HETATM   30  C15 UNL     1      45.419 -16.915  38.922  1.00  0.00     0.021 A 
HETATM   31  C16 UNL     1      45.463 -17.087  40.299  1.00  0.00     0.043 A 
HETATM   32  C17 UNL     1      44.924 -16.080  41.068  1.00  0.00     0.116 A 
HETATM   33  F1  UNL     1      44.943 -16.202  42.421  1.00  0.00    -0.206 F 
HETATM   34  C18 UNL     1      44.370 -14.964  40.508  1.00  0.00     0.043 A 
HETATM   35  C19 UNL     1      44.343 -14.827  39.134  1.00  0.00     0.021 A 
ENDBRANCH  27  29
ENDBRANCH  25  26
ENDBRANCH   7  25
TORSDOF 8
ENDMDL
MODEL 5
REMARK VINA RESULT: -8.481708581      2.922      6.101
REMARK  8 active torsions:
REMARK  status: ('A' for Active; 'I' for Inactive)
REMARK    1  A    between atoms: C2_2  and  O2_4 
REMARK    2  A    between atoms: O2_4  and  C3_5 
REMARK    3  A    between atoms: C3_5  and  C4_6 
REMARK    4  A    between atoms: C4_6  and  C20_29 
REMARK       I    between atoms: N1_7  and  C5_9 
REMARK    5  A    between atoms: C5_9  and  C6_11 
REMARK    6  A    between atoms: C11_17  and  C12_18 
REMARK    7  A    between atoms: C12_18  and  N2_19 
REMARK       I    between atoms: N2_19  and  C13_20 
REMARK    8  A    between atoms: C13_20  and  C14_22 
ROOT
HETATM    1  C6  UNL     1      42.832 -10.043  36.904  1.00  0.00     0.119 C 
HETATM    2  C7  UNL     1      41.880  -9.954  35.711  1.00  0.00     0.136 C 
HETATM    3  C8  UNL     1      42.645 -10.040  34.417  1.00  0.00     0.035 C 
HETATM    4  C9  UNL     1      43.078 -11.505  34.433  1.00  0.00     0.035 C 
HETATM    5  C10 UNL     1      42.491 -12.002  35.707  1.00  0.00     0.133 C 
HETATM    6  O4  UNL     1      41.302 -11.224  35.765  1.00  0.00    -0.379 OA
HETATM    7  C11 UNL     1      43.173 -11.449  36.959  1.00  0.00     0.082 C 
ENDROOT
BRANCH   1   8
HETATM    8  C5  UNL     1      43.831  -8.991  36.891  1.00  0.00     0.229 C 
HETATM    9  N1  UNL     1      43.674  -7.873  37.639  1.00  0.00    -0.327 N 
HETATM   10  C4  UNL     1      44.088  -7.426  38.729  1.00  0.00     0.048 C 
ATOM     11  H1  UNL     1      43.042  -7.212  37.187  1.00  0.00     0.168 HD
HETATM   12  O3  UNL     1      44.857  -9.094  36.184  1.00  0.00    -0.273 OA
BRANCH  10  13
HETATM   13  C3  UNL     1      43.569  -6.022  39.131  1.00  0.00     0.236 C 
BRANCH  13  14
HETATM   14  O2  UNL     1      42.363  -5.750  38.467  1.00  0.00    -0.316 OA
BRANCH  14  15
HETATM   15  C2  UNL     1      41.250  -6.512  38.759  1.00  0.00     0.255 C 
HETATM   16  C1  UNL     1      40.673  -6.537  40.110  1.00  0.00     0.126 C 
HETATM   17  O1  UNL     1      40.736  -7.189  37.836  1.00  0.00    -0.266 OA
ENDBRANCH  14  15
ENDBRANCH  13  14
ENDBRANCH  10  13
BRANCH  10  18
HETATM   18  C20 UNL     1      44.969  -8.017  39.725  1.00  0.00     0.004 A 
HETATM   19  C21 UNL     1      44.936  -9.379  39.926  1.00  0.00     0.016 A 
HETATM   20  C22 UNL     1      45.798  -9.924  40.870  1.00  0.00     0.018 A 
HETATM   21  C23 UNL     1      46.664  -9.146  41.593  1.00  0.00     0.087 A 
HETATM   22  N3  UNL     1      46.673  -7.840  41.379  1.00  0.00    -0.374 N 
HETATM   23  C24 UNL     1      45.845  -7.254  40.460  1.00  0.00     0.101 A 
ATOM     24  H3  UNL     1      47.315  -7.254  41.913  1.00  0.00     0.164 HD
ENDBRANCH  10  18
ENDBRANCH   1   8
BRANCH   7  25
HETATM   25  C12 UNL     1      44.572 -11.926  37.064  1.00  0.00     0.167 C 
BRANCH  25  26
HETATM   26  N2  UNL     1      44.692 -13.273  37.174  1.00  0.00    -0.383 NA
HETATM   27  C13 UNL     1      44.814 -14.631  37.282  1.00  0.00     0.325 C 
HETATM   28  O5  UNL     1      44.894 -15.526  36.397  1.00  0.00    -0.251 OA
BRANCH  27  29
HETATM   29  C14 UNL     1      44.864 -15.207  38.669  1.00  0.00     0.046 A 
HETATM   30  C15 UNL     1      44.415 -14.469  39.723  1.00  0.00     0.021 A 
HETATM   31  C16 UNL     1      44.433 -14.945  41.027  1.00  0.00     0.043 A 
HETATM   32  C17 UNL     1      44.931 -16.214  41.218  1.00  0.00     0.116 A 
HETATM   33  F1  UNL     1      44.970 -16.724  42.477  1.00  0.00    -0.206 F 
HETATM   34  C18 UNL     1      45.388 -16.973  40.179  1.00  0.00     0.043 A 
HETATM   35  C19 UNL     1      45.354 -16.468  38.894  1.00  0.00     0.021 A 
ENDBRANCH  27  29
ENDBRANCH  25  26
ENDBRANCH   7  25
TORSDOF 8
ENDMDL
