MODEL 1
REMARK VINA RESULT: -8.506509859      0.000      0.000
REMARK  11 active torsions:
REMARK  status: ('A' for Active; 'I' for Inactive)
REMARK    1  A    between atoms: C5_5  and  N1_6 
REMARK    2  A    between atoms: C6_9  and  C7_10 
REMARK    3  A    between atoms: C7_10  and  C8_12 
REMARK    4  A    between atoms: C8_12  and  O4_13 
REMARK    5  A    between atoms: O4_13  and  C9_14 
REMARK    6  A    between atoms: C9_14  and  O5_15 
REMARK    7  A    between atoms: C9_14  and  C10_17 
REMARK    8  A    between atoms: C10_17  and  N2_18 
REMARK    9  A    between atoms: N2_18  and  C11_19 
REMARK   10  A    between atoms: C11_19  and  O6_20 
REMARK   11  A    between atoms: C11_19  and  C12_22 
ROOT
HETATM    1  O4  UNL     1      43.096 -12.302  35.838  1.00  0.00    -0.321 OA
ENDROOT
BRANCH   1   2
HETATM    2  C8  UNL     1      43.184 -11.799  37.085  1.00  0.00     0.263 C 
BRANCH   2   3
HETATM    3  C7  UNL     1      43.897 -10.518  37.283  1.00  0.00     0.202 C 
HETATM    4  O3  UNL     1      45.084 -10.529  37.623  1.00  0.00    -0.288 OA
BRANCH   3   5
HETATM    5  C6  UNL     1      43.242  -9.189  37.131  1.00  0.00     0.116 A 
HETATM    6  C5  UNL     1      42.873  -8.692  35.921  1.00  0.00     0.133 A 
HETATM    7  C4  UNL     1      41.932  -7.659  35.810  1.00  0.00     0.040 A 
HETATM    8  C3  UNL     1      41.410  -7.156  36.992  1.00  0.00     0.027 A 
HETATM    9  C2  UNL     1      41.814  -7.688  38.211  1.00  0.00     0.008 A 
HETATM   10  C1  UNL     1      41.168  -7.135  39.453  1.00  0.00     0.068 C 
HETATM   11  N3  UNL     1      42.704  -8.673  38.282  1.00  0.00    -0.350 N 
HETATM   12  C18 UNL     1      43.082  -9.137  39.613  1.00  0.00     0.156 C 
BRANCH   6  13
HETATM   13  N1  UNL     1      43.398  -9.020  34.643  1.00  0.00    -0.113 N 
HETATM   14  O1  UNL     1      44.520  -8.582  34.284  1.00  0.00    -0.532 OA
HETATM   15  O2  UNL     1      42.736  -9.793  33.756  1.00  0.00    -0.532 OA
ENDBRANCH   6  13
ENDBRANCH   3   5
ENDBRANCH   2   3
ENDBRANCH   1   2
BRANCH   1  16
HETATM   16  C9  UNL     1      43.366 -13.080  34.903  1.00  0.00     0.208 C 
BRANCH  16  17
HETATM   17  O5  UNL     1      43.749 -12.505  33.748  1.00  0.00    -0.339 OA
ATOM     18  H5  UNL     1      43.409 -12.899  32.953  1.00  0.00     0.220 HD
ENDBRANCH  16  17
BRANCH  16  19
HETATM   19  C10 UNL     1      43.340 -14.582  34.803  1.00  0.00     0.248 C 
BRANCH  19  20
HETATM   20  N2  UNL     1      43.977 -15.392  35.658  1.00  0.00    -0.388 NA
BRANCH  20  21
HETATM   21  C11 UNL     1      44.639 -16.222  36.527  1.00  0.00     0.224 C 
BRANCH  21  22
HETATM   22  O6  UNL     1      45.319 -17.252  36.108  1.00  0.00    -0.335 OA
ATOM     23  H6  UNL     1      46.220 -17.396  36.370  1.00  0.00     0.220 HD
ENDBRANCH  21  22
BRANCH  21  24
HETATM   24  C12 UNL     1      44.723 -16.124  37.992  1.00  0.00     0.029 A 
HETATM   25  C13 UNL     1      45.297 -17.042  38.754  1.00  0.00     0.018 A 
HETATM   26  C14 UNL     1      45.491 -17.047  40.131  1.00  0.00     0.020 A 
HETATM   27  C15 UNL     1      44.990 -15.904  40.775  1.00  0.00     0.011 A 
HETATM   28 BR1  UNL     1      45.228 -15.786  42.679  1.00  0.00    -0.051 Br
HETATM   29  C16 UNL     1      44.375 -14.909  40.064  1.00  0.00     0.020 A 
HETATM   30  C17 UNL     1      44.219 -14.982  38.662  1.00  0.00     0.018 A 
ENDBRANCH  21  24
ENDBRANCH  20  21
ENDBRANCH  19  20
ENDBRANCH  16  19
ENDBRANCH   1  16
TORSDOF 11
ENDMDL
MODEL 2
REMARK VINA RESULT: -8.254139247      3.125      7.867
REMARK  11 active torsions:
REMARK  status: ('A' for Active; 'I' for Inactive)
REMARK    1  A    between atoms: C5_5  and  N1_6 
REMARK    2  A    between atoms: C6_9  and  C7_10 
REMARK    3  A    between atoms: C7_10  and  C8_12 
REMARK    4  A    between atoms: C8_12  and  O4_13 
REMARK    5  A    between atoms: O4_13  and  C9_14 
REMARK    6  A    between atoms: C9_14  and  O5_15 
REMARK    7  A    between atoms: C9_14  and  C10_17 
REMARK    8  A    between atoms: C10_17  and  N2_18 
REMARK    9  A    between atoms: N2_18  and  C11_19 
REMARK   10  A    between atoms: C11_19  and  O6_20 
REMARK   11  A    between atoms: C11_19  and  C12_22 
ROOT
HETATM    1  O4  UNL     1      43.856 -14.977  35.373  1.00  0.00    -0.321 OA
ENDROOT
BRANCH   1   2
HETATM    2  C8  UNL     1      44.055 -15.856  36.375  1.00  0.00     0.263 C 
BRANCH   2   3
HETATM    3  C7  UNL     1      45.014 -15.504  37.446  1.00  0.00     0.202 C 
HETATM    4  O3  UNL     1      46.115 -15.031  37.145  1.00  0.00    -0.288 OA
BRANCH   3   5
HETATM    5  C6  UNL     1      44.738 -15.727  38.892  1.00  0.00     0.116 A 
HETATM    6  C5  UNL     1      45.265 -16.771  39.583  1.00  0.00     0.133 A 
HETATM    7  C4  UNL     1      45.330 -16.764  40.983  1.00  0.00     0.040 A 
HETATM    8  C3  UNL     1      44.815 -15.651  41.630  1.00  0.00     0.027 A 
HETATM    9  C2  UNL     1      44.281 -14.603  40.889  1.00  0.00     0.008 A 
HETATM   10  C1  UNL     1      43.789 -13.400  41.649  1.00  0.00     0.068 C 
HETATM   11  N3  UNL     1      44.241 -14.637  39.561  1.00  0.00    -0.350 N 
HETATM   12  C18 UNL     1      43.630 -13.499  38.881  1.00  0.00     0.156 C 
BRANCH   6  13
HETATM   13  N1  UNL     1      45.722 -18.016  39.075  1.00  0.00    -0.113 N 
HETATM   14  O1  UNL     1      46.850 -18.461  39.404  1.00  0.00    -0.532 OA
HETATM   15  O2  UNL     1      44.996 -18.770  38.222  1.00  0.00    -0.532 OA
ENDBRANCH   6  13
ENDBRANCH   3   5
ENDBRANCH   2   3
ENDBRANCH   1   2
BRANCH   1  16
HETATM   16  C9  UNL     1      43.363 -13.976  34.820  1.00  0.00     0.208 C 
BRANCH  16  17
HETATM   17  O5  UNL     1      43.529 -13.897  33.486  1.00  0.00    -0.339 OA
ATOM     18  H5  UNL     1      43.685 -13.027  33.136  1.00  0.00     0.220 HD
ENDBRANCH  16  17
BRANCH  16  19
HETATM   19  C10 UNL     1      42.604 -12.795  35.364  1.00  0.00     0.248 C 
BRANCH  19  20
HETATM   20  N2  UNL     1      42.840 -11.530  34.993  1.00  0.00    -0.388 NA
BRANCH  20  21
HETATM   21  C11 UNL     1      43.069 -10.231  34.617  1.00  0.00     0.224 C 
BRANCH  21  22
HETATM   22  O6  UNL     1      43.477  -9.927  33.417  1.00  0.00    -0.335 OA
ATOM     23  H6  UNL     1      42.866  -9.740  32.714  1.00  0.00     0.220 HD
ENDBRANCH  21  22
BRANCH  21  24
HETATM   24  C12 UNL     1      42.907  -9.008  35.419  1.00  0.00     0.029 A 
HETATM   25  C13 UNL     1      43.715  -7.963  35.329  1.00  0.00     0.018 A 
HETATM   26  C14 UNL     1      43.643  -6.737  35.984  1.00  0.00     0.020 A 
HETATM   27  C15 UNL     1      42.552  -6.629  36.861  1.00  0.00     0.011 A 
HETATM   28 BR1  UNL     1      42.333  -4.966  37.798  1.00  0.00    -0.051 Br
HETATM   29  C16 UNL     1      41.671  -7.666  37.020  1.00  0.00     0.020 A 
HETATM   30  C17 UNL     1      41.817  -8.881  36.314  1.00  0.00     0.018 A 
ENDBRANCH  21  24
ENDBRANCH  20  21
ENDBRANCH  19  20
ENDBRANCH  16  19
ENDBRANCH   1  16
TORSDOF 11
ENDMDL
MODEL 3
REMARK VINA RESULT: -8.175077730      1.448      1.530
REMARK  11 active torsions:
REMARK  status: ('A' for Active; 'I' for Inactive)
REMARK    1  A    between atoms: C5_5  and  N1_6 
REMARK    2  A    between atoms: C6_9  and  C7_10 
REMARK    3  A    between atoms: C7_10  and  C8_12 
REMARK    4  A    between atoms: C8_12  and  O4_13 
REMARK    5  A    between atoms: O4_13  and  C9_14 
REMARK    6  A    between atoms: C9_14  and  O5_15 
REMARK    7  A    between atoms: C9_14  and  C10_17 
REMARK    8  A    between atoms: C10_17  and  N2_18 
REMARK    9  A    between atoms: N2_18  and  C11_19 
REMARK   10  A    between atoms: C11_19  and  O6_20 
REMARK   11  A    between atoms: C11_19  and  C12_22 
ROOT
HETATM    1  O4  UNL     1      44.222 -12.105  35.836  1.00  0.00    -0.321 OA
ENDROOT
BRANCH   1   2
HETATM    2  C8  UNL     1      44.489 -11.744  37.107  1.00  0.00     0.263 C 
BRANCH   2   3
HETATM    3  C7  UNL     1      43.842 -10.528  37.649  1.00  0.00     0.202 C 
HETATM    4  O3  UNL     1      42.894 -10.642  38.432  1.00  0.00    -0.288 OA
BRANCH   3   5
HETATM    5  C6  UNL     1      44.253  -9.148  37.268  1.00  0.00     0.116 A 
HETATM    6  C5  UNL     1      43.807  -8.540  36.138  1.00  0.00     0.133 A 
HETATM    7  C4  UNL     1      43.870  -7.148  35.982  1.00  0.00     0.040 A 
HETATM    8  C3  UNL     1      44.426  -6.424  37.026  1.00  0.00     0.027 A 
HETATM    9  C2  UNL     1      44.875  -7.083  38.165  1.00  0.00     0.008 A 
HETATM   10  C1  UNL     1      45.416  -6.233  39.285  1.00  0.00     0.068 C 
HETATM   11  N3  UNL     1      44.793  -8.404  38.286  1.00  0.00    -0.350 N 
HETATM   12  C18 UNL     1      45.322  -8.997  39.510  1.00  0.00     0.156 C 
BRANCH   6  13
HETATM   13  N1  UNL     1      43.324  -9.147  34.949  1.00  0.00    -0.113 N 
HETATM   14  O1  UNL     1      44.041  -9.183  33.917  1.00  0.00    -0.532 OA
HETATM   15  O2  UNL     1      42.096  -9.698  34.855  1.00  0.00    -0.532 OA
ENDBRANCH   6  13
ENDBRANCH   3   5
ENDBRANCH   2   3
ENDBRANCH   1   2
BRANCH   1  16
HETATM   16  C9  UNL     1      43.793 -12.845  34.931  1.00  0.00     0.208 C 
BRANCH  16  17
HETATM   17  O5  UNL     1      43.622 -12.267  33.727  1.00  0.00    -0.339 OA
ATOM     18  H5  UNL     1      43.127 -12.769  33.090  1.00  0.00     0.220 HD
ENDBRANCH  16  17
BRANCH  16  19
HETATM   19  C10 UNL     1      43.408 -14.301  34.916  1.00  0.00     0.248 C 
BRANCH  19  20
HETATM   20  N2  UNL     1      43.974 -15.224  35.704  1.00  0.00    -0.388 NA
BRANCH  20  21
HETATM   21  C11 UNL     1      44.554 -16.162  36.520  1.00  0.00     0.224 C 
BRANCH  21  22
HETATM   22  O6  UNL     1      45.088 -17.251  36.042  1.00  0.00    -0.335 OA
ATOM     23  H6  UNL     1      45.128 -18.052  36.549  1.00  0.00     0.220 HD
ENDBRANCH  21  22
BRANCH  21  24
HETATM   24  C12 UNL     1      44.692 -16.134  37.984  1.00  0.00     0.029 A 
HETATM   25  C13 UNL     1      45.282 -17.092  38.681  1.00  0.00     0.018 A 
HETATM   26  C14 UNL     1      45.526 -17.162  40.049  1.00  0.00     0.020 A 
HETATM   27  C15 UNL     1      45.061 -16.046  40.763  1.00  0.00     0.011 A 
HETATM   28 BR1  UNL     1      45.370 -16.020  42.659  1.00  0.00    -0.051 Br
HETATM   29  C16 UNL     1      44.432 -15.013  40.121  1.00  0.00     0.020 A 
HETATM   30  C17 UNL     1      44.225 -15.020  38.724  1.00  0.00     0.018 A 
ENDBRANCH  21  24
ENDBRANCH  20  21
ENDBRANCH  19  20
ENDBRANCH  16  19
ENDBRANCH   1  16
TORSDOF 11
ENDMDL
MODEL 4
REMARK VINA RESULT: -8.082321220      1.541      2.569
REMARK  11 active torsions:
REMARK  status: ('A' for Active; 'I' for Inactive)
REMARK    1  A    between atoms: C5_5  and  N1_6 
REMARK    2  A    between atoms: C6_9  and  C7_10 
REMARK    3  A    between atoms: C7_10  and  C8_12 
REMARK    4  A    between atoms: C8_12  and  O4_13 
REMARK    5  A    between atoms: O4_13  and  C9_14 
REMARK    6  A    between atoms: C9_14  and  O5_15 
REMARK    7  A    between atoms: C9_14  and  C10_17 
REMARK    8  A    between atoms: C10_17  and  N2_18 
REMARK    9  A    between atoms: N2_18  and  C11_19 
REMARK   10  A    between atoms: C11_19  and  O6_20 
REMARK   11  A    between atoms: C11_19  and  C12_22 
ROOT
HETATM    1  O4  UNL     1      42.477 -12.242  35.418  1.00  0.00    -0.321 OA
ENDROOT
BRANCH   1   2
HETATM    2  C8  UNL     1      42.084 -11.016  35.815  1.00  0.00     0.263 C 
BRANCH   2   3
HETATM    3  C7  UNL     1      43.119 -10.002  36.116  1.00  0.00     0.202 C 
HETATM    4  O3  UNL     1      43.859  -9.602  35.212  1.00  0.00    -0.288 OA
BRANCH   3   5
HETATM    5  C6  UNL     1      43.349  -9.452  37.481  1.00  0.00     0.116 A 
HETATM    6  C5  UNL     1      42.646  -8.397  37.970  1.00  0.00     0.133 A 
HETATM    7  C4  UNL     1      42.580  -8.137  39.346  1.00  0.00     0.040 A 
HETATM    8  C3  UNL     1      43.281  -8.993  40.182  1.00  0.00     0.027 A 
HETATM    9  C2  UNL     1      43.992 -10.060  39.643  1.00  0.00     0.008 A 
HETATM   10  C1  UNL     1      44.685 -10.984  40.609  1.00  0.00     0.068 C 
HETATM   11  N3  UNL     1      44.028 -10.284  38.333  1.00  0.00    -0.350 N 
HETATM   12  C18 UNL     1      44.830 -11.413  37.871  1.00  0.00     0.156 C 
BRANCH   6  13
HETATM   13  N1  UNL     1      41.979  -7.376  37.243  1.00  0.00    -0.113 N 
HETATM   14  O1  UNL     1      40.724  -7.316  37.238  1.00  0.00    -0.532 OA
HETATM   15  O2  UNL     1      42.636  -6.442  36.523  1.00  0.00    -0.532 OA
ENDBRANCH   6  13
ENDBRANCH   3   5
ENDBRANCH   2   3
ENDBRANCH   1   2
BRANCH   1  16
HETATM   16  C9  UNL     1      43.113 -13.067  34.735  1.00  0.00     0.208 C 
BRANCH  16  17
HETATM   17  O5  UNL     1      43.911 -12.553  33.781  1.00  0.00    -0.339 OA
ATOM     18  H5  UNL     1      44.804 -12.878  33.765  1.00  0.00     0.220 HD
ENDBRANCH  16  17
BRANCH  16  19
HETATM   19  C10 UNL     1      43.160 -14.571  34.758  1.00  0.00     0.248 C 
BRANCH  19  20
HETATM   20  N2  UNL     1      43.877 -15.275  35.643  1.00  0.00    -0.388 NA
BRANCH  20  21
HETATM   21  C11 UNL     1      44.617 -16.002  36.542  1.00  0.00     0.224 C 
BRANCH  21  22
HETATM   22  O6  UNL     1      45.392 -16.978  36.160  1.00  0.00    -0.335 OA
ATOM     23  H6  UNL     1      45.109 -17.884  36.196  1.00  0.00     0.220 HD
ENDBRANCH  21  22
BRANCH  21  24
HETATM   24  C12 UNL     1      44.692 -15.839  38.002  1.00  0.00     0.029 A 
HETATM   25  C13 UNL     1      44.170 -14.809  38.649  1.00  0.00     0.018 A 
HETATM   26  C14 UNL     1      44.123 -14.563  40.017  1.00  0.00     0.020 A 
HETATM   27  C15 UNL     1      44.729 -15.564  40.793  1.00  0.00     0.011 A 
HETATM   28 BR1  UNL     1      44.698 -15.345  42.701  1.00  0.00    -0.051 Br
HETATM   29  C16 UNL     1      45.301 -16.660  40.203  1.00  0.00     0.020 A 
HETATM   30  C17 UNL     1      45.304 -16.835  38.801  1.00  0.00     0.018 A 
ENDBRANCH  21  24
ENDBRANCH  20  21
ENDBRANCH  19  20
ENDBRANCH  16  19
ENDBRANCH   1  16
TORSDOF 11
ENDMDL
MODEL 5
REMARK VINA RESULT: -7.971006382      2.837      7.236
REMARK  11 active torsions:
REMARK  status: ('A' for Active; 'I' for Inactive)
REMARK    1  A    between atoms: C5_5  and  N1_6 
REMARK    2  A    between atoms: C6_9  and  C7_10 
REMARK    3  A    between atoms: C7_10  and  C8_12 
REMARK    4  A    between atoms: C8_12  and  O4_13 
REMARK    5  A    between atoms: O4_13  and  C9_14 
REMARK    6  A    between atoms: C9_14  and  O5_15 
REMARK    7  A    between atoms: C9_14  and  C10_17 
REMARK    8  A    between atoms: C10_17  and  N2_18 
REMARK    9  A    between atoms: N2_18  and  C11_19 
REMARK   10  A    between atoms: C11_19  and  O6_20 
REMARK   11  A    between atoms: C11_19  and  C12_22 
ROOT
HETATM    1  O4  UNL     1      43.003 -13.808  36.398  1.00  0.00    -0.321 OA
ENDROOT
BRANCH   1   2
HETATM    2  C8  UNL     1      42.997 -13.243  37.622  1.00  0.00     0.263 C 
BRANCH   2   3
HETATM    3  C7  UNL     1      44.158 -13.464  38.511  1.00  0.00     0.202 C 
HETATM    4  O3  UNL     1      45.080 -12.641  38.523  1.00  0.00    -0.288 OA
BRANCH   3   5
HETATM    5  C6  UNL     1      44.301 -14.664  39.382  1.00  0.00     0.116 A 
HETATM    6  C5  UNL     1      44.848 -15.826  38.938  1.00  0.00     0.133 A 
HETATM    7  C4  UNL     1      45.333 -16.793  39.830  1.00  0.00     0.040 A 
HETATM    8  C3  UNL     1      45.210 -16.518  41.183  1.00  0.00     0.027 A 
HETATM    9  C2  UNL     1      44.642 -15.319  41.598  1.00  0.00     0.008 A 
HETATM   10  C1  UNL     1      44.590 -15.057  43.080  1.00  0.00     0.068 C 
HETATM   11  N3  UNL     1      44.199 -14.418  40.727  1.00  0.00    -0.350 N 
HETATM   12  C18 UNL     1      43.590 -13.207  41.269  1.00  0.00     0.156 C 
BRANCH   6  13
HETATM   13  N1  UNL     1      44.937 -16.298  37.602  1.00  0.00    -0.113 N 
HETATM   14  O1  UNL     1      45.882 -15.929  36.860  1.00  0.00    -0.532 OA
HETATM   15  O2  UNL     1      44.032 -17.140  37.061  1.00  0.00    -0.532 OA
ENDBRANCH   6  13
ENDBRANCH   3   5
ENDBRANCH   2   3
ENDBRANCH   1   2
BRANCH   1  16
HETATM   16  C9  UNL     1      43.383 -13.974  35.224  1.00  0.00     0.208 C 
BRANCH  16  17
HETATM   17  O5  UNL     1      43.419 -15.248  34.789  1.00  0.00    -0.339 OA
ATOM     18  H5  UNL     1      43.998 -15.834  35.262  1.00  0.00     0.220 HD
ENDBRANCH  16  17
BRANCH  16  19
HETATM   19  C10 UNL     1      43.833 -13.005  34.164  1.00  0.00     0.248 C 
BRANCH  19  20
HETATM   20  N2  UNL     1      43.451 -11.722  34.124  1.00  0.00    -0.388 NA
BRANCH  20  21
HETATM   21  C11 UNL     1      43.048 -10.411  34.083  1.00  0.00     0.224 C 
BRANCH  21  22
HETATM   22  O6  UNL     1      42.673  -9.844  32.971  1.00  0.00    -0.335 OA
ATOM     23  H6  UNL     1      42.255  -8.991  32.962  1.00  0.00     0.220 HD
ENDBRANCH  21  22
BRANCH  21  24
HETATM   24  C12 UNL     1      42.954  -9.453  35.195  1.00  0.00     0.029 A 
HETATM   25  C13 UNL     1      43.691  -8.357  35.279  1.00  0.00     0.018 A 
HETATM   26  C14 UNL     1      43.664  -7.349  36.239  1.00  0.00     0.020 A 
HETATM   27  C15 UNL     1      42.712  -7.559  37.250  1.00  0.00     0.011 A 
HETATM   28 BR1  UNL     1      42.563  -6.215  38.615  1.00  0.00    -0.051 Br
HETATM   29  C16 UNL     1      41.913  -8.671  37.244  1.00  0.00     0.020 A 
HETATM   30  C17 UNL     1      42.005  -9.649  36.228  1.00  0.00     0.018 A 
ENDBRANCH  21  24
ENDBRANCH  20  21
ENDBRANCH  19  20
ENDBRANCH  16  19
ENDBRANCH   1  16
TORSDOF 11
ENDMDL
