MODEL 1
REMARK VINA RESULT: -7.578280588      0.000      0.000
REMARK  8 active torsions:
REMARK  status: ('A' for Active; 'I' for Inactive)
REMARK    1  A    between atoms: N1_4  and  C4_5 
REMARK    2  A    between atoms: C4_5  and  C5_6 
REMARK    3  A    between atoms: C5_6  and  C6_7 
REMARK    4  A    between atoms: C6_7  and  C7_8 
REMARK    5  A    between atoms: C6_7  and  N2_14 
REMARK    6  A    between atoms: C14_16  and  O1_17 
REMARK    7  A    between atoms: C17_21  and  C18_22 
REMARK    8  A    between atoms: C18_22  and  N3_23 
ROOT
HETATM    1  C1  UNL     1      42.199 -10.818  35.236  1.00  0.00     0.041 C 
HETATM    2  C2  UNL     1      42.373 -12.211  35.881  1.00  0.00     0.146 C 
HETATM    3  C3  UNL     1      43.158 -13.010  34.916  1.00  0.00     0.303 C 
HETATM    4  N1  UNL     1      44.229 -13.700  35.558  1.00  0.00     0.093 N 
HETATM    5  C16 UNL     1      45.020 -12.846  36.410  1.00  0.00     0.306 C 
HETATM    6  C17 UNL     1      44.205 -11.994  37.332  1.00  0.00     0.170 C 
HETATM    7  O2  UNL     1      42.872 -11.987  37.111  1.00  0.00    -0.376 OA
ENDROOT
BRANCH   4   8
HETATM    8  C4  UNL     1      43.813 -14.849  36.313  1.00  0.00     0.275 C 
BRANCH   8   9
HETATM    9  C5  UNL     1      44.892 -15.689  36.873  1.00  0.00     0.060 C 
BRANCH   9  10
HETATM   10  C6  UNL     1      44.559 -16.831  37.748  1.00  0.00     0.114 C 
BRANCH  10  11
HETATM   11  C7  UNL     1      44.964 -16.508  39.156  1.00  0.00    -0.036 A 
HETATM   12  C8  UNL     1      44.381 -15.471  39.820  1.00  0.00     0.009 A 
HETATM   13  C9  UNL     1      44.718 -15.138  41.134  1.00  0.00     0.001 A 
HETATM   14  C10 UNL     1      45.680 -15.912  41.741  1.00  0.00     0.000 A 
HETATM   15  C11 UNL     1      46.286 -16.964  41.098  1.00  0.00     0.001 A 
HETATM   16  C12 UNL     1      45.921 -17.255  39.803  1.00  0.00     0.009 A 
ENDBRANCH  10  11
BRANCH  10  17
HETATM   17  N2  UNL     1      44.888 -18.062  37.306  1.00  0.00    -0.399 N 
HETATM   18  C13 UNL     1      44.331 -19.313  37.449  1.00  0.00     0.151 C 
HETATM   19  C14 UNL     1      45.586 -19.924  36.815  1.00  0.00     0.153 C 
HETATM   20  C15 UNL     1      45.913 -18.472  36.457  1.00  0.00     0.151 C 
BRANCH  19  21
HETATM   21  O1  UNL     1      46.453 -20.532  37.684  1.00  0.00    -0.392 OA
ATOM     22  H1  UNL     1      46.331 -21.468  37.798  1.00  0.00     0.210 HD
ENDBRANCH  19  21
ENDBRANCH  10  17
ENDBRANCH   9  10
ENDBRANCH   8   9
ENDBRANCH   4   8
BRANCH   6  23
HETATM   23  C18 UNL     1      44.550 -12.262  38.806  1.00  0.00     0.181 C 
BRANCH  23  24
HETATM   24  N3  UNL     1      43.887 -11.263  39.622  1.00  0.00    -0.300 N 
HETATM   25  C19 UNL     1      43.393 -11.420  40.877  1.00  0.00     0.130 A 
HETATM   26  C20 UNL     1      42.858 -10.197  41.240  1.00  0.00     0.044 A 
HETATM   27 BR1  UNL     1      42.031  -9.887  42.932  1.00  0.00    -0.048 Br
HETATM   28  C21 UNL     1      43.043  -9.327  40.191  1.00  0.00     0.127 A 
HETATM   29  N4  UNL     1      43.672 -10.012  39.226  1.00  0.00    -0.309 N 
ATOM     30  H4  UNL     1      43.946  -9.630  38.321  1.00  0.00     0.186 HD
ENDBRANCH  23  24
ENDBRANCH   6  23
TORSDOF 8
ENDMDL
MODEL 2
REMARK VINA RESULT: -7.334124666      2.697      4.088
REMARK  8 active torsions:
REMARK  status: ('A' for Active; 'I' for Inactive)
REMARK    1  A    between atoms: N1_4  and  C4_5 
REMARK    2  A    between atoms: C4_5  and  C5_6 
REMARK    3  A    between atoms: C5_6  and  C6_7 
REMARK    4  A    between atoms: C6_7  and  C7_8 
REMARK    5  A    between atoms: C6_7  and  N2_14 
REMARK    6  A    between atoms: C14_16  and  O1_17 
REMARK    7  A    between atoms: C17_21  and  C18_22 
REMARK    8  A    between atoms: C18_22  and  N3_23 
ROOT
HETATM    1  C1  UNL     1      43.097 -11.874  34.665  1.00  0.00     0.041 C 
HETATM    2  C2  UNL     1      42.983 -12.336  36.135  1.00  0.00     0.146 C 
HETATM    3  C3  UNL     1      44.217 -13.100  36.417  1.00  0.00     0.303 C 
HETATM    4  N1  UNL     1      44.810 -12.699  37.651  1.00  0.00     0.093 N 
HETATM    5  C16 UNL     1      44.953 -11.269  37.769  1.00  0.00     0.306 C 
HETATM    6  C17 UNL     1      43.714 -10.507  37.413  1.00  0.00     0.170 C 
HETATM    7  O2  UNL     1      42.719 -11.226  36.849  1.00  0.00    -0.376 OA
ENDROOT
BRANCH   4   8
HETATM    8  C4  UNL     1      44.127 -13.193  38.814  1.00  0.00     0.275 C 
BRANCH   8   9
HETATM    9  C5  UNL     1      44.023 -14.662  38.936  1.00  0.00     0.060 C 
BRANCH   9  10
HETATM   10  C6  UNL     1      45.201 -15.452  39.348  1.00  0.00     0.114 C 
BRANCH  10  11
HETATM   11  C7  UNL     1      45.263 -16.708  38.530  1.00  0.00    -0.036 A 
HETATM   12  C8  UNL     1      45.197 -16.648  37.170  1.00  0.00     0.009 A 
HETATM   13  C9  UNL     1      45.260 -17.788  36.366  1.00  0.00     0.001 A 
HETATM   14  C10 UNL     1      45.393 -18.995  37.013  1.00  0.00     0.000 A 
HETATM   15  C11 UNL     1      45.463 -19.088  38.382  1.00  0.00     0.001 A 
HETATM   16  C12 UNL     1      45.397 -17.937  39.133  1.00  0.00     0.009 A 
ENDBRANCH  10  11
BRANCH  10  17
HETATM   17  N2  UNL     1      45.411 -15.599  40.673  1.00  0.00    -0.399 N 
HETATM   18  C13 UNL     1      46.435 -16.125  41.429  1.00  0.00     0.151 C 
HETATM   19  C14 UNL     1      45.546 -16.017  42.673  1.00  0.00     0.153 C 
HETATM   20  C15 UNL     1      44.649 -15.178  41.760  1.00  0.00     0.151 C 
BRANCH  19  21
HETATM   21  O1  UNL     1      45.006 -17.194  43.120  1.00  0.00    -0.392 OA
ATOM     22  H1  UNL     1      44.710 -17.194  44.022  1.00  0.00     0.210 HD
ENDBRANCH  19  21
ENDBRANCH  10  17
ENDBRANCH   9  10
ENDBRANCH   8   9
ENDBRANCH   4   8
BRANCH   6  23
HETATM   23  C18 UNL     1      43.220  -9.646  38.586  1.00  0.00     0.181 C 
BRANCH  23  24
HETATM   24  N3  UNL     1      42.677  -8.411  38.053  1.00  0.00    -0.300 N 
HETATM   25  C19 UNL     1      43.071  -7.145  38.342  1.00  0.00     0.130 A 
HETATM   26  C20 UNL     1      42.264  -6.307  37.593  1.00  0.00     0.044 A 
HETATM   27 BR1  UNL     1      42.418  -4.404  37.641  1.00  0.00    -0.048 Br
HETATM   28  C21 UNL     1      41.399  -7.090  36.867  1.00  0.00     0.127 A 
HETATM   29  N4  UNL     1      41.681  -8.364  37.173  1.00  0.00    -0.309 N 
ATOM     30  H4  UNL     1      41.202  -9.178  36.788  1.00  0.00     0.186 HD
ENDBRANCH  23  24
ENDBRANCH   6  23
TORSDOF 8
ENDMDL
MODEL 3
REMARK VINA RESULT: -7.253228314      3.599      5.627
REMARK  8 active torsions:
REMARK  status: ('A' for Active; 'I' for Inactive)
REMARK    1  A    between atoms: N1_4  and  C4_5 
REMARK    2  A    between atoms: C4_5  and  C5_6 
REMARK    3  A    between atoms: C5_6  and  C6_7 
REMARK    4  A    between atoms: C6_7  and  C7_8 
REMARK    5  A    between atoms: C6_7  and  N2_14 
REMARK    6  A    between atoms: C14_16  and  O1_17 
REMARK    7  A    between atoms: C17_21  and  C18_22 
REMARK    8  A    between atoms: C18_22  and  N3_23 
ROOT
HETATM    1  C1  UNL     1      42.827  -7.776  40.929  1.00  0.00     0.041 C 
HETATM    2  C2  UNL     1      43.983  -8.527  40.231  1.00  0.00     0.146 C 
HETATM    3  C3  UNL     1      43.475  -9.887  39.954  1.00  0.00     0.303 C 
HETATM    4  N1  UNL     1      43.757 -10.287  38.613  1.00  0.00     0.093 N 
HETATM    5  C16 UNL     1      43.375  -9.296  37.637  1.00  0.00     0.306 C 
HETATM    6  C17 UNL     1      43.839  -7.913  37.969  1.00  0.00     0.170 C 
HETATM    7  O2  UNL     1      44.362  -7.743  39.203  1.00  0.00    -0.376 OA
ENDROOT
BRANCH   4   8
HETATM    8  C4  UNL     1      45.128 -10.653  38.390  1.00  0.00     0.275 C 
BRANCH   8   9
HETATM    9  C5  UNL     1      45.365 -12.019  37.877  1.00  0.00     0.060 C 
BRANCH   9  10
HETATM   10  C6  UNL     1      44.236 -12.961  37.741  1.00  0.00     0.114 C 
BRANCH  10  11
HETATM   11  C7  UNL     1      44.543 -14.213  38.508  1.00  0.00    -0.036 A 
HETATM   12  C8  UNL     1      45.111 -15.282  37.882  1.00  0.00     0.009 A 
HETATM   13  C9  UNL     1      45.424 -16.465  38.554  1.00  0.00     0.001 A 
HETATM   14  C10 UNL     1      45.130 -16.509  39.898  1.00  0.00     0.000 A 
HETATM   15  C11 UNL     1      44.558 -15.448  40.557  1.00  0.00     0.001 A 
HETATM   16  C12 UNL     1      44.268 -14.302  39.853  1.00  0.00     0.009 A 
ENDBRANCH  10  11
BRANCH  10  17
HETATM   17  N2  UNL     1      43.727 -13.136  36.504  1.00  0.00    -0.399 N 
HETATM   18  C13 UNL     1      43.923 -14.067  35.509  1.00  0.00     0.151 C 
HETATM   19  C14 UNL     1      43.103 -13.193  34.554  1.00  0.00     0.153 C 
HETATM   20  C15 UNL     1      42.731 -12.433  35.829  1.00  0.00     0.151 C 
BRANCH  19  21
HETATM   21  O1  UNL     1      43.826 -12.485  33.630  1.00  0.00    -0.392 OA
ATOM     22  H1  UNL     1      43.369 -12.277  32.824  1.00  0.00     0.210 HD
ENDBRANCH  19  21
ENDBRANCH  10  17
ENDBRANCH   9  10
ENDBRANCH   8   9
ENDBRANCH   4   8
BRANCH   6  23
HETATM   23  C18 UNL     1      44.743  -7.337  36.868  1.00  0.00     0.181 C 
BRANCH  23  24
HETATM   24  N3  UNL     1      45.164  -6.008  37.266  1.00  0.00    -0.300 N 
HETATM   25  C19 UNL     1      46.421  -5.499  37.240  1.00  0.00     0.130 A 
HETATM   26  C20 UNL     1      46.326  -4.201  37.710  1.00  0.00     0.044 A 
HETATM   27 BR1  UNL     1      47.835  -3.043  37.870  1.00  0.00    -0.048 Br
HETATM   28  C21 UNL     1      45.007  -3.956  38.008  1.00  0.00     0.127 A 
HETATM   29  N4  UNL     1      44.331  -5.078  37.725  1.00  0.00    -0.309 N 
ATOM     30  H4  UNL     1      43.325  -5.201  37.844  1.00  0.00     0.186 HD
ENDBRANCH  23  24
ENDBRANCH   6  23
TORSDOF 8
ENDMDL
MODEL 4
REMARK VINA RESULT: -7.206684068      3.131      4.100
REMARK  8 active torsions:
REMARK  status: ('A' for Active; 'I' for Inactive)
REMARK    1  A    between atoms: N1_4  and  C4_5 
REMARK    2  A    between atoms: C4_5  and  C5_6 
REMARK    3  A    between atoms: C5_6  and  C6_7 
REMARK    4  A    between atoms: C6_7  and  C7_8 
REMARK    5  A    between atoms: C6_7  and  N2_14 
REMARK    6  A    between atoms: C14_16  and  O1_17 
REMARK    7  A    between atoms: C17_21  and  C18_22 
REMARK    8  A    between atoms: C18_22  and  N3_23 
ROOT
HETATM    1  C1  UNL     1      42.756 -10.250  34.175  1.00  0.00     0.041 C 
HETATM    2  C2  UNL     1      42.551 -10.667  35.649  1.00  0.00     0.146 C 
HETATM    3  C3  UNL     1      43.640 -11.620  35.955  1.00  0.00     0.303 C 
HETATM    4  N1  UNL     1      44.277 -11.305  37.193  1.00  0.00     0.093 N 
HETATM    5  C16 UNL     1      44.652  -9.916  37.296  1.00  0.00     0.306 C 
HETATM    6  C17 UNL     1      43.559  -8.966  36.915  1.00  0.00     0.170 C 
HETATM    7  O2  UNL     1      42.465  -9.519  36.347  1.00  0.00    -0.376 OA
ENDROOT
BRANCH   4   8
HETATM    8  C4  UNL     1      43.509 -11.664  38.352  1.00  0.00     0.275 C 
BRANCH   8   9
HETATM    9  C5  UNL     1      44.159 -12.589  39.305  1.00  0.00     0.060 C 
BRANCH   9  10
HETATM   10  C6  UNL     1      43.868 -14.035  39.244  1.00  0.00     0.114 C 
BRANCH  10  11
HETATM   11  C7  UNL     1      44.217 -14.665  40.560  1.00  0.00    -0.036 A 
HETATM   12  C8  UNL     1      44.909 -15.839  40.599  1.00  0.00     0.009 A 
HETATM   13  C9  UNL     1      45.265 -16.459  41.798  1.00  0.00     0.001 A 
HETATM   14  C10 UNL     1      44.883 -15.826  42.959  1.00  0.00     0.000 A 
HETATM   15  C11 UNL     1      44.185 -14.642  42.953  1.00  0.00     0.001 A 
HETATM   16  C12 UNL     1      43.856 -14.068  41.746  1.00  0.00     0.009 A 
ENDBRANCH  10  11
BRANCH  10  17
HETATM   17  N2  UNL     1      44.278 -14.700  38.144  1.00  0.00    -0.399 N 
HETATM   18  C13 UNL     1      43.638 -15.448  37.181  1.00  0.00     0.151 C 
HETATM   19  C14 UNL     1      45.004 -15.888  36.642  1.00  0.00     0.153 C 
HETATM   20  C15 UNL     1      45.539 -14.785  37.558  1.00  0.00     0.151 C 
BRANCH  19  21
HETATM   21  O1  UNL     1      45.384 -17.165  36.964  1.00  0.00    -0.392 OA
ATOM     22  H1  UNL     1      45.557 -17.322  37.884  1.00  0.00     0.210 HD
ENDBRANCH  19  21
ENDBRANCH  10  17
ENDBRANCH   9  10
ENDBRANCH   8   9
ENDBRANCH   4   8
BRANCH   6  23
HETATM   23  C18 UNL     1      43.200  -8.020  38.072  1.00  0.00     0.181 C 
BRANCH  23  24
HETATM   24  N3  UNL     1      43.329  -6.653  37.605  1.00  0.00    -0.300 N 
HETATM   25  C19 UNL     1      42.712  -5.551  38.100  1.00  0.00     0.130 A 
HETATM   26  C20 UNL     1      43.147  -4.484  37.334  1.00  0.00     0.044 A 
HETATM   27 BR1  UNL     1      42.566  -2.690  37.630  1.00  0.00    -0.048 Br
HETATM   28  C21 UNL     1      44.021  -4.970  36.391  1.00  0.00     0.127 A 
HETATM   29  N4  UNL     1      44.106  -6.293  36.587  1.00  0.00    -0.309 N 
ATOM     30  H4  UNL     1      44.683  -6.930  36.037  1.00  0.00     0.186 HD
ENDBRANCH  23  24
ENDBRANCH   6  23
TORSDOF 8
ENDMDL
MODEL 5
REMARK VINA RESULT: -7.190058570      3.201      5.425
REMARK  8 active torsions:
REMARK  status: ('A' for Active; 'I' for Inactive)
REMARK    1  A    between atoms: N1_4  and  C4_5 
REMARK    2  A    between atoms: C4_5  and  C5_6 
REMARK    3  A    between atoms: C5_6  and  C6_7 
REMARK    4  A    between atoms: C6_7  and  C7_8 
REMARK    5  A    between atoms: C6_7  and  N2_14 
REMARK    6  A    between atoms: C14_16  and  O1_17 
REMARK    7  A    between atoms: C17_21  and  C18_22 
REMARK    8  A    between atoms: C18_22  and  N3_23 
ROOT
HETATM    1  C1  UNL     1      44.994  -7.778  41.444  1.00  0.00     0.041 C 
HETATM    2  C2  UNL     1      45.397  -8.530  40.156  1.00  0.00     0.146 C 
HETATM    3  C3  UNL     1      45.263  -9.969  40.468  1.00  0.00     0.303 C 
HETATM    4  N1  UNL     1      44.557 -10.663  39.440  1.00  0.00     0.093 N 
HETATM    5  C16 UNL     1      43.324 -10.015  39.067  1.00  0.00     0.306 C 
HETATM    6  C17 UNL     1      43.465  -8.545  38.823  1.00  0.00     0.170 C 
HETATM    7  O2  UNL     1      44.650  -7.997  39.171  1.00  0.00    -0.376 OA
ENDROOT
BRANCH   4   8
HETATM    8  C4  UNL     1      45.334 -10.897  38.255  1.00  0.00     0.275 C 
BRANCH   8   9
HETATM    9  C5  UNL     1      45.527 -12.310  37.867  1.00  0.00     0.060 C 
BRANCH   9  10
HETATM   10  C6  UNL     1      44.360 -13.208  37.751  1.00  0.00     0.114 C 
BRANCH  10  11
HETATM   11  C7  UNL     1      44.667 -14.507  38.435  1.00  0.00    -0.036 A 
HETATM   12  C8  UNL     1      45.170 -15.557  37.726  1.00  0.00     0.009 A 
HETATM   13  C9  UNL     1      45.480 -16.782  38.319  1.00  0.00     0.001 A 
HETATM   14  C10 UNL     1      45.253 -16.889  39.672  1.00  0.00     0.000 A 
HETATM   15  C11 UNL     1      44.747 -15.849  40.414  1.00  0.00     0.001 A 
HETATM   16  C12 UNL     1      44.457 -14.660  39.786  1.00  0.00     0.009 A 
ENDBRANCH  10  11
BRANCH  10  17
HETATM   17  N2  UNL     1      43.775 -13.302  36.538  1.00  0.00    -0.399 N 
HETATM   18  C13 UNL     1      43.825 -14.227  35.519  1.00  0.00     0.151 C 
HETATM   19  C14 UNL     1      43.054 -13.252  34.623  1.00  0.00     0.153 C 
HETATM   20  C15 UNL     1      42.825 -12.487  35.928  1.00  0.00     0.151 C 
BRANCH  19  21
HETATM   21  O1  UNL     1      43.799 -12.602  33.675  1.00  0.00    -0.392 OA
ATOM     22  H1  UNL     1      44.153 -11.760  33.937  1.00  0.00     0.210 HD
ENDBRANCH  19  21
ENDBRANCH  10  17
ENDBRANCH   9  10
ENDBRANCH   8   9
ENDBRANCH   4   8
BRANCH   6  23
HETATM   23  C18 UNL     1      43.043  -8.164  37.395  1.00  0.00     0.181 C 
BRANCH  23  24
HETATM   24  N3  UNL     1      43.311  -6.753  37.197  1.00  0.00    -0.300 N 
HETATM   25  C19 UNL     1      42.596  -5.703  37.675  1.00  0.00     0.130 A 
HETATM   26  C20 UNL     1      43.236  -4.561  37.228  1.00  0.00     0.044 A 
HETATM   27 BR1  UNL     1      42.618  -2.800  37.633  1.00  0.00    -0.048 Br
HETATM   28  C21 UNL     1      44.328  -4.950  36.489  1.00  0.00     0.127 A 
HETATM   29  N4  UNL     1      44.340  -6.290  36.494  1.00  0.00    -0.309 N 
ATOM     30  H4  UNL     1      45.037  -6.870  36.025  1.00  0.00     0.186 HD
ENDBRANCH  23  24
ENDBRANCH   6  23
TORSDOF 8
ENDMDL
