MODEL 1
REMARK VINA RESULT: -6.913660346      0.000      0.000
REMARK  9 active torsions:
REMARK  status: ('A' for Active; 'I' for Inactive)
REMARK    1  A    between atoms: C3_3  and  N1_4 
REMARK    2  A    between atoms: N1_4  and  C4_5 
REMARK    3  A    between atoms: N1_4  and  C8_11 
REMARK    4  A    between atoms: C4_5  and  C5_6 
REMARK    5  A    between atoms: C5_6  and  C6_7 
REMARK    6  A    between atoms: C6_7  and  O1_9 
REMARK    7  A    between atoms: C8_11  and  C9_12 
REMARK    8  A    between atoms: C10_16  and  C11_17 
REMARK    9  A    between atoms: C18_24  and  O3_25 
ROOT
HETATM    1  C1  UNL     1      17.629 -26.339  -9.178  1.00  0.00     0.018 C 
HETATM    2  C2  UNL     1      17.010 -27.130  -8.508  1.00  0.00    -0.072 C 
HETATM    3  C3  UNL     1      16.254 -28.033  -7.690  1.00  0.00     0.158 C 
ENDROOT
BRANCH   3   4
HETATM    4  N1  UNL     1      15.641 -29.111  -8.355  1.00  0.00    -0.336 N 
BRANCH   4   5
HETATM    5  C4  UNL     1      16.365 -29.948  -9.179  1.00  0.00     0.072 C 
BRANCH   5   6
HETATM    6  C5  UNL     1      15.791 -30.304 -10.533  1.00  0.00     0.076 C 
BRANCH   6   7
HETATM    7  C6  UNL     1      17.019 -30.551 -11.442  1.00  0.00     0.118 C 
HETATM    8  C7  UNL     1      17.716 -29.212 -11.555  1.00  0.00     0.039 C 
BRANCH   7   9
HETATM    9  O1  UNL     1      16.519 -30.917 -12.687  1.00  0.00    -0.396 OA
ATOM     10  H1  UNL     1      17.031 -30.444 -13.332  1.00  0.00     0.210 HD
ENDBRANCH   7   9
ENDBRANCH   6   7
ENDBRANCH   5   6
ENDBRANCH   4   5
BRANCH   4  11
HETATM   11  C8  UNL     1      14.318 -29.284  -8.006  1.00  0.00     0.138 C 
BRANCH  11  12
HETATM   12  C9  UNL     1      13.393 -28.146  -7.932  1.00  0.00     0.149 A 
HETATM   13  O2  UNL     1      12.752 -27.580  -6.948  1.00  0.00    -0.234 OA
HETATM   14  N2  UNL     1      12.031 -26.590  -7.302  1.00  0.00    -0.261 N 
HETATM   15  C10 UNL     1      12.150 -26.419  -8.631  1.00  0.00     0.077 A 
ATOM     16  H2  UNL     1      11.457 -26.020  -6.680  1.00  0.00     0.194 HD
HETATM   17  C18 UNL     1      13.011 -27.395  -9.061  1.00  0.00     0.128 A 
BRANCH  15  18
HETATM   18  C11 UNL     1      11.480 -25.417  -9.409  1.00  0.00     0.007 C 
HETATM   19  C12 UNL     1      11.281 -25.815 -10.871  1.00  0.00     0.016 C 
HETATM   20  C13 UNL     1      10.891 -24.479 -11.467  1.00  0.00     0.006 C 
HETATM   21  C14 UNL     1      11.261 -23.423 -10.461  1.00  0.00    -0.013 C 
HETATM   22  C15 UNL     1      10.187 -23.368  -9.393  1.00  0.00     0.006 C 
HETATM   23  C17 UNL     1      12.342 -24.162  -9.658  1.00  0.00     0.020 C 
HETATM   24  C16 UNL     1      10.227 -24.831  -8.915  1.00  0.00     0.016 C 
ENDBRANCH  15  18
BRANCH  17  25
HETATM   25  O3  UNL     1      13.463 -27.657 -10.331  1.00  0.00    -0.356 OA
ATOM     26  H3  UNL     1      13.748 -26.980 -10.934  1.00  0.00     0.218 HD
ENDBRANCH  17  25
ENDBRANCH  11  12
ENDBRANCH   4  11
ENDBRANCH   3   4
TORSDOF 9
ENDMDL
MODEL 2
REMARK VINA RESULT: -6.802430677      2.173      6.667
REMARK  9 active torsions:
REMARK  status: ('A' for Active; 'I' for Inactive)
REMARK    1  A    between atoms: C3_3  and  N1_4 
REMARK    2  A    between atoms: N1_4  and  C4_5 
REMARK    3  A    between atoms: N1_4  and  C8_11 
REMARK    4  A    between atoms: C4_5  and  C5_6 
REMARK    5  A    between atoms: C5_6  and  C6_7 
REMARK    6  A    between atoms: C6_7  and  O1_9 
REMARK    7  A    between atoms: C8_11  and  C9_12 
REMARK    8  A    between atoms: C10_16  and  C11_17 
REMARK    9  A    between atoms: C18_24  and  O3_25 
ROOT
HETATM    1  C1  UNL     1      13.486 -27.901  -5.411  1.00  0.00     0.018 C 
HETATM    2  C2  UNL     1      12.918 -27.446  -6.375  1.00  0.00    -0.072 C 
HETATM    3  C3  UNL     1      12.249 -26.863  -7.500  1.00  0.00     0.158 C 
ENDROOT
BRANCH   3   4
HETATM    4  N1  UNL     1      12.651 -27.320  -8.769  1.00  0.00    -0.336 N 
BRANCH   4   5
HETATM    5  C4  UNL     1      12.309 -26.635  -9.917  1.00  0.00     0.072 C 
BRANCH   5   6
HETATM    6  C5  UNL     1      11.324 -25.491  -9.811  1.00  0.00     0.076 C 
BRANCH   6   7
HETATM    7  C6  UNL     1      11.657 -24.558 -10.999  1.00  0.00     0.118 C 
HETATM    8  C7  UNL     1      11.396 -23.153 -10.496  1.00  0.00     0.039 C 
BRANCH   7   9
HETATM    9  O1  UNL     1      10.748 -24.863 -12.005  1.00  0.00    -0.396 OA
ATOM     10  H1  UNL     1      10.735 -24.117 -12.592  1.00  0.00     0.210 HD
ENDBRANCH   7   9
ENDBRANCH   6   7
ENDBRANCH   5   6
ENDBRANCH   4   5
BRANCH   4  11
HETATM   11  C8  UNL     1      13.485 -28.417  -8.712  1.00  0.00     0.138 C 
BRANCH  11  12
HETATM   12  C9  UNL     1      14.723 -28.476  -9.500  1.00  0.00     0.149 A 
HETATM   13  O2  UNL     1      15.089 -29.176 -10.537  1.00  0.00    -0.234 OA
HETATM   14  N2  UNL     1      16.273 -28.927 -10.937  1.00  0.00    -0.261 N 
HETATM   15  C10 UNL     1      16.812 -27.985 -10.142  1.00  0.00     0.077 A 
ATOM     16  H2  UNL     1      16.738 -29.370 -11.731  1.00  0.00     0.194 HD
HETATM   17  C18 UNL     1      15.849 -27.678  -9.217  1.00  0.00     0.128 A 
BRANCH  15  18
HETATM   18  C11 UNL     1      18.138 -27.450 -10.259  1.00  0.00     0.007 C 
HETATM   19  C12 UNL     1      18.164 -25.948 -10.541  1.00  0.00     0.016 C 
HETATM   20  C13 UNL     1      19.612 -25.769 -10.941  1.00  0.00     0.006 C 
HETATM   21  C14 UNL     1      20.163 -27.140 -11.225  1.00  0.00    -0.013 C 
HETATM   22  C15 UNL     1      20.508 -27.811  -9.910  1.00  0.00     0.006 C 
HETATM   23  C17 UNL     1      18.870 -27.907 -11.538  1.00  0.00     0.020 C 
HETATM   24  C16 UNL     1      19.134 -27.741  -9.220  1.00  0.00     0.016 C 
ENDBRANCH  15  18
BRANCH  17  25
HETATM   25  O3  UNL     1      15.895 -26.776  -8.181  1.00  0.00    -0.356 OA
ATOM     26  H3  UNL     1      16.246 -25.897  -8.268  1.00  0.00     0.218 HD
ENDBRANCH  17  25
ENDBRANCH  11  12
ENDBRANCH   4  11
ENDBRANCH   3   4
TORSDOF 9
ENDMDL
MODEL 3
REMARK VINA RESULT: -6.623570374      2.118      6.525
REMARK  9 active torsions:
REMARK  status: ('A' for Active; 'I' for Inactive)
REMARK    1  A    between atoms: C3_3  and  N1_4 
REMARK    2  A    between atoms: N1_4  and  C4_5 
REMARK    3  A    between atoms: N1_4  and  C8_11 
REMARK    4  A    between atoms: C4_5  and  C5_6 
REMARK    5  A    between atoms: C5_6  and  C6_7 
REMARK    6  A    between atoms: C6_7  and  O1_9 
REMARK    7  A    between atoms: C8_11  and  C9_12 
REMARK    8  A    between atoms: C10_16  and  C11_17 
REMARK    9  A    between atoms: C18_24  and  O3_25 
ROOT
HETATM    1  C1  UNL     1      13.933 -27.885  -5.151  1.00  0.00     0.018 C 
HETATM    2  C2  UNL     1      13.231 -27.559  -6.079  1.00  0.00    -0.072 C 
HETATM    3  C3  UNL     1      12.396 -27.128  -7.162  1.00  0.00     0.158 C 
ENDROOT
BRANCH   3   4
HETATM    4  N1  UNL     1      12.794 -27.528  -8.451  1.00  0.00    -0.336 N 
BRANCH   4   5
HETATM    5  C4  UNL     1      12.377 -26.841  -9.573  1.00  0.00     0.072 C 
BRANCH   5   6
HETATM    6  C5  UNL     1      11.710 -25.495  -9.391  1.00  0.00     0.076 C 
BRANCH   6   7
HETATM    7  C6  UNL     1      11.908 -24.759 -10.737  1.00  0.00     0.118 C 
HETATM    8  C7  UNL     1      11.664 -23.295 -10.439  1.00  0.00     0.039 C 
BRANCH   7   9
HETATM    9  O1  UNL     1      10.914 -25.227 -11.590  1.00  0.00    -0.396 OA
ATOM     10  H1  UNL     1      10.948 -24.682 -12.367  1.00  0.00     0.210 HD
ENDBRANCH   7   9
ENDBRANCH   6   7
ENDBRANCH   5   6
ENDBRANCH   4   5
BRANCH   4  11
HETATM   11  C8  UNL     1      13.700 -28.567  -8.443  1.00  0.00     0.138 C 
BRANCH  11  12
HETATM   12  C9  UNL     1      14.848 -28.586  -9.359  1.00  0.00     0.149 A 
HETATM   13  O2  UNL     1      15.131 -29.288 -10.421  1.00  0.00    -0.234 OA
HETATM   14  N2  UNL     1      16.254 -28.995 -10.949  1.00  0.00    -0.261 N 
HETATM   15  C10 UNL     1      16.832 -28.017 -10.228  1.00  0.00     0.077 A 
ATOM     16  H2  UNL     1      16.649 -29.431 -11.783  1.00  0.00     0.194 HD
HETATM   17  C18 UNL     1      15.961 -27.736  -9.209  1.00  0.00     0.128 A 
BRANCH  15  18
HETATM   18  C11 UNL     1      18.113 -27.427 -10.495  1.00  0.00     0.007 C 
HETATM   19  C12 UNL     1      18.833 -28.053 -11.689  1.00  0.00     0.016 C 
HETATM   20  C13 UNL     1      20.223 -27.485 -11.498  1.00  0.00     0.006 C 
HETATM   21  C14 UNL     1      20.289 -26.945 -10.095  1.00  0.00    -0.013 C 
HETATM   22  C15 UNL     1      19.624 -25.584 -10.062  1.00  0.00     0.006 C 
HETATM   23  C17 UNL     1      19.172 -27.759  -9.424  1.00  0.00     0.020 C 
HETATM   24  C16 UNL     1      18.232 -25.967 -10.597  1.00  0.00     0.016 C 
ENDBRANCH  15  18
BRANCH  17  25
HETATM   25  O3  UNL     1      16.078 -26.815  -8.196  1.00  0.00    -0.356 OA
ATOM     26  H3  UNL     1      16.654 -26.929  -7.449  1.00  0.00     0.218 HD
ENDBRANCH  17  25
ENDBRANCH  11  12
ENDBRANCH   4  11
ENDBRANCH   3   4
TORSDOF 9
ENDMDL
MODEL 4
REMARK VINA RESULT: -6.608397805      2.360      4.012
REMARK  9 active torsions:
REMARK  status: ('A' for Active; 'I' for Inactive)
REMARK    1  A    between atoms: C3_3  and  N1_4 
REMARK    2  A    between atoms: N1_4  and  C4_5 
REMARK    3  A    between atoms: N1_4  and  C8_11 
REMARK    4  A    between atoms: C4_5  and  C5_6 
REMARK    5  A    between atoms: C5_6  and  C6_7 
REMARK    6  A    between atoms: C6_7  and  O1_9 
REMARK    7  A    between atoms: C8_11  and  C9_12 
REMARK    8  A    between atoms: C10_16  and  C11_17 
REMARK    9  A    between atoms: C18_24  and  O3_25 
ROOT
HETATM    1  C1  UNL     1      16.879 -25.284  -5.948  1.00  0.00     0.018 C 
HETATM    2  C2  UNL     1      16.583 -26.326  -6.483  1.00  0.00    -0.072 C 
HETATM    3  C3  UNL     1      16.278 -27.570  -7.127  1.00  0.00     0.158 C 
ENDROOT
BRANCH   3   4
HETATM    4  N1  UNL     1      15.380 -28.417  -6.452  1.00  0.00    -0.336 N 
BRANCH   4   5
HETATM    5  C4  UNL     1      15.599 -28.794  -5.143  1.00  0.00     0.072 C 
BRANCH   5   6
HETATM    6  C5  UNL     1      14.420 -28.834  -4.195  1.00  0.00     0.076 C 
BRANCH   6   7
HETATM    7  C6  UNL     1      14.188 -27.364  -3.773  1.00  0.00     0.118 C 
HETATM    8  C7  UNL     1      14.734 -27.255  -2.365  1.00  0.00     0.039 C 
BRANCH   7   9
HETATM    9  O1  UNL     1      12.810 -27.174  -3.749  1.00  0.00    -0.396 OA
ATOM     10  H1  UNL     1      12.601 -26.832  -2.888  1.00  0.00     0.210 HD
ENDBRANCH   7   9
ENDBRANCH   6   7
ENDBRANCH   5   6
ENDBRANCH   4   5
BRANCH   4  11
HETATM   11  C8  UNL     1      14.252 -28.712  -7.189  1.00  0.00     0.138 C 
BRANCH  11  12
HETATM   12  C9  UNL     1      13.183 -27.722  -7.378  1.00  0.00     0.149 A 
HETATM   13  O2  UNL     1      12.214 -27.299  -6.616  1.00  0.00    -0.234 OA
HETATM   14  N2  UNL     1      11.482 -26.407  -7.159  1.00  0.00    -0.261 N 
HETATM   15  C10 UNL     1      11.944 -26.161  -8.399  1.00  0.00     0.077 A 
ATOM     16  H2  UNL     1      10.678 -25.954  -6.724  1.00  0.00     0.194 HD
HETATM   17  C18 UNL     1      13.026 -26.984  -8.567  1.00  0.00     0.128 A 
BRANCH  15  18
HETATM   18  C11 UNL     1      11.377 -25.230  -9.332  1.00  0.00     0.007 C 
HETATM   19  C12 UNL     1      11.248 -25.793 -10.747  1.00  0.00     0.016 C 
HETATM   20  C13 UNL     1      10.967 -24.523 -11.522  1.00  0.00     0.006 C 
HETATM   21  C14 UNL     1      11.329 -23.371 -10.624  1.00  0.00    -0.013 C 
HETATM   22  C15 UNL     1      10.196 -23.139  -9.645  1.00  0.00     0.006 C 
HETATM   23  C17 UNL     1      12.318 -24.055  -9.668  1.00  0.00     0.020 C 
HETATM   24  C16 UNL     1      10.129 -24.533  -8.997  1.00  0.00     0.016 C 
ENDBRANCH  15  18
BRANCH  17  25
HETATM   25  O3  UNL     1      13.852 -27.120  -9.657  1.00  0.00    -0.356 OA
ATOM     26  H3  UNL     1      13.995 -26.431 -10.294  1.00  0.00     0.218 HD
ENDBRANCH  17  25
ENDBRANCH  11  12
ENDBRANCH   4  11
ENDBRANCH   3   4
TORSDOF 9
ENDMDL
MODEL 5
REMARK VINA RESULT: -6.550765743      2.984      5.024
REMARK  9 active torsions:
REMARK  status: ('A' for Active; 'I' for Inactive)
REMARK    1  A    between atoms: C3_3  and  N1_4 
REMARK    2  A    between atoms: N1_4  and  C4_5 
REMARK    3  A    between atoms: N1_4  and  C8_11 
REMARK    4  A    between atoms: C4_5  and  C5_6 
REMARK    5  A    between atoms: C5_6  and  C6_7 
REMARK    6  A    between atoms: C6_7  and  O1_9 
REMARK    7  A    between atoms: C8_11  and  C9_12 
REMARK    8  A    between atoms: C10_16  and  C11_17 
REMARK    9  A    between atoms: C18_24  and  O3_25 
ROOT
HETATM    1  C1  UNL     1      14.362 -32.014  -5.676  1.00  0.00     0.018 C 
HETATM    2  C2  UNL     1      14.818 -30.924  -5.426  1.00  0.00    -0.072 C 
HETATM    3  C3  UNL     1      15.398 -29.642  -5.154  1.00  0.00     0.158 C 
ENDROOT
BRANCH   3   4
HETATM    4  N1  UNL     1      14.562 -28.527  -5.349  1.00  0.00    -0.336 N 
BRANCH   4   5
HETATM    5  C4  UNL     1      14.255 -27.673  -4.310  1.00  0.00     0.072 C 
BRANCH   5   6
HETATM    6  C5  UNL     1      13.154 -28.068  -3.350  1.00  0.00     0.076 C 
BRANCH   6   7
HETATM    7  C6  UNL     1      12.482 -26.738  -2.933  1.00  0.00     0.118 C 
HETATM    8  C7  UNL     1      11.849 -27.009  -1.584  1.00  0.00     0.039 C 
BRANCH   7   9
HETATM    9  O1  UNL     1      11.484 -26.492  -3.869  1.00  0.00    -0.396 OA
ATOM     10  H1  UNL     1      10.657 -26.635  -3.425  1.00  0.00     0.210 HD
ENDBRANCH   7   9
ENDBRANCH   6   7
ENDBRANCH   5   6
ENDBRANCH   4   5
BRANCH   4  11
HETATM   11  C8  UNL     1      14.202 -28.340  -6.668  1.00  0.00     0.138 C 
BRANCH  11  12
HETATM   12  C9  UNL     1      13.072 -27.476  -7.035  1.00  0.00     0.149 A 
HETATM   13  O2  UNL     1      11.944 -27.187  -6.452  1.00  0.00    -0.234 OA
HETATM   14  N2  UNL     1      11.216 -26.371  -7.109  1.00  0.00    -0.261 N 
HETATM   15  C10 UNL     1      11.851 -26.043  -8.249  1.00  0.00     0.077 A 
ATOM     16  H2  UNL     1      10.301 -26.025  -6.819  1.00  0.00     0.194 HD
HETATM   17  C18 UNL     1      13.036 -26.731  -8.231  1.00  0.00     0.128 A 
BRANCH  15  18
HETATM   18  C11 UNL     1      11.349 -25.161  -9.263  1.00  0.00     0.007 C 
HETATM   19  C12 UNL     1      11.292 -25.800 -10.650  1.00  0.00     0.016 C 
HETATM   20  C13 UNL     1      11.069 -24.573 -11.507  1.00  0.00     0.006 C 
HETATM   21  C14 UNL     1      11.393 -23.376 -10.655  1.00  0.00    -0.013 C 
HETATM   22  C15 UNL     1      10.210 -23.080  -9.756  1.00  0.00     0.006 C 
HETATM   23  C17 UNL     1      12.320 -24.014  -9.609  1.00  0.00     0.020 C 
HETATM   24  C16 UNL     1      10.091 -24.437  -9.037  1.00  0.00     0.016 C 
ENDBRANCH  15  18
BRANCH  17  25
HETATM   25  O3  UNL     1      14.047 -26.745  -9.161  1.00  0.00    -0.356 OA
ATOM     26  H3  UNL     1      13.904 -26.620 -10.091  1.00  0.00     0.218 HD
ENDBRANCH  17  25
ENDBRANCH  11  12
ENDBRANCH   4  11
ENDBRANCH   3   4
TORSDOF 9
ENDMDL
