MODEL 1
REMARK VINA RESULT: -7.130939039      0.000      0.000
REMARK  11 active torsions:
REMARK  status: ('A' for Active; 'I' for Inactive)
REMARK    1  A    between atoms: C2_2  and  O2_4 
REMARK    2  A    between atoms: O2_4  and  C3_5 
REMARK    3  A    between atoms: C3_5  and  C4_7 
REMARK    4  A    between atoms: C4_7  and  C5_8 
REMARK    5  A    between atoms: C5_8  and  C6_9 
REMARK    6  A    between atoms: C6_9  and  C7_10 
REMARK    7  A    between atoms: C7_10  and  C8_11 
REMARK    8  A    between atoms: C8_11  and  C9_12 
REMARK    9  A    between atoms: C9_12  and  C10_13 
REMARK   10  A    between atoms: C10_13  and  O4_14 
REMARK   11  A    between atoms: C10_13  and  C11_16 
ROOT
HETATM    1  C9  UNL     1      13.094 -26.673  -8.041  1.00  0.00     0.032 C 
ENDROOT
BRANCH   1   2
HETATM    2  C8  UNL     1      13.124 -27.781  -7.059  1.00  0.00     0.002 C 
BRANCH   2   3
HETATM    3  C7  UNL     1      12.696 -27.474  -5.661  1.00  0.00     0.000 C 
BRANCH   3   4
HETATM    4  C6  UNL     1      11.360 -26.764  -5.717  1.00  0.00     0.000 C 
BRANCH   4   5
HETATM    5  C5  UNL     1      10.537 -27.160  -4.526  1.00  0.00     0.010 C 
BRANCH   5   6
HETATM    6  C4  UNL     1      11.184 -26.894  -3.199  1.00  0.00     0.111 C 
BRANCH   6   7
HETATM    7  C3  UNL     1      10.785 -28.042  -2.311  1.00  0.00     0.266 C 
HETATM    8  O3  UNL     1       9.587 -28.373  -2.186  1.00  0.00    -0.265 OA
BRANCH   7   9
HETATM    9  O2  UNL     1      11.749 -28.766  -1.608  1.00  0.00    -0.245 OA
BRANCH   9  10
HETATM   10  C2  UNL     1      12.844 -29.340  -2.283  1.00  0.00     0.262 C 
HETATM   11  C1  UNL     1      14.122 -28.587  -2.326  1.00  0.00     0.126 C 
HETATM   12  O1  UNL     1      12.674 -30.457  -2.807  1.00  0.00    -0.265 OA
ENDBRANCH   9  10
ENDBRANCH   7   9
ENDBRANCH   6   7
ENDBRANCH   5   6
ENDBRANCH   4   5
ENDBRANCH   3   4
ENDBRANCH   2   3
ENDBRANCH   1   2
BRANCH   1  13
HETATM   13  C10 UNL     1      12.141 -26.891  -9.146  1.00  0.00     0.127 C 
BRANCH  13  14
HETATM   14  O4  UNL     1      12.718 -27.492 -10.234  1.00  0.00    -0.395 OA
ATOM     15  H4  UNL     1      12.155 -27.489 -10.999  1.00  0.00     0.210 HD
ENDBRANCH  13  14
BRANCH  13  16
HETATM   16  C11 UNL     1      11.407 -25.649  -9.574  1.00  0.00    -0.010 C 
HETATM   17  C12 UNL     1      10.969 -25.583 -11.022  1.00  0.00     0.017 C 
HETATM   18  C13 UNL     1      11.111 -24.095 -11.288  1.00  0.00    -0.013 C 
HETATM   19  C14 UNL     1      10.152 -23.386 -10.371  1.00  0.00     0.010 C 
HETATM   20  C18 UNL     1      12.431 -23.812 -10.587  1.00  0.00     0.010 C 
HETATM   21  C15 UNL     1      10.672 -23.800  -8.992  1.00  0.00    -0.008 C 
HETATM   22  C16 UNL     1      10.241 -25.233  -8.695  1.00  0.00     0.017 C 
HETATM   23  C17 UNL     1      12.051 -24.353  -9.221  1.00  0.00     0.001 C 
ENDBRANCH  13  16
ENDBRANCH   1  13
TORSDOF 11
ENDMDL
MODEL 2
REMARK VINA RESULT: -6.821524520      0.804      2.127
REMARK  11 active torsions:
REMARK  status: ('A' for Active; 'I' for Inactive)
REMARK    1  A    between atoms: C2_2  and  O2_4 
REMARK    2  A    between atoms: O2_4  and  C3_5 
REMARK    3  A    between atoms: C3_5  and  C4_7 
REMARK    4  A    between atoms: C4_7  and  C5_8 
REMARK    5  A    between atoms: C5_8  and  C6_9 
REMARK    6  A    between atoms: C6_9  and  C7_10 
REMARK    7  A    between atoms: C7_10  and  C8_11 
REMARK    8  A    between atoms: C8_11  and  C9_12 
REMARK    9  A    between atoms: C9_12  and  C10_13 
REMARK   10  A    between atoms: C10_13  and  O4_14 
REMARK   11  A    between atoms: C10_13  and  C11_16 
ROOT
HETATM    1  C9  UNL     1      12.600 -26.806  -7.967  1.00  0.00     0.032 C 
ENDROOT
BRANCH   1   2
HETATM    2  C8  UNL     1      14.079 -26.879  -7.984  1.00  0.00     0.002 C 
BRANCH   2   3
HETATM    3  C7  UNL     1      14.757 -27.402  -6.760  1.00  0.00     0.000 C 
BRANCH   3   4
HETATM    4  C6  UNL     1      13.695 -27.926  -5.815  1.00  0.00     0.000 C 
BRANCH   4   5
HETATM    5  C5  UNL     1      14.056 -27.552  -4.407  1.00  0.00     0.010 C 
BRANCH   5   6
HETATM    6  C4  UNL     1      14.203 -28.713  -3.468  1.00  0.00     0.111 C 
BRANCH   6   7
HETATM    7  C3  UNL     1      12.848 -28.906  -2.840  1.00  0.00     0.266 C 
HETATM    8  O3  UNL     1      12.426 -30.048  -2.559  1.00  0.00    -0.265 OA
BRANCH   7   9
HETATM    9  O2  UNL     1      12.033 -27.810  -2.555  1.00  0.00    -0.245 OA
BRANCH   9  10
HETATM   10  C2  UNL     1      10.703 -27.768  -3.018  1.00  0.00     0.262 C 
HETATM   11  C1  UNL     1      10.431 -27.131  -4.331  1.00  0.00     0.126 C 
HETATM   12  O1  UNL     1       9.826 -28.273  -2.293  1.00  0.00    -0.265 OA
ENDBRANCH   9  10
ENDBRANCH   7   9
ENDBRANCH   6   7
ENDBRANCH   5   6
ENDBRANCH   4   5
ENDBRANCH   3   4
ENDBRANCH   2   3
ENDBRANCH   1   2
BRANCH   1  13
HETATM   13  C10 UNL     1      11.995 -26.794  -9.313  1.00  0.00     0.127 C 
BRANCH  13  14
HETATM   14  O4  UNL     1      12.889 -27.110 -10.301  1.00  0.00    -0.395 OA
ATOM     15  H4  UNL     1      12.543 -26.961 -11.173  1.00  0.00     0.210 HD
ENDBRANCH  13  14
BRANCH  13  16
HETATM   16  C11 UNL     1      11.286 -25.510  -9.651  1.00  0.00    -0.010 C 
HETATM   17  C12 UNL     1      10.906 -25.306 -11.104  1.00  0.00     0.017 C 
HETATM   18  C13 UNL     1      11.068 -23.803 -11.225  1.00  0.00    -0.013 C 
HETATM   19  C14 UNL     1      10.077 -23.172 -10.284  1.00  0.00     0.010 C 
HETATM   20  C18 UNL     1      12.360 -23.598 -10.450  1.00  0.00     0.010 C 
HETATM   21  C15 UNL     1      10.540 -23.716  -8.930  1.00  0.00    -0.008 C 
HETATM   22  C16 UNL     1      10.089 -25.165  -8.784  1.00  0.00     0.017 C 
HETATM   23  C17 UNL     1      11.924 -24.259  -9.156  1.00  0.00     0.001 C 
ENDBRANCH  13  16
ENDBRANCH   1  13
TORSDOF 11
ENDMDL
MODEL 3
REMARK VINA RESULT: -6.769861636      1.182      2.168
REMARK  11 active torsions:
REMARK  status: ('A' for Active; 'I' for Inactive)
REMARK    1  A    between atoms: C2_2  and  O2_4 
REMARK    2  A    between atoms: O2_4  and  C3_5 
REMARK    3  A    between atoms: C3_5  and  C4_7 
REMARK    4  A    between atoms: C4_7  and  C5_8 
REMARK    5  A    between atoms: C5_8  and  C6_9 
REMARK    6  A    between atoms: C6_9  and  C7_10 
REMARK    7  A    between atoms: C7_10  and  C8_11 
REMARK    8  A    between atoms: C8_11  and  C9_12 
REMARK    9  A    between atoms: C9_12  and  C10_13 
REMARK   10  A    between atoms: C10_13  and  O4_14 
REMARK   11  A    between atoms: C10_13  and  C11_16 
ROOT
HETATM    1  C9  UNL     1      12.414 -26.893  -7.842  1.00  0.00     0.032 C 
ENDROOT
BRANCH   1   2
HETATM    2  C8  UNL     1      13.592 -27.758  -7.603  1.00  0.00     0.002 C 
BRANCH   2   3
HETATM    3  C7  UNL     1      13.705 -28.412  -6.265  1.00  0.00     0.000 C 
BRANCH   3   4
HETATM    4  C6  UNL     1      14.497 -27.497  -5.353  1.00  0.00     0.000 C 
BRANCH   4   5
HETATM    5  C5  UNL     1      14.236 -27.874  -3.924  1.00  0.00     0.010 C 
BRANCH   5   6
HETATM    6  C4  UNL     1      14.161 -26.716  -2.974  1.00  0.00     0.111 C 
BRANCH   6   7
HETATM    7  C3  UNL     1      12.711 -26.598  -2.585  1.00  0.00     0.266 C 
HETATM    8  O3  UNL     1      12.217 -25.496  -2.269  1.00  0.00    -0.265 OA
BRANCH   7   9
HETATM    9  O2  UNL     1      11.884 -27.722  -2.573  1.00  0.00    -0.245 OA
BRANCH   9  10
HETATM   10  C2  UNL     1      10.642 -27.704  -3.238  1.00  0.00     0.262 C 
HETATM   11  C1  UNL     1      10.564 -27.058  -4.571  1.00  0.00     0.126 C 
HETATM   12  O1  UNL     1       9.675 -28.237  -2.663  1.00  0.00    -0.265 OA
ENDBRANCH   9  10
ENDBRANCH   7   9
ENDBRANCH   6   7
ENDBRANCH   5   6
ENDBRANCH   4   5
ENDBRANCH   3   4
ENDBRANCH   2   3
ENDBRANCH   1   2
BRANCH   1  13
HETATM   13  C10 UNL     1      12.012 -26.822  -9.260  1.00  0.00     0.127 C 
BRANCH  13  14
HETATM   14  O4  UNL     1      13.053 -27.054 -10.120  1.00  0.00    -0.395 OA
ATOM     15  H4  UNL     1      12.768 -27.391 -10.961  1.00  0.00     0.210 HD
ENDBRANCH  13  14
BRANCH  13  16
HETATM   16  C11 UNL     1      11.311 -25.544  -9.633  1.00  0.00    -0.010 C 
HETATM   17  C12 UNL     1      10.896 -25.394 -11.082  1.00  0.00     0.017 C 
HETATM   18  C13 UNL     1      11.073 -23.899 -11.269  1.00  0.00    -0.013 C 
HETATM   19  C14 UNL     1      10.115 -23.217 -10.329  1.00  0.00     0.010 C 
HETATM   20  C18 UNL     1      12.388 -23.680 -10.536  1.00  0.00     0.010 C 
HETATM   21  C15 UNL     1      10.606 -23.711  -8.967  1.00  0.00    -0.008 C 
HETATM   22  C16 UNL     1      10.141 -25.148  -8.750  1.00  0.00     0.017 C 
HETATM   23  C17 UNL     1      11.977 -24.282  -9.206  1.00  0.00     0.001 C 
ENDBRANCH  13  16
ENDBRANCH   1  13
TORSDOF 11
ENDMDL
MODEL 4
REMARK VINA RESULT: -6.698568497      3.399      4.844
REMARK  11 active torsions:
REMARK  status: ('A' for Active; 'I' for Inactive)
REMARK    1  A    between atoms: C2_2  and  O2_4 
REMARK    2  A    between atoms: O2_4  and  C3_5 
REMARK    3  A    between atoms: C3_5  and  C4_7 
REMARK    4  A    between atoms: C4_7  and  C5_8 
REMARK    5  A    between atoms: C5_8  and  C6_9 
REMARK    6  A    between atoms: C6_9  and  C7_10 
REMARK    7  A    between atoms: C7_10  and  C8_11 
REMARK    8  A    between atoms: C8_11  and  C9_12 
REMARK    9  A    between atoms: C9_12  and  C10_13 
REMARK   10  A    between atoms: C10_13  and  O4_14 
REMARK   11  A    between atoms: C10_13  and  C11_16 
ROOT
HETATM    1  C9  UNL     1      13.030 -26.716  -8.042  1.00  0.00     0.032 C 
ENDROOT
BRANCH   1   2
HETATM    2  C8  UNL     1      12.509 -27.246  -6.761  1.00  0.00     0.002 C 
BRANCH   2   3
HETATM    3  C7  UNL     1      13.500 -27.810  -5.796  1.00  0.00     0.000 C 
BRANCH   3   4
HETATM    4  C6  UNL     1      14.884 -27.662  -6.393  1.00  0.00     0.000 C 
BRANCH   4   5
HETATM    5  C5  UNL     1      15.578 -28.992  -6.373  1.00  0.00     0.010 C 
BRANCH   5   6
HETATM    6  C4  UNL     1      14.818 -30.106  -7.030  1.00  0.00     0.111 C 
BRANCH   6   7
HETATM    7  C3  UNL     1      14.969 -29.888  -8.512  1.00  0.00     0.266 C 
HETATM    8  O3  UNL     1      13.976 -29.901  -9.269  1.00  0.00    -0.265 OA
BRANCH   7   9
HETATM    9  O2  UNL     1      16.227 -29.662  -9.073  1.00  0.00    -0.245 OA
BRANCH   9  10
HETATM   10  C2  UNL     1      16.395 -28.695 -10.084  1.00  0.00     0.262 C 
HETATM   11  C1  UNL     1      16.559 -27.275  -9.684  1.00  0.00     0.126 C 
HETATM   12  O1  UNL     1      16.398 -29.092 -11.264  1.00  0.00    -0.265 OA
ENDBRANCH   9  10
ENDBRANCH   7   9
ENDBRANCH   6   7
ENDBRANCH   5   6
ENDBRANCH   4   5
ENDBRANCH   3   4
ENDBRANCH   2   3
ENDBRANCH   1   2
BRANCH   1  13
HETATM   13  C10 UNL     1      12.101 -26.895  -9.176  1.00  0.00     0.127 C 
BRANCH  13  14
HETATM   14  O4  UNL     1      12.699 -27.467 -10.267  1.00  0.00    -0.395 OA
ATOM     15  H4  UNL     1      12.100 -27.997 -10.780  1.00  0.00     0.210 HD
ENDBRANCH  13  14
BRANCH  13  16
HETATM   16  C11 UNL     1      11.385 -25.636  -9.582  1.00  0.00    -0.010 C 
HETATM   17  C12 UNL     1      10.950 -25.538 -11.030  1.00  0.00     0.017 C 
HETATM   18  C13 UNL     1      11.112 -24.049 -11.270  1.00  0.00    -0.013 C 
HETATM   19  C14 UNL     1      10.161 -23.343 -10.341  1.00  0.00     0.010 C 
HETATM   20  C18 UNL     1      12.434 -23.795 -10.562  1.00  0.00     0.010 C 
HETATM   21  C15 UNL     1      10.674 -23.787  -8.969  1.00  0.00    -0.008 C 
HETATM   22  C16 UNL     1      10.223 -25.219  -8.697  1.00  0.00     0.017 C 
HETATM   23  C17 UNL     1      12.045 -24.355  -9.206  1.00  0.00     0.001 C 
ENDBRANCH  13  16
ENDBRANCH   1  13
TORSDOF 11
ENDMDL
MODEL 5
REMARK VINA RESULT: -6.610220167      4.015      5.586
REMARK  11 active torsions:
REMARK  status: ('A' for Active; 'I' for Inactive)
REMARK    1  A    between atoms: C2_2  and  O2_4 
REMARK    2  A    between atoms: O2_4  and  C3_5 
REMARK    3  A    between atoms: C3_5  and  C4_7 
REMARK    4  A    between atoms: C4_7  and  C5_8 
REMARK    5  A    between atoms: C5_8  and  C6_9 
REMARK    6  A    between atoms: C6_9  and  C7_10 
REMARK    7  A    between atoms: C7_10  and  C8_11 
REMARK    8  A    between atoms: C8_11  and  C9_12 
REMARK    9  A    between atoms: C9_12  and  C10_13 
REMARK   10  A    between atoms: C10_13  and  O4_14 
REMARK   11  A    between atoms: C10_13  and  C11_16 
ROOT
HETATM    1  C9  UNL     1      12.434 -26.926  -7.894  1.00  0.00     0.032 C 
ENDROOT
BRANCH   1   2
HETATM    2  C8  UNL     1      13.400 -28.020  -7.641  1.00  0.00     0.002 C 
BRANCH   2   3
HETATM    3  C7  UNL     1      14.621 -27.689  -6.846  1.00  0.00     0.000 C 
BRANCH   3   4
HETATM    4  C6  UNL     1      15.344 -26.550  -7.535  1.00  0.00     0.000 C 
BRANCH   4   5
HETATM    5  C5  UNL     1      16.656 -27.046  -8.068  1.00  0.00     0.010 C 
BRANCH   5   6
HETATM    6  C4  UNL     1      16.919 -26.709  -9.506  1.00  0.00     0.111 C 
BRANCH   6   7
HETATM    7  C3  UNL     1      17.213 -28.019 -10.187  1.00  0.00     0.266 C 
HETATM    8  O3  UNL     1      17.863 -28.058 -11.253  1.00  0.00    -0.265 OA
BRANCH   7   9
HETATM    9  O2  UNL     1      16.767 -29.222  -9.638  1.00  0.00    -0.245 OA
BRANCH   9  10
HETATM   10  C2  UNL     1      15.511 -29.749  -9.997  1.00  0.00     0.262 C 
HETATM   11  C1  UNL     1      15.061 -31.007  -9.350  1.00  0.00     0.126 C 
HETATM   12  O1  UNL     1      14.846 -29.123 -10.843  1.00  0.00    -0.265 OA
ENDBRANCH   9  10
ENDBRANCH   7   9
ENDBRANCH   6   7
ENDBRANCH   5   6
ENDBRANCH   4   5
ENDBRANCH   3   4
ENDBRANCH   2   3
ENDBRANCH   1   2
BRANCH   1  13
HETATM   13  C10 UNL     1      11.994 -26.841  -9.300  1.00  0.00     0.127 C 
BRANCH  13  14
HETATM   14  O4  UNL     1      13.008 -27.084 -10.190  1.00  0.00    -0.395 OA
ATOM     15  H4  UNL     1      13.432 -26.289 -10.492  1.00  0.00     0.210 HD
ENDBRANCH  13  14
BRANCH  13  16
HETATM   16  C11 UNL     1      11.303 -25.550  -9.647  1.00  0.00    -0.010 C 
HETATM   17  C12 UNL     1      10.909 -25.358 -11.097  1.00  0.00     0.017 C 
HETATM   18  C13 UNL     1      11.095 -23.859 -11.240  1.00  0.00    -0.013 C 
HETATM   19  C14 UNL     1      10.126 -23.200 -10.295  1.00  0.00     0.010 C 
HETATM   20  C18 UNL     1      12.400 -23.666 -10.482  1.00  0.00     0.010 C 
HETATM   21  C15 UNL     1      10.596 -23.734  -8.940  1.00  0.00    -0.008 C 
HETATM   22  C16 UNL     1      10.122 -25.174  -8.770  1.00  0.00     0.017 C 
HETATM   23  C17 UNL     1      11.967 -24.303  -9.175  1.00  0.00     0.001 C 
ENDBRANCH  13  16
ENDBRANCH   1  13
TORSDOF 11
ENDMDL
