MODEL 1
REMARK VINA RESULT: -6.549238521      0.000      0.000
REMARK  9 active torsions:
REMARK  status: ('A' for Active; 'I' for Inactive)
REMARK    1  A    between atoms: C5_8  and  C6_9 
REMARK    2  A    between atoms: C6_9  and  C7_10 
REMARK    3  A    between atoms: C7_10  and  N2_11 
REMARK    4  A    between atoms: N2_11  and  C8_12 
REMARK    5  A    between atoms: N2_11  and  C10_18 
REMARK    6  A    between atoms: C8_12  and  C9_13 
REMARK    7  A    between atoms: C9_13  and  N3_14 
REMARK    8  A    between atoms: C10_18  and  C11_19 
REMARK    9  A    between atoms: N4_24  and  O1_25 
ROOT
HETATM    1  C7  UNL     1      13.298 -28.051  -9.798  1.00  0.00     0.070 C 
ENDROOT
BRANCH   1   2
HETATM    2  C6  UNL     1      14.457 -29.011  -9.627  1.00  0.00     0.123 C 
BRANCH   2   3
HETATM    3  C5  UNL     1      15.753 -28.298  -9.898  1.00  0.00     0.116 A 
HETATM    4  N1  UNL     1      16.103 -27.177  -9.243  1.00  0.00    -0.336 N 
HETATM    5  C4  UNL     1      17.333 -26.822  -9.733  1.00  0.00     0.105 A 
ATOM      6  H1  UNL     1      15.563 -26.690  -8.527  1.00  0.00     0.168 HD
HETATM    7  S1  UNL     1      18.606 -25.691  -9.646  1.00  0.00    -0.081 SA
HETATM    8  C16 UNL     1      17.758 -27.701 -10.681  1.00  0.00     0.104 A 
HETATM    9  C3  UNL     1      19.649 -26.356 -10.814  1.00  0.00     0.061 A 
HETATM   10  C2  UNL     1      18.967 -27.461 -11.248  1.00  0.00    -0.023 A 
HETATM   11  C1  UNL     1      19.589 -28.359 -12.323  1.00  0.00     0.051 C 
HETATM   12  N4  UNL     1      16.734 -28.614 -10.753  1.00  0.00    -0.209 N 
BRANCH  12  13
HETATM   13  O1  UNL     1      16.665 -29.728 -11.576  1.00  0.00    -0.281 OA
ATOM     14  H1  UNL     1      16.957 -30.586 -11.290  1.00  0.00     0.245 HD
ENDBRANCH  12  13
ENDBRANCH   2   3
ENDBRANCH   1   2
BRANCH   1  15
HETATM   15  N2  UNL     1      12.838 -27.414  -8.644  1.00  0.00    -0.371 N 
BRANCH  15  16
HETATM   16  C8  UNL     1      13.120 -27.942  -7.370  1.00  0.00     0.090 C 
BRANCH  16  17
HETATM   17  C9  UNL     1      12.289 -27.202  -6.321  1.00  0.00     0.274 C 
BRANCH  17  18
HETATM   18  N3  UNL     1      12.721 -27.482  -4.974  1.00  0.00    -0.075 N 
ATOM     19  H33 UNL     1      12.121 -28.180  -4.534  1.00  0.00     0.274 HD
ATOM     20  H32 UNL     1      13.602 -27.995  -4.970  1.00  0.00     0.274 HD
ATOM     21  H31 UNL     1      12.784 -26.641  -4.400  1.00  0.00     0.274 HD
ENDBRANCH  17  18
ENDBRANCH  16  17
ENDBRANCH  15  16
BRANCH  15  22
HETATM   22  C10 UNL     1      12.680 -25.989  -8.708  1.00  0.00     0.131 C 
BRANCH  22  23
HETATM   23  C11 UNL     1      11.559 -25.622  -9.659  1.00  0.00     0.004 C 
HETATM   24  C12 UNL     1      10.463 -24.889  -8.914  1.00  0.00     0.006 C 
HETATM   25  C13 UNL     1      10.289 -23.568  -9.593  1.00  0.00     0.000 C 
HETATM   26  C14 UNL     1      11.562 -23.315 -10.358  1.00  0.00     0.000 C 
HETATM   27  C15 UNL     1      12.010 -24.695 -10.763  1.00  0.00     0.006 C 
ENDBRANCH  22  23
ENDBRANCH  15  22
ENDBRANCH   1  15
TORSDOF 9
ENDMDL
MODEL 2
REMARK VINA RESULT: -6.508066669      1.422      1.821
REMARK  9 active torsions:
REMARK  status: ('A' for Active; 'I' for Inactive)
REMARK    1  A    between atoms: C5_8  and  C6_9 
REMARK    2  A    between atoms: C6_9  and  C7_10 
REMARK    3  A    between atoms: C7_10  and  N2_11 
REMARK    4  A    between atoms: N2_11  and  C8_12 
REMARK    5  A    between atoms: N2_11  and  C10_18 
REMARK    6  A    between atoms: C8_12  and  C9_13 
REMARK    7  A    between atoms: C9_13  and  N3_14 
REMARK    8  A    between atoms: C10_18  and  C11_19 
REMARK    9  A    between atoms: N4_24  and  O1_25 
ROOT
HETATM    1  C7  UNL     1      13.114 -28.002  -9.453  1.00  0.00     0.070 C 
ENDROOT
BRANCH   1   2
HETATM    2  C6  UNL     1      14.215 -28.962  -9.049  1.00  0.00     0.123 C 
BRANCH   2   3
HETATM    3  C5  UNL     1      15.534 -28.477  -9.582  1.00  0.00     0.116 A 
HETATM    4  N1  UNL     1      16.175 -29.104 -10.584  1.00  0.00    -0.336 N 
HETATM    5  C4  UNL     1      17.319 -28.384 -10.811  1.00  0.00     0.105 A 
ATOM      6  H1  UNL     1      15.871 -29.945 -11.077  1.00  0.00     0.168 HD
HETATM    7  S1  UNL     1      18.739 -28.262 -11.746  1.00  0.00    -0.081 SA
HETATM    8  C16 UNL     1      17.405 -27.318  -9.969  1.00  0.00     0.104 A 
HETATM    9  C3  UNL     1      19.412 -26.863 -11.049  1.00  0.00     0.061 A 
HETATM   10  C2  UNL     1      18.496 -26.521 -10.089  1.00  0.00    -0.023 A 
HETATM   11  C1  UNL     1      18.736 -25.280  -9.223  1.00  0.00     0.051 C 
HETATM   12  N4  UNL     1      16.261 -27.414  -9.213  1.00  0.00    -0.209 N 
BRANCH  12  13
HETATM   13  O1  UNL     1      15.859 -26.563  -8.196  1.00  0.00    -0.281 OA
ATOM     14  H1  UNL     1      15.004 -26.633  -7.787  1.00  0.00     0.245 HD
ENDBRANCH  12  13
ENDBRANCH   2   3
ENDBRANCH   1   2
BRANCH   1  15
HETATM   15  N2  UNL     1      12.616 -27.166  -8.452  1.00  0.00    -0.371 N 
BRANCH  15  16
HETATM   16  C8  UNL     1      12.767 -27.502  -7.094  1.00  0.00     0.090 C 
BRANCH  16  17
HETATM   17  C9  UNL     1      11.639 -26.857  -6.285  1.00  0.00     0.274 C 
BRANCH  17  18
HETATM   18  N3  UNL     1      11.774 -27.083  -4.868  1.00  0.00    -0.075 N 
ATOM     19  H33 UNL     1      11.169 -27.844  -4.559  1.00  0.00     0.274 HD
ATOM     20  H32 UNL     1      12.681 -27.494  -4.647  1.00  0.00     0.274 HD
ATOM     21  H31 UNL     1      11.611 -26.239  -4.318  1.00  0.00     0.274 HD
ENDBRANCH  17  18
ENDBRANCH  16  17
ENDBRANCH  15  16
BRANCH  15  22
HETATM   22  C10 UNL     1      12.560 -25.763  -8.746  1.00  0.00     0.131 C 
BRANCH  22  23
HETATM   23  C11 UNL     1      11.413 -25.464  -9.690  1.00  0.00     0.004 C 
HETATM   24  C12 UNL     1      10.339 -24.675  -8.970  1.00  0.00     0.006 C 
HETATM   25  C13 UNL     1      10.146 -23.407  -9.739  1.00  0.00     0.000 C 
HETATM   26  C14 UNL     1      11.397 -23.214 -10.555  1.00  0.00     0.000 C 
HETATM   27  C15 UNL     1      11.833 -24.620 -10.871  1.00  0.00     0.006 C 
ENDBRANCH  22  23
ENDBRANCH  15  22
ENDBRANCH   1  15
TORSDOF 9
ENDMDL
MODEL 3
REMARK VINA RESULT: -6.288888719      3.975      6.964
REMARK  9 active torsions:
REMARK  status: ('A' for Active; 'I' for Inactive)
REMARK    1  A    between atoms: C5_8  and  C6_9 
REMARK    2  A    between atoms: C6_9  and  C7_10 
REMARK    3  A    between atoms: C7_10  and  N2_11 
REMARK    4  A    between atoms: N2_11  and  C8_12 
REMARK    5  A    between atoms: N2_11  and  C10_18 
REMARK    6  A    between atoms: C8_12  and  C9_13 
REMARK    7  A    between atoms: C9_13  and  N3_14 
REMARK    8  A    between atoms: C10_18  and  C11_19 
REMARK    9  A    between atoms: N4_24  and  O1_25 
ROOT
HETATM    1  C7  UNL     1      12.746 -27.597  -7.651  1.00  0.00     0.070 C 
ENDROOT
BRANCH   1   2
HETATM    2  C6  UNL     1      11.912 -26.776  -6.690  1.00  0.00     0.123 C 
BRANCH   2   3
HETATM    3  C5  UNL     1      12.133 -27.260  -5.283  1.00  0.00     0.116 A 
HETATM    4  N1  UNL     1      13.349 -27.615  -4.832  1.00  0.00    -0.336 N 
HETATM    5  C4  UNL     1      13.173 -27.985  -3.523  1.00  0.00     0.105 A 
ATOM      6  H1  UNL     1      14.224 -27.611  -5.357  1.00  0.00     0.168 HD
HETATM    7  S1  UNL     1      13.938 -28.554  -2.111  1.00  0.00    -0.081 SA
HETATM    8  C16 UNL     1      11.870 -27.866  -3.149  1.00  0.00     0.104 A 
HETATM    9  C3  UNL     1      12.590 -28.631  -1.076  1.00  0.00     0.061 A 
HETATM   10  C2  UNL     1      11.561 -28.202  -1.872  1.00  0.00    -0.023 A 
HETATM   11  C1  UNL     1      10.144 -28.117  -1.294  1.00  0.00     0.051 C 
HETATM   12  N4  UNL     1      11.251 -27.407  -4.287  1.00  0.00    -0.209 N 
BRANCH  12  13
HETATM   13  O1  UNL     1       9.904 -27.117  -4.445  1.00  0.00    -0.281 OA
ATOM     14  H1  UNL     1       9.595 -26.239  -4.635  1.00  0.00     0.245 HD
ENDBRANCH  12  13
ENDBRANCH   2   3
ENDBRANCH   1   2
BRANCH   1  15
HETATM   15  N2  UNL     1      13.110 -26.977  -8.849  1.00  0.00    -0.371 N 
BRANCH  15  16
HETATM   16  C8  UNL     1      13.133 -27.702 -10.055  1.00  0.00     0.090 C 
BRANCH  16  17
HETATM   17  C9  UNL     1      13.905 -29.006  -9.846  1.00  0.00     0.274 C 
BRANCH  17  18
HETATM   18  N3  UNL     1      15.291 -28.897 -10.229  1.00  0.00    -0.075 N 
ATOM     19  H33 UNL     1      15.865 -29.575  -9.726  1.00  0.00     0.274 HD
ATOM     20  H32 UNL     1      15.436 -29.232 -11.181  1.00  0.00     0.274 HD
ATOM     21  H31 UNL     1      15.657 -27.951 -10.114  1.00  0.00     0.274 HD
ENDBRANCH  17  18
ENDBRANCH  16  17
ENDBRANCH  15  16
BRANCH  15  22
HETATM   22  C10 UNL     1      12.824 -25.576  -8.968  1.00  0.00     0.131 C 
BRANCH  22  23
HETATM   23  C11 UNL     1      11.641 -25.351  -9.886  1.00  0.00     0.004 C 
HETATM   24  C12 UNL     1      10.466 -24.810  -9.098  1.00  0.00     0.006 C 
HETATM   25  C13 UNL     1      10.083 -23.511  -9.731  1.00  0.00     0.000 C 
HETATM   26  C14 UNL     1      11.287 -23.050 -10.511  1.00  0.00     0.000 C 
HETATM   27  C15 UNL     1      11.925 -24.336 -10.968  1.00  0.00     0.006 C 
ENDBRANCH  22  23
ENDBRANCH  15  22
ENDBRANCH   1  15
TORSDOF 9
ENDMDL
MODEL 4
REMARK VINA RESULT: -6.211115604      0.632      1.101
REMARK  9 active torsions:
REMARK  status: ('A' for Active; 'I' for Inactive)
REMARK    1  A    between atoms: C5_8  and  C6_9 
REMARK    2  A    between atoms: C6_9  and  C7_10 
REMARK    3  A    between atoms: C7_10  and  N2_11 
REMARK    4  A    between atoms: N2_11  and  C8_12 
REMARK    5  A    between atoms: N2_11  and  C10_18 
REMARK    6  A    between atoms: C8_12  and  C9_13 
REMARK    7  A    between atoms: C9_13  and  N3_14 
REMARK    8  A    between atoms: C10_18  and  C11_19 
REMARK    9  A    between atoms: N4_24  and  O1_25 
ROOT
HETATM    1  C7  UNL     1      13.460 -27.925  -9.972  1.00  0.00     0.070 C 
ENDROOT
BRANCH   1   2
HETATM    2  C6  UNL     1      14.610 -28.701  -9.364  1.00  0.00     0.123 C 
BRANCH   2   3
HETATM    3  C5  UNL     1      15.913 -28.039  -9.717  1.00  0.00     0.116 A 
HETATM    4  N1  UNL     1      16.343 -26.928  -9.094  1.00  0.00    -0.336 N 
HETATM    5  C4  UNL     1      17.555 -26.623  -9.659  1.00  0.00     0.105 A 
ATOM      6  H1  UNL     1      15.865 -26.416  -8.352  1.00  0.00     0.168 HD
HETATM    7  S1  UNL     1      18.871 -25.541  -9.657  1.00  0.00    -0.081 SA
HETATM    8  C16 UNL     1      17.889 -27.523 -10.622  1.00  0.00     0.104 A 
HETATM    9  C3  UNL     1      19.818 -26.252 -10.878  1.00  0.00     0.061 A 
HETATM   10  C2  UNL     1      19.071 -27.334 -11.262  1.00  0.00    -0.023 A 
HETATM   11  C1  UNL     1      19.594 -28.262 -12.363  1.00  0.00     0.051 C 
HETATM   12  N4  UNL     1      16.829 -28.397 -10.626  1.00  0.00    -0.209 N 
BRANCH  12  13
HETATM   13  O1  UNL     1      16.670 -29.513 -11.433  1.00  0.00    -0.281 OA
ATOM     14  H1  UNL     1      16.508 -29.443 -12.367  1.00  0.00     0.245 HD
ENDBRANCH  12  13
ENDBRANCH   2   3
ENDBRANCH   1   2
BRANCH   1  15
HETATM   15  N2  UNL     1      12.682 -27.168  -9.093  1.00  0.00    -0.371 N 
BRANCH  15  16
HETATM   16  C8  UNL     1      13.225 -26.683  -7.889  1.00  0.00     0.090 C 
BRANCH  16  17
HETATM   17  C9  UNL     1      12.686 -27.512  -6.721  1.00  0.00     0.274 C 
BRANCH  17  18
HETATM   18  N3  UNL     1      11.588 -26.867  -6.044  1.00  0.00    -0.075 N 
ATOM     19  H33 UNL     1      11.325 -27.380  -5.203  1.00  0.00     0.274 HD
ATOM     20  H32 UNL     1      11.886 -25.990  -5.616  1.00  0.00     0.274 HD
ATOM     21  H31 UNL     1      10.782 -26.723  -6.652  1.00  0.00     0.274 HD
ENDBRANCH  17  18
ENDBRANCH  16  17
ENDBRANCH  15  16
BRANCH  15  22
HETATM   22  C10 UNL     1      11.635 -26.375  -9.670  1.00  0.00     0.131 C 
BRANCH  22  23
HETATM   23  C11 UNL     1      11.721 -24.944  -9.180  1.00  0.00     0.004 C 
HETATM   24  C12 UNL     1      12.211 -24.041 -10.293  1.00  0.00     0.006 C 
HETATM   25  C13 UNL     1      11.168 -22.986 -10.483  1.00  0.00     0.000 C 
HETATM   26  C14 UNL     1       9.898 -23.536  -9.890  1.00  0.00     0.000 C 
HETATM   27  C15 UNL     1      10.382 -24.392  -8.749  1.00  0.00     0.006 C 
ENDBRANCH  22  23
ENDBRANCH  15  22
ENDBRANCH   1  15
TORSDOF 9
ENDMDL
MODEL 5
REMARK VINA RESULT: -6.179235134      1.833      2.375
REMARK  9 active torsions:
REMARK  status: ('A' for Active; 'I' for Inactive)
REMARK    1  A    between atoms: C5_8  and  C6_9 
REMARK    2  A    between atoms: C6_9  and  C7_10 
REMARK    3  A    between atoms: C7_10  and  N2_11 
REMARK    4  A    between atoms: N2_11  and  C8_12 
REMARK    5  A    between atoms: N2_11  and  C10_18 
REMARK    6  A    between atoms: C8_12  and  C9_13 
REMARK    7  A    between atoms: C9_13  and  N3_14 
REMARK    8  A    between atoms: C10_18  and  C11_19 
REMARK    9  A    between atoms: N4_24  and  O1_25 
ROOT
HETATM    1  C7  UNL     1      14.481 -27.980 -10.024  1.00  0.00     0.070 C 
ENDROOT
BRANCH   1   2
HETATM    2  C6  UNL     1      15.803 -28.568  -9.575  1.00  0.00     0.123 C 
BRANCH   2   3
HETATM    3  C5  UNL     1      16.886 -27.530  -9.682  1.00  0.00     0.116 A 
HETATM    4  N1  UNL     1      17.681 -27.436 -10.762  1.00  0.00    -0.336 N 
HETATM    5  C4  UNL     1      18.526 -26.384 -10.518  1.00  0.00     0.105 A 
ATOM      6  H1  UNL     1      17.661 -28.027 -11.594  1.00  0.00     0.168 HD
HETATM    7  S1  UNL     1      19.815 -25.449 -11.125  1.00  0.00    -0.081 SA
HETATM    8  C16 UNL     1      18.272 -25.819  -9.306  1.00  0.00     0.104 A 
HETATM    9  C3  UNL     1      20.006 -24.363  -9.830  1.00  0.00     0.061 A 
HETATM   10  C2  UNL     1      19.042 -24.763  -8.943  1.00  0.00    -0.023 A 
HETATM   11  C1  UNL     1      18.878 -24.014  -7.616  1.00  0.00     0.051 C 
HETATM   12  N4  UNL     1      17.232 -26.571  -8.814  1.00  0.00    -0.209 N 
BRANCH  12  13
HETATM   13  O1  UNL     1      16.588 -26.410  -7.597  1.00  0.00    -0.281 OA
ATOM     14  H1  UNL     1      16.557 -25.573  -7.149  1.00  0.00     0.245 HD
ENDBRANCH  12  13
ENDBRANCH   2   3
ENDBRANCH   1   2
BRANCH   1  15
HETATM   15  N2  UNL     1      13.587 -27.611  -9.016  1.00  0.00    -0.371 N 
BRANCH  15  16
HETATM   16  C8  UNL     1      13.497 -28.357  -7.827  1.00  0.00     0.090 C 
BRANCH  16  17
HETATM   17  C9  UNL     1      13.372 -27.401  -6.639  1.00  0.00     0.274 C 
BRANCH  17  18
HETATM   18  N3  UNL     1      14.470 -27.523  -5.712  1.00  0.00    -0.075 N 
ATOM     19  H33 UNL     1      15.353 -27.654  -6.205  1.00  0.00     0.274 HD
ATOM     20  H32 UNL     1      14.665 -26.632  -5.256  1.00  0.00     0.274 HD
ATOM     21  H31 UNL     1      14.322 -28.262  -5.023  1.00  0.00     0.274 HD
ENDBRANCH  17  18
ENDBRANCH  16  17
ENDBRANCH  15  16
BRANCH  15  22
HETATM   22  C10 UNL     1      13.278 -26.214  -8.902  1.00  0.00     0.131 C 
BRANCH  22  23
HETATM   23  C11 UNL     1      12.056 -25.872  -9.730  1.00  0.00     0.004 C 
HETATM   24  C12 UNL     1      10.966 -25.311  -8.840  1.00  0.00     0.006 C 
HETATM   25  C13 UNL     1      10.624 -23.958  -9.378  1.00  0.00     0.000 C 
HETATM   26  C14 UNL     1      11.802 -23.524 -10.209  1.00  0.00     0.000 C 
HETATM   27  C15 UNL     1      12.333 -24.815 -10.772  1.00  0.00     0.006 C 
ENDBRANCH  22  23
ENDBRANCH  15  22
ENDBRANCH   1  15
TORSDOF 9
ENDMDL
