MODEL 1
REMARK VINA RESULT: -6.322660659      0.000      0.000
REMARK  7 active torsions:
REMARK  status: ('A' for Active; 'I' for Inactive)
REMARK    1  A    between atoms: C2_2  and  C3_4 
REMARK    2  A    between atoms: C4_5  and  C5_6 
REMARK    3  A    between atoms: C5_6  and  C6_7 
REMARK    4  A    between atoms: C12_13  and  O2_14 
REMARK    5  A    between atoms: C12_13  and  C13_16 
REMARK    6  A    between atoms: C13_16  and  C14_17 
REMARK    7  A    between atoms: C14_17  and  C15_18 
ROOT
HETATM    1  C5  UNL     1      15.442 -28.776  -7.313  1.00  0.00     0.095 C 
HETATM    2  C10 UNL     1      14.911 -27.453  -6.724  1.00  0.00     0.047 C 
HETATM    3  C11 UNL     1      14.540 -26.451  -7.778  1.00  0.00     0.052 C 
HETATM    4  C12 UNL     1      13.276 -26.952  -8.463  1.00  0.00     0.146 C 
HETATM    5  C16 UNL     1      13.553 -28.333  -8.875  1.00  0.00     0.294 C 
HETATM    6  O5  UNL     1      13.072 -28.710  -9.993  1.00  0.00    -0.262 OA
HETATM    7  O6  UNL     1      14.286 -29.197  -8.119  1.00  0.00    -0.303 OA
ENDROOT
BRANCH   1   8
HETATM    8  C4  UNL     1      16.519 -28.599  -8.251  1.00  0.00     0.016 C 
HETATM    9  C3  UNL     1      17.204 -29.503  -9.141  1.00  0.00     0.048 C 
BRANCH   9  10
HETATM   10  C2  UNL     1      16.530 -30.177 -10.255  1.00  0.00     0.145 C 
HETATM   11  C1  UNL     1      16.316 -31.651 -10.324  1.00  0.00     0.096 C 
HETATM   12  O1  UNL     1      16.067 -29.586 -11.252  1.00  0.00    -0.294 OA
ENDBRANCH   9  10
ENDBRANCH   1   8
BRANCH   1  13
HETATM   13  C6  UNL     1      15.441 -29.739  -6.190  1.00  0.00    -0.016 C 
HETATM   14  C7  UNL     1      16.659 -29.942  -5.373  1.00  0.00     0.018 C 
HETATM   15  C8  UNL     1      14.321 -29.357  -5.172  1.00  0.00     0.018 C 
HETATM   16  C9  UNL     1      15.012 -31.146  -6.631  1.00  0.00     0.018 C 
ENDBRANCH   1  13
BRANCH   4  17
HETATM   17  O2  UNL     1      12.271 -26.971  -7.456  1.00  0.00    -0.380 OA
ATOM     18  H2  UNL     1      11.594 -26.374  -7.755  1.00  0.00     0.211 HD
ENDBRANCH   4  17
BRANCH   4  19
HETATM   19  C13 UNL     1      12.797 -26.035  -9.534  1.00  0.00     0.059 C 
BRANCH  19  20
HETATM   20  C14 UNL     1      11.325 -25.701  -9.461  1.00  0.00     0.116 C 
BRANCH  20  21
HETATM   21  C15 UNL     1      11.094 -24.247  -9.384  1.00  0.00     0.172 C 
HETATM   22  O3  UNL     1      12.017 -23.446  -9.661  1.00  0.00    -0.648 OA
HETATM   23  O4  UNL     1       9.856 -23.725  -9.009  1.00  0.00    -0.648 OA
ENDBRANCH  20  21
ENDBRANCH  19  20
ENDBRANCH   4  19
TORSDOF 7
ENDMDL
MODEL 2
REMARK VINA RESULT: -6.230942393      1.288      1.516
REMARK  7 active torsions:
REMARK  status: ('A' for Active; 'I' for Inactive)
REMARK    1  A    between atoms: C2_2  and  C3_4 
REMARK    2  A    between atoms: C4_5  and  C5_6 
REMARK    3  A    between atoms: C5_6  and  C6_7 
REMARK    4  A    between atoms: C12_13  and  O2_14 
REMARK    5  A    between atoms: C12_13  and  C13_16 
REMARK    6  A    between atoms: C13_16  and  C14_17 
REMARK    7  A    between atoms: C14_17  and  C15_18 
ROOT
HETATM    1  C5  UNL     1      15.980 -27.804  -8.117  1.00  0.00     0.095 C 
HETATM    2  C10 UNL     1      15.129 -26.715  -7.433  1.00  0.00     0.047 C 
HETATM    3  C11 UNL     1      14.116 -26.099  -8.353  1.00  0.00     0.052 C 
HETATM    4  C12 UNL     1      13.037 -27.142  -8.612  1.00  0.00     0.146 C 
HETATM    5  C16 UNL     1      13.738 -28.355  -9.051  1.00  0.00     0.294 C 
HETATM    6  O5  UNL     1      13.177 -29.048  -9.962  1.00  0.00    -0.262 OA
HETATM    7  O6  UNL     1      14.931 -28.750  -8.527  1.00  0.00    -0.303 OA
ENDROOT
BRANCH   1   8
HETATM    8  C4  UNL     1      16.600 -27.366  -9.340  1.00  0.00     0.016 C 
HETATM    9  C3  UNL     1      17.566 -27.973 -10.222  1.00  0.00     0.048 C 
BRANCH   9  10
HETATM   10  C2  UNL     1      17.291 -29.206 -10.966  1.00  0.00     0.145 C 
HETATM   11  C1  UNL     1      18.311 -30.265 -11.219  1.00  0.00     0.096 C 
HETATM   12  O1  UNL     1      16.180 -29.493 -11.457  1.00  0.00    -0.294 OA
ENDBRANCH   9  10
ENDBRANCH   1   8
BRANCH   1  13
HETATM   13  C6  UNL     1      16.671 -28.516  -7.020  1.00  0.00    -0.016 C 
HETATM   14  C7  UNL     1      18.021 -28.095  -6.583  1.00  0.00     0.018 C 
HETATM   15  C8  UNL     1      15.789 -28.477  -5.732  1.00  0.00     0.018 C 
HETATM   16  C9  UNL     1      16.785 -30.025  -7.288  1.00  0.00     0.018 C 
ENDBRANCH   1  13
BRANCH   4  17
HETATM   17  O2  UNL     1      12.433 -27.398  -7.350  1.00  0.00    -0.380 OA
ATOM     18  H2  UNL     1      12.749 -28.252  -7.080  1.00  0.00     0.211 HD
ENDBRANCH   4  17
BRANCH   4  19
HETATM   19  C13 UNL     1      11.960 -26.648  -9.514  1.00  0.00     0.059 C 
BRANCH  19  20
HETATM   20  C14 UNL     1      11.912 -25.146  -9.668  1.00  0.00     0.116 C 
BRANCH  20  21
HETATM   21  C15 UNL     1      10.815 -24.548  -8.887  1.00  0.00     0.172 C 
HETATM   22  O3  UNL     1      10.173 -25.243  -8.065  1.00  0.00    -0.648 OA
HETATM   23  O4  UNL     1      10.463 -23.205  -9.033  1.00  0.00    -0.648 OA
ENDBRANCH  20  21
ENDBRANCH  19  20
ENDBRANCH   4  19
TORSDOF 7
ENDMDL
MODEL 3
REMARK VINA RESULT: -6.062159262      2.053      2.740
REMARK  7 active torsions:
REMARK  status: ('A' for Active; 'I' for Inactive)
REMARK    1  A    between atoms: C2_2  and  C3_4 
REMARK    2  A    between atoms: C4_5  and  C5_6 
REMARK    3  A    between atoms: C5_6  and  C6_7 
REMARK    4  A    between atoms: C12_13  and  O2_14 
REMARK    5  A    between atoms: C12_13  and  C13_16 
REMARK    6  A    between atoms: C13_16  and  C14_17 
REMARK    7  A    between atoms: C14_17  and  C15_18 
ROOT
HETATM    1  C5  UNL     1      16.002 -27.858  -8.061  1.00  0.00     0.095 C 
HETATM    2  C10 UNL     1      15.156 -26.741  -7.417  1.00  0.00     0.047 C 
HETATM    3  C11 UNL     1      14.167 -26.134  -8.368  1.00  0.00     0.052 C 
HETATM    4  C12 UNL     1      13.077 -27.168  -8.620  1.00  0.00     0.146 C 
HETATM    5  C16 UNL     1      13.767 -28.400  -9.017  1.00  0.00     0.294 C 
HETATM    6  O5  UNL     1      13.211 -29.108  -9.920  1.00  0.00    -0.262 OA
HETATM    7  O6  UNL     1      14.947 -28.799  -8.464  1.00  0.00    -0.303 OA
ENDROOT
BRANCH   1   8
HETATM    8  C4  UNL     1      16.648 -27.460  -9.284  1.00  0.00     0.016 C 
HETATM    9  C3  UNL     1      17.407 -26.292  -9.657  1.00  0.00     0.048 C 
BRANCH   9  10
HETATM   10  C2  UNL     1      18.688 -25.949  -9.032  1.00  0.00     0.145 C 
HETATM   11  C1  UNL     1      19.033 -24.582  -8.547  1.00  0.00     0.096 C 
HETATM   12  O1  UNL     1      19.612 -26.765  -8.841  1.00  0.00    -0.294 OA
ENDBRANCH   9  10
ENDBRANCH   1   8
BRANCH   1  13
HETATM   13  C6  UNL     1      16.665 -28.553  -6.936  1.00  0.00    -0.016 C 
HETATM   14  C7  UNL     1      17.771 -29.504  -7.186  1.00  0.00     0.018 C 
HETATM   15  C8  UNL     1      17.243 -27.502  -5.937  1.00  0.00     0.018 C 
HETATM   16  C9  UNL     1      15.664 -29.319  -6.056  1.00  0.00     0.018 C 
ENDBRANCH   1  13
BRANCH   4  17
HETATM   17  O2  UNL     1      12.449 -27.383  -7.361  1.00  0.00    -0.380 OA
ATOM     18  H2  UNL     1      12.277 -26.519  -7.007  1.00  0.00     0.211 HD
ENDBRANCH   4  17
BRANCH   4  19
HETATM   19  C13 UNL     1      12.022 -26.681  -9.550  1.00  0.00     0.059 C 
BRANCH  19  20
HETATM   20  C14 UNL     1      11.970 -25.179  -9.708  1.00  0.00     0.116 C 
BRANCH  20  21
HETATM   21  C15 UNL     1      10.872 -24.582  -8.927  1.00  0.00     0.172 C 
HETATM   22  O3  UNL     1      10.216 -25.283  -8.122  1.00  0.00    -0.648 OA
HETATM   23  O4  UNL     1      10.535 -23.234  -9.057  1.00  0.00    -0.648 OA
ENDBRANCH  20  21
ENDBRANCH  19  20
ENDBRANCH   4  19
TORSDOF 7
ENDMDL
MODEL 4
REMARK VINA RESULT: -5.900926469      1.834      3.170
REMARK  7 active torsions:
REMARK  status: ('A' for Active; 'I' for Inactive)
REMARK    1  A    between atoms: C2_2  and  C3_4 
REMARK    2  A    between atoms: C4_5  and  C5_6 
REMARK    3  A    between atoms: C5_6  and  C6_7 
REMARK    4  A    between atoms: C12_13  and  O2_14 
REMARK    5  A    between atoms: C12_13  and  C13_16 
REMARK    6  A    between atoms: C13_16  and  C14_17 
REMARK    7  A    between atoms: C14_17  and  C15_18 
ROOT
HETATM    1  C5  UNL     1      15.767 -29.094  -9.259  1.00  0.00     0.095 C 
HETATM    2  C10 UNL     1      14.700 -28.762 -10.322  1.00  0.00     0.047 C 
HETATM    3  C11 UNL     1      13.373 -28.396  -9.724  1.00  0.00     0.052 C 
HETATM    4  C12 UNL     1      13.523 -27.026  -9.076  1.00  0.00     0.146 C 
HETATM    5  C16 UNL     1      14.690 -27.119  -8.191  1.00  0.00     0.294 C 
HETATM    6  O5  UNL     1      14.623 -26.495  -7.081  1.00  0.00    -0.262 OA
HETATM    7  O6  UNL     1      15.807 -27.829  -8.511  1.00  0.00    -0.303 OA
ENDROOT
BRANCH   1   8
HETATM    8  C4  UNL     1      15.344 -30.087  -8.308  1.00  0.00     0.016 C 
HETATM    9  C3  UNL     1      14.997 -31.482  -8.434  1.00  0.00     0.048 C 
BRANCH   9  10
HETATM   10  C2  UNL     1      15.961 -32.500  -8.859  1.00  0.00     0.145 C 
HETATM   11  C1  UNL     1      15.824 -33.300 -10.110  1.00  0.00     0.096 C 
HETATM   12  O1  UNL     1      16.992 -32.796  -8.220  1.00  0.00    -0.294 OA
ENDBRANCH   9  10
ENDBRANCH   1   8
BRANCH   1  13
HETATM   13  C6  UNL     1      17.058 -29.103  -9.981  1.00  0.00    -0.016 C 
HETATM   14  C7  UNL     1      18.266 -29.686  -9.355  1.00  0.00     0.018 C 
HETATM   15  C8  UNL     1      16.894 -29.855 -11.340  1.00  0.00     0.018 C 
HETATM   16  C9  UNL     1      17.477 -27.697 -10.438  1.00  0.00     0.018 C 
ENDBRANCH   1  13
BRANCH   4  17
HETATM   17  O2  UNL     1      13.827 -26.127 -10.136  1.00  0.00    -0.380 OA
ATOM     18  H2  UNL     1      13.556 -25.269  -9.832  1.00  0.00     0.211 HD
ENDBRANCH   4  17
BRANCH   4  19
HETATM   19  C13 UNL     1      12.263 -26.543  -8.448  1.00  0.00     0.059 C 
BRANCH  19  20
HETATM   20  C14 UNL     1      11.257 -25.971  -9.420  1.00  0.00     0.116 C 
BRANCH  20  21
HETATM   21  C15 UNL     1      11.113 -24.513  -9.267  1.00  0.00     0.172 C 
HETATM   22  O3  UNL     1      12.072 -23.752  -9.533  1.00  0.00    -0.648 OA
HETATM   23  O4  UNL     1       9.917 -23.941  -8.829  1.00  0.00    -0.648 OA
ENDBRANCH  20  21
ENDBRANCH  19  20
ENDBRANCH   4  19
TORSDOF 7
ENDMDL
MODEL 5
REMARK VINA RESULT: -5.875487919      1.487      1.817
REMARK  7 active torsions:
REMARK  status: ('A' for Active; 'I' for Inactive)
REMARK    1  A    between atoms: C2_2  and  C3_4 
REMARK    2  A    between atoms: C4_5  and  C5_6 
REMARK    3  A    between atoms: C5_6  and  C6_7 
REMARK    4  A    between atoms: C12_13  and  O2_14 
REMARK    5  A    between atoms: C12_13  and  C13_16 
REMARK    6  A    between atoms: C13_16  and  C14_17 
REMARK    7  A    between atoms: C14_17  and  C15_18 
ROOT
HETATM    1  C5  UNL     1      16.296 -27.821  -8.311  1.00  0.00     0.095 C 
HETATM    2  C10 UNL     1      15.448 -26.883  -7.428  1.00  0.00     0.047 C 
HETATM    3  C11 UNL     1      14.290 -26.275  -8.163  1.00  0.00     0.052 C 
HETATM    4  C12 UNL     1      13.273 -27.381  -8.413  1.00  0.00     0.146 C 
HETATM    5  C16 UNL     1      14.010 -28.479  -9.049  1.00  0.00     0.294 C 
HETATM    6  O5  UNL     1      13.403 -29.129  -9.962  1.00  0.00    -0.262 OA
HETATM    7  O6  UNL     1      15.284 -28.813  -8.702  1.00  0.00    -0.303 OA
ENDROOT
BRANCH   1   8
HETATM    8  C4  UNL     1      16.733 -27.215  -9.541  1.00  0.00     0.016 C 
HETATM    9  C3  UNL     1      17.860 -27.457 -10.408  1.00  0.00     0.048 C 
BRANCH   9  10
HETATM   10  C2  UNL     1      18.046 -28.721 -11.127  1.00  0.00     0.145 C 
HETATM   11  C1  UNL     1      16.938 -29.671 -11.434  1.00  0.00     0.096 C 
HETATM   12  O1  UNL     1      19.147 -29.125 -11.555  1.00  0.00    -0.294 OA
ENDBRANCH   9  10
ENDBRANCH   1   8
BRANCH   1  13
HETATM   13  C6  UNL     1      17.163 -28.570  -7.376  1.00  0.00    -0.016 C 
HETATM   14  C7  UNL     1      18.528 -28.088  -7.065  1.00  0.00     0.018 C 
HETATM   15  C8  UNL     1      16.451 -28.707  -5.994  1.00  0.00     0.018 C 
HETATM   16  C9  UNL     1      17.339 -30.038  -7.796  1.00  0.00     0.018 C 
ENDBRANCH   1  13
BRANCH   4  17
HETATM   17  O2  UNL     1      12.842 -27.809  -7.126  1.00  0.00    -0.380 OA
ATOM     18  H2  UNL     1      13.431 -27.396  -6.506  1.00  0.00     0.211 HD
ENDBRANCH   4  17
BRANCH   4  19
HETATM   19  C13 UNL     1      12.063 -26.901  -9.136  1.00  0.00     0.059 C 
BRANCH  19  20
HETATM   20  C14 UNL     1      11.285 -25.828  -8.411  1.00  0.00     0.116 C 
BRANCH  20  21
HETATM   21  C15 UNL     1      10.826 -24.768  -9.327  1.00  0.00     0.172 C 
HETATM   22  O3  UNL     1      11.284 -24.698 -10.491  1.00  0.00    -0.648 OA
HETATM   23  O4  UNL     1       9.878 -23.824  -8.932  1.00  0.00    -0.648 OA
ENDBRANCH  20  21
ENDBRANCH  19  20
ENDBRANCH   4  19
TORSDOF 7
ENDMDL
