MODEL 1
REMARK VINA RESULT: -6.599597121      0.000      0.000
REMARK  8 active torsions:
REMARK  status: ('A' for Active; 'I' for Inactive)
REMARK    1  A    between atoms: C2_2  and  C3_3 
REMARK    2  A    between atoms: C3_3  and  C4_4 
REMARK    3  A    between atoms: C4_4  and  C5_5 
REMARK    4  A    between atoms: C5_5  and  C6_6 
REMARK    5  A    between atoms: C6_6  and  C7_7 
REMARK    6  A    between atoms: C7_7  and  C8_9 
REMARK    7  A    between atoms: C15_19  and  C16_20 
REMARK    8  A    between atoms: C16_20  and  O3_22 
ROOT
HETATM    1  C8  UNL     1      15.153 -27.679  -8.523  1.00  0.00     0.298 C 
HETATM    2  N1  UNL     1      15.762 -28.869  -7.950  1.00  0.00    -0.324 N 
ATOM      3  H1  UNL     1      15.478 -29.367  -7.106  1.00  0.00     0.165 HD
HETATM    4  C9  UNL     1      16.838 -29.187  -8.822  1.00  0.00     0.283 C 
HETATM    5  O2  UNL     1      17.459 -30.264  -8.879  1.00  0.00    -0.267 OA
HETATM    6  C10 UNL     1      17.051 -27.941  -9.654  1.00  0.00     0.250 C 
HETATM    7  C11 UNL     1      17.719 -26.967  -8.758  1.00  0.00     0.080 C 
HETATM    8  C12 UNL     1      19.201 -26.967  -9.073  1.00  0.00     0.013 C 
HETATM    9  C13 UNL     1      19.272 -26.513 -10.533  1.00  0.00     0.013 C 
HETATM   10  C14 UNL     1      18.585 -25.171 -10.602  1.00  0.00     0.012 C 
HETATM   11  C15 UNL     1      18.621 -27.564 -11.361  1.00  0.00     0.157 C 
HETATM   12  O4  UNL     1      17.669 -28.328 -10.778  1.00  0.00    -0.339 OA
HETATM   13  O5  UNL     1      15.721 -27.549  -9.791  1.00  0.00    -0.315 OA
ENDROOT
BRANCH  11  14
HETATM   14  C16 UNL     1      19.747 -28.529 -11.778  1.00  0.00     0.143 C 
HETATM   15  C17 UNL     1      19.325 -29.958 -11.569  1.00  0.00     0.042 C 
BRANCH  14  16
HETATM   16  O3  UNL     1      20.139 -28.312 -13.095  1.00  0.00    -0.393 OA
ATOM     17  H3  UNL     1      20.872 -27.711 -13.143  1.00  0.00     0.210 HD
ENDBRANCH  14  16
ENDBRANCH  11  14
BRANCH   1  18
HETATM   18  C7  UNL     1      13.698 -27.888  -8.630  1.00  0.00     0.175 C 
HETATM   19  O1  UNL     1      13.260 -28.842  -9.246  1.00  0.00    -0.293 OA
BRANCH  18  20
HETATM   20  C6  UNL     1      12.701 -26.967  -8.004  1.00  0.00     0.083 C 
BRANCH  20  21
HETATM   21  C5  UNL     1      11.826 -26.328  -9.061  1.00  0.00     0.007 C 
BRANCH  21  22
HETATM   22  C4  UNL     1      12.641 -25.552 -10.067  1.00  0.00     0.000 C 
BRANCH  22  23
HETATM   23  C3  UNL     1      11.790 -24.658 -10.926  1.00  0.00    -0.000 C 
BRANCH  23  24
HETATM   24  C2  UNL     1      11.766 -23.237 -10.379  1.00  0.00    -0.005 C 
HETATM   25  C1  UNL     1      10.332 -22.948  -9.940  1.00  0.00     0.005 C 
ENDBRANCH  23  24
ENDBRANCH  22  23
ENDBRANCH  21  22
ENDBRANCH  20  21
ENDBRANCH  18  20
ENDBRANCH   1  18
TORSDOF 8
ENDMDL
MODEL 2
REMARK VINA RESULT: -6.560412036      1.451      1.988
REMARK  8 active torsions:
REMARK  status: ('A' for Active; 'I' for Inactive)
REMARK    1  A    between atoms: C2_2  and  C3_3 
REMARK    2  A    between atoms: C3_3  and  C4_4 
REMARK    3  A    between atoms: C4_4  and  C5_5 
REMARK    4  A    between atoms: C5_5  and  C6_6 
REMARK    5  A    between atoms: C6_6  and  C7_7 
REMARK    6  A    between atoms: C7_7  and  C8_9 
REMARK    7  A    between atoms: C15_19  and  C16_20 
REMARK    8  A    between atoms: C16_20  and  O3_22 
ROOT
HETATM    1  C8  UNL     1      15.407 -28.076  -8.780  1.00  0.00     0.298 C 
HETATM    2  N1  UNL     1      16.069 -29.082  -9.595  1.00  0.00    -0.324 N 
ATOM      3  H1  UNL     1      15.863 -30.080  -9.640  1.00  0.00     0.165 HD
HETATM    4  C9  UNL     1      17.066 -28.371 -10.317  1.00  0.00     0.283 C 
HETATM    5  O2  UNL     1      17.686 -28.767 -11.320  1.00  0.00    -0.267 OA
HETATM    6  C10 UNL     1      17.200 -27.045  -9.600  1.00  0.00     0.250 C 
HETATM    7  C11 UNL     1      17.939 -27.335  -8.348  1.00  0.00     0.080 C 
HETATM    8  C12 UNL     1      19.387 -26.938  -8.545  1.00  0.00     0.013 C 
HETATM    9  C13 UNL     1      19.329 -25.433  -8.815  1.00  0.00     0.013 C 
HETATM   10  C14 UNL     1      18.632 -24.809  -7.630  1.00  0.00     0.012 C 
HETATM   11  C15 UNL     1      18.612 -25.237 -10.103  1.00  0.00     0.157 C 
HETATM   12  O4  UNL     1      17.719 -26.180 -10.481  1.00  0.00    -0.339 OA
HETATM   13  O5  UNL     1      15.861 -26.850  -9.266  1.00  0.00    -0.315 OA
ENDROOT
BRANCH  11  14
HETATM   14  C16 UNL     1      19.703 -25.222 -11.193  1.00  0.00     0.143 C 
HETATM   15  C17 UNL     1      20.981 -24.637 -10.655  1.00  0.00     0.042 C 
BRANCH  14  16
HETATM   16  O3  UNL     1      19.916 -26.493 -11.715  1.00  0.00    -0.393 OA
ATOM     17  H3  UNL     1      20.839 -26.715 -11.718  1.00  0.00     0.210 HD
ENDBRANCH  14  16
ENDBRANCH  11  14
BRANCH   1  18
HETATM   18  C7  UNL     1      13.949 -28.194  -8.962  1.00  0.00     0.175 C 
HETATM   19  O1  UNL     1      13.493 -29.021  -9.728  1.00  0.00    -0.293 OA
BRANCH  18  20
HETATM   20  C6  UNL     1      12.971 -27.327  -8.235  1.00  0.00     0.083 C 
BRANCH  20  21
HETATM   21  C5  UNL     1      12.012 -26.672  -9.207  1.00  0.00     0.007 C 
BRANCH  21  22
HETATM   22  C4  UNL     1      12.689 -25.595 -10.020  1.00  0.00     0.000 C 
BRANCH  22  23
HETATM   23  C3  UNL     1      11.708 -24.766 -10.801  1.00  0.00    -0.000 C 
BRANCH  23  24
HETATM   24  C2  UNL     1      11.756 -23.308 -10.366  1.00  0.00    -0.005 C 
HETATM   25  C1  UNL     1      10.333 -22.906  -9.982  1.00  0.00     0.005 C 
ENDBRANCH  23  24
ENDBRANCH  22  23
ENDBRANCH  21  22
ENDBRANCH  20  21
ENDBRANCH  18  20
ENDBRANCH   1  18
TORSDOF 8
ENDMDL
MODEL 3
REMARK VINA RESULT: -6.476468995      1.961      2.448
REMARK  8 active torsions:
REMARK  status: ('A' for Active; 'I' for Inactive)
REMARK    1  A    between atoms: C2_2  and  C3_3 
REMARK    2  A    between atoms: C3_3  and  C4_4 
REMARK    3  A    between atoms: C4_4  and  C5_5 
REMARK    4  A    between atoms: C5_5  and  C6_6 
REMARK    5  A    between atoms: C6_6  and  C7_7 
REMARK    6  A    between atoms: C7_7  and  C8_9 
REMARK    7  A    between atoms: C15_19  and  C16_20 
REMARK    8  A    between atoms: C16_20  and  O3_22 
ROOT
HETATM    1  C8  UNL     1      14.624 -28.272  -8.070  1.00  0.00     0.298 C 
HETATM    2  N1  UNL     1      14.701 -29.563  -7.404  1.00  0.00    -0.324 N 
ATOM      3  H1  UNL     1      14.435 -29.783  -6.444  1.00  0.00     0.165 HD
HETATM    4  C9  UNL     1      15.225 -30.450  -8.383  1.00  0.00     0.283 C 
HETATM    5  O2  UNL     1      15.208 -31.694  -8.348  1.00  0.00    -0.267 OA
HETATM    6  C10 UNL     1      15.798 -29.554  -9.459  1.00  0.00     0.250 C 
HETATM    7  C11 UNL     1      17.058 -29.006  -8.900  1.00  0.00     0.080 C 
HETATM    8  C12 UNL     1      18.217 -29.793  -9.475  1.00  0.00     0.013 C 
HETATM    9  C13 UNL     1      18.128 -29.542 -10.983  1.00  0.00     0.013 C 
HETATM   10  C14 UNL     1      18.187 -28.047 -11.176  1.00  0.00     0.012 C 
HETATM   11  C15 UNL     1      16.863 -30.159 -11.464  1.00  0.00     0.157 C 
HETATM   12  O4  UNL     1      15.842 -30.280 -10.584  1.00  0.00    -0.339 OA
HETATM   13  O5  UNL     1      14.841 -28.541  -9.422  1.00  0.00    -0.315 OA
ENDROOT
BRANCH  11  14
HETATM   14  C16 UNL     1      17.230 -31.594 -11.891  1.00  0.00     0.143 C 
HETATM   15  C17 UNL     1      16.534 -32.603 -11.018  1.00  0.00     0.042 C 
BRANCH  14  16
HETATM   16  O3  UNL     1      16.942 -31.813 -13.234  1.00  0.00    -0.393 OA
ATOM     17  H3  UNL     1      16.652 -32.704 -13.385  1.00  0.00     0.210 HD
ENDBRANCH  14  16
ENDBRANCH  11  14
BRANCH   1  18
HETATM   18  C7  UNL     1      13.278 -27.706  -7.868  1.00  0.00     0.175 C 
HETATM   19  O1  UNL     1      12.809 -27.629  -6.748  1.00  0.00    -0.293 OA
BRANCH  18  20
HETATM   20  C6  UNL     1      12.434 -27.207  -8.997  1.00  0.00     0.083 C 
BRANCH  20  21
HETATM   21  C5  UNL     1      11.549 -26.067  -8.538  1.00  0.00     0.007 C 
BRANCH  21  22
HETATM   22  C4  UNL     1      10.884 -25.373  -9.701  1.00  0.00     0.000 C 
BRANCH  22  23
HETATM   23  C3  UNL     1      11.877 -24.699 -10.608  1.00  0.00    -0.000 C 
BRANCH  23  24
HETATM   24  C2  UNL     1      11.851 -23.188 -10.419  1.00  0.00    -0.005 C 
HETATM   25  C1  UNL     1      10.431 -22.810 -10.003  1.00  0.00     0.005 C 
ENDBRANCH  23  24
ENDBRANCH  22  23
ENDBRANCH  21  22
ENDBRANCH  20  21
ENDBRANCH  18  20
ENDBRANCH   1  18
TORSDOF 8
ENDMDL
MODEL 4
REMARK VINA RESULT: -6.452188471      1.607      1.973
REMARK  8 active torsions:
REMARK  status: ('A' for Active; 'I' for Inactive)
REMARK    1  A    between atoms: C2_2  and  C3_3 
REMARK    2  A    between atoms: C3_3  and  C4_4 
REMARK    3  A    between atoms: C4_4  and  C5_5 
REMARK    4  A    between atoms: C5_5  and  C6_6 
REMARK    5  A    between atoms: C6_6  and  C7_7 
REMARK    6  A    between atoms: C7_7  and  C8_9 
REMARK    7  A    between atoms: C15_19  and  C16_20 
REMARK    8  A    between atoms: C16_20  and  O3_22 
ROOT
HETATM    1  C8  UNL     1      14.108 -27.414  -7.273  1.00  0.00     0.298 C 
HETATM    2  N1  UNL     1      14.247 -28.840  -7.019  1.00  0.00    -0.324 N 
ATOM      3  H1  UNL     1      13.827 -29.379  -6.262  1.00  0.00     0.165 HD
HETATM    4  C9  UNL     1      15.094 -29.316  -8.056  1.00  0.00     0.283 C 
HETATM    5  O2  UNL     1      15.264 -30.501  -8.394  1.00  0.00    -0.267 OA
HETATM    6  C10 UNL     1      15.729 -28.076  -8.646  1.00  0.00     0.250 C 
HETATM    7  C11 UNL     1      16.745 -27.634  -7.660  1.00  0.00     0.080 C 
HETATM    8  C12 UNL     1      18.106 -28.093  -8.139  1.00  0.00     0.013 C 
HETATM    9  C13 UNL     1      18.291 -27.378  -9.480  1.00  0.00     0.013 C 
HETATM   10  C14 UNL     1      18.155 -25.901  -9.203  1.00  0.00     0.012 C 
HETATM   11  C15 UNL     1      17.265 -27.910 -10.416  1.00  0.00     0.157 C 
HETATM   12  O4  UNL     1      16.117 -28.394  -9.888  1.00  0.00    -0.339 OA
HETATM   13  O5  UNL     1      14.638 -27.214  -8.547  1.00  0.00    -0.315 OA
ENDROOT
BRANCH  11  14
HETATM   14  C16 UNL     1      17.932 -29.094 -11.143  1.00  0.00     0.143 C 
HETATM   15  C17 UNL     1      16.907 -30.126 -11.528  1.00  0.00     0.042 C 
BRANCH  14  16
HETATM   16  O3  UNL     1      18.651 -28.667 -12.254  1.00  0.00    -0.393 OA
ATOM     17  H3  UNL     1      18.387 -29.132 -13.038  1.00  0.00     0.210 HD
ENDBRANCH  14  16
ENDBRANCH  11  14
BRANCH   1  18
HETATM   18  C7  UNL     1      12.678 -27.059  -7.249  1.00  0.00     0.175 C 
HETATM   19  O1  UNL     1      12.025 -27.218  -6.235  1.00  0.00    -0.293 OA
BRANCH  18  20
HETATM   20  C6  UNL     1      11.966 -26.496  -8.437  1.00  0.00     0.083 C 
BRANCH  20  21
HETATM   21  C5  UNL     1      10.912 -25.497  -8.004  1.00  0.00     0.007 C 
BRANCH  21  22
HETATM   22  C4  UNL     1      10.189 -24.901  -9.187  1.00  0.00     0.000 C 
BRANCH  22  23
HETATM   23  C3  UNL     1      10.583 -23.471  -9.435  1.00  0.00    -0.000 C 
BRANCH  23  24
HETATM   24  C2  UNL     1      11.692 -23.382 -10.475  1.00  0.00    -0.005 C 
HETATM   25  C1  UNL     1      11.443 -24.491 -11.495  1.00  0.00     0.005 C 
ENDBRANCH  23  24
ENDBRANCH  22  23
ENDBRANCH  21  22
ENDBRANCH  20  21
ENDBRANCH  18  20
ENDBRANCH   1  18
TORSDOF 8
ENDMDL
MODEL 5
REMARK VINA RESULT: -6.393161581      1.412      1.739
REMARK  8 active torsions:
REMARK  status: ('A' for Active; 'I' for Inactive)
REMARK    1  A    between atoms: C2_2  and  C3_3 
REMARK    2  A    between atoms: C3_3  and  C4_4 
REMARK    3  A    between atoms: C4_4  and  C5_5 
REMARK    4  A    between atoms: C5_5  and  C6_6 
REMARK    5  A    between atoms: C6_6  and  C7_7 
REMARK    6  A    between atoms: C7_7  and  C8_9 
REMARK    7  A    between atoms: C15_19  and  C16_20 
REMARK    8  A    between atoms: C16_20  and  O3_22 
ROOT
HETATM    1  C8  UNL     1      14.833 -28.636  -8.405  1.00  0.00     0.298 C 
HETATM    2  N1  UNL     1      14.741 -29.672  -9.422  1.00  0.00    -0.324 N 
ATOM      3  H1  UNL     1      14.066 -30.435  -9.472  1.00  0.00     0.165 HD
HETATM    4  C9  UNL     1      15.797 -29.388 -10.331  1.00  0.00     0.283 C 
HETATM    5  O2  UNL     1      15.932 -29.841 -11.482  1.00  0.00    -0.267 OA
HETATM    6  C10 UNL     1      16.703 -28.426  -9.593  1.00  0.00     0.250 C 
HETATM    7  C11 UNL     1      17.430 -29.243  -8.592  1.00  0.00     0.080 C 
HETATM    8  C12 UNL     1      18.816 -29.534  -9.130  1.00  0.00     0.013 C 
HETATM    9  C13 UNL     1      19.455 -28.152  -9.284  1.00  0.00     0.013 C 
HETATM   10  C14 UNL     1      19.401 -27.498  -7.925  1.00  0.00     0.012 C 
HETATM   11  C15 UNL     1      18.693 -27.421 -10.332  1.00  0.00     0.157 C 
HETATM   12  O4  UNL     1      17.397 -27.759 -10.524  1.00  0.00    -0.339 OA
HETATM   13  O5  UNL     1      15.728 -27.695  -8.916  1.00  0.00    -0.315 OA
ENDROOT
BRANCH  11  14
HETATM   14  C16 UNL     1      19.414 -27.720 -11.661  1.00  0.00     0.143 C 
HETATM   15  C17 UNL     1      20.875 -27.988 -11.424  1.00  0.00     0.042 C 
BRANCH  14  16
HETATM   16  O3  UNL     1      18.815 -28.778 -12.336  1.00  0.00    -0.393 OA
ATOM     17  H3  UNL     1      17.903 -28.874 -12.091  1.00  0.00     0.210 HD
ENDBRANCH  14  16
ENDBRANCH  11  14
BRANCH   1  18
HETATM   18  C7  UNL     1      13.503 -28.030  -8.214  1.00  0.00     0.175 C 
HETATM   19  O1  UNL     1      13.010 -27.973  -7.103  1.00  0.00    -0.293 OA
BRANCH  18  20
HETATM   20  C6  UNL     1      12.703 -27.465  -9.344  1.00  0.00     0.083 C 
BRANCH  20  21
HETATM   21  C5  UNL     1      11.921 -26.251  -8.890  1.00  0.00     0.007 C 
BRANCH  21  22
HETATM   22  C4  UNL     1      11.145 -25.629 -10.025  1.00  0.00     0.000 C 
BRANCH  22  23
HETATM   23  C3  UNL     1      11.984 -24.685 -10.841  1.00  0.00    -0.000 C 
BRANCH  23  24
HETATM   24  C2  UNL     1      11.887 -23.263 -10.303  1.00  0.00    -0.005 C 
HETATM   25  C1  UNL     1      10.411 -22.990 -10.020  1.00  0.00     0.005 C 
ENDBRANCH  23  24
ENDBRANCH  22  23
ENDBRANCH  21  22
ENDBRANCH  20  21
ENDBRANCH  18  20
ENDBRANCH   1  18
TORSDOF 8
ENDMDL
