MODEL 1
REMARK VINA RESULT: -6.764181506      0.000      0.000
REMARK  13 active torsions:
REMARK  status: ('A' for Active; 'I' for Inactive)
REMARK    1  A    between atoms: C3_3  and  N1_4 
REMARK    2  A    between atoms: N1_4  and  C4_5 
REMARK    3  A    between atoms: N1_4  and  C21_29 
REMARK    4  A    between atoms: C6_7  and  C7_8 
REMARK    5  A    between atoms: C7_8  and  O1_9 
REMARK    6  A    between atoms: N2_12  and  C9_13 
REMARK    7  A    between atoms: C9_13  and  C10_14 
REMARK    8  A    between atoms: C11_15  and  C12_16 
REMARK    9  A    between atoms: C13_17  and  C14_18 
REMARK   10  A    between atoms: C14_18  and  C15_19 
REMARK   11  A    between atoms: C15_19  and  C16_20 
REMARK   12  A    between atoms: C17_21  and  C18_22 
REMARK   13  A    between atoms: C18_22  and  N3_24 
ROOT
HETATM    1  C1  UNL     1      16.373 -14.509  21.508  1.00  0.00     0.014 C 
HETATM    2  C2  UNL     1      15.193 -14.697  21.742  1.00  0.00    -0.098 C 
HETATM    3  C3  UNL     1      13.793 -14.959  22.022  1.00  0.00     0.216 C 
ENDROOT
BRANCH   3   4
HETATM    4  N1  UNL     1      12.900 -14.022  21.361  1.00  0.00    -0.365 N 
BRANCH   4   5
HETATM    5  C4  UNL     1      12.812 -12.654  21.736  1.00  0.00     0.047 A 
HETATM    6  C5  UNL     1      11.986 -12.241  22.763  1.00  0.00     0.041 A 
HETATM    7  C6  UNL     1      11.925 -10.891  23.080  1.00  0.00    -0.017 A 
HETATM    8  C8  UNL     1      12.690 -10.018  22.360  1.00  0.00     0.100 A 
HETATM    9  N2  UNL     1      13.496 -10.387  21.364  1.00  0.00    -0.353 N 
HETATM   10  C20 UNL     1      13.552 -11.714  21.057  1.00  0.00     0.120 A 
BRANCH   7  11
HETATM   11  C7  UNL     1      11.028 -10.470  24.188  1.00  0.00     0.204 C 
BRANCH  11  12
HETATM   12  O1  UNL     1      10.783  -9.114  24.150  1.00  0.00    -0.396 OA
ATOM     13  H1  UNL     1      10.710  -8.750  25.024  1.00  0.00     0.209 HD
ENDBRANCH  11  12
ENDBRANCH   7  11
BRANCH   9  14
HETATM   14  C9  UNL     1      14.300  -9.480  20.604  1.00  0.00     0.222 C 
BRANCH  14  15
HETATM   15  C10 UNL     1      15.645 -10.041  20.473  1.00  0.00    -0.072 C 
HETATM   16  C11 UNL     1      16.753 -10.522  20.379  1.00  0.00    -0.013 C 
BRANCH  16  17
HETATM   17  C12 UNL     1      18.042 -11.105  20.279  1.00  0.00    -0.015 C 
HETATM   18  C13 UNL     1      19.138 -11.611  20.214  1.00  0.00    -0.092 C 
BRANCH  18  19
HETATM   19  C14 UNL     1      20.480 -12.228  20.158  1.00  0.00     0.107 C 
BRANCH  19  20
HETATM   20  C15 UNL     1      20.380 -13.540  20.890  1.00  0.00     0.106 C 
BRANCH  20  21
HETATM   21  C16 UNL     1      20.928 -13.322  22.245  1.00  0.00    -0.104 C 
HETATM   22  C17 UNL     1      21.357 -13.135  23.354  1.00  0.00    -0.074 C 
BRANCH  22  23
HETATM   23  C18 UNL     1      21.876 -12.926  24.709  1.00  0.00     0.257 C 
HETATM   24  C19 UNL     1      21.101 -11.765  25.299  1.00  0.00     0.053 C 
BRANCH  23  25
HETATM   25  N3  UNL     1      23.283 -12.524  24.662  1.00  0.00    -0.065 N 
ATOM     26  H33 UNL     1      23.859 -13.084  25.289  1.00  0.00     0.275 HD
ATOM     27  H32 UNL     1      23.722 -12.783  23.780  1.00  0.00     0.275 HD
ATOM     28  H31 UNL     1      23.375 -11.526  24.853  1.00  0.00     0.275 HD
ENDBRANCH  23  25
ENDBRANCH  22  23
ENDBRANCH  20  21
ENDBRANCH  19  20
ENDBRANCH  18  19
ENDBRANCH  16  17
ENDBRANCH  14  15
ENDBRANCH   9  14
ENDBRANCH   4   5
BRANCH   4  29
HETATM   29  C21 UNL     1      12.079 -14.546  20.286  1.00  0.00     0.077 C 
HETATM   30  C22 UNL     1      11.689 -15.973  20.493  1.00  0.00     0.032 C 
HETATM   31  C23 UNL     1      12.974 -14.483  19.008  1.00  0.00     0.032 C 
ENDBRANCH   4  29
ENDBRANCH   3   4
TORSDOF 13
ENDMDL
MODEL 2
REMARK VINA RESULT: -6.464743043      3.691      8.882
REMARK  13 active torsions:
REMARK  status: ('A' for Active; 'I' for Inactive)
REMARK    1  A    between atoms: C3_3  and  N1_4 
REMARK    2  A    between atoms: N1_4  and  C4_5 
REMARK    3  A    between atoms: N1_4  and  C21_29 
REMARK    4  A    between atoms: C6_7  and  C7_8 
REMARK    5  A    between atoms: C7_8  and  O1_9 
REMARK    6  A    between atoms: N2_12  and  C9_13 
REMARK    7  A    between atoms: C9_13  and  C10_14 
REMARK    8  A    between atoms: C11_15  and  C12_16 
REMARK    9  A    between atoms: C13_17  and  C14_18 
REMARK   10  A    between atoms: C14_18  and  C15_19 
REMARK   11  A    between atoms: C15_19  and  C16_20 
REMARK   12  A    between atoms: C17_21  and  C18_22 
REMARK   13  A    between atoms: C18_22  and  N3_24 
ROOT
HETATM    1  C1  UNL     1      20.218 -12.164  20.381  1.00  0.00     0.014 C 
HETATM    2  C2  UNL     1      20.705 -12.387  21.475  1.00  0.00    -0.098 C 
HETATM    3  C3  UNL     1      21.319 -12.644  22.764  1.00  0.00     0.216 C 
ENDROOT
BRANCH   3   4
HETATM    4  N1  UNL     1      20.676 -13.725  23.491  1.00  0.00    -0.365 N 
BRANCH   4   5
HETATM    5  C4  UNL     1      20.119 -14.861  22.842  1.00  0.00     0.047 A 
HETATM    6  C5  UNL     1      20.908 -15.737  22.122  1.00  0.00     0.041 A 
HETATM    7  C6  UNL     1      20.313 -16.822  21.495  1.00  0.00    -0.017 A 
HETATM    8  C8  UNL     1      18.962 -16.985  21.615  1.00  0.00     0.100 A 
HETATM    9  N2  UNL     1      18.176 -16.156  22.304  1.00  0.00    -0.353 N 
HETATM   10  C20 UNL     1      18.765 -15.091  22.917  1.00  0.00     0.120 A 
BRANCH   7  11
HETATM   11  C7  UNL     1      21.182 -17.750  20.725  1.00  0.00     0.204 C 
BRANCH  11  12
HETATM   12  O1  UNL     1      22.298 -17.106  20.235  1.00  0.00    -0.396 OA
ATOM     13  H1  UNL     1      22.868 -16.816  20.938  1.00  0.00     0.209 HD
ENDBRANCH  11  12
ENDBRANCH   7  11
BRANCH   9  14
HETATM   14  C9  UNL     1      16.760 -16.318  22.434  1.00  0.00     0.222 C 
BRANCH  14  15
HETATM   15  C10 UNL     1      16.101 -15.113  21.927  1.00  0.00    -0.072 C 
HETATM   16  C11 UNL     1      15.558 -14.108  21.527  1.00  0.00    -0.013 C 
BRANCH  16  17
HETATM   17  C12 UNL     1      14.929 -12.919  21.078  1.00  0.00    -0.015 C 
HETATM   18  C13 UNL     1      14.404 -11.906  20.675  1.00  0.00    -0.092 C 
BRANCH  18  19
HETATM   19  C14 UNL     1      13.782 -10.665  20.168  1.00  0.00     0.107 C 
BRANCH  19  20
HETATM   20  C15 UNL     1      14.337  -9.537  20.996  1.00  0.00     0.106 C 
BRANCH  20  21
HETATM   21  C16 UNL     1      13.331  -9.227  22.033  1.00  0.00    -0.104 C 
HETATM   22  C17 UNL     1      12.524  -8.960  22.884  1.00  0.00    -0.074 C 
BRANCH  22  23
HETATM   23  C18 UNL     1      11.530  -8.626  23.909  1.00  0.00     0.257 C 
HETATM   24  C19 UNL     1      12.017  -7.365  24.595  1.00  0.00     0.053 C 
BRANCH  23  25
HETATM   25  N3  UNL     1      11.473  -9.674  24.930  1.00  0.00    -0.065 N 
ATOM     26  H33 UNL     1      11.514 -10.606  24.519  1.00  0.00     0.275 HD
ATOM     27  H32 UNL     1      12.330  -9.713  25.481  1.00  0.00     0.275 HD
ATOM     28  H31 UNL     1      10.649  -9.555  25.519  1.00  0.00     0.275 HD
ENDBRANCH  23  25
ENDBRANCH  22  23
ENDBRANCH  20  21
ENDBRANCH  19  20
ENDBRANCH  18  19
ENDBRANCH  16  17
ENDBRANCH  14  15
ENDBRANCH   9  14
ENDBRANCH   4   5
BRANCH   4  29
HETATM   29  C21 UNL     1      20.614 -13.599  24.934  1.00  0.00     0.077 C 
HETATM   30  C22 UNL     1      20.776 -12.189  25.403  1.00  0.00     0.032 C 
HETATM   31  C23 UNL     1      21.829 -14.417  25.478  1.00  0.00     0.032 C 
ENDBRANCH   4  29
ENDBRANCH   3   4
TORSDOF 13
ENDMDL
MODEL 3
REMARK VINA RESULT: -6.456829563      2.702      4.669
REMARK  13 active torsions:
REMARK  status: ('A' for Active; 'I' for Inactive)
REMARK    1  A    between atoms: C3_3  and  N1_4 
REMARK    2  A    between atoms: N1_4  and  C4_5 
REMARK    3  A    between atoms: N1_4  and  C21_29 
REMARK    4  A    between atoms: C6_7  and  C7_8 
REMARK    5  A    between atoms: C7_8  and  O1_9 
REMARK    6  A    between atoms: N2_12  and  C9_13 
REMARK    7  A    between atoms: C9_13  and  C10_14 
REMARK    8  A    between atoms: C11_15  and  C12_16 
REMARK    9  A    between atoms: C13_17  and  C14_18 
REMARK   10  A    between atoms: C14_18  and  C15_19 
REMARK   11  A    between atoms: C15_19  and  C16_20 
REMARK   12  A    between atoms: C17_21  and  C18_22 
REMARK   13  A    between atoms: C18_22  and  N3_24 
ROOT
HETATM    1  C1  UNL     1      12.844 -14.632  21.002  1.00  0.00     0.014 C 
HETATM    2  C2  UNL     1      13.042 -13.588  21.597  1.00  0.00    -0.098 C 
HETATM    3  C3  UNL     1      13.250 -12.355  22.334  1.00  0.00     0.216 C 
ENDROOT
BRANCH   3   4
HETATM    4  N1  UNL     1      13.551 -11.226  21.470  1.00  0.00    -0.365 N 
BRANCH   4   5
HETATM    5  C4  UNL     1      14.612 -11.246  20.523  1.00  0.00     0.047 A 
HETATM    6  C5  UNL     1      14.364 -11.296  19.166  1.00  0.00     0.041 A 
HETATM    7  C6  UNL     1      15.435 -11.328  18.285  1.00  0.00    -0.017 A 
HETATM    8  C8  UNL     1      16.701 -11.309  18.796  1.00  0.00     0.100 A 
HETATM    9  N2  UNL     1      16.971 -11.261  20.101  1.00  0.00    -0.353 N 
HETATM   10  C20 UNL     1      15.915 -11.229  20.963  1.00  0.00     0.120 A 
BRANCH   7  11
HETATM   11  C7  UNL     1      15.143 -11.383  16.828  1.00  0.00     0.204 C 
BRANCH  11  12
HETATM   12  O1  UNL     1      14.553 -10.217  16.387  1.00  0.00    -0.396 OA
ATOM     13  H1  UNL     1      13.618 -10.217  16.555  1.00  0.00     0.209 HD
ENDBRANCH  11  12
ENDBRANCH   7  11
BRANCH   9  14
HETATM   14  C9  UNL     1      18.294 -11.241  20.646  1.00  0.00     0.222 C 
BRANCH  14  15
HETATM   15  C10 UNL     1      18.450 -12.389  21.541  1.00  0.00    -0.072 C 
HETATM   16  C11 UNL     1      18.601 -13.333  22.283  1.00  0.00    -0.013 C 
BRANCH  16  17
HETATM   17  C12 UNL     1      18.797 -14.430  23.161  1.00  0.00    -0.015 C 
HETATM   18  C13 UNL     1      18.965 -15.351  23.926  1.00  0.00    -0.092 C 
BRANCH  18  19
HETATM   19  C14 UNL     1      19.179 -16.462  24.878  1.00  0.00     0.107 C 
BRANCH  19  20
HETATM   20  C15 UNL     1      20.670 -16.625  25.018  1.00  0.00     0.106 C 
BRANCH  20  21
HETATM   21  C16 UNL     1      21.233 -15.275  25.225  1.00  0.00    -0.104 C 
HETATM   22  C17 UNL     1      21.685 -14.169  25.375  1.00  0.00    -0.074 C 
BRANCH  22  23
HETATM   23  C18 UNL     1      22.220 -12.818  25.569  1.00  0.00     0.257 C 
HETATM   24  C19 UNL     1      21.084 -11.854  25.294  1.00  0.00     0.053 C 
BRANCH  23  25
HETATM   25  N3  UNL     1      23.269 -12.537  24.587  1.00  0.00    -0.065 N 
ATOM     26  H33 UNL     1      23.574 -13.381  24.105  1.00  0.00     0.275 HD
ATOM     27  H32 UNL     1      22.908 -12.024  23.783  1.00  0.00     0.275 HD
ATOM     28  H31 UNL     1      24.050 -12.050  25.028  1.00  0.00     0.275 HD
ENDBRANCH  23  25
ENDBRANCH  22  23
ENDBRANCH  20  21
ENDBRANCH  19  20
ENDBRANCH  18  19
ENDBRANCH  16  17
ENDBRANCH  14  15
ENDBRANCH   9  14
ENDBRANCH   4   5
BRANCH   4  29
HETATM   29  C21 UNL     1      12.716 -10.050  21.615  1.00  0.00     0.077 C 
HETATM   30  C22 UNL     1      13.470  -8.856  22.104  1.00  0.00     0.032 C 
HETATM   31  C23 UNL     1      11.660 -10.417  22.706  1.00  0.00     0.032 C 
ENDBRANCH   4  29
ENDBRANCH   3   4
TORSDOF 13
ENDMDL
MODEL 4
REMARK VINA RESULT: -6.451716383      2.266      3.889
REMARK  13 active torsions:
REMARK  status: ('A' for Active; 'I' for Inactive)
REMARK    1  A    between atoms: C3_3  and  N1_4 
REMARK    2  A    between atoms: N1_4  and  C4_5 
REMARK    3  A    between atoms: N1_4  and  C21_29 
REMARK    4  A    between atoms: C6_7  and  C7_8 
REMARK    5  A    between atoms: C7_8  and  O1_9 
REMARK    6  A    between atoms: N2_12  and  C9_13 
REMARK    7  A    between atoms: C9_13  and  C10_14 
REMARK    8  A    between atoms: C11_15  and  C12_16 
REMARK    9  A    between atoms: C13_17  and  C14_18 
REMARK   10  A    between atoms: C14_18  and  C15_19 
REMARK   11  A    between atoms: C15_19  and  C16_20 
REMARK   12  A    between atoms: C17_21  and  C18_22 
REMARK   13  A    between atoms: C18_22  and  N3_24 
ROOT
HETATM    1  C1  UNL     1      11.943 -14.851  18.949  1.00  0.00     0.014 C 
HETATM    2  C2  UNL     1      12.501 -14.725  20.024  1.00  0.00    -0.098 C 
HETATM    3  C3  UNL     1      13.133 -14.559  21.320  1.00  0.00     0.216 C 
ENDROOT
BRANCH   3   4
HETATM    4  N1  UNL     1      14.554 -14.272  21.222  1.00  0.00    -0.365 N 
BRANCH   4   5
HETATM    5  C4  UNL     1      15.056 -12.972  20.937  1.00  0.00     0.047 A 
HETATM    6  C5  UNL     1      14.341 -11.837  21.265  1.00  0.00     0.041 A 
HETATM    7  C6  UNL     1      14.869 -10.593  20.951  1.00  0.00    -0.017 A 
HETATM    8  C8  UNL     1      16.083 -10.538  20.327  1.00  0.00     0.100 A 
HETATM    9  N2  UNL     1      16.795 -11.616  19.999  1.00  0.00    -0.353 N 
HETATM   10  C20 UNL     1      16.272 -12.836  20.309  1.00  0.00     0.120 A 
BRANCH   7  11
HETATM   11  C7  UNL     1      14.081  -9.386  21.312  1.00  0.00     0.204 C 
BRANCH  11  12
HETATM   12  O1  UNL     1      14.689  -8.233  20.862  1.00  0.00    -0.396 OA
ATOM     13  H1  UNL     1      15.631  -8.270  20.978  1.00  0.00     0.209 HD
ENDBRANCH  11  12
ENDBRANCH   7  11
BRANCH   9  14
HETATM   14  C9  UNL     1      18.067 -11.568  19.345  1.00  0.00     0.222 C 
BRANCH  14  15
HETATM   15  C10 UNL     1      19.108 -11.905  20.318  1.00  0.00    -0.072 C 
HETATM   16  C11 UNL     1      19.961 -12.167  21.136  1.00  0.00    -0.013 C 
BRANCH  16  17
HETATM   17  C12 UNL     1      20.947 -12.464  22.112  1.00  0.00    -0.015 C 
HETATM   18  C13 UNL     1      21.780 -12.700  22.956  1.00  0.00    -0.092 C 
BRANCH  18  19
HETATM   19  C14 UNL     1      22.798 -12.965  23.996  1.00  0.00     0.107 C 
BRANCH  19  20
HETATM   20  C15 UNL     1      22.159 -12.627  25.317  1.00  0.00     0.106 C 
BRANCH  20  21
HETATM   21  C16 UNL     1      20.750 -13.061  25.238  1.00  0.00    -0.104 C 
HETATM   22  C17 UNL     1      19.606 -13.431  25.164  1.00  0.00    -0.074 C 
BRANCH  22  23
HETATM   23  C18 UNL     1      18.215 -13.889  25.090  1.00  0.00     0.257 C 
HETATM   24  C19 UNL     1      18.250 -15.403  25.144  1.00  0.00     0.053 C 
BRANCH  23  25
HETATM   25  N3  UNL     1      17.622 -13.520  23.803  1.00  0.00    -0.065 N 
ATOM     26  H33 UNL     1      16.604 -13.486  23.851  1.00  0.00     0.275 HD
ATOM     27  H32 UNL     1      17.797 -12.542  23.572  1.00  0.00     0.275 HD
ATOM     28  H31 UNL     1      17.946 -14.147  23.067  1.00  0.00     0.275 HD
ENDBRANCH  23  25
ENDBRANCH  22  23
ENDBRANCH  20  21
ENDBRANCH  19  20
ENDBRANCH  18  19
ENDBRANCH  16  17
ENDBRANCH  14  15
ENDBRANCH   9  14
ENDBRANCH   4   5
BRANCH   4  29
HETATM   29  C21 UNL     1      15.463 -15.384  21.425  1.00  0.00     0.077 C 
HETATM   30  C22 UNL     1      15.591 -16.259  20.222  1.00  0.00     0.032 C 
HETATM   31  C23 UNL     1      14.827 -16.241  22.565  1.00  0.00     0.032 C 
ENDBRANCH   4  29
ENDBRANCH   3   4
TORSDOF 13
ENDMDL
MODEL 5
REMARK VINA RESULT: -6.349062252      1.323      1.786
REMARK  13 active torsions:
REMARK  status: ('A' for Active; 'I' for Inactive)
REMARK    1  A    between atoms: C3_3  and  N1_4 
REMARK    2  A    between atoms: N1_4  and  C4_5 
REMARK    3  A    between atoms: N1_4  and  C21_29 
REMARK    4  A    between atoms: C6_7  and  C7_8 
REMARK    5  A    between atoms: C7_8  and  O1_9 
REMARK    6  A    between atoms: N2_12  and  C9_13 
REMARK    7  A    between atoms: C9_13  and  C10_14 
REMARK    8  A    between atoms: C11_15  and  C12_16 
REMARK    9  A    between atoms: C13_17  and  C14_18 
REMARK   10  A    between atoms: C14_18  and  C15_19 
REMARK   11  A    between atoms: C15_19  and  C16_20 
REMARK   12  A    between atoms: C17_21  and  C18_22 
REMARK   13  A    between atoms: C18_22  and  N3_24 
ROOT
HETATM    1  C1  UNL     1      15.374 -15.799  22.254  1.00  0.00     0.014 C 
HETATM    2  C2  UNL     1      14.251 -15.594  21.829  1.00  0.00    -0.098 C 
HETATM    3  C3  UNL     1      12.908 -15.389  21.320  1.00  0.00     0.216 C 
ENDROOT
BRANCH   3   4
HETATM    4  N1  UNL     1      12.792 -14.196  20.498  1.00  0.00    -0.365 N 
BRANCH   4   5
HETATM    5  C4  UNL     1      13.080 -12.894  20.991  1.00  0.00     0.047 A 
HETATM    6  C5  UNL     1      12.165 -12.193  21.752  1.00  0.00     0.041 A 
HETATM    7  C6  UNL     1      12.491 -10.920  22.197  1.00  0.00    -0.017 A 
HETATM    8  C8  UNL     1      13.712 -10.406  21.864  1.00  0.00     0.100 A 
HETATM    9  N2  UNL     1      14.615 -11.059  21.133  1.00  0.00    -0.353 N 
HETATM   10  C20 UNL     1      14.290 -12.309  20.698  1.00  0.00     0.120 A 
BRANCH   7  11
HETATM   11  C7  UNL     1      11.489 -10.185  23.012  1.00  0.00     0.204 C 
BRANCH  11  12
HETATM   12  O1  UNL     1      10.659 -11.050  23.693  1.00  0.00    -0.396 OA
ATOM     13  H1  UNL     1      10.895 -11.106  24.611  1.00  0.00     0.209 HD
ENDBRANCH  11  12
ENDBRANCH   7  11
BRANCH   9  14
HETATM   14  C9  UNL     1      15.896 -10.528  20.779  1.00  0.00     0.222 C 
BRANCH  14  15
HETATM   15  C10 UNL     1      16.901 -11.579  20.944  1.00  0.00    -0.072 C 
HETATM   16  C11 UNL     1      17.717 -12.461  21.090  1.00  0.00    -0.013 C 
BRANCH  16  17
HETATM   17  C12 UNL     1      18.656 -13.511  21.265  1.00  0.00    -0.015 C 
HETATM   18  C13 UNL     1      19.439 -14.419  21.418  1.00  0.00    -0.092 C 
BRANCH  18  19
HETATM   19  C14 UNL     1      20.380 -15.542  21.620  1.00  0.00     0.107 C 
BRANCH  19  20
HETATM   20  C15 UNL     1      20.247 -15.960  23.060  1.00  0.00     0.106 C 
BRANCH  20  21
HETATM   21  C16 UNL     1      20.908 -14.919  23.874  1.00  0.00    -0.104 C 
HETATM   22  C17 UNL     1      21.448 -14.059  24.521  1.00  0.00    -0.074 C 
BRANCH  22  23
HETATM   23  C18 UNL     1      22.089 -13.006  25.315  1.00  0.00     0.257 C 
HETATM   24  C19 UNL     1      21.120 -11.842  25.361  1.00  0.00     0.053 C 
BRANCH  23  25
HETATM   25  N3  UNL     1      23.301 -12.528  24.648  1.00  0.00    -0.065 N 
ATOM     26  H33 UNL     1      24.146 -12.857  25.115  1.00  0.00     0.275 HD
ATOM     27  H32 UNL     1      23.440 -12.980  23.745  1.00  0.00     0.275 HD
ATOM     28  H31 UNL     1      23.286 -11.511  24.565  1.00  0.00     0.275 HD
ENDBRANCH  23  25
ENDBRANCH  22  23
ENDBRANCH  20  21
ENDBRANCH  19  20
ENDBRANCH  18  19
ENDBRANCH  16  17
ENDBRANCH  14  15
ENDBRANCH   9  14
ENDBRANCH   4   5
BRANCH   4  29
HETATM   29  C21 UNL     1      12.355 -14.384  19.128  1.00  0.00     0.077 C 
HETATM   30  C22 UNL     1      11.345 -15.475  18.982  1.00  0.00     0.032 C 
HETATM   31  C23 UNL     1      13.631 -14.816  18.337  1.00  0.00     0.032 C 
ENDBRANCH   4  29
ENDBRANCH   3   4
TORSDOF 13
ENDMDL
