MODEL 1
REMARK VINA RESULT: -7.224549717      0.000      0.000
REMARK  6 active torsions:
REMARK  status: ('A' for Active; 'I' for Inactive)
REMARK    1  A    between atoms: C2_2  and  C3_3 
REMARK    2  A    between atoms: N1_6  and  C6_7 
REMARK    3  A    between atoms: C6_7  and  C7_8 
REMARK    4  A    between atoms: C7_8  and  C8_9 
REMARK    5  A    between atoms: C7_8  and  O2_11 
REMARK    6  A    between atoms: O2_11  and  N2_12 
ROOT
HETATM    1  C7  UNL     1      18.494 -11.439  20.490  1.00  0.00     0.251 C 
ENDROOT
BRANCH   1   2
HETATM    2  C6  UNL     1      18.038 -12.741  21.026  1.00  0.00     0.107 C 
BRANCH   2   3
HETATM    3  N1  UNL     1      18.620 -13.215  22.203  1.00  0.00    -0.333 N 
HETATM    4  C5  UNL     1      18.974 -12.574  23.437  1.00  0.00     0.161 C 
HETATM    5  C3  UNL     1      20.280 -13.282  23.853  1.00  0.00     0.045 C 
HETATM    6  C4  UNL     1      21.463 -12.754  23.099  1.00  0.00     0.040 C 
HETATM    7  N4  UNL     1      20.005 -14.628  23.457  1.00  0.00    -0.356 N 
HETATM    8  C17 UNL     1      19.039 -14.611  22.423  1.00  0.00     0.174 C 
ATOM      9  H4  UNL     1      20.435 -15.462  23.854  1.00  0.00     0.162 HD
HETATM   10  S1  UNL     1      18.455 -15.891  21.586  1.00  0.00    -0.041 SA
BRANCH   5  11
HETATM   11  C2  UNL     1      20.447 -13.232  25.347  1.00  0.00     0.028 C 
HETATM   12  C1  UNL     1      21.054 -11.905  25.732  1.00  0.00     0.007 C 
ENDBRANCH   5  11
ENDBRANCH   2   3
ENDBRANCH   1   2
BRANCH   1  13
HETATM   13  C8  UNL     1      19.685 -11.544  19.642  1.00  0.00     0.271 C 
HETATM   14  O1  UNL     1      20.805 -11.200  19.943  1.00  0.00    -0.304 OA
ENDBRANCH   1  13
BRANCH   1  15
HETATM   15  O2  UNL     1      17.405 -10.936  19.624  1.00  0.00    -0.263 OA
BRANCH  15  16
HETATM   16  N2  UNL     1      16.433 -10.164  20.152  1.00  0.00    -0.272 N 
HETATM   17  C9  UNL     1      15.189 -10.432  20.264  1.00  0.00     0.036 C 
HETATM   18  C10 UNL     1      14.627 -11.719  19.793  1.00  0.00     0.058 C 
HETATM   19  C16 UNL     1      14.257  -9.456  20.875  1.00  0.00     0.291 C 
HETATM   20  C11 UNL     1      13.878 -12.351  20.934  1.00  0.00     0.034 C 
HETATM   21  C12 UNL     1      13.651 -11.439  22.094  1.00  0.00     0.238 C 
HETATM   22  N3  UNL     1      13.294 -10.096  21.719  1.00  0.00    -0.062 N 
HETATM   23  C13 UNL     1      13.111  -9.300  22.942  1.00  0.00     0.239 C 
HETATM   24  C15 UNL     1      11.920  -9.850  21.402  1.00  0.00     0.239 C 
HETATM   25  C14 UNL     1      11.619  -9.435  22.827  1.00  0.00     0.056 C 
ATOM     26  H2  UNL     1      16.728  -9.254  20.505  1.00  0.00     0.193 HD
ENDBRANCH  15  16
ENDBRANCH   1  15
TORSDOF 6
ENDMDL
MODEL 2
REMARK VINA RESULT: -7.192636708      2.439      7.267
REMARK  6 active torsions:
REMARK  status: ('A' for Active; 'I' for Inactive)
REMARK    1  A    between atoms: C2_2  and  C3_3 
REMARK    2  A    between atoms: N1_6  and  C6_7 
REMARK    3  A    between atoms: C6_7  and  C7_8 
REMARK    4  A    between atoms: C7_8  and  C8_9 
REMARK    5  A    between atoms: C7_8  and  O2_11 
REMARK    6  A    between atoms: O2_11  and  N2_12 
ROOT
HETATM    1  C7  UNL     1      15.289 -14.304  21.893  1.00  0.00     0.251 C 
ENDROOT
BRANCH   1   2
HETATM    2  C6  UNL     1      15.365 -13.334  20.778  1.00  0.00     0.107 C 
BRANCH   2   3
HETATM    3  N1  UNL     1      15.225 -11.976  21.070  1.00  0.00    -0.333 N 
HETATM    4  C5  UNL     1      14.242 -11.240  21.811  1.00  0.00     0.161 C 
HETATM    5  C3  UNL     1      14.112  -9.916  21.029  1.00  0.00     0.045 C 
HETATM    6  C4  UNL     1      13.252 -10.073  19.810  1.00  0.00     0.040 C 
HETATM    7  N4  UNL     1      15.470  -9.685  20.646  1.00  0.00    -0.356 N 
HETATM    8  C17 UNL     1      16.153 -10.925  20.615  1.00  0.00     0.174 C 
ATOM      9  H4  UNL     1      15.880  -8.777  20.430  1.00  0.00     0.162 HD
HETATM   10  S1  UNL     1      17.702 -11.196  20.160  1.00  0.00    -0.041 SA
BRANCH   5  11
HETATM   11  C2  UNL     1      13.664  -8.810  21.943  1.00  0.00     0.028 C 
HETATM   12  C1  UNL     1      12.509  -9.301  22.782  1.00  0.00     0.007 C 
ENDBRANCH   5  11
ENDBRANCH   2   3
ENDBRANCH   1   2
BRANCH   1  13
HETATM   13  C8  UNL     1      14.303 -15.367  21.673  1.00  0.00     0.271 C 
HETATM   14  O1  UNL     1      13.123 -15.306  21.930  1.00  0.00    -0.304 OA
ENDBRANCH   1  13
BRANCH   1  15
HETATM   15  O2  UNL     1      16.611 -14.965  21.965  1.00  0.00    -0.263 OA
BRANCH  15  16
HETATM   16  N2  UNL     1      17.477 -14.624  22.941  1.00  0.00    -0.272 N 
HETATM   17  C9  UNL     1      18.750 -14.537  22.868  1.00  0.00     0.036 C 
HETATM   18  C10 UNL     1      19.477 -14.823  21.610  1.00  0.00     0.058 C 
HETATM   19  C16 UNL     1      19.550 -14.144  24.052  1.00  0.00     0.291 C 
HETATM   20  C11 UNL     1      20.343 -13.637  21.287  1.00  0.00     0.034 C 
HETATM   21  C12 UNL     1      20.472 -12.655  22.405  1.00  0.00     0.238 C 
HETATM   22  N3  UNL     1      20.621 -13.262  23.702  1.00  0.00    -0.062 N 
HETATM   23  C13 UNL     1      20.725 -12.195  24.710  1.00  0.00     0.239 C 
HETATM   24  C15 UNL     1      21.934 -13.688  24.075  1.00  0.00     0.239 C 
HETATM   25  C14 UNL     1      22.217 -12.368  24.763  1.00  0.00     0.056 C 
ATOM     26  H2  UNL     1      17.065 -14.407  23.849  1.00  0.00     0.193 HD
ENDBRANCH  15  16
ENDBRANCH   1  15
TORSDOF 6
ENDMDL
MODEL 3
REMARK VINA RESULT: -7.188580129      1.413      1.545
REMARK  6 active torsions:
REMARK  status: ('A' for Active; 'I' for Inactive)
REMARK    1  A    between atoms: C2_2  and  C3_3 
REMARK    2  A    between atoms: N1_6  and  C6_7 
REMARK    3  A    between atoms: C6_7  and  C7_8 
REMARK    4  A    between atoms: C7_8  and  C8_9 
REMARK    5  A    between atoms: C7_8  and  O2_11 
REMARK    6  A    between atoms: O2_11  and  N2_12 
ROOT
HETATM    1  C7  UNL     1      19.595 -11.952  21.029  1.00  0.00     0.251 C 
ENDROOT
BRANCH   1   2
HETATM    2  C6  UNL     1      20.335 -13.208  21.287  1.00  0.00     0.107 C 
BRANCH   2   3
HETATM    3  N1  UNL     1      20.652 -13.531  22.608  1.00  0.00    -0.333 N 
HETATM    4  C5  UNL     1      20.760 -12.741  23.801  1.00  0.00     0.161 C 
HETATM    5  C3  UNL     1      21.935 -13.389  24.562  1.00  0.00     0.045 C 
HETATM    6  C4  UNL     1      23.261 -12.957  24.010  1.00  0.00     0.040 C 
HETATM    7  N4  UNL     1      21.715 -14.775  24.284  1.00  0.00    -0.356 N 
HETATM    8  C17 UNL     1      20.983 -14.888  23.078  1.00  0.00     0.174 C 
ATOM      9  H4  UNL     1      22.034 -15.553  24.860  1.00  0.00     0.162 HD
HETATM   10  S1  UNL     1      20.553 -16.263  22.302  1.00  0.00    -0.041 SA
BRANCH   5  11
HETATM   11  C2  UNL     1      21.794 -13.155  26.040  1.00  0.00     0.028 C 
HETATM   12  C1  UNL     1      21.015 -11.882  26.265  1.00  0.00     0.007 C 
ENDBRANCH   5  11
ENDBRANCH   2   3
ENDBRANCH   1   2
BRANCH   1  13
HETATM   13  C8  UNL     1      19.707 -11.485  19.644  1.00  0.00     0.271 C 
HETATM   14  O1  UNL     1      20.713 -11.480  18.975  1.00  0.00    -0.304 OA
ENDBRANCH   1  13
BRANCH   1  15
HETATM   15  O2  UNL     1      18.164 -12.254  21.257  1.00  0.00    -0.263 OA
BRANCH  15  16
HETATM   16  N2  UNL     1      17.259 -11.254  21.242  1.00  0.00    -0.272 N 
HETATM   17  C9  UNL     1      16.053 -11.291  20.823  1.00  0.00     0.036 C 
HETATM   18  C10 UNL     1      15.463 -12.530  20.264  1.00  0.00     0.058 C 
HETATM   19  C16 UNL     1      15.194 -10.085  20.881  1.00  0.00     0.291 C 
HETATM   20  C11 UNL     1      14.193 -12.826  21.014  1.00  0.00     0.034 C 
HETATM   21  C12 UNL     1      13.720 -11.703  21.877  1.00  0.00     0.238 C 
HETATM   22  N3  UNL     1      13.854 -10.404  21.271  1.00  0.00    -0.062 N 
HETATM   23  C13 UNL     1      13.368  -9.391  22.221  1.00  0.00     0.239 C 
HETATM   24  C15 UNL     1      12.823  -9.995  20.368  1.00  0.00     0.239 C 
HETATM   25  C14 UNL     1      12.065  -9.297  21.478  1.00  0.00     0.056 C 
ATOM     26  H2  UNL     1      17.577 -10.357  21.610  1.00  0.00     0.193 HD
ENDBRANCH  15  16
ENDBRANCH   1  15
TORSDOF 6
ENDMDL
MODEL 4
REMARK VINA RESULT: -7.170465317      1.411      1.714
REMARK  6 active torsions:
REMARK  status: ('A' for Active; 'I' for Inactive)
REMARK    1  A    between atoms: C2_2  and  C3_3 
REMARK    2  A    between atoms: N1_6  and  C6_7 
REMARK    3  A    between atoms: C6_7  and  C7_8 
REMARK    4  A    between atoms: C7_8  and  C8_9 
REMARK    5  A    between atoms: C7_8  and  O2_11 
REMARK    6  A    between atoms: O2_11  and  N2_12 
ROOT
HETATM    1  C7  UNL     1      19.938 -11.808  20.716  1.00  0.00     0.251 C 
ENDROOT
BRANCH   1   2
HETATM    2  C6  UNL     1      20.267 -13.136  21.281  1.00  0.00     0.107 C 
BRANCH   2   3
HETATM    3  N1  UNL     1      20.377 -13.259  22.668  1.00  0.00    -0.333 N 
HETATM    4  C5  UNL     1      21.266 -12.668  23.626  1.00  0.00     0.161 C 
HETATM    5  C3  UNL     1      21.495 -13.797  24.653  1.00  0.00     0.045 C 
HETATM    6  C4  UNL     1      22.495 -14.801  24.162  1.00  0.00     0.040 C 
HETATM    7  N4  UNL     1      20.194 -14.388  24.712  1.00  0.00    -0.356 N 
HETATM    8  C17 UNL     1      19.515 -14.118  23.499  1.00  0.00     0.174 C 
ATOM      9  H4  UNL     1      19.817 -14.916  25.498  1.00  0.00     0.162 HD
HETATM   10  S1  UNL     1      18.031 -14.645  23.052  1.00  0.00    -0.041 SA
BRANCH   5  11
HETATM   11  C2  UNL     1      21.834 -13.218  25.999  1.00  0.00     0.028 C 
HETATM   12  C1  UNL     1      21.009 -11.974  26.223  1.00  0.00     0.007 C 
ENDBRANCH   5  11
ENDBRANCH   2   3
ENDBRANCH   1   2
BRANCH   1  13
HETATM   13  C8  UNL     1      20.826 -11.405  19.622  1.00  0.00     0.271 C 
HETATM   14  O1  UNL     1      20.570 -11.460  18.442  1.00  0.00    -0.304 OA
ENDBRANCH   1  13
BRANCH   1  15
HETATM   15  O2  UNL     1      18.581 -11.923  20.137  1.00  0.00    -0.263 OA
BRANCH  15  16
HETATM   16  N2  UNL     1      17.563 -11.221  20.675  1.00  0.00    -0.272 N 
HETATM   17  C9  UNL     1      16.429 -10.952  20.150  1.00  0.00     0.036 C 
HETATM   18  C10 UNL     1      16.075 -11.415  18.789  1.00  0.00     0.058 C 
HETATM   19  C16 UNL     1      15.421 -10.159  20.892  1.00  0.00     0.291 C 
HETATM   20  C11 UNL     1      14.774 -12.166  18.872  1.00  0.00     0.034 C 
HETATM   21  C12 UNL     1      14.061 -12.007  20.174  1.00  0.00     0.238 C 
HETATM   22  N3  UNL     1      14.097 -10.668  20.701  1.00  0.00    -0.062 N 
HETATM   23  C13 UNL     1      13.376 -10.648  21.982  1.00  0.00     0.239 C 
HETATM   24  C15 UNL     1      13.136  -9.740  20.190  1.00  0.00     0.239 C 
HETATM   25  C14 UNL     1      12.168 -10.056  21.312  1.00  0.00     0.056 C 
ATOM     26  H2  UNL     1      17.717 -10.860  21.616  1.00  0.00     0.193 HD
ENDBRANCH  15  16
ENDBRANCH   1  15
TORSDOF 6
ENDMDL
MODEL 5
REMARK VINA RESULT: -7.092270429      2.361      3.529
REMARK  6 active torsions:
REMARK  status: ('A' for Active; 'I' for Inactive)
REMARK    1  A    between atoms: C2_2  and  C3_3 
REMARK    2  A    between atoms: N1_6  and  C6_7 
REMARK    3  A    between atoms: C6_7  and  C7_8 
REMARK    4  A    between atoms: C7_8  and  C8_9 
REMARK    5  A    between atoms: C7_8  and  O2_11 
REMARK    6  A    between atoms: O2_11  and  N2_12 
ROOT
HETATM    1  C7  UNL     1      17.833 -15.724  22.662  1.00  0.00     0.251 C 
ENDROOT
BRANCH   1   2
HETATM    2  C6  UNL     1      18.043 -15.450  24.101  1.00  0.00     0.107 C 
BRANCH   2   3
HETATM    3  N1  UNL     1      19.177 -14.728  24.480  1.00  0.00    -0.333 N 
HETATM    4  C5  UNL     1      19.383 -13.347  24.809  1.00  0.00     0.161 C 
HETATM    5  C3  UNL     1      20.781 -13.041  24.231  1.00  0.00     0.045 C 
HETATM    6  C4  UNL     1      20.732 -12.808  22.751  1.00  0.00     0.040 C 
HETATM    7  N4  UNL     1      21.472 -14.260  24.515  1.00  0.00    -0.356 N 
HETATM    8  C17 UNL     1      20.525 -15.307  24.620  1.00  0.00     0.174 C 
ATOM      9  H4  UNL     1      22.481 -14.360  24.622  1.00  0.00     0.162 HD
HETATM   10  S1  UNL     1      20.825 -16.899  24.857  1.00  0.00    -0.041 SA
BRANCH   5  11
HETATM   11  C2  UNL     1      21.428 -11.920  24.996  1.00  0.00     0.028 C 
HETATM   12  C1  UNL     1      21.025 -12.016  26.448  1.00  0.00     0.007 C 
ENDBRANCH   5  11
ENDBRANCH   2   3
ENDBRANCH   1   2
BRANCH   1  13
HETATM   13  C8  UNL     1      16.595 -16.458  22.384  1.00  0.00     0.271 C 
HETATM   14  O1  UNL     1      15.585 -16.425  23.048  1.00  0.00    -0.304 OA
ENDBRANCH   1  13
BRANCH   1  15
HETATM   15  O2  UNL     1      17.700 -14.408  21.999  1.00  0.00    -0.263 OA
BRANCH  15  16
HETATM   16  N2  UNL     1      16.519 -13.757  22.034  1.00  0.00    -0.272 N 
HETATM   17  C9  UNL     1      16.296 -12.520  21.806  1.00  0.00     0.036 C 
HETATM   18  C10 UNL     1      17.389 -11.587  21.450  1.00  0.00     0.058 C 
HETATM   19  C16 UNL     1      14.923 -11.971  21.893  1.00  0.00     0.291 C 
HETATM   20  C11 UNL     1      17.018 -10.897  20.166  1.00  0.00     0.034 C 
HETATM   21  C12 UNL     1      15.595 -11.093  19.758  1.00  0.00     0.238 C 
HETATM   22  N3  UNL     1      14.660 -11.026  20.850  1.00  0.00    -0.062 N 
HETATM   23  C13 UNL     1      13.305 -11.246  20.321  1.00  0.00     0.239 C 
HETATM   24  C15 UNL     1      14.241  -9.725  21.272  1.00  0.00     0.239 C 
HETATM   25  C14 UNL     1      13.032  -9.769  20.360  1.00  0.00     0.056 C 
ATOM     26  H2  UNL     1      15.704 -14.322  22.272  1.00  0.00     0.193 HD
ENDBRANCH  15  16
ENDBRANCH   1  15
TORSDOF 6
ENDMDL
