MODEL 1
REMARK VINA RESULT: -6.617698653      0.000      0.000
REMARK  8 active torsions:
REMARK  status: ('A' for Active; 'I' for Inactive)
REMARK    1  A    between atoms: C3_3  and  C6_6 
REMARK    2  A    between atoms: C6_6  and  N1_7 
REMARK    3  A    between atoms: C6_6  and  C10_14 
REMARK    4  A    between atoms: N1_7  and  C7_9 
REMARK    5  A    between atoms: C7_9  and  C9_11 
REMARK    6  A    between atoms: C9_11  and  O1_12 
REMARK    7  A    between atoms: N2_18  and  S1_19 
REMARK    8  A    between atoms: S1_19  and  C14_22 
ROOT
HETATM    1  C1  UNL     1      15.515 -15.849  19.648  1.00  0.00     0.013 C 
HETATM    2  C2  UNL     1      14.831 -14.989  20.170  1.00  0.00    -0.106 C 
HETATM    3  C3  UNL     1      13.983 -13.934  20.778  1.00  0.00     0.037 C 
HETATM    4  C4  UNL     1      13.270 -14.620  21.917  1.00  0.00     0.031 C 
HETATM    5  C5  UNL     1      12.903 -13.598  19.789  1.00  0.00     0.031 C 
ENDROOT
BRANCH   3   6
HETATM    6  C6  UNL     1      14.762 -12.714  21.136  1.00  0.00     0.120 C 
BRANCH   6   7
HETATM    7  N1  UNL     1      13.962 -11.581  20.926  1.00  0.00    -0.387 N 
ATOM      8  H1  UNL     1      13.555 -11.456  19.999  1.00  0.00     0.159 HD
BRANCH   7   9
HETATM    9  C7  UNL     1      13.684 -10.623  21.879  1.00  0.00     0.002 C 
HETATM   10  C8  UNL     1      12.364 -10.746  22.633  1.00  0.00     0.065 C 
BRANCH   9  11
HETATM   11  C9  UNL     1      13.892  -9.178  21.610  1.00  0.00     0.215 C 
BRANCH  11  12
HETATM   12  O1  UNL     1      14.917  -8.880  20.715  1.00  0.00    -0.395 OA
ATOM     13  H1  UNL     1      15.179  -7.968  20.686  1.00  0.00     0.209 HD
ENDBRANCH  11  12
ENDBRANCH   9  11
ENDBRANCH   7   9
ENDBRANCH   6   7
BRANCH   6  14
HETATM   14  C10 UNL     1      16.119 -12.575  20.598  1.00  0.00     0.103 C 
HETATM   15  C11 UNL     1      17.270 -12.540  21.514  1.00  0.00     0.020 A 
HETATM   16  C12 UNL     1      18.296 -12.533  20.298  1.00  0.00     0.014 A 
HETATM   17  C16 UNL     1      18.566 -13.098  21.554  1.00  0.00    -0.037 A 
HETATM   18  C13 UNL     1      17.837 -11.209  19.810  1.00  0.00     0.113 C 
HETATM   19  N2  UNL     1      16.387 -11.370  19.826  1.00  0.00    -0.203 NA
HETATM   20  C17 UNL     1      19.696 -12.434  22.355  1.00  0.00     0.015 C 
HETATM   21  C18 UNL     1      18.641 -14.623  21.713  1.00  0.00     0.015 C 
BRANCH  19  22
HETATM   22  S1  UNL     1      15.753 -11.298  18.280  1.00  0.00     0.211 S 
HETATM   23  O2  UNL     1      14.438 -10.588  18.153  1.00  0.00    -0.211 OA
HETATM   24  O3  UNL     1      16.725 -10.469  17.434  1.00  0.00    -0.211 OA
BRANCH  22  25
HETATM   25  C14 UNL     1      15.582 -12.833  17.419  1.00  0.00     0.153 C 
HETATM   26  C15 UNL     1      15.885 -12.556  15.958  1.00  0.00     0.022 C 
ENDBRANCH  22  25
ENDBRANCH  19  22
ENDBRANCH   6  14
ENDBRANCH   3   6
TORSDOF 8
ENDMDL
MODEL 2
REMARK VINA RESULT: -6.169272046      1.661      5.009
REMARK  8 active torsions:
REMARK  status: ('A' for Active; 'I' for Inactive)
REMARK    1  A    between atoms: C3_3  and  C6_6 
REMARK    2  A    between atoms: C6_6  and  N1_7 
REMARK    3  A    between atoms: C6_6  and  C10_14 
REMARK    4  A    between atoms: N1_7  and  C7_9 
REMARK    5  A    between atoms: C7_9  and  C9_11 
REMARK    6  A    between atoms: C9_11  and  O1_12 
REMARK    7  A    between atoms: N2_18  and  S1_19 
REMARK    8  A    between atoms: S1_19  and  C14_22 
ROOT
HETATM    1  C1  UNL     1      20.423 -11.677  19.292  1.00  0.00     0.013 C 
HETATM    2  C2  UNL     1      19.281 -11.726  19.708  1.00  0.00    -0.106 C 
HETATM    3  C3  UNL     1      17.896 -11.811  20.231  1.00  0.00     0.037 C 
HETATM    4  C4  UNL     1      17.634 -10.461  20.853  1.00  0.00     0.031 C 
HETATM    5  C5  UNL     1      17.908 -12.774  21.384  1.00  0.00     0.031 C 
ENDROOT
BRANCH   3   6
HETATM    6  C6  UNL     1      16.921 -12.252  19.193  1.00  0.00     0.120 C 
BRANCH   6   7
HETATM    7  N1  UNL     1      16.552 -11.148  18.410  1.00  0.00    -0.387 N 
ATOM      8  H1  UNL     1      16.377 -10.265  18.892  1.00  0.00     0.159 HD
BRANCH   7   9
HETATM    9  C7  UNL     1      16.409 -11.164  17.038  1.00  0.00     0.002 C 
HETATM   10  C8  UNL     1      17.569 -10.628  16.206  1.00  0.00     0.065 C 
BRANCH   9  11
HETATM   11  C9  UNL     1      15.159 -10.700  16.384  1.00  0.00     0.215 C 
BRANCH  11  12
HETATM   12  O1  UNL     1      14.137 -10.323  17.250  1.00  0.00    -0.395 OA
ATOM     13  H1  UNL     1      13.658 -11.039  17.650  1.00  0.00     0.209 HD
ENDBRANCH  11  12
ENDBRANCH   9  11
ENDBRANCH   7   9
ENDBRANCH   6   7
BRANCH   6  14
HETATM   14  C10 UNL     1      15.780 -13.070  19.616  1.00  0.00     0.103 C 
HETATM   15  C11 UNL     1      15.499 -14.343  18.932  1.00  0.00     0.020 A 
HETATM   16  C12 UNL     1      14.330 -14.686  19.955  1.00  0.00     0.014 A 
HETATM   17  C16 UNL     1      15.123 -15.649  19.311  1.00  0.00    -0.037 A 
HETATM   18  C13 UNL     1      13.498 -13.538  19.519  1.00  0.00     0.113 C 
HETATM   19  N2  UNL     1      14.468 -12.448  19.519  1.00  0.00    -0.203 NA
HETATM   20  C17 UNL     1      14.383 -16.580  18.338  1.00  0.00     0.015 C 
HETATM   21  C18 UNL     1      16.163 -16.449  20.107  1.00  0.00     0.015 C 
BRANCH  19  22
HETATM   22  S1  UNL     1      14.083 -11.297  20.670  1.00  0.00     0.211 S 
HETATM   23  O2  UNL     1      14.796 -11.432  21.982  1.00  0.00    -0.211 OA
HETATM   24  O3  UNL     1      14.537  -9.941  20.120  1.00  0.00    -0.211 OA
BRANCH  22  25
HETATM   25  C14 UNL     1      12.368 -11.093  21.048  1.00  0.00     0.153 C 
HETATM   26  C15 UNL     1      12.182  -9.654  21.492  1.00  0.00     0.022 C 
ENDBRANCH  22  25
ENDBRANCH  19  22
ENDBRANCH   6  14
ENDBRANCH   3   6
TORSDOF 8
ENDMDL
MODEL 3
REMARK VINA RESULT: -6.086390445      1.091      1.294
REMARK  8 active torsions:
REMARK  status: ('A' for Active; 'I' for Inactive)
REMARK    1  A    between atoms: C3_3  and  C6_6 
REMARK    2  A    between atoms: C6_6  and  N1_7 
REMARK    3  A    between atoms: C6_6  and  C10_14 
REMARK    4  A    between atoms: N1_7  and  C7_9 
REMARK    5  A    between atoms: C7_9  and  C9_11 
REMARK    6  A    between atoms: C9_11  and  O1_12 
REMARK    7  A    between atoms: N2_18  and  S1_19 
REMARK    8  A    between atoms: S1_19  and  C14_22 
ROOT
HETATM    1  C1  UNL     1      15.415 -15.882  19.483  1.00  0.00     0.013 C 
HETATM    2  C2  UNL     1      14.658 -15.052  19.950  1.00  0.00    -0.106 C 
HETATM    3  C3  UNL     1      13.723 -14.037  20.491  1.00  0.00     0.037 C 
HETATM    4  C4  UNL     1      13.008 -14.733  21.622  1.00  0.00     0.031 C 
HETATM    5  C5  UNL     1      12.666 -13.798  19.451  1.00  0.00     0.031 C 
ENDROOT
BRANCH   3   6
HETATM    6  C6  UNL     1      14.410 -12.760  20.841  1.00  0.00     0.120 C 
BRANCH   6   7
HETATM    7  N1  UNL     1      13.591 -11.682  20.474  1.00  0.00    -0.387 N 
ATOM      8  H1  UNL     1      13.387 -11.562  19.481  1.00  0.00     0.159 HD
BRANCH   7   9
HETATM    9  C7  UNL     1      13.040 -10.773  21.352  1.00  0.00     0.002 C 
HETATM   10  C8  UNL     1      13.862  -9.533  21.686  1.00  0.00     0.065 C 
BRANCH   9  11
HETATM   11  C9  UNL     1      12.388 -11.209  22.613  1.00  0.00     0.215 C 
BRANCH  11  12
HETATM   12  O1  UNL     1      11.010 -11.395  22.539  1.00  0.00    -0.395 OA
ATOM     13  H1  UNL     1      10.584 -11.611  23.360  1.00  0.00     0.209 HD
ENDBRANCH  11  12
ENDBRANCH   9  11
ENDBRANCH   7   9
ENDBRANCH   6   7
BRANCH   6  14
HETATM   14  C10 UNL     1      15.808 -12.591  20.436  1.00  0.00     0.103 C 
HETATM   15  C11 UNL     1      16.867 -12.547  21.458  1.00  0.00     0.020 A 
HETATM   16  C12 UNL     1      18.003 -12.509  20.344  1.00  0.00     0.014 A 
HETATM   17  C16 UNL     1      18.163 -13.083  21.616  1.00  0.00    -0.037 A 
HETATM   18  C13 UNL     1      17.569 -11.188  19.828  1.00  0.00     0.113 C 
HETATM   19  N2  UNL     1      16.126 -11.373  19.705  1.00  0.00    -0.203 NA
HETATM   20  C17 UNL     1      19.199 -12.408  22.527  1.00  0.00     0.015 C 
HETATM   21  C18 UNL     1      18.251 -14.608  21.767  1.00  0.00     0.015 C 
BRANCH  19  22
HETATM   22  S1  UNL     1      15.641 -11.295  18.106  1.00  0.00     0.211 S 
HETATM   23  O2  UNL     1      14.355 -10.566  17.857  1.00  0.00    -0.211 OA
HETATM   24  O3  UNL     1      16.700 -10.483  17.354  1.00  0.00    -0.211 OA
BRANCH  22  25
HETATM   25  C14 UNL     1      15.527 -12.829  17.235  1.00  0.00     0.153 C 
HETATM   26  C15 UNL     1      15.924 -12.550  15.797  1.00  0.00     0.022 C 
ENDBRANCH  22  25
ENDBRANCH  19  22
ENDBRANCH   6  14
ENDBRANCH   3   6
TORSDOF 8
ENDMDL
MODEL 4
REMARK VINA RESULT: -6.055587888      2.619      5.135
REMARK  8 active torsions:
REMARK  status: ('A' for Active; 'I' for Inactive)
REMARK    1  A    between atoms: C3_3  and  C6_6 
REMARK    2  A    between atoms: C6_6  and  N1_7 
REMARK    3  A    between atoms: C6_6  and  C10_14 
REMARK    4  A    between atoms: N1_7  and  C7_9 
REMARK    5  A    between atoms: C7_9  and  C9_11 
REMARK    6  A    between atoms: C9_11  and  O1_12 
REMARK    7  A    between atoms: N2_18  and  S1_19 
REMARK    8  A    between atoms: S1_19  and  C14_22 
ROOT
HETATM    1  C1  UNL     1      15.361 -14.300  16.893  1.00  0.00     0.013 C 
HETATM    2  C2  UNL     1      15.461 -13.232  17.467  1.00  0.00    -0.106 C 
HETATM    3  C3  UNL     1      15.612 -11.929  18.159  1.00  0.00     0.037 C 
HETATM    4  C4  UNL     1      14.532 -11.053  17.574  1.00  0.00     0.031 C 
HETATM    5  C5  UNL     1      16.904 -11.318  17.692  1.00  0.00     0.031 C 
ENDROOT
BRANCH   3   6
HETATM    6  C6  UNL     1      15.608 -12.068  19.644  1.00  0.00     0.120 C 
BRANCH   6   7
HETATM    7  N1  UNL     1      16.303 -13.233  19.998  1.00  0.00    -0.387 N 
ATOM      8  H1  UNL     1      15.972 -14.117  19.610  1.00  0.00     0.159 HD
BRANCH   7   9
HETATM    9  C7  UNL     1      17.402 -13.276  20.831  1.00  0.00     0.002 C 
HETATM   10  C8  UNL     1      17.947 -14.650  21.203  1.00  0.00     0.065 C 
BRANCH   9  11
HETATM   11  C9  UNL     1      17.480 -12.436  22.054  1.00  0.00     0.215 C 
BRANCH  11  12
HETATM   12  O1  UNL     1      16.533 -12.720  23.034  1.00  0.00    -0.395 OA
ATOM     13  H1  UNL     1      16.681 -13.521  23.522  1.00  0.00     0.209 HD
ENDBRANCH  11  12
ENDBRANCH   9  11
ENDBRANCH   7   9
ENDBRANCH   6   7
BRANCH   6  14
HETATM   14  C10 UNL     1      14.332 -11.915  20.350  1.00  0.00     0.103 C 
HETATM   15  C11 UNL     1      14.113 -10.749  21.222  1.00  0.00     0.020 A 
HETATM   16  C12 UNL     1      12.599 -11.168  21.476  1.00  0.00     0.014 A 
HETATM   17  C16 UNL     1      13.062  -9.843  21.476  1.00  0.00    -0.037 A 
HETATM   18  C13 UNL     1      12.976 -12.419  22.179  1.00  0.00     0.113 C 
HETATM   19  N2  UNL     1      13.976 -12.981  21.276  1.00  0.00    -0.203 NA
HETATM   20  C17 UNL     1      12.957  -9.099  22.816  1.00  0.00     0.015 C 
HETATM   21  C18 UNL     1      12.691  -8.898  20.325  1.00  0.00     0.015 C 
BRANCH  19  22
HETATM   22  S1  UNL     1      13.449 -14.423  20.612  1.00  0.00     0.211 S 
HETATM   23  O2  UNL     1      14.529 -15.383  20.213  1.00  0.00    -0.211 OA
HETATM   24  O3  UNL     1      12.660 -15.157  21.700  1.00  0.00    -0.211 OA
BRANCH  22  25
HETATM   25  C14 UNL     1      12.344 -14.308  19.237  1.00  0.00     0.153 C 
HETATM   26  C15 UNL     1      12.388 -15.646  18.522  1.00  0.00     0.022 C 
ENDBRANCH  22  25
ENDBRANCH  19  22
ENDBRANCH   6  14
ENDBRANCH   3   6
TORSDOF 8
ENDMDL
MODEL 5
REMARK VINA RESULT: -5.889353888      1.516      4.959
REMARK  8 active torsions:
REMARK  status: ('A' for Active; 'I' for Inactive)
REMARK    1  A    between atoms: C3_3  and  C6_6 
REMARK    2  A    between atoms: C6_6  and  N1_7 
REMARK    3  A    between atoms: C6_6  and  C10_14 
REMARK    4  A    between atoms: N1_7  and  C7_9 
REMARK    5  A    between atoms: C7_9  and  C9_11 
REMARK    6  A    between atoms: C9_11  and  O1_12 
REMARK    7  A    between atoms: N2_18  and  S1_19 
REMARK    8  A    between atoms: S1_19  and  C14_22 
ROOT
HETATM    1  C1  UNL     1      18.066 -14.567  21.228  1.00  0.00     0.013 C 
HETATM    2  C2  UNL     1      17.684 -13.488  20.815  1.00  0.00    -0.106 C 
HETATM    3  C3  UNL     1      17.209 -12.166  20.339  1.00  0.00     0.037 C 
HETATM    4  C4  UNL     1      18.394 -11.562  19.629  1.00  0.00     0.031 C 
HETATM    5  C5  UNL     1      16.998 -11.302  21.550  1.00  0.00     0.031 C 
ENDROOT
BRANCH   3   6
HETATM    6  C6  UNL     1      15.952 -12.265  19.543  1.00  0.00     0.120 C 
BRANCH   6   7
HETATM    7  N1  UNL     1      15.894 -11.193  18.641  1.00  0.00    -0.387 N 
ATOM      8  H1  UNL     1      15.824 -10.252  19.031  1.00  0.00     0.159 HD
BRANCH   7   9
HETATM    9  C7  UNL     1      15.924 -11.313  17.267  1.00  0.00     0.002 C 
HETATM   10  C8  UNL     1      15.585 -12.676  16.674  1.00  0.00     0.065 C 
BRANCH   9  11
HETATM   11  C9  UNL     1      17.045 -10.761  16.465  1.00  0.00     0.215 C 
BRANCH  11  12
HETATM   12  O1  UNL     1      16.820  -9.503  15.913  1.00  0.00    -0.395 OA
ATOM     13  H1  UNL     1      16.175  -9.474  15.217  1.00  0.00     0.209 HD
ENDBRANCH  11  12
ENDBRANCH   9  11
ENDBRANCH   7   9
ENDBRANCH   6   7
BRANCH   6  14
HETATM   14  C10 UNL     1      14.693 -12.490  20.260  1.00  0.00     0.103 C 
HETATM   15  C11 UNL     1      14.097 -13.836  20.288  1.00  0.00     0.020 A 
HETATM   16  C12 UNL     1      12.954 -13.357  21.286  1.00  0.00     0.014 A 
HETATM   17  C16 UNL     1      13.473 -14.661  21.248  1.00  0.00    -0.037 A 
HETATM   18  C13 UNL     1      12.362 -12.426  20.295  1.00  0.00     0.113 C 
HETATM   19  N2  UNL     1      13.543 -11.725  19.801  1.00  0.00    -0.203 NA
HETATM   20  C17 UNL     1      12.485 -15.762  20.833  1.00  0.00     0.015 C 
HETATM   21  C18 UNL     1      14.368 -15.168  22.388  1.00  0.00     0.015 C 
BRANCH  19  22
HETATM   22  S1  UNL     1      13.496 -10.102  20.204  1.00  0.00     0.211 S 
HETATM   23  O2  UNL     1      14.773  -9.535  20.748  1.00  0.00    -0.211 OA
HETATM   24  O3  UNL     1      13.246  -9.324  18.909  1.00  0.00    -0.211 OA
BRANCH  22  25
HETATM   25  C14 UNL     1      12.211  -9.595  21.306  1.00  0.00     0.153 C 
HETATM   26  C15 UNL     1      12.866  -9.299  22.642  1.00  0.00     0.022 C 
ENDBRANCH  22  25
ENDBRANCH  19  22
ENDBRANCH   6  14
ENDBRANCH   3   6
TORSDOF 8
ENDMDL
