MODEL 1
REMARK VINA RESULT: -6.926796457      0.000      0.000
REMARK  7 active torsions:
REMARK  status: ('A' for Active; 'I' for Inactive)
REMARK    1  A    between atoms: C3_3  and  N1_4 
REMARK    2  A    between atoms: N2_12  and  C10_13 
REMARK    3  A    between atoms: C13_16  and  O1_17 
REMARK    4  A    between atoms: C13_16  and  C14_19 
REMARK    5  A    between atoms: C14_19  and  N3_20 
REMARK    6  A    between atoms: N3_20  and  S1_22 
REMARK    7  A    between atoms: S1_22  and  C15_25 
ROOT
HETATM    1  C1  UNL     1      20.359 -12.617  24.292  1.00  0.00     0.014 C 
HETATM    2  C2  UNL     1      20.003 -12.480  23.141  1.00  0.00    -0.098 C 
HETATM    3  C3  UNL     1      19.573 -12.339  21.739  1.00  0.00     0.214 C 
ENDROOT
BRANCH   3   4
HETATM    4  N1  UNL     1      18.255 -12.850  21.650  1.00  0.00    -0.363 N 
HETATM    5  C4  UNL     1      17.444 -12.591  20.671  1.00  0.00     0.181 C 
HETATM    6  C5  UNL     1      18.043 -11.707  19.667  1.00  0.00     0.084 C 
HETATM    7  N2  UNL     1      16.177 -13.217  20.801  1.00  0.00    -0.024 N 
HETATM    8  C6  UNL     1      17.177 -11.330  18.533  1.00  0.00     0.015 C 
HETATM    9  C7  UNL     1      15.735 -11.666  18.666  1.00  0.00     0.025 C 
HETATM   10  C8  UNL     1      15.435 -13.131  18.471  1.00  0.00     0.036 C 
HETATM   11  C13 UNL     1      15.120 -11.176  19.941  1.00  0.00     0.102 C 
HETATM   12  C9  UNL     1      15.935 -13.980  19.603  1.00  0.00     0.246 C 
HETATM   13  C12 UNL     1      15.177 -12.205  21.045  1.00  0.00     0.285 C 
ATOM     14  H1  UNL     1      17.924 -13.458  22.399  1.00  0.00     0.161 HD
BRANCH  11  15
HETATM   15  O1  UNL     1      15.817 -10.004  20.309  1.00  0.00    -0.386 OA
ATOM     16  H1  UNL     1      15.704  -9.381  19.599  1.00  0.00     0.210 HD
ENDBRANCH  11  15
BRANCH  11  17
HETATM   17  C14 UNL     1      13.691 -10.748  19.693  1.00  0.00     0.171 C 
BRANCH  17  18
HETATM   18  N3  UNL     1      12.893 -10.955  20.866  1.00  0.00    -0.316 N 
ATOM     19  H3  UNL     1      12.575 -11.866  21.198  1.00  0.00     0.172 HD
BRANCH  18  20
HETATM   20  S1  UNL     1      12.544  -9.448  21.644  1.00  0.00     0.230 S 
HETATM   21  O2  UNL     1      13.794  -8.874  22.264  1.00  0.00    -0.206 OA
HETATM   22  O3  UNL     1      11.986  -8.462  20.659  1.00  0.00    -0.206 OA
BRANCH  20  23
HETATM   23  C15 UNL     1      11.275  -9.699  22.885  1.00  0.00     0.129 A 
HETATM   24  C16 UNL     1      11.561 -10.778  23.935  1.00  0.00     0.023 A 
HETATM   25  C17 UNL     1      11.588  -9.290  24.283  1.00  0.00     0.023 A 
ENDBRANCH  20  23
ENDBRANCH  18  20
ENDBRANCH  17  18
ENDBRANCH  11  17
BRANCH   7  26
HETATM   26  C10 UNL     1      16.156 -14.130  21.916  1.00  0.00     0.241 C 
HETATM   27  C11 UNL     1      15.046 -15.145  21.810  1.00  0.00     0.035 C 
ENDBRANCH   7  26
ENDBRANCH   3   4
TORSDOF 7
ENDMDL
MODEL 2
REMARK VINA RESULT: -6.781497584      2.957      6.440
REMARK  7 active torsions:
REMARK  status: ('A' for Active; 'I' for Inactive)
REMARK    1  A    between atoms: C3_3  and  N1_4 
REMARK    2  A    between atoms: N2_12  and  C10_13 
REMARK    3  A    between atoms: C13_16  and  O1_17 
REMARK    4  A    between atoms: C13_16  and  C14_19 
REMARK    5  A    between atoms: C14_19  and  N3_20 
REMARK    6  A    between atoms: N3_20  and  S1_22 
REMARK    7  A    between atoms: S1_22  and  C15_25 
ROOT
HETATM    1  C1  UNL     1      12.486  -8.863  23.097  1.00  0.00     0.014 C 
HETATM    2  C2  UNL     1      12.178  -9.895  22.539  1.00  0.00    -0.098 C 
HETATM    3  C3  UNL     1      11.799 -11.135  21.840  1.00  0.00     0.214 C 
ENDROOT
BRANCH   3   4
HETATM    4  N1  UNL     1      12.801 -11.397  20.873  1.00  0.00    -0.363 N 
HETATM    5  C4  UNL     1      13.476 -12.503  20.814  1.00  0.00     0.181 C 
HETATM    6  C5  UNL     1      13.088 -13.452  21.861  1.00  0.00     0.084 C 
HETATM    7  N2  UNL     1      14.426 -12.533  19.760  1.00  0.00    -0.024 N 
HETATM    8  C6  UNL     1      13.832 -14.727  21.890  1.00  0.00     0.015 C 
HETATM    9  C7  UNL     1      15.050 -14.798  21.040  1.00  0.00     0.025 C 
HETATM   10  C8  UNL     1      14.751 -14.951  19.570  1.00  0.00     0.036 C 
HETATM   11  C13 UNL     1      16.004 -13.664  21.261  1.00  0.00     0.102 C 
HETATM   12  C9  UNL     1      14.167 -13.707  18.965  1.00  0.00     0.246 C 
HETATM   13  C12 UNL     1      15.754 -12.506  20.324  1.00  0.00     0.285 C 
ATOM     14  H1  UNL     1      13.003 -10.673  20.183  1.00  0.00     0.161 HD
BRANCH  11  15
HETATM   15  O1  UNL     1      15.859 -13.263  22.607  1.00  0.00    -0.386 OA
ATOM     16  H1  UNL     1      15.160 -12.620  22.630  1.00  0.00     0.210 HD
ENDBRANCH  11  15
BRANCH  11  17
HETATM   17  C14 UNL     1      17.428 -14.156  21.124  1.00  0.00     0.171 C 
BRANCH  17  18
HETATM   18  N3  UNL     1      18.172 -13.876  22.317  1.00  0.00    -0.316 N 
ATOM     19  H3  UNL     1      17.811 -13.986  23.265  1.00  0.00     0.172 HD
BRANCH  18  20
HETATM   20  S1  UNL     1      19.767 -13.326  21.930  1.00  0.00     0.230 S 
HETATM   21  O2  UNL     1      20.261 -12.363  22.981  1.00  0.00    -0.206 OA
HETATM   22  O3  UNL     1      20.717 -14.484  21.838  1.00  0.00    -0.206 OA
BRANCH  20  23
HETATM   23  C15 UNL     1      19.754 -12.551  20.313  1.00  0.00     0.129 A 
HETATM   24  C16 UNL     1      19.261 -11.102  20.263  1.00  0.00     0.023 A 
HETATM   25  C17 UNL     1      20.734 -11.458  20.065  1.00  0.00     0.023 A 
ENDBRANCH  20  23
ENDBRANCH  18  20
ENDBRANCH  17  18
ENDBRANCH  11  17
BRANCH   7  26
HETATM   26  C10 UNL     1      14.293 -11.383  18.901  1.00  0.00     0.241 C 
HETATM   27  C11 UNL     1      15.041 -11.543  17.602  1.00  0.00     0.035 C 
ENDBRANCH   7  26
ENDBRANCH   3   4
TORSDOF 7
ENDMDL
MODEL 3
REMARK VINA RESULT: -6.776557953      2.159      3.608
REMARK  7 active torsions:
REMARK  status: ('A' for Active; 'I' for Inactive)
REMARK    1  A    between atoms: C3_3  and  N1_4 
REMARK    2  A    between atoms: N2_12  and  C10_13 
REMARK    3  A    between atoms: C13_16  and  O1_17 
REMARK    4  A    between atoms: C13_16  and  C14_19 
REMARK    5  A    between atoms: C14_19  and  N3_20 
REMARK    6  A    between atoms: N3_20  and  S1_22 
REMARK    7  A    between atoms: S1_22  and  C15_25 
ROOT
HETATM    1  C1  UNL     1      14.377 -18.990  24.685  1.00  0.00     0.014 C 
HETATM    2  C2  UNL     1      15.054 -18.092  24.230  1.00  0.00    -0.098 C 
HETATM    3  C3  UNL     1      15.876 -17.013  23.654  1.00  0.00     0.214 C 
ENDROOT
BRANCH   3   4
HETATM    4  N1  UNL     1      15.031 -16.239  22.821  1.00  0.00    -0.363 N 
HETATM    5  C4  UNL     1      15.461 -15.335  21.997  1.00  0.00     0.181 C 
HETATM    6  C5  UNL     1      16.920 -15.200  22.023  1.00  0.00     0.084 C 
HETATM    7  N2  UNL     1      14.426 -14.690  21.269  1.00  0.00    -0.024 N 
HETATM    8  C6  UNL     1      17.494 -14.167  21.140  1.00  0.00     0.015 C 
HETATM    9  C7  UNL     1      16.530 -13.213  20.530  1.00  0.00     0.025 C 
HETATM   10  C8  UNL     1      15.729 -13.805  19.397  1.00  0.00     0.036 C 
HETATM   11  C13 UNL     1      15.619 -12.562  21.525  1.00  0.00     0.102 C 
HETATM   12  C9  UNL     1      14.726 -14.819  19.865  1.00  0.00     0.246 C 
HETATM   13  C12 UNL     1      14.326 -13.320  21.709  1.00  0.00     0.285 C 
ATOM     14  H1  UNL     1      14.025 -16.403  22.873  1.00  0.00     0.161 HD
BRANCH  11  15
HETATM   15  O1  UNL     1      16.333 -12.478  22.741  1.00  0.00    -0.386 OA
ATOM     16  H1  UNL     1      15.687 -12.407  23.435  1.00  0.00     0.210 HD
ENDBRANCH  11  15
BRANCH  11  17
HETATM   17  C14 UNL     1      15.339 -11.135  21.109  1.00  0.00     0.171 C 
BRANCH  17  18
HETATM   18  N3  UNL     1      14.014 -11.018  20.575  1.00  0.00    -0.316 N 
ATOM     19  H3  UNL     1      13.535 -11.747  20.047  1.00  0.00     0.172 HD
BRANCH  18  20
HETATM   20  S1  UNL     1      13.336  -9.469  20.950  1.00  0.00     0.230 S 
HETATM   21  O2  UNL     1      14.317  -8.644  21.745  1.00  0.00    -0.206 OA
HETATM   22  O3  UNL     1      12.978  -8.731  19.692  1.00  0.00    -0.206 OA
BRANCH  20  23
HETATM   23  C15 UNL     1      11.808  -9.692  21.860  1.00  0.00     0.129 A 
HETATM   24  C16 UNL     1      11.829 -10.749  22.968  1.00  0.00     0.023 A 
HETATM   25  C17 UNL     1      11.783  -9.255  23.283  1.00  0.00     0.023 A 
ENDBRANCH  20  23
ENDBRANCH  18  20
ENDBRANCH  17  18
ENDBRANCH  11  17
BRANCH   7  26
HETATM   26  C10 UNL     1      13.150 -15.319  21.505  1.00  0.00     0.241 C 
HETATM   27  C11 UNL     1      12.248 -15.263  20.298  1.00  0.00     0.035 C 
ENDBRANCH   7  26
ENDBRANCH   3   4
TORSDOF 7
ENDMDL
MODEL 4
REMARK VINA RESULT: -6.735070269      1.692      2.046
REMARK  7 active torsions:
REMARK  status: ('A' for Active; 'I' for Inactive)
REMARK    1  A    between atoms: C3_3  and  N1_4 
REMARK    2  A    between atoms: N2_12  and  C10_13 
REMARK    3  A    between atoms: C13_16  and  O1_17 
REMARK    4  A    between atoms: C13_16  and  C14_19 
REMARK    5  A    between atoms: C14_19  and  N3_20 
REMARK    6  A    between atoms: N3_20  and  S1_22 
REMARK    7  A    between atoms: S1_22  and  C15_25 
ROOT
HETATM    1  C1  UNL     1      21.454 -11.870  25.319  1.00  0.00     0.014 C 
HETATM    2  C2  UNL     1      21.280 -12.359  24.222  1.00  0.00    -0.098 C 
HETATM    3  C3  UNL     1      21.065 -12.976  22.902  1.00  0.00     0.214 C 
ENDROOT
BRANCH   3   4
HETATM    4  N1  UNL     1      19.678 -13.231  22.778  1.00  0.00    -0.363 N 
HETATM    5  C4  UNL     1      18.971 -12.892  21.744  1.00  0.00     0.181 C 
HETATM    6  C5  UNL     1      19.767 -12.213  20.719  1.00  0.00     0.084 C 
HETATM    7  N2  UNL     1      17.602 -13.254  21.848  1.00  0.00    -0.024 N 
HETATM    8  C6  UNL     1      19.035 -11.760  19.520  1.00  0.00     0.015 C 
HETATM    9  C7  UNL     1      17.551 -11.804  19.601  1.00  0.00     0.025 C 
HETATM   10  C8  UNL     1      16.980 -13.194  19.483  1.00  0.00     0.036 C 
HETATM   11  C13 UNL     1      16.995 -11.115  20.809  1.00  0.00     0.102 C 
HETATM   12  C9  UNL     1      17.262 -14.041  20.690  1.00  0.00     0.246 C 
HETATM   13  C12 UNL     1      16.809 -12.055  21.977  1.00  0.00     0.285 C 
ATOM     14  H1  UNL     1      19.207 -13.709  23.545  1.00  0.00     0.161 HD
BRANCH  11  15
HETATM   15  O1  UNL     1      17.892 -10.075  21.138  1.00  0.00    -0.386 OA
ATOM     16  H1  UNL     1      17.811  -9.925  22.073  1.00  0.00     0.210 HD
ENDBRANCH  11  15
BRANCH  11  17
HETATM   17  C14 UNL     1      15.686 -10.441  20.461  1.00  0.00     0.171 C 
BRANCH  17  18
HETATM   18  N3  UNL     1      14.626 -10.947  21.284  1.00  0.00    -0.316 N 
ATOM     19  H3  UNL     1      14.760 -11.404  22.186  1.00  0.00     0.172 HD
BRANCH  18  20
HETATM   20  S1  UNL     1      13.088 -10.674  20.538  1.00  0.00     0.230 S 
HETATM   21  O2  UNL     1      13.261  -9.962  19.220  1.00  0.00    -0.206 OA
HETATM   22  O3  UNL     1      12.376 -11.975  20.306  1.00  0.00    -0.206 OA
BRANCH  20  23
HETATM   23  C15 UNL     1      12.051  -9.719  21.646  1.00  0.00     0.129 A 
HETATM   24  C16 UNL     1      11.845 -10.299  23.048  1.00  0.00     0.023 A 
HETATM   25  C17 UNL     1      12.707  -9.060  22.808  1.00  0.00     0.023 A 
ENDBRANCH  20  23
ENDBRANCH  18  20
ENDBRANCH  17  18
ENDBRANCH  11  17
BRANCH   7  26
HETATM   26  C10 UNL     1      17.361 -14.064  23.016  1.00  0.00     0.241 C 
HETATM   27  C11 UNL     1      17.029 -15.493  22.668  1.00  0.00     0.035 C 
ENDBRANCH   7  26
ENDBRANCH   3   4
TORSDOF 7
ENDMDL
MODEL 5
REMARK VINA RESULT: -6.702132854      2.954      6.529
REMARK  7 active torsions:
REMARK  status: ('A' for Active; 'I' for Inactive)
REMARK    1  A    between atoms: C3_3  and  N1_4 
REMARK    2  A    between atoms: N2_12  and  C10_13 
REMARK    3  A    between atoms: C13_16  and  O1_17 
REMARK    4  A    between atoms: C13_16  and  C14_19 
REMARK    5  A    between atoms: C14_19  and  N3_20 
REMARK    6  A    between atoms: N3_20  and  S1_22 
REMARK    7  A    between atoms: S1_22  and  C15_25 
ROOT
HETATM    1  C1  UNL     1      12.478  -9.009  23.016  1.00  0.00     0.014 C 
HETATM    2  C2  UNL     1      12.304 -10.043  22.404  1.00  0.00    -0.098 C 
HETATM    3  C3  UNL     1      12.087 -11.284  21.641  1.00  0.00     0.214 C 
ENDROOT
BRANCH   3   4
HETATM    4  N1  UNL     1      13.178 -11.425  20.749  1.00  0.00    -0.363 N 
HETATM    5  C4  UNL     1      14.022 -12.410  20.790  1.00  0.00     0.181 C 
HETATM    6  C5  UNL     1      13.721 -13.360  21.865  1.00  0.00     0.084 C 
HETATM    7  N2  UNL     1      15.031 -12.336  19.795  1.00  0.00    -0.024 N 
HETATM    8  C6  UNL     1      14.653 -14.496  22.008  1.00  0.00     0.015 C 
HETATM    9  C7  UNL     1      15.919 -14.410  21.233  1.00  0.00     0.025 C 
HETATM   10  C8  UNL     1      15.745 -14.677  19.759  1.00  0.00     0.036 C 
HETATM   11  C13 UNL     1      16.666 -13.129  21.444  1.00  0.00     0.102 C 
HETATM   12  C9  UNL     1      15.012 -13.572  19.053  1.00  0.00     0.246 C 
HETATM   13  C12 UNL     1      16.299 -12.070  20.431  1.00  0.00     0.285 C 
ATOM     14  H1  UNL     1      13.308 -10.711  20.032  1.00  0.00     0.161 HD
BRANCH  11  15
HETATM   15  O1  UNL     1      16.373 -12.694  22.755  1.00  0.00    -0.386 OA
ATOM     16  H1  UNL     1      15.492 -12.990  22.954  1.00  0.00     0.210 HD
ENDBRANCH  11  15
BRANCH  11  17
HETATM   17  C14 UNL     1      18.156 -13.391  21.416  1.00  0.00     0.171 C 
BRANCH  17  18
HETATM   18  N3  UNL     1      18.682 -13.435  22.749  1.00  0.00    -0.316 N 
ATOM     19  H3  UNL     1      18.131 -13.634  23.584  1.00  0.00     0.172 HD
BRANCH  18  20
HETATM   20  S1  UNL     1      20.382 -13.106  22.747  1.00  0.00     0.230 S 
HETATM   21  O2  UNL     1      21.167 -14.393  22.798  1.00  0.00    -0.206 OA
HETATM   22  O3  UNL     1      20.771 -12.341  21.516  1.00  0.00    -0.206 OA
BRANCH  20  23
HETATM   23  C15 UNL     1      20.787 -12.059  24.145  1.00  0.00     0.129 A 
HETATM   24  C16 UNL     1      20.603 -12.682  25.532  1.00  0.00     0.023 A 
HETATM   25  C17 UNL     1      21.989 -12.414  24.947  1.00  0.00     0.023 A 
ENDBRANCH  20  23
ENDBRANCH  18  20
ENDBRANCH  17  18
ENDBRANCH  11  17
BRANCH   7  26
HETATM   26  C10 UNL     1      14.774 -11.263  18.867  1.00  0.00     0.241 C 
HETATM   27  C11 UNL     1      15.127 -11.631  17.448  1.00  0.00     0.035 C 
ENDBRANCH   7  26
ENDBRANCH   3   4
TORSDOF 7
ENDMDL
