MODEL 1
REMARK VINA RESULT: -8.161168467      0.000      0.000
REMARK  8 active torsions:
REMARK  status: ('A' for Active; 'I' for Inactive)
REMARK    1  A    between atoms: C2_2  and  N1_3 
REMARK    2  A    between atoms: N1_3  and  C3_5 
REMARK    3  A    between atoms: C6_10  and  N3_11 
REMARK    4  A    between atoms: N3_11  and  S1_13 
REMARK    5  A    between atoms: S1_13  and  C7_16 
REMARK    6  A    between atoms: C7_16  and  C8_17 
REMARK    7  A    between atoms: C8_17  and  C9_18 
REMARK    8  A    between atoms: C9_18  and  N4_19 
ROOT
HETATM    1  S1  UNL     1      16.040 -11.020  19.241  1.00  0.00     0.244 S 
HETATM    2  O1  UNL     1      16.667 -10.758  17.907  1.00  0.00    -0.205 OA
HETATM    3  O2  UNL     1      16.631 -10.035  20.209  1.00  0.00    -0.205 OA
ENDROOT
BRANCH   1   4
HETATM    4  N3  UNL     1      14.338 -10.800  19.232  1.00  0.00    -0.116 N 
ATOM      5  H3  UNL     1      13.863 -10.743  18.332  1.00  0.00     0.197 HD
BRANCH   4   6
HETATM    6  C6  UNL     1      13.636 -10.705  20.290  1.00  0.00     0.693 A 
HETATM    7  N2  UNL     1      12.744 -11.711  20.527  1.00  0.00    -0.201 N 
HETATM    8  C5  UNL     1      11.955 -11.706  21.614  1.00  0.00     0.110 A 
ATOM      9  H2  UNL     1      12.675 -12.483  19.864  1.00  0.00     0.183 HD
HETATM   10  C4  UNL     1      12.059 -10.654  22.504  1.00  0.00     0.066 A 
HETATM   11  C3  UNL     1      12.952  -9.635  22.278  1.00  0.00     0.118 A 
HETATM   12  N5  UNL     1      13.712  -9.701  21.170  1.00  0.00    -0.176 N 
ATOM     13  H5  UNL     1      14.379  -8.950  20.992  1.00  0.00     0.186 HD
BRANCH  11  14
HETATM   14  N1  UNL     1      13.040  -8.659  23.114  1.00  0.00    -0.376 N 
ATOM     15  H1  UNL     1      13.887  -8.091  23.138  1.00  0.00     0.161 HD
BRANCH  14  16
HETATM   16  C2  UNL     1      11.965  -8.364  24.009  1.00  0.00     0.116 C 
HETATM   17  C1  UNL     1      12.145  -6.972  24.579  1.00  0.00     0.026 C 
ENDBRANCH  14  16
ENDBRANCH  11  14
ENDBRANCH   4   6
ENDBRANCH   1   4
BRANCH   1  18
HETATM   18  C7  UNL     1      16.436 -12.684  19.717  1.00  0.00     0.165 C 
BRANCH  18  19
HETATM   19  C8  UNL     1      16.982 -12.723  21.148  1.00  0.00     0.037 C 
BRANCH  19  20
HETATM   20  C9  UNL     1      18.072 -13.767  21.153  1.00  0.00     0.130 C 
BRANCH  20  21
HETATM   21  N4  UNL     1      19.162 -13.469  22.027  1.00  0.00    -0.355 N 
HETATM   22  C10 UNL     1      20.188 -12.724  21.539  1.00  0.00     0.008 A 
HETATM   23  C11 UNL     1      20.254 -12.199  20.170  1.00  0.00     0.068 C 
HETATM   24  C12 UNL     1      21.259 -12.425  22.378  1.00  0.00     0.031 A 
HETATM   25  C13 UNL     1      21.296 -12.866  23.682  1.00  0.00    -0.058 A 
HETATM   26  C14 UNL     1      22.427 -12.560  24.597  1.00  0.00     0.048 C 
HETATM   27  C15 UNL     1      20.252 -13.609  24.135  1.00  0.00     0.031 A 
HETATM   28  C16 UNL     1      19.187 -13.907  23.300  1.00  0.00     0.008 A 
HETATM   29  C17 UNL     1      18.071 -14.729  23.866  1.00  0.00     0.068 C 
ENDBRANCH  20  21
ENDBRANCH  19  20
ENDBRANCH  18  19
ENDBRANCH   1  18
TORSDOF 8
ENDMDL
MODEL 2
REMARK VINA RESULT: -8.127111184      0.060      1.694
REMARK  8 active torsions:
REMARK  status: ('A' for Active; 'I' for Inactive)
REMARK    1  A    between atoms: C2_2  and  N1_3 
REMARK    2  A    between atoms: N1_3  and  C3_5 
REMARK    3  A    between atoms: C6_10  and  N3_11 
REMARK    4  A    between atoms: N3_11  and  S1_13 
REMARK    5  A    between atoms: S1_13  and  C7_16 
REMARK    6  A    between atoms: C7_16  and  C8_17 
REMARK    7  A    between atoms: C8_17  and  C9_18 
REMARK    8  A    between atoms: C9_18  and  N4_19 
ROOT
HETATM    1  S1  UNL     1      16.031 -11.014  19.164  1.00  0.00     0.244 S 
HETATM    2  O1  UNL     1      16.637 -10.784  17.816  1.00  0.00    -0.205 OA
HETATM    3  O2  UNL     1      16.622  -9.994  20.096  1.00  0.00    -0.205 OA
ENDROOT
BRANCH   1   4
HETATM    4  N3  UNL     1      14.326 -10.813  19.171  1.00  0.00    -0.116 N 
ATOM      5  H3  UNL     1      13.842 -10.767  18.275  1.00  0.00     0.197 HD
BRANCH   4   6
HETATM    6  C6  UNL     1      13.633 -10.717  20.235  1.00  0.00     0.693 A 
HETATM    7  N2  UNL     1      12.746 -11.726  20.481  1.00  0.00    -0.201 N 
HETATM    8  C5  UNL     1      11.967 -11.721  21.576  1.00  0.00     0.110 A 
ATOM      9  H2  UNL     1      12.674 -12.500  19.820  1.00  0.00     0.183 HD
HETATM   10  C4  UNL     1      12.076 -10.668  22.463  1.00  0.00     0.066 A 
HETATM   11  C3  UNL     1      12.964  -9.646  22.228  1.00  0.00     0.118 A 
HETATM   12  N5  UNL     1      13.715  -9.712  21.112  1.00  0.00    -0.176 N 
ATOM     13  H5  UNL     1      14.377  -8.959  20.928  1.00  0.00     0.186 HD
BRANCH  11  14
HETATM   14  N1  UNL     1      13.057  -8.669  23.061  1.00  0.00    -0.376 N 
ATOM     15  H1  UNL     1      13.886  -8.076  23.053  1.00  0.00     0.161 HD
BRANCH  14  16
HETATM   16  C2  UNL     1      12.010  -8.406  23.999  1.00  0.00     0.116 C 
HETATM   17  C1  UNL     1      12.181  -7.016  24.575  1.00  0.00     0.026 C 
ENDBRANCH  14  16
ENDBRANCH  11  14
ENDBRANCH   4   6
ENDBRANCH   1   4
BRANCH   1  18
HETATM   18  C7  UNL     1      16.451 -12.659  19.685  1.00  0.00     0.165 C 
BRANCH  18  19
HETATM   19  C8  UNL     1      16.989 -12.652  21.119  1.00  0.00     0.037 C 
BRANCH  19  20
HETATM   20  C9  UNL     1      18.030 -13.744  21.180  1.00  0.00     0.130 C 
BRANCH  20  21
HETATM   21  N4  UNL     1      19.144 -13.443  22.023  1.00  0.00    -0.355 N 
HETATM   22  C10 UNL     1      19.117 -13.894  23.303  1.00  0.00     0.008 A 
HETATM   23  C11 UNL     1      18.020 -14.677  23.885  1.00  0.00     0.068 C 
HETATM   24  C12 UNL     1      20.195 -13.608  24.139  1.00  0.00     0.031 A 
HETATM   25  C13 UNL     1      21.277 -12.882  23.694  1.00  0.00    -0.058 A 
HETATM   26  C14 UNL     1      22.439 -12.564  24.565  1.00  0.00     0.048 C 
HETATM   27  C15 UNL     1      21.267 -12.446  22.406  1.00  0.00     0.031 A 
HETATM   28  C16 UNL     1      20.195 -12.731  21.575  1.00  0.00     0.008 A 
HETATM   29  C17 UNL     1      20.253 -12.220  20.169  1.00  0.00     0.068 C 
ENDBRANCH  20  21
ENDBRANCH  19  20
ENDBRANCH  18  19
ENDBRANCH   1  18
TORSDOF 8
ENDMDL
MODEL 3
REMARK VINA RESULT: -7.985184411      1.221      2.124
REMARK  8 active torsions:
REMARK  status: ('A' for Active; 'I' for Inactive)
REMARK    1  A    between atoms: C2_2  and  N1_3 
REMARK    2  A    between atoms: N1_3  and  C3_5 
REMARK    3  A    between atoms: C6_10  and  N3_11 
REMARK    4  A    between atoms: N3_11  and  S1_13 
REMARK    5  A    between atoms: S1_13  and  C7_16 
REMARK    6  A    between atoms: C7_16  and  C8_17 
REMARK    7  A    between atoms: C8_17  and  C9_18 
REMARK    8  A    between atoms: C9_18  and  N4_19 
ROOT
HETATM    1  S1  UNL     1      16.278 -11.487  19.597  1.00  0.00     0.244 S 
HETATM    2  O1  UNL     1      15.220 -12.434  19.125  1.00  0.00    -0.205 OA
HETATM    3  O2  UNL     1      16.566 -10.544  18.464  1.00  0.00    -0.205 OA
ENDROOT
BRANCH   1   4
HETATM    4  N3  UNL     1      15.782 -10.554  20.951  1.00  0.00    -0.116 N 
ATOM      5  H3  UNL     1      16.433  -9.864  21.325  1.00  0.00     0.197 HD
BRANCH   4   6
HETATM    6  C6  UNL     1      14.646 -10.676  21.511  1.00  0.00     0.693 A 
HETATM    7  N2  UNL     1      14.202 -11.950  21.724  1.00  0.00    -0.201 N 
HETATM    8  C5  UNL     1      13.016 -12.189  22.308  1.00  0.00     0.110 A 
ATOM      9  H2  UNL     1      14.783 -12.737  21.434  1.00  0.00     0.183 HD
HETATM   10  C4  UNL     1      12.239 -11.114  22.696  1.00  0.00     0.066 A 
HETATM   11  C3  UNL     1      12.673  -9.828  22.488  1.00  0.00     0.118 A 
HETATM   12  N5  UNL     1      13.871  -9.658  21.898  1.00  0.00    -0.176 N 
ATOM     13  H5  UNL     1      14.203  -8.707  21.739  1.00  0.00     0.186 HD
BRANCH  11  14
HETATM   14  N1  UNL     1      11.941  -8.834  22.854  1.00  0.00    -0.376 N 
ATOM     15  H1  UNL     1      11.512  -8.236  22.148  1.00  0.00     0.161 HD
BRANCH  14  16
HETATM   16  C2  UNL     1      11.723  -8.558  24.240  1.00  0.00     0.116 C 
HETATM   17  C1  UNL     1      12.113  -7.126  24.541  1.00  0.00     0.026 C 
ENDBRANCH  14  16
ENDBRANCH  11  14
ENDBRANCH   4   6
ENDBRANCH   1   4
BRANCH   1  18
HETATM   18  C7  UNL     1      17.722 -12.435  20.008  1.00  0.00     0.165 C 
BRANCH  18  19
HETATM   19  C8  UNL     1      17.420 -13.418  21.143  1.00  0.00     0.037 C 
BRANCH  19  20
HETATM   20  C9  UNL     1      18.734 -14.078  21.486  1.00  0.00     0.130 C 
BRANCH  20  21
HETATM   21  N4  UNL     1      19.333 -13.594  22.689  1.00  0.00    -0.355 N 
HETATM   22  C10 UNL     1      18.872 -14.077  23.872  1.00  0.00     0.008 A 
HETATM   23  C11 UNL     1      17.798 -15.069  24.001  1.00  0.00     0.068 C 
HETATM   24  C12 UNL     1      19.445 -13.615  25.055  1.00  0.00     0.031 A 
HETATM   25  C13 UNL     1      20.461 -12.686  25.048  1.00  0.00    -0.058 A 
HETATM   26  C14 UNL     1      21.088 -12.177  26.295  1.00  0.00     0.048 C 
HETATM   27  C15 UNL     1      20.895 -12.225  23.845  1.00  0.00     0.031 A 
HETATM   28  C16 UNL     1      20.326 -12.685  22.668  1.00  0.00     0.008 A 
HETATM   29  C17 UNL     1      20.855 -12.134  21.380  1.00  0.00     0.068 C 
ENDBRANCH  20  21
ENDBRANCH  19  20
ENDBRANCH  18  19
ENDBRANCH   1  18
TORSDOF 8
ENDMDL
MODEL 4
REMARK VINA RESULT: -7.981255661      1.480      3.185
REMARK  8 active torsions:
REMARK  status: ('A' for Active; 'I' for Inactive)
REMARK    1  A    between atoms: C2_2  and  N1_3 
REMARK    2  A    between atoms: N1_3  and  C3_5 
REMARK    3  A    between atoms: C6_10  and  N3_11 
REMARK    4  A    between atoms: N3_11  and  S1_13 
REMARK    5  A    between atoms: S1_13  and  C7_16 
REMARK    6  A    between atoms: C7_16  and  C8_17 
REMARK    7  A    between atoms: C8_17  and  C9_18 
REMARK    8  A    between atoms: C9_18  and  N4_19 
ROOT
HETATM    1  S1  UNL     1      16.522 -11.355  19.319  1.00  0.00     0.244 S 
HETATM    2  O1  UNL     1      15.517 -12.422  19.016  1.00  0.00    -0.205 OA
HETATM    3  O2  UNL     1      16.896 -10.714  18.013  1.00  0.00    -0.205 OA
ENDROOT
BRANCH   1   4
HETATM    4  N3  UNL     1      15.903 -10.131  20.352  1.00  0.00    -0.116 N 
ATOM      5  H3  UNL     1      16.396  -9.240  20.393  1.00  0.00     0.197 HD
BRANCH   4   6
HETATM    6  C6  UNL     1      14.862 -10.277  21.070  1.00  0.00     0.693 A 
HETATM    7  N2  UNL     1      14.243  -9.135  21.492  1.00  0.00    -0.201 N 
HETATM    8  C5  UNL     1      13.138  -9.178  22.254  1.00  0.00     0.110 A 
ATOM      9  H2  UNL     1      14.629  -8.230  21.222  1.00  0.00     0.183 HD
HETATM   10  C4  UNL     1      12.627 -10.411  22.612  1.00  0.00     0.066 A 
HETATM   11  C3  UNL     1      13.239 -11.568  22.195  1.00  0.00     0.118 A 
HETATM   12  N5  UNL     1      14.343 -11.454  21.433  1.00  0.00    -0.176 N 
ATOM     13  H5  UNL     1      14.806 -12.307  21.118  1.00  0.00     0.186 HD
BRANCH  11  14
HETATM   14  N1  UNL     1      12.754 -12.712  22.535  1.00  0.00    -0.376 N 
ATOM     15  H1  UNL     1      11.932 -12.753  23.137  1.00  0.00     0.161 HD
BRANCH  14  16
HETATM   16  C2  UNL     1      13.356 -13.925  22.076  1.00  0.00     0.116 C 
HETATM   17  C1  UNL     1      12.516 -14.521  20.965  1.00  0.00     0.026 C 
ENDBRANCH  14  16
ENDBRANCH  11  14
ENDBRANCH   4   6
ENDBRANCH   1   4
BRANCH   1  18
HETATM   18  C7  UNL     1      17.935 -12.126  20.068  1.00  0.00     0.165 C 
BRANCH  18  19
HETATM   19  C8  UNL     1      17.502 -13.259  21.003  1.00  0.00     0.037 C 
BRANCH  19  20
HETATM   20  C9  UNL     1      18.766 -13.989  21.390  1.00  0.00     0.130 C 
BRANCH  20  21
HETATM   21  N4  UNL     1      19.346 -13.541  22.616  1.00  0.00    -0.355 N 
HETATM   22  C10 UNL     1      18.844 -14.032  23.778  1.00  0.00     0.008 A 
HETATM   23  C11 UNL     1      17.743 -14.998  23.864  1.00  0.00     0.068 C 
HETATM   24  C12 UNL     1      19.398 -13.605  24.983  1.00  0.00     0.031 A 
HETATM   25  C13 UNL     1      20.437 -12.701  25.017  1.00  0.00    -0.058 A 
HETATM   26  C14 UNL     1      21.045 -12.230  26.289  1.00  0.00     0.048 C 
HETATM   27  C15 UNL     1      20.912 -12.231  23.833  1.00  0.00     0.031 A 
HETATM   28  C16 UNL     1      20.361 -12.656  22.635  1.00  0.00     0.008 A 
HETATM   29  C17 UNL     1      20.936 -12.098  21.371  1.00  0.00     0.068 C 
ENDBRANCH  20  21
ENDBRANCH  19  20
ENDBRANCH  18  19
ENDBRANCH   1  18
TORSDOF 8
ENDMDL
MODEL 5
REMARK VINA RESULT: -7.917083251      1.183      1.320
REMARK  8 active torsions:
REMARK  status: ('A' for Active; 'I' for Inactive)
REMARK    1  A    between atoms: C2_2  and  N1_3 
REMARK    2  A    between atoms: N1_3  and  C3_5 
REMARK    3  A    between atoms: C6_10  and  N3_11 
REMARK    4  A    between atoms: N3_11  and  S1_13 
REMARK    5  A    between atoms: S1_13  and  C7_16 
REMARK    6  A    between atoms: C7_16  and  C8_17 
REMARK    7  A    between atoms: C8_17  and  C9_18 
REMARK    8  A    between atoms: C9_18  and  N4_19 
ROOT
HETATM    1  S1  UNL     1      16.454 -11.390  19.468  1.00  0.00     0.244 S 
HETATM    2  O1  UNL     1      15.497 -12.488  19.122  1.00  0.00    -0.205 OA
HETATM    3  O2  UNL     1      16.809 -10.692  18.186  1.00  0.00    -0.205 OA
ENDROOT
BRANCH   1   4
HETATM    4  N3  UNL     1      15.778 -10.228  20.536  1.00  0.00    -0.116 N 
ATOM      5  H3  UNL     1      16.251  -9.330  20.632  1.00  0.00     0.197 HD
BRANCH   4   6
HETATM    6  C6  UNL     1      14.719 -10.427  21.213  1.00  0.00     0.693 A 
HETATM    7  N2  UNL     1      14.416 -11.726  21.510  1.00  0.00    -0.201 N 
HETATM    8  C5  UNL     1      13.321 -12.044  22.220  1.00  0.00     0.110 A 
ATOM      9  H2  UNL     1      15.036 -12.469  21.187  1.00  0.00     0.183 HD
HETATM   10  C4  UNL     1      12.491 -11.028  22.652  1.00  0.00     0.066 A 
HETATM   11  C3  UNL     1      12.783  -9.717  22.360  1.00  0.00     0.118 A 
HETATM   12  N5  UNL     1      13.896  -9.466  21.645  1.00  0.00    -0.176 N 
ATOM     13  H5  UNL     1      14.123  -8.497  21.423  1.00  0.00     0.186 HD
BRANCH  11  14
HETATM   14  N1  UNL     1      12.003  -8.777  22.768  1.00  0.00    -0.376 N 
ATOM     15  H1  UNL     1      11.552  -8.165  22.088  1.00  0.00     0.161 HD
BRANCH  14  16
HETATM   16  C2  UNL     1      11.762  -8.582  24.164  1.00  0.00     0.116 C 
HETATM   17  C1  UNL     1      12.089  -7.152  24.541  1.00  0.00     0.026 C 
ENDBRANCH  14  16
ENDBRANCH  11  14
ENDBRANCH   4   6
ENDBRANCH   1   4
BRANCH   1  18
HETATM   18  C7  UNL     1      17.894 -12.126  20.202  1.00  0.00     0.165 C 
BRANCH  18  19
HETATM   19  C8  UNL     1      17.513 -13.365  21.018  1.00  0.00     0.037 C 
BRANCH  19  20
HETATM   20  C9  UNL     1      18.813 -14.038  21.388  1.00  0.00     0.130 C 
BRANCH  20  21
HETATM   21  N4  UNL     1      19.373 -13.587  22.622  1.00  0.00    -0.355 N 
HETATM   22  C10 UNL     1      20.382 -12.679  22.572  1.00  0.00     0.008 A 
HETATM   23  C11 UNL     1      20.938 -12.124  21.332  1.00  0.00     0.068 C 
HETATM   24  C12 UNL     1      20.941 -12.229  23.766  1.00  0.00     0.031 A 
HETATM   25  C13 UNL     1      20.492 -12.683  24.986  1.00  0.00    -0.058 A 
HETATM   26  C14 UNL     1      21.072 -12.219  26.274  1.00  0.00     0.048 C 
HETATM   27  C15 UNL     1      19.482 -13.593  24.996  1.00  0.00     0.031 A 
HETATM   28  C16 UNL     1      18.926 -14.040  23.808  1.00  0.00     0.008 A 
HETATM   29  C17 UNL     1      17.816 -15.041  23.895  1.00  0.00     0.068 C 
ENDBRANCH  20  21
ENDBRANCH  19  20
ENDBRANCH  18  19
ENDBRANCH   1  18
TORSDOF 8
ENDMDL
