MODEL 1
REMARK VINA RESULT: -7.787755735      0.000      0.000
REMARK  7 active torsions:
REMARK  status: ('A' for Active; 'I' for Inactive)
REMARK    1  A    between atoms: N2_8  and  C7_9 
REMARK    2  A    between atoms: N2_8  and  C10_13 
REMARK    3  A    between atoms: C7_9  and  C8_10 
REMARK    4  A    between atoms: C8_10  and  O1_11 
REMARK    5  A    between atoms: C10_13  and  C11_14 
REMARK    6  A    between atoms: C11_14  and  C12_15 
REMARK    7  A    between atoms: N5_28  and  O3_29 
ROOT
HETATM    1  C12 UNL     1      17.603 -14.215  21.671  1.00  0.00     0.016 A 
HETATM    2  C13 UNL     1      18.914 -13.911  21.379  1.00  0.00     0.055 A 
HETATM    3  C14 UNL     1      19.832 -13.607  22.355  1.00  0.00     0.052 A 
HETATM    4  N3  UNL     1      21.145 -13.283  22.294  1.00  0.00    -0.339 N 
ATOM      5  H3  UNL     1      21.710 -13.206  21.449  1.00  0.00     0.167 HD
HETATM    6  C15 UNL     1      21.566 -13.080  23.556  1.00  0.00     0.145 A 
HETATM    7  C16 UNL     1      20.527 -13.273  24.430  1.00  0.00     0.046 A 
HETATM    8  C17 UNL     1      19.439 -13.604  23.656  1.00  0.00     0.074 A 
HETATM    9  C18 UNL     1      18.121 -13.910  23.955  1.00  0.00     0.259 A 
HETATM   10  O2  UNL     1      17.796 -13.897  25.171  1.00  0.00    -0.267 OA
HETATM   11  N4  UNL     1      17.244 -14.205  22.966  1.00  0.00    -0.326 N 
ATOM     12  H4  UNL     1      16.279 -14.426  23.213  1.00  0.00     0.169 HD
HETATM   13  C19 UNL     1      21.358 -12.989  25.421  1.00  0.00     0.141 A 
HETATM   14  N5  UNL     1      22.429 -12.793  24.492  1.00  0.00    -0.217 N 
ENDROOT
BRANCH   1  15
HETATM   15  C11 UNL     1      16.652 -14.538  20.575  1.00  0.00     0.085 C 
BRANCH  15  16
HETATM   16  C10 UNL     1      15.370 -13.792  20.697  1.00  0.00     0.252 C 
BRANCH  16  17
HETATM   17  N2  UNL     1      15.185 -12.688  19.821  1.00  0.00    -0.011 N 
HETATM   18  C2  UNL     1      15.066 -11.440  20.488  1.00  0.00     0.296 C 
HETATM   19  C1  UNL     1      16.083 -10.709  20.888  1.00  0.00     0.079 C 
HETATM   20  N1  UNL     1      13.701 -11.099  20.655  1.00  0.00    -0.021 N 
HETATM   21  C3  UNL     1      13.385 -10.732  22.021  1.00  0.00     0.281 C 
HETATM   22  C4  UNL     1      13.286 -10.004  19.810  1.00  0.00     0.281 C 
HETATM   23  C5  UNL     1      12.961 -12.265  20.280  1.00  0.00     0.273 C 
HETATM   24  C6  UNL     1      13.848 -12.900  19.232  1.00  0.00     0.274 C 
BRANCH  17  25
HETATM   25  C7  UNL     1      16.122 -12.704  18.751  1.00  0.00     0.272 C 
BRANCH  25  26
HETATM   26  C8  UNL     1      15.762 -11.934  17.533  1.00  0.00     0.195 C 
BRANCH  26  27
HETATM   27  O1  UNL     1      16.709 -10.882  17.438  1.00  0.00    -0.394 OA
HETATM   28  C9  UNL     1      17.114 -10.759  16.111  1.00  0.00     0.201 C 
ENDBRANCH  26  27
ENDBRANCH  25  26
ENDBRANCH  17  25
ENDBRANCH  16  17
ENDBRANCH  15  16
ENDBRANCH   1  15
BRANCH  14  29
HETATM   29  O3  UNL     1      23.760 -12.457  24.542  1.00  0.00    -0.281 OA
ATOM     30  H3  UNL     1      24.559 -12.872  24.843  1.00  0.00     0.245 HD
ENDBRANCH  14  29
TORSDOF 7
ENDMDL
MODEL 2
REMARK VINA RESULT: -7.579606313      2.649      7.390
REMARK  7 active torsions:
REMARK  status: ('A' for Active; 'I' for Inactive)
REMARK    1  A    between atoms: N2_8  and  C7_9 
REMARK    2  A    between atoms: N2_8  and  C10_13 
REMARK    3  A    between atoms: C7_9  and  C8_10 
REMARK    4  A    between atoms: C8_10  and  O1_11 
REMARK    5  A    between atoms: C10_13  and  C11_14 
REMARK    6  A    between atoms: C11_14  and  C12_15 
REMARK    7  A    between atoms: N5_28  and  O3_29 
ROOT
HETATM    1  C12 UNL     1      16.575 -11.808  20.673  1.00  0.00     0.016 A 
HETATM    2  C13 UNL     1      15.656 -12.595  21.333  1.00  0.00     0.055 A 
HETATM    3  C14 UNL     1      14.435 -12.115  21.737  1.00  0.00     0.052 A 
HETATM    4  N3  UNL     1      13.401 -12.700  22.388  1.00  0.00    -0.339 N 
ATOM      5  H3  UNL     1      13.359 -13.668  22.707  1.00  0.00     0.167 HD
HETATM    6  C15 UNL     1      12.442 -11.769  22.534  1.00  0.00     0.145 A 
HETATM    7  C16 UNL     1      12.854 -10.584  21.979  1.00  0.00     0.046 A 
HETATM    8  C17 UNL     1      14.115 -10.819  21.482  1.00  0.00     0.074 A 
HETATM    9  C18 UNL     1      15.036 -10.024  20.818  1.00  0.00     0.259 A 
HETATM   10  O2  UNL     1      14.702  -8.829  20.600  1.00  0.00    -0.267 OA
HETATM   11  N4  UNL     1      16.231 -10.531  20.435  1.00  0.00    -0.326 N 
ATOM     12  H4  UNL     1      16.891  -9.925  19.948  1.00  0.00     0.169 HD
HETATM   13  C19 UNL     1      11.696 -10.055  22.341  1.00  0.00     0.141 A 
HETATM   14  N5  UNL     1      11.284 -11.301  22.913  1.00  0.00    -0.217 N 
ENDROOT
BRANCH   1  15
HETATM   15  C11 UNL     1      17.883 -12.381  20.257  1.00  0.00     0.085 C 
BRANCH  15  16
HETATM   16  C10 UNL     1      18.873 -12.399  21.367  1.00  0.00     0.252 C 
BRANCH  16  17
HETATM   17  N2  UNL     1      19.147 -13.660  21.962  1.00  0.00    -0.011 N 
HETATM   18  C2  UNL     1      19.103 -13.648  23.382  1.00  0.00     0.296 C 
HETATM   19  C1  UNL     1      18.004 -13.762  24.095  1.00  0.00     0.079 C 
HETATM   20  N1  UNL     1      20.407 -13.497  23.913  1.00  0.00    -0.021 N 
HETATM   21  C3  UNL     1      20.487 -12.435  24.897  1.00  0.00     0.281 C 
HETATM   22  C4  UNL     1      20.903 -14.700  24.540  1.00  0.00     0.281 C 
HETATM   23  C5  UNL     1      21.248 -13.191  22.797  1.00  0.00     0.273 C 
HETATM   24  C6  UNL     1      20.567 -13.917  21.658  1.00  0.00     0.274 C 
BRANCH  17  25
HETATM   25  C7  UNL     1      18.393 -14.702  21.354  1.00  0.00     0.272 C 
BRANCH  25  26
HETATM   26  C8  UNL     1      18.894 -16.088  21.538  1.00  0.00     0.195 C 
BRANCH  26  27
HETATM   27  O1  UNL     1      17.799 -16.839  22.038  1.00  0.00    -0.394 OA
HETATM   28  C9  UNL     1      16.613 -16.240  21.618  1.00  0.00     0.201 C 
ENDBRANCH  26  27
ENDBRANCH  25  26
ENDBRANCH  17  25
ENDBRANCH  16  17
ENDBRANCH  15  16
ENDBRANCH   1  15
BRANCH  14  29
HETATM   29  O3  UNL     1      10.182 -11.797  23.567  1.00  0.00    -0.281 OA
ATOM     30  H3  UNL     1       9.779 -11.674  24.418  1.00  0.00     0.245 HD
ENDBRANCH  14  29
TORSDOF 7
ENDMDL
MODEL 3
REMARK VINA RESULT: -7.437836679      1.578      2.967
REMARK  7 active torsions:
REMARK  status: ('A' for Active; 'I' for Inactive)
REMARK    1  A    between atoms: N2_8  and  C7_9 
REMARK    2  A    between atoms: N2_8  and  C10_13 
REMARK    3  A    between atoms: C7_9  and  C8_10 
REMARK    4  A    between atoms: C8_10  and  O1_11 
REMARK    5  A    between atoms: C10_13  and  C11_14 
REMARK    6  A    between atoms: C11_14  and  C12_15 
REMARK    7  A    between atoms: N5_28  and  O3_29 
ROOT
HETATM    1  C12 UNL     1      17.653 -14.074  22.329  1.00  0.00     0.016 A 
HETATM    2  C13 UNL     1      18.909 -13.728  21.880  1.00  0.00     0.055 A 
HETATM    3  C14 UNL     1      19.955 -13.489  22.738  1.00  0.00     0.052 A 
HETATM    4  N3  UNL     1      21.245 -13.142  22.518  1.00  0.00    -0.339 N 
ATOM      5  H3  UNL     1      21.684 -12.989  21.610  1.00  0.00     0.167 HD
HETATM    6  C15 UNL     1      21.841 -13.035  23.720  1.00  0.00     0.145 A 
HETATM    7  C16 UNL     1      20.937 -13.314  24.714  1.00  0.00     0.046 A 
HETATM    8  C17 UNL     1      19.752 -13.597  24.077  1.00  0.00     0.074 A 
HETATM    9  C18 UNL     1      18.490 -13.946  24.533  1.00  0.00     0.259 A 
HETATM   10  O2  UNL     1      18.342 -14.036  25.780  1.00  0.00    -0.267 OA
HETATM   11  N4  UNL     1      17.483 -14.173  23.658  1.00  0.00    -0.326 N 
ATOM     12  H4  UNL     1      16.564 -14.428  24.020  1.00  0.00     0.169 HD
HETATM   13  C19 UNL     1      21.900 -13.098  25.597  1.00  0.00     0.141 A 
HETATM   14  N5  UNL     1      22.827 -12.812  24.545  1.00  0.00    -0.217 N 
ENDROOT
BRANCH   1  15
HETATM   15  C11 UNL     1      16.558 -14.321  21.355  1.00  0.00     0.085 C 
BRANCH  15  16
HETATM   16  C10 UNL     1      16.732 -13.549  20.096  1.00  0.00     0.252 C 
BRANCH  16  17
HETATM   17  N2  UNL     1      15.732 -12.587  19.790  1.00  0.00    -0.011 N 
HETATM   18  C2  UNL     1      14.982 -12.889  18.622  1.00  0.00     0.296 C 
HETATM   19  C1  UNL     1      13.946 -13.697  18.590  1.00  0.00     0.079 C 
HETATM   20  N1  UNL     1      15.509 -12.194  17.506  1.00  0.00    -0.021 N 
HETATM   21  C3  UNL     1      15.749 -13.066  16.373  1.00  0.00     0.281 C 
HETATM   22  C4  UNL     1      14.650 -11.126  17.050  1.00  0.00     0.281 C 
HETATM   23  C5  UNL     1      16.743 -11.623  17.950  1.00  0.00     0.273 C 
HETATM   24  C6  UNL     1      16.483 -11.372  19.420  1.00  0.00     0.274 C 
BRANCH  17  25
HETATM   25  C7  UNL     1      14.948 -12.263  20.932  1.00  0.00     0.272 C 
BRANCH  25  26
HETATM   26  C8  UNL     1      14.669 -10.823  21.168  1.00  0.00     0.195 C 
BRANCH  26  27
HETATM   27  O1  UNL     1      13.694 -10.774  22.197  1.00  0.00    -0.394 OA
HETATM   28  C9  UNL     1      13.117  -9.507  22.211  1.00  0.00     0.201 C 
ENDBRANCH  26  27
ENDBRANCH  25  26
ENDBRANCH  17  25
ENDBRANCH  16  17
ENDBRANCH  15  16
ENDBRANCH   1  15
BRANCH  14  29
HETATM   29  O3  UNL     1      24.151 -12.461  24.433  1.00  0.00    -0.281 OA
ATOM     30  H3  UNL     1      24.985 -12.911  24.494  1.00  0.00     0.245 HD
ENDBRANCH  14  29
TORSDOF 7
ENDMDL
MODEL 4
REMARK VINA RESULT: -7.416745193      2.567      7.544
REMARK  7 active torsions:
REMARK  status: ('A' for Active; 'I' for Inactive)
REMARK    1  A    between atoms: N2_8  and  C7_9 
REMARK    2  A    between atoms: N2_8  and  C10_13 
REMARK    3  A    between atoms: C7_9  and  C8_10 
REMARK    4  A    between atoms: C8_10  and  O1_11 
REMARK    5  A    between atoms: C10_13  and  C11_14 
REMARK    6  A    between atoms: C11_14  and  C12_15 
REMARK    7  A    between atoms: N5_28  and  O3_29 
ROOT
HETATM    1  C12 UNL     1      16.750 -12.199  20.788  1.00  0.00     0.016 A 
HETATM    2  C13 UNL     1      15.761 -12.927  21.414  1.00  0.00     0.055 A 
HETATM    3  C14 UNL     1      14.547 -12.379  21.749  1.00  0.00     0.052 A 
HETATM    4  N3  UNL     1      13.455 -12.900  22.357  1.00  0.00    -0.339 N 
ATOM      5  H3  UNL     1      13.349 -13.858  22.690  1.00  0.00     0.167 HD
HETATM    6  C15 UNL     1      12.537 -11.920  22.439  1.00  0.00     0.145 A 
HETATM    7  C16 UNL     1      13.035 -10.768  21.884  1.00  0.00     0.046 A 
HETATM    8  C17 UNL     1      14.305 -11.075  21.455  1.00  0.00     0.074 A 
HETATM    9  C18 UNL     1      15.296 -10.339  20.823  1.00  0.00     0.259 A 
HETATM   10  O2  UNL     1      15.034  -9.134  20.568  1.00  0.00    -0.267 OA
HETATM   11  N4  UNL     1      16.481 -10.912  20.509  1.00  0.00    -0.326 N 
ATOM     12  H4  UNL     1      17.194 -10.349  20.046  1.00  0.00     0.169 HD
HETATM   13  C19 UNL     1      11.888 -10.176  22.178  1.00  0.00     0.141 A 
HETATM   14  N5  UNL     1      11.387 -11.388  22.751  1.00  0.00    -0.217 N 
ENDROOT
BRANCH   1  15
HETATM   15  C11 UNL     1      18.046 -12.844  20.447  1.00  0.00     0.085 C 
BRANCH  15  16
HETATM   16  C10 UNL     1      18.201 -14.179  21.086  1.00  0.00     0.252 C 
BRANCH  16  17
HETATM   17  N2  UNL     1      19.242 -14.314  22.044  1.00  0.00    -0.011 N 
HETATM   18  C2  UNL     1      19.696 -15.649  22.214  1.00  0.00     0.296 C 
HETATM   19  C1  UNL     1      20.584 -16.239  21.445  1.00  0.00     0.079 C 
HETATM   20  N1  UNL     1      19.058 -16.247  23.328  1.00  0.00    -0.021 N 
HETATM   21  C3  UNL     1      18.480 -17.538  23.009  1.00  0.00     0.281 C 
HETATM   22  C4  UNL     1      19.946 -16.441  24.450  1.00  0.00     0.281 C 
HETATM   23  C5  UNL     1      18.027 -15.336  23.721  1.00  0.00     0.273 C 
HETATM   24  C6  UNL     1      18.606 -13.992  23.335  1.00  0.00     0.274 C 
BRANCH  17  25
HETATM   25  C7  UNL     1      20.275 -13.357  21.835  1.00  0.00     0.272 C 
BRANCH  25  26
HETATM   26  C8  UNL     1      20.951 -12.825  23.046  1.00  0.00     0.195 C 
BRANCH  26  27
HETATM   27  O1  UNL     1      22.267 -13.354  23.026  1.00  0.00    -0.394 OA
HETATM   28  C9  UNL     1      22.590 -13.807  24.304  1.00  0.00     0.201 C 
ENDBRANCH  26  27
ENDBRANCH  25  26
ENDBRANCH  17  25
ENDBRANCH  16  17
ENDBRANCH  15  16
ENDBRANCH   1  15
BRANCH  14  29
HETATM   29  O3  UNL     1      10.231 -11.816  23.357  1.00  0.00    -0.281 OA
ATOM     30  H3  UNL     1       9.300 -11.733  23.189  1.00  0.00     0.245 HD
ENDBRANCH  14  29
TORSDOF 7
ENDMDL
MODEL 5
REMARK VINA RESULT: -7.306386388      1.751      2.535
REMARK  7 active torsions:
REMARK  status: ('A' for Active; 'I' for Inactive)
REMARK    1  A    between atoms: N2_8  and  C7_9 
REMARK    2  A    between atoms: N2_8  and  C10_13 
REMARK    3  A    between atoms: C7_9  and  C8_10 
REMARK    4  A    between atoms: C8_10  and  O1_11 
REMARK    5  A    between atoms: C10_13  and  C11_14 
REMARK    6  A    between atoms: C11_14  and  C12_15 
REMARK    7  A    between atoms: N5_28  and  O3_29 
ROOT
HETATM    1  C12 UNL     1      17.637 -14.115  21.744  1.00  0.00     0.016 A 
HETATM    2  C13 UNL     1      18.941 -13.797  21.435  1.00  0.00     0.055 A 
HETATM    3  C14 UNL     1      19.879 -13.526  22.402  1.00  0.00     0.052 A 
HETATM    4  N3  UNL     1      21.190 -13.196  22.325  1.00  0.00    -0.339 N 
ATOM      5  H3  UNL     1      21.737 -13.087  21.470  1.00  0.00     0.167 HD
HETATM    6  C15 UNL     1      21.638 -13.040  23.584  1.00  0.00     0.145 A 
HETATM    7  C16 UNL     1      20.618 -13.269  24.473  1.00  0.00     0.046 A 
HETATM    8  C17 UNL     1      19.515 -13.573  23.710  1.00  0.00     0.074 A 
HETATM    9  C18 UNL     1      18.204 -13.895  24.025  1.00  0.00     0.259 A 
HETATM   10  O2  UNL     1      17.906 -13.928  25.248  1.00  0.00    -0.267 OA
HETATM   11  N4  UNL     1      17.307 -14.154  23.046  1.00  0.00    -0.326 N 
ATOM     12  H4  UNL     1      16.348 -14.387  23.305  1.00  0.00     0.169 HD
HETATM   13  C19 UNL     1      21.470 -13.019  25.455  1.00  0.00     0.141 A 
HETATM   14  N5  UNL     1      22.520 -12.786  24.511  1.00  0.00    -0.217 N 
ENDROOT
BRANCH   1  15
HETATM   15  C11 UNL     1      16.663 -14.400  20.657  1.00  0.00     0.085 C 
BRANCH  15  16
HETATM   16  C10 UNL     1      16.107 -13.158  20.054  1.00  0.00     0.252 C 
BRANCH  16  17
HETATM   17  N2  UNL     1      14.693 -13.077  19.944  1.00  0.00    -0.011 N 
HETATM   18  C2  UNL     1      14.210 -11.766  19.689  1.00  0.00     0.296 C 
HETATM   19  C1  UNL     1      14.145 -11.214  18.498  1.00  0.00     0.079 C 
HETATM   20  N1  UNL     1      13.810 -11.146  20.898  1.00  0.00    -0.021 N 
HETATM   21  C3  UNL     1      14.390  -9.828  21.063  1.00  0.00     0.281 C 
HETATM   22  C4  UNL     1      12.377 -11.000  21.009  1.00  0.00     0.281 C 
HETATM   23  C5  UNL     1      14.259 -12.010  21.946  1.00  0.00     0.273 C 
HETATM   24  C6  UNL     1      14.194 -13.377  21.300  1.00  0.00     0.274 C 
BRANCH  17  25
HETATM   25  C7  UNL     1      14.175 -14.080  19.076  1.00  0.00     0.272 C 
BRANCH  25  26
HETATM   26  C8  UNL     1      12.780 -14.525  19.323  1.00  0.00     0.195 C 
BRANCH  26  27
HETATM   27  O1  UNL     1      12.822 -15.942  19.368  1.00  0.00    -0.394 OA
HETATM   28  C9  UNL     1      12.013 -16.383  20.414  1.00  0.00     0.201 C 
ENDBRANCH  26  27
ENDBRANCH  25  26
ENDBRANCH  17  25
ENDBRANCH  16  17
ENDBRANCH  15  16
ENDBRANCH   1  15
BRANCH  14  29
HETATM   29  O3  UNL     1      23.852 -12.448  24.545  1.00  0.00    -0.281 OA
ATOM     30  H3  UNL     1      24.373 -11.765  24.949  1.00  0.00     0.245 HD
ENDBRANCH  14  29
TORSDOF 7
ENDMDL
