MODEL 1
REMARK VINA RESULT: -6.624607009      0.000      0.000
REMARK  11 active torsions:
REMARK  status: ('A' for Active; 'I' for Inactive)
REMARK    1  A    between atoms: C2_2  and  N1_3 
REMARK    2  A    between atoms: N1_3  and  C4_5 
REMARK    3  A    between atoms: N1_3  and  C13_15 
REMARK    4  A    between atoms: C4_5  and  C5_6 
REMARK    5  A    between atoms: C6_7  and  C7_8 
REMARK    6  A    between atoms: C7_8  and  N2_9 
REMARK    7  A    between atoms: C13_15  and  C14_16 
REMARK    8  A    between atoms: C15_17  and  C16_18 
REMARK    9  A    between atoms: C16_18  and  N3_19 
REMARK   10  A    between atoms: N3_19  and  S1_21 
REMARK   11  A    between atoms: S1_21  and  N4_22 
ROOT
HETATM    1  N1  UNL     1      18.789 -12.764  20.922  1.00  0.00    -0.051 N 
HETATM    2  C3  UNL     1      18.257 -12.297  19.632  1.00  0.00     0.274 C 
ENDROOT
BRANCH   1   3
HETATM    3  C2  UNL     1      20.192 -12.431  20.976  1.00  0.00     0.234 C 
HETATM    4  C1  UNL     1      20.604 -11.732  19.698  1.00  0.00     0.035 C 
ENDBRANCH   1   3
BRANCH   1   5
HETATM    5  C4  UNL     1      18.550 -14.183  20.970  1.00  0.00     0.331 C 
BRANCH   5   6
HETATM    6  C5  UNL     1      19.371 -14.748  22.057  1.00  0.00    -0.077 C 
HETATM    7  C6  UNL     1      20.050 -15.200  22.945  1.00  0.00    -0.077 C 
BRANCH   7   8
HETATM    8  C7  UNL     1      20.889 -15.742  24.012  1.00  0.00     0.330 C 
BRANCH   8   9
HETATM    9  N2  UNL     1      21.368 -14.733  24.919  1.00  0.00    -0.061 N 
HETATM   10  C8  UNL     1      22.071 -15.327  26.041  1.00  0.00     0.273 C 
HETATM   11  C9  UNL     1      22.257 -13.862  24.174  1.00  0.00     0.238 C 
HETATM   12  C10 UNL     1      21.970 -12.452  24.635  1.00  0.00     0.029 C 
HETATM   13  C11 UNL     1      20.874 -12.568  25.660  1.00  0.00     0.029 C 
HETATM   14  C12 UNL     1      20.274 -13.924  25.364  1.00  0.00     0.238 C 
ENDBRANCH   8   9
ENDBRANCH   7   8
ENDBRANCH   5   6
ENDBRANCH   1   5
BRANCH   1  15
HETATM   15  C13 UNL     1      18.100 -12.036  21.942  1.00  0.00     0.331 C 
BRANCH  15  16
HETATM   16  C14 UNL     1      16.674 -12.063  21.731  1.00  0.00    -0.076 C 
HETATM   17  C15 UNL     1      15.476 -12.064  21.556  1.00  0.00    -0.072 C 
BRANCH  17  18
HETATM   18  C16 UNL     1      14.013 -12.040  21.350  1.00  0.00     0.105 A 
HETATM   19  C17 UNL     1      13.399 -13.451  21.229  1.00  0.00     0.048 A 
HETATM   20  C18 UNL     1      13.515 -12.492  20.045  1.00  0.00     0.048 A 
BRANCH  18  21
HETATM   21  N3  UNL     1      13.303 -11.191  22.234  1.00  0.00    -0.282 N 
ATOM     22  H3  UNL     1      12.863 -11.550  23.081  1.00  0.00     0.175 HD
BRANCH  21  23
HETATM   23  S1  UNL     1      13.219  -9.565  21.818  1.00  0.00     0.314 S 
HETATM   24  O1  UNL     1      11.904  -9.296  21.102  1.00  0.00    -0.183 OA
HETATM   25  O2  UNL     1      13.210  -8.701  23.043  1.00  0.00    -0.183 OA
BRANCH  23  26
HETATM   26  N4  UNL     1      14.474  -9.018  20.791  1.00  0.00    -0.312 N 
ATOM     27  H42 UNL     1      15.198  -9.649  20.448  1.00  0.00     0.170 HD
ATOM     28  H41 UNL     1      14.435  -8.026  20.557  1.00  0.00     0.170 HD
ENDBRANCH  23  26
ENDBRANCH  21  23
ENDBRANCH  18  21
ENDBRANCH  17  18
ENDBRANCH  15  16
ENDBRANCH   1  15
TORSDOF 11
ENDMDL
MODEL 2
REMARK VINA RESULT: -6.548172405      1.851      2.535
REMARK  11 active torsions:
REMARK  status: ('A' for Active; 'I' for Inactive)
REMARK    1  A    between atoms: C2_2  and  N1_3 
REMARK    2  A    between atoms: N1_3  and  C4_5 
REMARK    3  A    between atoms: N1_3  and  C13_15 
REMARK    4  A    between atoms: C4_5  and  C5_6 
REMARK    5  A    between atoms: C6_7  and  C7_8 
REMARK    6  A    between atoms: C7_8  and  N2_9 
REMARK    7  A    between atoms: C13_15  and  C14_16 
REMARK    8  A    between atoms: C15_17  and  C16_18 
REMARK    9  A    between atoms: C16_18  and  N3_19 
REMARK   10  A    between atoms: N3_19  and  S1_21 
REMARK   11  A    between atoms: S1_21  and  N4_22 
ROOT
HETATM    1  N1  UNL     1      17.513 -12.237  20.279  1.00  0.00    -0.051 N 
HETATM    2  C3  UNL     1      18.863 -11.979  19.754  1.00  0.00     0.274 C 
ENDROOT
BRANCH   1   3
HETATM    3  C2  UNL     1      16.585 -11.390  19.567  1.00  0.00     0.234 C 
HETATM    4  C1  UNL     1      16.867 -11.455  18.081  1.00  0.00     0.035 C 
ENDBRANCH   1   3
BRANCH   1   5
HETATM    5  C4  UNL     1      17.562 -11.949  21.688  1.00  0.00     0.331 C 
BRANCH   5   6
HETATM    6  C5  UNL     1      18.428 -12.954  22.330  1.00  0.00    -0.077 C 
HETATM    7  C6  UNL     1      19.127 -13.786  22.854  1.00  0.00    -0.077 C 
BRANCH   7   8
HETATM    8  C7  UNL     1      19.959 -14.800  23.497  1.00  0.00     0.330 C 
BRANCH   8   9
HETATM    9  N2  UNL     1      20.732 -14.282  24.595  1.00  0.00    -0.061 N 
HETATM   10  C8  UNL     1      21.369 -15.353  25.339  1.00  0.00     0.273 C 
HETATM   11  C9  UNL     1      21.731 -13.389  24.043  1.00  0.00     0.238 C 
HETATM   12  C10 UNL     1      21.816 -12.203  24.975  1.00  0.00     0.029 C 
HETATM   13  C11 UNL     1      20.811 -12.463  26.066  1.00  0.00     0.029 C 
HETATM   14  C12 UNL     1      19.893 -13.491  25.445  1.00  0.00     0.238 C 
ENDBRANCH   8   9
ENDBRANCH   7   8
ENDBRANCH   5   6
ENDBRANCH   1   5
BRANCH   1  15
HETATM   15  C13 UNL     1      17.209 -13.603  19.988  1.00  0.00     0.331 C 
BRANCH  15  16
HETATM   16  C14 UNL     1      15.858 -13.931  20.370  1.00  0.00    -0.076 C 
HETATM   17  C15 UNL     1      14.728 -14.227  20.690  1.00  0.00    -0.072 C 
BRANCH  17  18
HETATM   18  C16 UNL     1      13.354 -14.613  21.072  1.00  0.00     0.105 A 
HETATM   19  C17 UNL     1      13.177 -16.139  21.224  1.00  0.00     0.048 A 
HETATM   20  C18 UNL     1      12.562 -15.343  20.074  1.00  0.00     0.048 A 
BRANCH  18  21
HETATM   21  N3  UNL     1      12.808 -13.873  22.149  1.00  0.00    -0.282 N 
ATOM     22  H3  UNL     1      12.599 -14.311  23.046  1.00  0.00     0.175 HD
BRANCH  21  23
HETATM   23  S1  UNL     1      12.520 -12.240  21.877  1.00  0.00     0.314 S 
HETATM   24  O1  UNL     1      13.742 -11.437  22.296  1.00  0.00    -0.183 OA
HETATM   25  O2  UNL     1      12.325 -11.969  20.415  1.00  0.00    -0.183 OA
BRANCH  23  26
HETATM   26  N4  UNL     1      11.179 -11.595  22.720  1.00  0.00    -0.312 N 
ATOM     27  H42 UNL     1      10.885 -11.966  23.623  1.00  0.00     0.170 HD
ATOM     28  H41 UNL     1      10.707 -10.822  22.250  1.00  0.00     0.170 HD
ENDBRANCH  23  26
ENDBRANCH  21  23
ENDBRANCH  18  21
ENDBRANCH  17  18
ENDBRANCH  15  16
ENDBRANCH   1  15
TORSDOF 11
ENDMDL
MODEL 3
REMARK VINA RESULT: -6.508259800      1.283      1.560
REMARK  11 active torsions:
REMARK  status: ('A' for Active; 'I' for Inactive)
REMARK    1  A    between atoms: C2_2  and  N1_3 
REMARK    2  A    between atoms: N1_3  and  C4_5 
REMARK    3  A    between atoms: N1_3  and  C13_15 
REMARK    4  A    between atoms: C4_5  and  C5_6 
REMARK    5  A    between atoms: C6_7  and  C7_8 
REMARK    6  A    between atoms: C7_8  and  N2_9 
REMARK    7  A    between atoms: C13_15  and  C14_16 
REMARK    8  A    between atoms: C15_17  and  C16_18 
REMARK    9  A    between atoms: C16_18  and  N3_19 
REMARK   10  A    between atoms: N3_19  and  S1_21 
REMARK   11  A    between atoms: S1_21  and  N4_22 
ROOT
HETATM    1  N1  UNL     1      18.039 -12.479  20.704  1.00  0.00    -0.051 N 
HETATM    2  C3  UNL     1      17.730 -12.025  19.339  1.00  0.00     0.274 C 
ENDROOT
BRANCH   1   3
HETATM    3  C2  UNL     1      19.439 -12.233  20.952  1.00  0.00     0.234 C 
HETATM    4  C1  UNL     1      20.165 -12.024  19.640  1.00  0.00     0.035 C 
ENDBRANCH   1   3
BRANCH   1   5
HETATM    5  C4  UNL     1      17.700 -13.877  20.754  1.00  0.00     0.331 C 
BRANCH   5   6
HETATM    6  C5  UNL     1      18.370 -14.468  21.926  1.00  0.00    -0.077 C 
HETATM    7  C6  UNL     1      18.926 -14.959  22.878  1.00  0.00    -0.077 C 
BRANCH   7   8
HETATM    8  C7  UNL     1      19.600 -15.570  24.021  1.00  0.00     0.330 C 
BRANCH   8   9
HETATM    9  N2  UNL     1      20.551 -14.692  24.649  1.00  0.00    -0.061 N 
HETATM   10  C8  UNL     1      21.268 -15.371  25.713  1.00  0.00     0.273 C 
HETATM   11  C9  UNL     1      21.475 -14.244  23.626  1.00  0.00     0.238 C 
HETATM   12  C10 UNL     1      21.740 -12.780  23.891  1.00  0.00     0.029 C 
HETATM   13  C11 UNL     1      20.914 -12.424  25.098  1.00  0.00     0.029 C 
HETATM   14  C12 UNL     1      19.880 -13.526  25.141  1.00  0.00     0.238 C 
ENDBRANCH   8   9
ENDBRANCH   7   8
ENDBRANCH   5   6
ENDBRANCH   1   5
BRANCH   1  15
HETATM   15  C13 UNL     1      17.262 -11.673  21.594  1.00  0.00     0.331 C 
BRANCH  15  16
HETATM   16  C14 UNL     1      15.869 -12.045  21.555  1.00  0.00    -0.076 C 
HETATM   17  C15 UNL     1      14.699 -12.355  21.544  1.00  0.00    -0.072 C 
BRANCH  17  18
HETATM   18  C16 UNL     1      13.272 -12.736  21.556  1.00  0.00     0.105 A 
HETATM   19  C17 UNL     1      13.041 -14.217  21.190  1.00  0.00     0.048 A 
HETATM   20  C18 UNL     1      12.657 -13.064  20.263  1.00  0.00     0.048 A 
BRANCH  18  21
HETATM   21  N3  UNL     1      12.557 -12.323  22.706  1.00  0.00    -0.282 N 
ATOM     22  H3  UNL     1      12.373 -12.962  23.479  1.00  0.00     0.175 HD
BRANCH  21  23
HETATM   23  S1  UNL     1      12.025 -10.729  22.735  1.00  0.00     0.314 S 
HETATM   24  O1  UNL     1      13.193  -9.815  23.073  1.00  0.00    -0.183 OA
HETATM   25  O2  UNL     1      11.541 -10.303  21.381  1.00  0.00    -0.183 OA
BRANCH  23  26
HETATM   26  N4  UNL     1      10.785 -10.403  23.868  1.00  0.00    -0.312 N 
ATOM     27  H42 UNL     1      10.134 -11.127  24.171  1.00  0.00     0.170 HD
ATOM     28  H41 UNL     1      10.755  -9.442  24.207  1.00  0.00     0.170 HD
ENDBRANCH  23  26
ENDBRANCH  21  23
ENDBRANCH  18  21
ENDBRANCH  17  18
ENDBRANCH  15  16
ENDBRANCH   1  15
TORSDOF 11
ENDMDL
MODEL 4
REMARK VINA RESULT: -6.506850790      4.262      8.024
REMARK  11 active torsions:
REMARK  status: ('A' for Active; 'I' for Inactive)
REMARK    1  A    between atoms: C2_2  and  N1_3 
REMARK    2  A    between atoms: N1_3  and  C4_5 
REMARK    3  A    between atoms: N1_3  and  C13_15 
REMARK    4  A    between atoms: C4_5  and  C5_6 
REMARK    5  A    between atoms: C6_7  and  C7_8 
REMARK    6  A    between atoms: C7_8  and  N2_9 
REMARK    7  A    between atoms: C13_15  and  C14_16 
REMARK    8  A    between atoms: C15_17  and  C16_18 
REMARK    9  A    between atoms: C16_18  and  N3_19 
REMARK   10  A    between atoms: N3_19  and  S1_21 
REMARK   11  A    between atoms: S1_21  and  N4_22 
ROOT
HETATM    1  N1  UNL     1      18.611 -12.778  20.713  1.00  0.00    -0.051 N 
HETATM    2  C3  UNL     1      17.982 -12.021  19.619  1.00  0.00     0.274 C 
ENDROOT
BRANCH   1   3
HETATM    3  C2  UNL     1      19.996 -12.996  20.370  1.00  0.00     0.234 C 
HETATM    4  C1  UNL     1      20.477 -11.892  19.451  1.00  0.00     0.035 C 
ENDBRANCH   1   3
BRANCH   1   5
HETATM    5  C4  UNL     1      17.868 -14.004  20.839  1.00  0.00     0.331 C 
BRANCH   5   6
HETATM    6  C5  UNL     1      16.452 -13.661  21.062  1.00  0.00    -0.077 C 
HETATM    7  C6  UNL     1      15.292 -13.378  21.231  1.00  0.00    -0.077 C 
BRANCH   7   8
HETATM    8  C7  UNL     1      13.888 -13.021  21.423  1.00  0.00     0.330 C 
BRANCH   8   9
HETATM    9  N2  UNL     1      13.567 -11.709  20.928  1.00  0.00    -0.061 N 
HETATM   10  C8  UNL     1      13.661 -11.658  19.481  1.00  0.00     0.273 C 
HETATM   11  C9  UNL     1      12.217 -11.399  21.355  1.00  0.00     0.238 C 
HETATM   12  C10 UNL     1      12.216  -9.945  21.768  1.00  0.00     0.029 C 
HETATM   13  C11 UNL     1      13.626  -9.458  21.566  1.00  0.00     0.029 C 
HETATM   14  C12 UNL     1      14.428 -10.740  21.536  1.00  0.00     0.238 C 
ENDBRANCH   8   9
ENDBRANCH   7   8
ENDBRANCH   5   6
ENDBRANCH   1   5
BRANCH   1  15
HETATM   15  C13 UNL     1      18.546 -11.952  21.879  1.00  0.00     0.331 C 
BRANCH  15  16
HETATM   16  C14 UNL     1      19.362 -12.485  22.942  1.00  0.00    -0.076 C 
HETATM   17  C15 UNL     1      20.062 -12.918  23.830  1.00  0.00    -0.072 C 
BRANCH  17  18
HETATM   18  C16 UNL     1      20.937 -13.433  24.903  1.00  0.00     0.105 A 
HETATM   19  C17 UNL     1      20.974 -12.515  26.143  1.00  0.00     0.048 A 
HETATM   20  C18 UNL     1      22.160 -12.673  25.192  1.00  0.00     0.048 A 
BRANCH  18  21
HETATM   21  N3  UNL     1      20.745 -14.800  25.220  1.00  0.00    -0.282 N 
ATOM     22  H3  UNL     1      19.928 -15.118  25.742  1.00  0.00     0.175 HD
BRANCH  21  23
HETATM   23  S1  UNL     1      21.927 -15.873  24.696  1.00  0.00     0.314 S 
HETATM   24  O1  UNL     1      21.347 -17.278  24.650  1.00  0.00    -0.183 OA
HETATM   25  O2  UNL     1      22.354 -15.553  23.294  1.00  0.00    -0.183 OA
BRANCH  23  26
HETATM   26  N4  UNL     1      23.328 -15.937  25.675  1.00  0.00    -0.312 N 
ATOM     27  H42 UNL     1      23.282 -16.201  26.660  1.00  0.00     0.170 HD
ATOM     28  H41 UNL     1      24.196 -15.692  25.200  1.00  0.00     0.170 HD
ENDBRANCH  23  26
ENDBRANCH  21  23
ENDBRANCH  18  21
ENDBRANCH  17  18
ENDBRANCH  15  16
ENDBRANCH   1  15
TORSDOF 11
ENDMDL
MODEL 5
REMARK VINA RESULT: -6.397764145      1.942      2.944
REMARK  11 active torsions:
REMARK  status: ('A' for Active; 'I' for Inactive)
REMARK    1  A    between atoms: C2_2  and  N1_3 
REMARK    2  A    between atoms: N1_3  and  C4_5 
REMARK    3  A    between atoms: N1_3  and  C13_15 
REMARK    4  A    between atoms: C4_5  and  C5_6 
REMARK    5  A    between atoms: C6_7  and  C7_8 
REMARK    6  A    between atoms: C7_8  and  N2_9 
REMARK    7  A    between atoms: C13_15  and  C14_16 
REMARK    8  A    between atoms: C15_17  and  C16_18 
REMARK    9  A    between atoms: C16_18  and  N3_19 
REMARK   10  A    between atoms: N3_19  and  S1_21 
REMARK   11  A    between atoms: S1_21  and  N4_22 
ROOT
HETATM    1  N1  UNL     1      17.595 -12.391  20.175  1.00  0.00    -0.051 N 
HETATM    2  C3  UNL     1      16.905 -12.211  18.888  1.00  0.00     0.274 C 
ENDROOT
BRANCH   1   3
HETATM    3  C2  UNL     1      16.961 -11.535  21.148  1.00  0.00     0.234 C 
HETATM    4  C1  UNL     1      16.009 -10.584  20.454  1.00  0.00     0.035 C 
ENDBRANCH   1   3
BRANCH   1   5
HETATM    5  C4  UNL     1      18.975 -12.050  19.947  1.00  0.00     0.331 C 
BRANCH   5   6
HETATM    6  C5  UNL     1      19.765 -12.555  21.085  1.00  0.00    -0.077 C 
HETATM    7  C6  UNL     1      20.405 -12.959  22.024  1.00  0.00    -0.077 C 
BRANCH   7   8
HETATM    8  C7  UNL     1      21.183 -13.431  23.167  1.00  0.00     0.330 C 
BRANCH   8   9
HETATM    9  N2  UNL     1      20.411 -14.231  24.081  1.00  0.00    -0.061 N 
HETATM   10  C8  UNL     1      21.271 -14.943  25.009  1.00  0.00     0.273 C 
HETATM   11  C9  UNL     1      19.525 -13.340  24.801  1.00  0.00     0.238 C 
HETATM   12  C10 UNL     1      18.197 -14.051  24.922  1.00  0.00     0.029 C 
HETATM   13  C11 UNL     1      18.374 -15.375  24.227  1.00  0.00     0.029 C 
HETATM   14  C12 UNL     1      19.581 -15.138  23.347  1.00  0.00     0.238 C 
ENDBRANCH   8   9
ENDBRANCH   7   8
ENDBRANCH   5   6
ENDBRANCH   1   5
BRANCH   1  15
HETATM   15  C13 UNL     1      17.403 -13.754  20.561  1.00  0.00     0.331 C 
BRANCH  15  16
HETATM   16  C14 UNL     1      16.003 -14.056  20.735  1.00  0.00    -0.076 C 
HETATM   17  C15 UNL     1      14.827 -14.294  20.896  1.00  0.00    -0.072 C 
BRANCH  17  18
HETATM   18  C16 UNL     1      13.393 -14.570  21.114  1.00  0.00     0.105 A 
HETATM   19  C17 UNL     1      13.064 -16.078  21.125  1.00  0.00     0.048 A 
HETATM   20  C18 UNL     1      12.644 -15.145  19.989  1.00  0.00     0.048 A 
BRANCH  18  21
HETATM   21  N3  UNL     1      12.808 -13.860  22.191  1.00  0.00    -0.282 N 
ATOM     22  H3  UNL     1      12.618 -14.308  23.087  1.00  0.00     0.175 HD
BRANCH  21  23
HETATM   23  S1  UNL     1      12.441 -12.241  21.920  1.00  0.00     0.314 S 
HETATM   24  O1  UNL     1      13.577 -11.374  22.443  1.00  0.00    -0.183 OA
HETATM   25  O2  UNL     1      12.342 -11.955  20.451  1.00  0.00    -0.183 OA
BRANCH  23  26
HETATM   26  N4  UNL     1      11.003 -11.694  22.666  1.00  0.00    -0.312 N 
ATOM     27  H42 UNL     1      10.251 -12.336  22.915  1.00  0.00     0.170 HD
ATOM     28  H41 UNL     1      10.964 -10.690  22.838  1.00  0.00     0.170 HD
ENDBRANCH  23  26
ENDBRANCH  21  23
ENDBRANCH  18  21
ENDBRANCH  17  18
ENDBRANCH  15  16
ENDBRANCH   1  15
TORSDOF 11
ENDMDL
