MODEL 1
REMARK VINA RESULT: -7.837275722      0.000      0.000
REMARK  7 active torsions:
REMARK  status: ('A' for Active; 'I' for Inactive)
REMARK    1  A    between atoms: N1_1  and  C1_5 
REMARK    2  A    between atoms: S1_8  and  C4_9 
REMARK    3  A    between atoms: C4_9  and  C5_10 
REMARK    4  A    between atoms: C5_10  and  C6_11 
REMARK    5  A    between atoms: C6_11  and  N2_12 
REMARK    6  A    between atoms: N3_15  and  C9_16 
REMARK    7  A    between atoms: C9_16  and  C10_17 
ROOT
HETATM    1  C1  UNL     1      21.205 -13.585  23.432  1.00  0.00     0.130 C 
HETATM    2  C2  UNL     1      20.609 -13.364  22.102  1.00  0.00     0.048 C 
HETATM    3  C3  UNL     1      19.810 -14.637  21.778  1.00  0.00     0.066 C 
HETATM    4  S1  UNL     1      18.532 -14.917  22.986  1.00  0.00    -0.219 SA
HETATM    5  C14 UNL     1      19.319 -14.683  24.593  1.00  0.00     0.071 C 
HETATM    6  C15 UNL     1      20.072 -13.422  24.463  1.00  0.00     0.038 C 
HETATM    7  C16 UNL     1      21.097 -12.994  25.374  1.00  0.00    -0.031 A 
HETATM    8  C17 UNL     1      21.022 -12.354  26.658  1.00  0.00     0.011 A 
HETATM    9  C18 UNL     1      21.760 -13.695  26.437  1.00  0.00     0.011 A 
HETATM   10  C19 UNL     1      21.809 -12.383  24.165  1.00  0.00     0.049 C 
ENDROOT
BRANCH   4  11
HETATM   11  C4  UNL     1      17.261 -13.671  22.838  1.00  0.00     0.065 C 
BRANCH  11  12
HETATM   12  C5  UNL     1      16.965 -13.349  21.407  1.00  0.00     0.037 C 
BRANCH  12  13
HETATM   13  C6  UNL     1      16.475 -11.987  21.152  1.00  0.00     0.240 C 
BRANCH  13  14
HETATM   14  N2  UNL     1      15.134 -11.776  20.791  1.00  0.00    -0.040 N 
HETATM   15  C7  UNL     1      14.236 -12.791  21.250  1.00  0.00     0.267 C 
HETATM   16  C8  UNL     1      12.923 -12.059  21.589  1.00  0.00     0.268 C 
HETATM   17  N3  UNL     1      13.184 -10.782  21.011  1.00  0.00    -0.030 N 
HETATM   18  C11 UNL     1      13.389 -10.907  19.603  1.00  0.00     0.268 C 
HETATM   19  C13 UNL     1      14.573 -10.582  21.475  1.00  0.00     0.473 C 
HETATM   20  C12 UNL     1      14.827 -11.438  19.445  1.00  0.00     0.267 C 
BRANCH  17  21
HETATM   21  C9  UNL     1      12.346  -9.706  21.411  1.00  0.00     0.352 C 
BRANCH  21  22
HETATM   22  C10 UNL     1      12.404  -9.382  22.842  1.00  0.00     0.199 C 
HETATM   23  O1  UNL     1      11.738 -10.062  23.664  1.00  0.00    -0.647 OA
HETATM   24  O2  UNL     1      13.194  -8.329  23.266  1.00  0.00    -0.647 OA
ENDBRANCH  21  22
ENDBRANCH  17  21
ENDBRANCH  13  14
ENDBRANCH  12  13
ENDBRANCH  11  12
ENDBRANCH   4  11
BRANCH   1  25
HETATM   25  N1  UNL     1      22.046 -14.713  23.637  1.00  0.00    -0.070 N 
ATOM     26  H13 UNL     1      23.017 -14.418  23.543  1.00  0.00     0.275 HD
ATOM     27  H12 UNL     1      22.010 -14.973  24.623  1.00  0.00     0.275 HD
ATOM     28  H11 UNL     1      21.902 -15.551  23.072  1.00  0.00     0.275 HD
ENDBRANCH   1  25
TORSDOF 7
ENDMDL
MODEL 2
REMARK VINA RESULT: -7.744548100      1.042      1.249
REMARK  7 active torsions:
REMARK  status: ('A' for Active; 'I' for Inactive)
REMARK    1  A    between atoms: N1_1  and  C1_5 
REMARK    2  A    between atoms: S1_8  and  C4_9 
REMARK    3  A    between atoms: C4_9  and  C5_10 
REMARK    4  A    between atoms: C5_10  and  C6_11 
REMARK    5  A    between atoms: C6_11  and  N2_12 
REMARK    6  A    between atoms: N3_15  and  C9_16 
REMARK    7  A    between atoms: C9_16  and  C10_17 
ROOT
HETATM    1  C1  UNL     1      21.304 -13.453  23.432  1.00  0.00     0.130 C 
HETATM    2  C2  UNL     1      20.821 -13.131  22.077  1.00  0.00     0.048 C 
HETATM    3  C3  UNL     1      19.951 -14.323  21.643  1.00  0.00     0.066 C 
HETATM    4  S1  UNL     1      18.575 -14.549  22.750  1.00  0.00    -0.219 SA
HETATM    5  C14 UNL     1      19.264 -14.445  24.415  1.00  0.00     0.071 C 
HETATM    6  C15 UNL     1      20.118 -13.243  24.393  1.00  0.00     0.038 C 
HETATM    7  C16 UNL     1      21.107 -12.936  25.388  1.00  0.00    -0.031 A 
HETATM    8  C17 UNL     1      20.993 -12.345  26.693  1.00  0.00     0.011 A 
HETATM    9  C18 UNL     1      21.639 -13.730  26.459  1.00  0.00     0.011 A 
HETATM   10  C19 UNL     1      21.947 -12.334  24.259  1.00  0.00     0.049 C 
ENDROOT
BRANCH   4  11
HETATM   11  C4  UNL     1      17.416 -13.201  22.576  1.00  0.00     0.065 C 
BRANCH  11  12
HETATM   12  C5  UNL     1      17.229 -12.813  21.143  1.00  0.00     0.037 C 
BRANCH  12  13
HETATM   13  C6  UNL     1      16.211 -13.577  20.407  1.00  0.00     0.240 C 
BRANCH  13  14
HETATM   14  N2  UNL     1      14.986 -12.977  20.069  1.00  0.00    -0.040 N 
HETATM   15  C7  UNL     1      14.102 -13.825  19.330  1.00  0.00     0.267 C 
HETATM   16  C8  UNL     1      12.683 -13.461  19.810  1.00  0.00     0.268 C 
HETATM   17  N3  UNL     1      12.958 -12.271  20.545  1.00  0.00    -0.030 N 
HETATM   18  C11 UNL     1      13.515 -11.273  19.687  1.00  0.00     0.268 C 
HETATM   19  C13 UNL     1      14.165 -12.709  21.279  1.00  0.00     0.473 C 
HETATM   20  C12 UNL     1      14.990 -11.675  19.497  1.00  0.00     0.267 C 
BRANCH  17  21
HETATM   21  C9  UNL     1      11.951 -11.813  21.437  1.00  0.00     0.352 C 
BRANCH  21  22
HETATM   22  C10 UNL     1      12.171 -10.462  21.971  1.00  0.00     0.199 C 
HETATM   23  O1  UNL     1      12.685 -10.316  23.109  1.00  0.00    -0.647 OA
HETATM   24  O2  UNL     1      11.809  -9.366  21.209  1.00  0.00    -0.647 OA
ENDBRANCH  21  22
ENDBRANCH  17  21
ENDBRANCH  13  14
ENDBRANCH  12  13
ENDBRANCH  11  12
ENDBRANCH   4  11
BRANCH   1  25
HETATM   25  N1  UNL     1      22.040 -14.652  23.640  1.00  0.00    -0.070 N 
ATOM     26  H13 UNL     1      22.992 -14.513  23.304  1.00  0.00     0.275 HD
ATOM     27  H12 UNL     1      22.195 -14.772  24.641  1.00  0.00     0.275 HD
ATOM     28  H11 UNL     1      21.683 -15.528  23.258  1.00  0.00     0.275 HD
ENDBRANCH   1  25
TORSDOF 7
ENDMDL
MODEL 3
REMARK VINA RESULT: -7.586978072      1.132      1.500
REMARK  7 active torsions:
REMARK  status: ('A' for Active; 'I' for Inactive)
REMARK    1  A    between atoms: N1_1  and  C1_5 
REMARK    2  A    between atoms: S1_8  and  C4_9 
REMARK    3  A    between atoms: C4_9  and  C5_10 
REMARK    4  A    between atoms: C5_10  and  C6_11 
REMARK    5  A    between atoms: C6_11  and  N2_12 
REMARK    6  A    between atoms: N3_15  and  C9_16 
REMARK    7  A    between atoms: C9_16  and  C10_17 
ROOT
HETATM    1  C1  UNL     1      20.491 -14.778  23.423  1.00  0.00     0.130 C 
HETATM    2  C2  UNL     1      20.533 -15.248  22.027  1.00  0.00     0.048 C 
HETATM    3  C3  UNL     1      19.069 -15.449  21.602  1.00  0.00     0.066 C 
HETATM    4  S1  UNL     1      18.156 -13.924  21.712  1.00  0.00    -0.219 SA
HETATM    5  C14 UNL     1      18.581 -13.213  23.314  1.00  0.00     0.071 C 
HETATM    6  C15 UNL     1      20.052 -13.302  23.386  1.00  0.00     0.038 C 
HETATM    7  C16 UNL     1      20.813 -13.149  24.594  1.00  0.00    -0.031 A 
HETATM    8  C17 UNL     1      21.247 -11.976  25.303  1.00  0.00     0.011 A 
HETATM    9  C18 UNL     1      20.394 -13.082  25.966  1.00  0.00     0.011 A 
HETATM   10  C19 UNL     1      21.773 -14.200  24.033  1.00  0.00     0.049 C 
ENDROOT
BRANCH   4  11
HETATM   11  C4  UNL     1      18.718 -12.779  20.462  1.00  0.00     0.065 C 
BRANCH  11  12
HETATM   12  C5  UNL     1      17.576 -12.048  19.827  1.00  0.00     0.037 C 
BRANCH  12  13
HETATM   13  C6  UNL     1      16.694 -11.323  20.753  1.00  0.00     0.240 C 
BRANCH  13  14
HETATM   14  N2  UNL     1      15.301 -11.481  20.669  1.00  0.00    -0.040 N 
HETATM   15  C7  UNL     1      14.771 -12.486  21.540  1.00  0.00     0.267 C 
HETATM   16  C8  UNL     1      13.397 -11.956  21.993  1.00  0.00     0.268 C 
HETATM   17  N3  UNL     1      13.234 -10.861  21.096  1.00  0.00    -0.030 N 
HETATM   18  C11 UNL     1      13.219 -11.324  19.744  1.00  0.00     0.268 C 
HETATM   19  C13 UNL     1      14.590 -10.277  21.173  1.00  0.00     0.473 C 
HETATM   20  C12 UNL     1      14.695 -11.590  19.388  1.00  0.00     0.267 C 
BRANCH  17  21
HETATM   21  C9  UNL     1      12.239  -9.899  21.420  1.00  0.00     0.352 C 
BRANCH  21  22
HETATM   22  C10 UNL     1      12.116  -9.602  22.853  1.00  0.00     0.199 C 
HETATM   23  O1  UNL     1      12.776  -8.655  23.353  1.00  0.00    -0.647 OA
HETATM   24  O2  UNL     1      11.272 -10.370  23.634  1.00  0.00    -0.647 OA
ENDBRANCH  21  22
ENDBRANCH  17  21
ENDBRANCH  13  14
ENDBRANCH  12  13
ENDBRANCH  11  12
ENDBRANCH   4  11
BRANCH   1  25
HETATM   25  N1  UNL     1      19.839 -15.575  24.404  1.00  0.00    -0.070 N 
ATOM     26  H13 UNL     1      19.155 -14.997  24.892  1.00  0.00     0.275 HD
ATOM     27  H12 UNL     1      19.234 -16.246  23.932  1.00  0.00     0.275 HD
ATOM     28  H11 UNL     1      20.401 -16.071  25.096  1.00  0.00     0.275 HD
ENDBRANCH   1  25
TORSDOF 7
ENDMDL
MODEL 4
REMARK VINA RESULT: -7.566662929      1.379      1.714
REMARK  7 active torsions:
REMARK  status: ('A' for Active; 'I' for Inactive)
REMARK    1  A    between atoms: N1_1  and  C1_5 
REMARK    2  A    between atoms: S1_8  and  C4_9 
REMARK    3  A    between atoms: C4_9  and  C5_10 
REMARK    4  A    between atoms: C5_10  and  C6_11 
REMARK    5  A    between atoms: C6_11  and  N2_12 
REMARK    6  A    between atoms: N3_15  and  C9_16 
REMARK    7  A    between atoms: C9_16  and  C10_17 
ROOT
HETATM    1  C1  UNL     1      21.137 -14.257  23.116  1.00  0.00     0.130 C 
HETATM    2  C2  UNL     1      20.498 -14.525  21.815  1.00  0.00     0.048 C 
HETATM    3  C3  UNL     1      19.848 -15.913  21.941  1.00  0.00     0.066 C 
HETATM    4  S1  UNL     1      18.631 -15.934  23.241  1.00  0.00    -0.219 SA
HETATM    5  C14 UNL     1      19.411 -15.130  24.655  1.00  0.00     0.071 C 
HETATM    6  C15 UNL     1      20.010 -13.900  24.104  1.00  0.00     0.038 C 
HETATM    7  C16 UNL     1      20.994 -13.105  24.785  1.00  0.00    -0.031 A 
HETATM    8  C17 UNL     1      20.866 -12.107  25.812  1.00  0.00     0.011 A 
HETATM    9  C18 UNL     1      21.751 -13.365  25.976  1.00  0.00     0.011 A 
HETATM   10  C19 UNL     1      21.610 -12.829  23.412  1.00  0.00     0.049 C 
ENDROOT
BRANCH   4  11
HETATM   11  C4  UNL     1      17.222 -14.938  22.782  1.00  0.00     0.065 C 
BRANCH  11  12
HETATM   12  C5  UNL     1      16.822 -15.166  21.358  1.00  0.00     0.037 C 
BRANCH  12  13
HETATM   13  C6  UNL     1      15.457 -14.749  21.008  1.00  0.00     0.240 C 
BRANCH  13  14
HETATM   14  N2  UNL     1      15.222 -13.465  20.488  1.00  0.00    -0.040 N 
HETATM   15  C7  UNL     1      14.125 -13.395  19.572  1.00  0.00     0.267 C 
HETATM   16  C8  UNL     1      13.473 -12.019  19.813  1.00  0.00     0.268 C 
HETATM   17  N3  UNL     1      14.464 -11.406  20.634  1.00  0.00    -0.030 N 
HETATM   18  C11 UNL     1      15.702 -11.304  19.928  1.00  0.00     0.268 C 
HETATM   19  C13 UNL     1      14.758 -12.531  21.547  1.00  0.00     0.473 C 
HETATM   20  C12 UNL     1      16.319 -12.716  19.981  1.00  0.00     0.267 C 
BRANCH  17  21
HETATM   21  C9  UNL     1      14.078 -10.244  21.356  1.00  0.00     0.352 C 
BRANCH  21  22
HETATM   22  C10 UNL     1      12.939  -9.515  20.784  1.00  0.00     0.199 C 
HETATM   23  O1  UNL     1      11.801  -9.624  21.307  1.00  0.00    -0.647 OA
HETATM   24  O2  UNL     1      13.136  -8.714  19.674  1.00  0.00    -0.647 OA
ENDBRANCH  21  22
ENDBRANCH  17  21
ENDBRANCH  13  14
ENDBRANCH  12  13
ENDBRANCH  11  12
ENDBRANCH   4  11
BRANCH   1  25
HETATM   25  N1  UNL     1      22.107 -15.170  23.615  1.00  0.00    -0.070 N 
ATOM     26  H13 UNL     1      22.445 -15.741  22.842  1.00  0.00     0.275 HD
ATOM     27  H12 UNL     1      22.949 -14.650  23.864  1.00  0.00     0.275 HD
ATOM     28  H11 UNL     1      21.860 -15.783  24.392  1.00  0.00     0.275 HD
ENDBRANCH   1  25
TORSDOF 7
ENDMDL
MODEL 5
REMARK VINA RESULT: -7.507519623      0.917      1.516
REMARK  7 active torsions:
REMARK  status: ('A' for Active; 'I' for Inactive)
REMARK    1  A    between atoms: N1_1  and  C1_5 
REMARK    2  A    between atoms: S1_8  and  C4_9 
REMARK    3  A    between atoms: C4_9  and  C5_10 
REMARK    4  A    between atoms: C5_10  and  C6_11 
REMARK    5  A    between atoms: C6_11  and  N2_12 
REMARK    6  A    between atoms: N3_15  and  C9_16 
REMARK    7  A    between atoms: C9_16  and  C10_17 
ROOT
HETATM    1  C1  UNL     1      21.283 -13.698  23.452  1.00  0.00     0.130 C 
HETATM    2  C2  UNL     1      20.675 -13.613  22.112  1.00  0.00     0.048 C 
HETATM    3  C3  UNL     1      20.056 -14.994  21.839  1.00  0.00     0.066 C 
HETATM    4  S1  UNL     1      18.816 -15.392  23.054  1.00  0.00    -0.219 SA
HETATM    5  C14 UNL     1      19.551 -14.990  24.653  1.00  0.00     0.071 C 
HETATM    6  C15 UNL     1      20.130 -13.645  24.472  1.00  0.00     0.038 C 
HETATM    7  C16 UNL     1      21.081 -13.048  25.367  1.00  0.00    -0.031 A 
HETATM    8  C17 UNL     1      20.910 -12.371  26.624  1.00  0.00     0.011 A 
HETATM    9  C18 UNL     1      21.822 -13.609  26.461  1.00  0.00     0.011 A 
HETATM   10  C19 UNL     1      21.715 -12.397  24.137  1.00  0.00     0.049 C 
ENDROOT
BRANCH   4  11
HETATM   11  C4  UNL     1      17.392 -14.335  22.850  1.00  0.00     0.065 C 
BRANCH  11  12
HETATM   12  C5  UNL     1      16.701 -14.581  21.545  1.00  0.00     0.037 C 
BRANCH  12  13
HETATM   13  C6  UNL     1      16.914 -13.558  20.513  1.00  0.00     0.240 C 
BRANCH  13  14
HETATM   14  N2  UNL     1      15.973 -12.529  20.335  1.00  0.00    -0.040 N 
HETATM   15  C7  UNL     1      15.612 -12.294  18.970  1.00  0.00     0.267 C 
HETATM   16  C8  UNL     1      14.120 -11.910  18.998  1.00  0.00     0.268 C 
HETATM   17  N3  UNL     1      13.930 -11.716  20.397  1.00  0.00    -0.030 N 
HETATM   18  C11 UNL     1      14.772 -10.663  20.872  1.00  0.00     0.268 C 
HETATM   19  C13 UNL     1      14.653 -12.899  20.909  1.00  0.00     0.473 C 
HETATM   20  C12 UNL     1      16.175 -11.287  20.997  1.00  0.00     0.267 C 
BRANCH  17  21
HETATM   21  C9  UNL     1      12.591 -11.684  20.871  1.00  0.00     0.352 C 
BRANCH  21  22
HETATM   22  C10 UNL     1      12.275 -10.547  21.745  1.00  0.00     0.199 C 
HETATM   23  O1  UNL     1      11.843  -9.477  21.245  1.00  0.00    -0.647 OA
HETATM   24  O2  UNL     1      12.457 -10.671  23.110  1.00  0.00    -0.647 OA
ENDBRANCH  21  22
ENDBRANCH  17  21
ENDBRANCH  13  14
ENDBRANCH  12  13
ENDBRANCH  11  12
ENDBRANCH   4  11
BRANCH   1  25
HETATM   25  N1  UNL     1      22.265 -14.694  23.707  1.00  0.00    -0.070 N 
ATOM     26  H13 UNL     1      21.878 -15.605  23.462  1.00  0.00     0.275 HD
ATOM     27  H12 UNL     1      23.012 -14.602  23.018  1.00  0.00     0.275 HD
ATOM     28  H11 UNL     1      22.683 -14.755  24.636  1.00  0.00     0.275 HD
ENDBRANCH   1  25
TORSDOF 7
ENDMDL
