MODEL 1
REMARK VINA RESULT: -7.843214648      0.000      0.000
REMARK  12 active torsions:
REMARK  status: ('A' for Active; 'I' for Inactive)
REMARK    1  A    between atoms: C2_2  and  N1_5 
REMARK    2  A    between atoms: N1_5  and  C5_7 
REMARK    3  A    between atoms: C5_7  and  C6_8 
REMARK    4  A    between atoms: C5_7  and  C25_48 
REMARK       I    between atoms: C6_8  and  N2_10 
REMARK    5  A    between atoms: N3_12  and  S1_13 
REMARK    6  A    between atoms: S1_13  and  C8_16 
REMARK    7  A    between atoms: C9_20  and  C10_21 
REMARK       I    between atoms: C10_21  and  N5_23 
REMARK    8  A    between atoms: N5_23  and  C11_25 
REMARK    9  A    between atoms: C11_25  and  C12_26 
REMARK       I    between atoms: C12_26  and  N6_28 
REMARK   10  A    between atoms: N6_28  and  S2_30 
REMARK   11  A    between atoms: S2_30  and  C13_33 
REMARK   12  A    between atoms: C19_39  and  C20_40 
REMARK       I    between atoms: C20_40  and  N7_42 
ROOT
HETATM    1  C6  UNL     1     -35.931   2.489 -17.798  1.00  0.00     0.245 C 
HETATM    2  O1  UNL     1     -37.119   2.171 -18.067  1.00  0.00    -0.271 OA
HETATM    3  N2  UNL     1     -34.873   1.547 -17.752  1.00  0.00    -0.318 N 
HETATM    4  C7  UNL     1     -33.490   1.879 -17.516  1.00  0.00     0.241 C 
HETATM    5  N3  UNL     1     -32.810   0.604 -17.305  1.00  0.00    -0.150 NA
HETATM    6  C9  UNL     1     -33.538  -0.190 -18.232  1.00  0.00     0.104 C 
HETATM    7  C19 UNL     1     -34.952   0.067 -17.899  1.00  0.00     0.231 C 
ENDROOT
BRANCH   6   8
HETATM    8  C10 UNL     1     -33.031  -1.478 -18.594  1.00  0.00     0.263 C 
HETATM    9  O4  UNL     1     -33.618  -2.575 -18.523  1.00  0.00    -0.267 OA
HETATM   10  N5  UNL     1     -31.680  -1.554 -19.112  1.00  0.00    -0.338 N 
ATOM     11  H5  UNL     1     -31.165  -0.677 -19.195  1.00  0.00     0.164 HD
BRANCH  10  12
HETATM   12  C11 UNL     1     -31.011  -2.736 -19.515  1.00  0.00     0.115 A 
HETATM   13  C17 UNL     1     -29.942  -2.543 -20.606  1.00  0.00     0.044 A 
HETATM   14  C18 UNL     1     -31.148  -3.367 -20.850  1.00  0.00     0.044 A 
BRANCH  12  15
HETATM   15  C12 UNL     1     -30.591  -3.657 -18.400  1.00  0.00     0.259 C 
HETATM   16  O5  UNL     1     -29.543  -3.361 -17.749  1.00  0.00    -0.270 OA
HETATM   17  N6  UNL     1     -31.301  -4.797 -18.073  1.00  0.00    -0.252 N 
ATOM     18  H6  UNL     1     -32.145  -5.054 -18.586  1.00  0.00     0.181 HD
BRANCH  17  19
HETATM   19  S2  UNL     1     -30.715  -5.786 -16.763  1.00  0.00     0.240 S 
HETATM   20  O6  UNL     1     -31.265  -7.168 -16.854  1.00  0.00    -0.205 OA
HETATM   21  O7  UNL     1     -29.216  -5.821 -16.781  1.00  0.00    -0.205 OA
BRANCH  19  22
HETATM   22  C13 UNL     1     -31.216  -5.088 -15.200  1.00  0.00     0.072 C 
HETATM   23  C14 UNL     1     -32.379  -4.153 -15.365  1.00  0.00     0.033 C 
HETATM   24  C15 UNL     1     -30.076  -4.339 -14.551  1.00  0.00     0.033 C 
HETATM   25  C16 UNL     1     -31.638  -6.222 -14.297  1.00  0.00     0.033 C 
ENDBRANCH  19  22
ENDBRANCH  17  19
ENDBRANCH  12  15
ENDBRANCH  10  12
ENDBRANCH   6   8
BRANCH   5  26
HETATM   26  S1  UNL     1     -32.794   0.224 -15.680  1.00  0.00     0.253 S 
HETATM   27  O2  UNL     1     -32.970   1.364 -14.716  1.00  0.00    -0.205 OA
HETATM   28  O3  UNL     1     -33.870  -0.764 -15.342  1.00  0.00    -0.205 OA
BRANCH  26  29
HETATM   29  C8  UNL     1     -31.276  -0.539 -15.196  1.00  0.00     0.208 C 
HETATM   30  N4  UNL     1     -30.431  -0.807 -16.099  1.00  0.00    -0.398 N 
ATOM     31  H42 UNL     1     -30.636  -0.582 -17.072  1.00  0.00     0.156 HD
ATOM     32  H41 UNL     1     -29.555  -1.247 -15.819  1.00  0.00     0.156 HD
ENDBRANCH  26  29
ENDBRANCH   5  26
BRANCH   7  33
HETATM   33  C20 UNL     1     -35.905  -0.300 -18.972  1.00  0.00     0.248 C 
HETATM   34  O8  UNL     1     -35.636   0.072 -20.139  1.00  0.00    -0.271 OA
HETATM   35  N7  UNL     1     -37.102  -1.035 -18.804  1.00  0.00    -0.346 N 
HETATM   36  C21 UNL     1     -37.635  -1.534 -17.556  1.00  0.00     0.152 C 
HETATM   37  C24 UNL     1     -37.960  -1.372 -19.956  1.00  0.00     0.152 C 
HETATM   38  C22 UNL     1     -38.947  -0.856 -17.229  1.00  0.00     0.187 C 
HETATM   39  O9  UNL     1     -39.694  -0.776 -18.400  1.00  0.00    -0.388 OA
HETATM   40  C23 UNL     1     -39.315  -1.703 -19.358  1.00  0.00     0.187 C 
ENDBRANCH   7  33
BRANCH   1  41
HETATM   41  C5  UNL     1     -35.708   3.925 -17.528  1.00  0.00     0.177 C 
BRANCH  41  42
HETATM   42  N1  UNL     1     -36.350   4.847 -18.375  1.00  0.00    -0.401 N 
ATOM     43  H1  UNL     1     -37.354   4.981 -18.254  1.00  0.00     0.154 HD
BRANCH  42  44
HETATM   44  C2  UNL     1     -35.720   5.582 -19.354  1.00  0.00     0.015 C 
HETATM   45  C1  UNL     1     -35.739   4.826 -20.700  1.00  0.00     0.037 C 
HETATM   46  C3  UNL     1     -34.209   5.594 -18.999  1.00  0.00     0.037 C 
HETATM   47  C4  UNL     1     -36.064   6.982 -19.645  1.00  0.00     0.037 C 
ENDBRANCH  42  44
ENDBRANCH  41  42
BRANCH  41  48
HETATM   48  C25 UNL     1     -36.278   4.276 -16.128  1.00  0.00    -0.022 C 
HETATM   49  C26 UNL     1     -36.148   5.763 -15.883  1.00  0.00     0.017 C 
HETATM   50  C27 UNL     1     -37.711   3.934 -15.965  1.00  0.00     0.017 C 
HETATM   51  C28 UNL     1     -35.479   3.513 -15.107  1.00  0.00     0.017 C 
ENDBRANCH  41  48
ENDBRANCH   1  41
TORSDOF 12
ENDMDL
MODEL 2
REMARK VINA RESULT: -7.687341775      3.085      3.904
REMARK  12 active torsions:
REMARK  status: ('A' for Active; 'I' for Inactive)
REMARK    1  A    between atoms: C2_2  and  N1_5 
REMARK    2  A    between atoms: N1_5  and  C5_7 
REMARK    3  A    between atoms: C5_7  and  C6_8 
REMARK    4  A    between atoms: C5_7  and  C25_48 
REMARK       I    between atoms: C6_8  and  N2_10 
REMARK    5  A    between atoms: N3_12  and  S1_13 
REMARK    6  A    between atoms: S1_13  and  C8_16 
REMARK    7  A    between atoms: C9_20  and  C10_21 
REMARK       I    between atoms: C10_21  and  N5_23 
REMARK    8  A    between atoms: N5_23  and  C11_25 
REMARK    9  A    between atoms: C11_25  and  C12_26 
REMARK       I    between atoms: C12_26  and  N6_28 
REMARK   10  A    between atoms: N6_28  and  S2_30 
REMARK   11  A    between atoms: S2_30  and  C13_33 
REMARK   12  A    between atoms: C19_39  and  C20_40 
REMARK       I    between atoms: C20_40  and  N7_42 
ROOT
HETATM    1  C6  UNL     1     -35.672   2.711 -18.104  1.00  0.00     0.245 C 
HETATM    2  O1  UNL     1     -36.917   2.667 -18.292  1.00  0.00    -0.271 OA
HETATM    3  N2  UNL     1     -34.859   1.551 -18.062  1.00  0.00    -0.318 N 
HETATM    4  C7  UNL     1     -33.424   1.562 -17.919  1.00  0.00     0.241 C 
HETATM    5  N3  UNL     1     -33.043   0.173 -17.674  1.00  0.00    -0.150 NA
HETATM    6  C9  UNL     1     -33.993  -0.467 -18.515  1.00  0.00     0.104 C 
HETATM    7  C19 UNL     1     -35.285   0.125 -18.122  1.00  0.00     0.231 C 
ENDROOT
BRANCH   6   8
HETATM    8  C10 UNL     1     -33.820  -1.852 -18.832  1.00  0.00     0.263 C 
HETATM    9  O4  UNL     1     -33.198  -2.340 -19.796  1.00  0.00    -0.267 OA
HETATM   10  N5  UNL     1     -34.422  -2.830 -17.950  1.00  0.00    -0.338 N 
ATOM     11  H5  UNL     1     -34.935  -2.474 -17.143  1.00  0.00     0.164 HD
BRANCH  10  12
HETATM   12  C11 UNL     1     -34.362  -4.236 -18.106  1.00  0.00     0.115 A 
HETATM   13  C17 UNL     1     -33.588  -4.985 -17.005  1.00  0.00     0.044 A 
HETATM   14  C18 UNL     1     -33.125  -4.998 -18.411  1.00  0.00     0.044 A 
BRANCH  12  15
HETATM   15  C12 UNL     1     -35.650  -4.902 -18.512  1.00  0.00     0.259 C 
HETATM   16  O5  UNL     1     -36.569  -4.171 -18.994  1.00  0.00    -0.270 OA
HETATM   17  N6  UNL     1     -35.859  -6.261 -18.374  1.00  0.00    -0.252 N 
ATOM     18  H6  UNL     1     -35.134  -6.865 -17.987  1.00  0.00     0.181 HD
BRANCH  17  19
HETATM   19  S2  UNL     1     -37.394  -6.915 -18.878  1.00  0.00     0.240 S 
HETATM   20  O6  UNL     1     -38.498  -5.952 -18.603  1.00  0.00    -0.205 OA
HETATM   21  O7  UNL     1     -37.350  -7.251 -20.339  1.00  0.00    -0.205 OA
BRANCH  19  22
HETATM   22  C13 UNL     1     -37.736  -8.424 -17.992  1.00  0.00     0.072 C 
HETATM   23  C14 UNL     1     -38.969  -8.295 -17.145  1.00  0.00     0.033 C 
HETATM   24  C15 UNL     1     -36.574  -8.807 -17.105  1.00  0.00     0.033 C 
HETATM   25  C16 UNL     1     -37.964  -9.520 -19.006  1.00  0.00     0.033 C 
ENDBRANCH  19  22
ENDBRANCH  17  19
ENDBRANCH  12  15
ENDBRANCH  10  12
ENDBRANCH   6   8
BRANCH   5  26
HETATM   26  S1  UNL     1     -33.011  -0.132 -16.034  1.00  0.00     0.253 S 
HETATM   27  O2  UNL     1     -34.230  -0.781 -15.440  1.00  0.00    -0.205 OA
HETATM   28  O3  UNL     1     -31.860  -1.022 -15.668  1.00  0.00    -0.205 OA
BRANCH  26  29
HETATM   29  C8  UNL     1     -32.790   1.346 -15.091  1.00  0.00     0.208 C 
HETATM   30  N4  UNL     1     -33.567   1.548 -14.114  1.00  0.00    -0.398 N 
ATOM     31  H42 UNL     1     -34.294   0.869 -13.890  1.00  0.00     0.156 HD
ATOM     32  H41 UNL     1     -33.440   2.402 -13.569  1.00  0.00     0.156 HD
ENDBRANCH  26  29
ENDBRANCH   5  26
BRANCH   7  33
HETATM   33  C20 UNL     1     -36.365  -0.054 -19.122  1.00  0.00     0.248 C 
HETATM   34  O8  UNL     1     -36.185   0.434 -20.264  1.00  0.00    -0.271 OA
HETATM   35  N7  UNL     1     -37.590  -0.727 -18.909  1.00  0.00    -0.346 N 
HETATM   36  C21 UNL     1     -38.033  -1.333 -17.673  1.00  0.00     0.152 C 
HETATM   37  C24 UNL     1     -38.580  -0.872 -19.993  1.00  0.00     0.152 C 
HETATM   38  C22 UNL     1     -39.253  -0.616 -17.136  1.00  0.00     0.187 C 
HETATM   39  O9  UNL     1     -40.103  -0.354 -18.206  1.00  0.00    -0.388 OA
HETATM   40  C23 UNL     1     -39.891  -1.185 -19.294  1.00  0.00     0.187 C 
ENDBRANCH   7  33
BRANCH   1  41
HETATM   41  C5  UNL     1     -35.108   4.066 -17.926  1.00  0.00     0.177 C 
BRANCH  41  42
HETATM   42  N1  UNL     1     -35.749   5.123 -18.597  1.00  0.00    -0.401 N 
ATOM     43  H1  UNL     1     -36.553   5.554 -18.142  1.00  0.00     0.154 HD
BRANCH  42  44
HETATM   44  C2  UNL     1     -35.366   5.618 -19.824  1.00  0.00     0.015 C 
HETATM   45  C1  UNL     1     -33.862   5.965 -19.827  1.00  0.00     0.037 C 
HETATM   46  C3  UNL     1     -36.031   7.013 -19.969  1.00  0.00     0.037 C 
HETATM   47  C4  UNL     1     -35.648   4.919 -21.087  1.00  0.00     0.037 C 
ENDBRANCH  42  44
ENDBRANCH  41  42
BRANCH  41  48
HETATM   48  C25 UNL     1     -35.223   4.474 -16.434  1.00  0.00    -0.022 C 
HETATM   49  C26 UNL     1     -36.018   5.756 -16.316  1.00  0.00     0.017 C 
HETATM   50  C27 UNL     1     -35.904   3.464 -15.589  1.00  0.00     0.017 C 
HETATM   51  C28 UNL     1     -33.828   4.683 -15.910  1.00  0.00     0.017 C 
ENDBRANCH  41  48
ENDBRANCH   1  41
TORSDOF 12
ENDMDL
MODEL 3
REMARK VINA RESULT: -7.527811153      3.313      8.163
REMARK  12 active torsions:
REMARK  status: ('A' for Active; 'I' for Inactive)
REMARK    1  A    between atoms: C2_2  and  N1_5 
REMARK    2  A    between atoms: N1_5  and  C5_7 
REMARK    3  A    between atoms: C5_7  and  C6_8 
REMARK    4  A    between atoms: C5_7  and  C25_48 
REMARK       I    between atoms: C6_8  and  N2_10 
REMARK    5  A    between atoms: N3_12  and  S1_13 
REMARK    6  A    between atoms: S1_13  and  C8_16 
REMARK    7  A    between atoms: C9_20  and  C10_21 
REMARK       I    between atoms: C10_21  and  N5_23 
REMARK    8  A    between atoms: N5_23  and  C11_25 
REMARK    9  A    between atoms: C11_25  and  C12_26 
REMARK       I    between atoms: C12_26  and  N6_28 
REMARK   10  A    between atoms: N6_28  and  S2_30 
REMARK   11  A    between atoms: S2_30  and  C13_33 
REMARK   12  A    between atoms: C19_39  and  C20_40 
REMARK       I    between atoms: C20_40  and  N7_42 
ROOT
HETATM    1  C6  UNL     1     -36.265   0.895 -17.891  1.00  0.00     0.245 C 
HETATM    2  O1  UNL     1     -36.699   1.926 -18.469  1.00  0.00    -0.271 OA
HETATM    3  N2  UNL     1     -35.246   0.936 -16.906  1.00  0.00    -0.318 N 
HETATM    4  C7  UNL     1     -34.770  -0.211 -16.171  1.00  0.00     0.241 C 
HETATM    5  N3  UNL     1     -33.573   0.243 -15.468  1.00  0.00    -0.150 NA
HETATM    6  C9  UNL     1     -33.986   1.568 -15.162  1.00  0.00     0.104 C 
HETATM    7  C19 UNL     1     -34.452   2.111 -16.452  1.00  0.00     0.231 C 
ENDROOT
BRANCH   6   8
HETATM    8  C10 UNL     1     -33.238   2.326 -14.207  1.00  0.00     0.263 C 
HETATM    9  O4  UNL     1     -33.476   2.465 -12.991  1.00  0.00    -0.267 OA
HETATM   10  N5  UNL     1     -32.057   3.025 -14.670  1.00  0.00    -0.338 N 
ATOM     11  H5  UNL     1     -31.820   2.932 -15.658  1.00  0.00     0.164 HD
BRANCH  10  12
HETATM   12  C11 UNL     1     -31.200   3.825 -13.875  1.00  0.00     0.115 A 
HETATM   13  C17 UNL     1     -29.759   3.964 -14.400  1.00  0.00     0.044 A 
HETATM   14  C18 UNL     1     -30.043   3.310 -13.102  1.00  0.00     0.044 A 
BRANCH  12  15
HETATM   15  C12 UNL     1     -31.796   5.113 -13.370  1.00  0.00     0.259 C 
HETATM   16  O5  UNL     1     -31.907   6.076 -14.189  1.00  0.00    -0.270 OA
HETATM   17  N6  UNL     1     -32.217   5.274 -12.064  1.00  0.00    -0.252 N 
ATOM     18  H6  UNL     1     -32.135   4.512 -11.390  1.00  0.00     0.181 HD
BRANCH  17  19
HETATM   19  S2  UNL     1     -32.890   6.813 -11.598  1.00  0.00     0.240 S 
HETATM   20  O6  UNL     1     -32.718   7.046 -10.135  1.00  0.00    -0.205 OA
HETATM   21  O7  UNL     1     -32.238   7.913 -12.379  1.00  0.00    -0.205 OA
BRANCH  19  22
HETATM   22  C13 UNL     1     -34.634   6.854 -11.968  1.00  0.00     0.072 C 
HETATM   23  C14 UNL     1     -35.414   7.511 -10.865  1.00  0.00     0.033 C 
HETATM   24  C15 UNL     1     -35.175   5.460 -12.183  1.00  0.00     0.033 C 
HETATM   25  C16 UNL     1     -34.824   7.657 -13.232  1.00  0.00     0.033 C 
ENDBRANCH  19  22
ENDBRANCH  17  19
ENDBRANCH  12  15
ENDBRANCH  10  12
ENDBRANCH   6   8
BRANCH   5  26
HETATM   26  S1  UNL     1     -32.219  -0.037 -16.403  1.00  0.00     0.253 S 
HETATM   27  O2  UNL     1     -31.663   1.137 -17.160  1.00  0.00    -0.205 OA
HETATM   28  O3  UNL     1     -31.083  -0.559 -15.573  1.00  0.00    -0.205 OA
BRANCH  26  29
HETATM   29  C8  UNL     1     -32.512  -1.266 -17.638  1.00  0.00     0.208 C 
HETATM   30  N4  UNL     1     -31.753  -1.282 -18.651  1.00  0.00    -0.398 N 
ATOM     31  H42 UNL     1     -31.000  -0.598 -18.736  1.00  0.00     0.156 HD
ATOM     32  H41 UNL     1     -31.922  -1.991 -19.364  1.00  0.00     0.156 HD
ENDBRANCH  26  29
ENDBRANCH   5  26
BRANCH   7  33
HETATM   33  C20 UNL     1     -35.316   3.308 -16.330  1.00  0.00     0.248 C 
HETATM   34  O8  UNL     1     -36.228   3.281 -15.469  1.00  0.00    -0.271 OA
HETATM   35  N7  UNL     1     -35.212   4.490 -17.100  1.00  0.00    -0.346 N 
HETATM   36  C21 UNL     1     -34.270   4.738 -18.168  1.00  0.00     0.152 C 
HETATM   37  C24 UNL     1     -36.111   5.636 -16.867  1.00  0.00     0.152 C 
HETATM   38  C22 UNL     1     -34.992   4.895 -19.489  1.00  0.00     0.187 C 
HETATM   39  O9  UNL     1     -36.122   5.677 -19.270  1.00  0.00    -0.388 OA
HETATM   40  C23 UNL     1     -36.033   6.466 -18.135  1.00  0.00     0.187 C 
ENDBRANCH   7  33
BRANCH   1  41
HETATM   41  C5  UNL     1     -36.893  -0.376 -18.310  1.00  0.00     0.177 C 
BRANCH  41  42
HETATM   42  N1  UNL     1     -38.280  -0.361 -18.547  1.00  0.00    -0.401 N 
ATOM     43  H1  UNL     1     -38.620   0.198 -19.329  1.00  0.00     0.154 HD
BRANCH  42  44
HETATM   44  C2  UNL     1     -39.209  -1.048 -17.798  1.00  0.00     0.015 C 
HETATM   45  C1  UNL     1     -38.533  -1.756 -16.605  1.00  0.00     0.037 C 
HETATM   46  C3  UNL     1     -39.688  -2.241 -18.667  1.00  0.00     0.037 C 
HETATM   47  C4  UNL     1     -40.438  -0.421 -17.285  1.00  0.00     0.037 C 
ENDBRANCH  42  44
ENDBRANCH  41  42
BRANCH  41  48
HETATM   48  C25 UNL     1     -36.306  -0.806 -19.680  1.00  0.00    -0.022 C 
HETATM   49  C26 UNL     1     -37.274  -0.443 -20.785  1.00  0.00     0.017 C 
HETATM   50  C27 UNL     1     -35.013  -0.159 -20.006  1.00  0.00     0.017 C 
HETATM   51  C28 UNL     1     -36.104  -2.297 -19.641  1.00  0.00     0.017 C 
ENDBRANCH  41  48
ENDBRANCH   1  41
TORSDOF 12
ENDMDL
MODEL 4
REMARK VINA RESULT: -7.519639292      1.286      1.690
REMARK  12 active torsions:
REMARK  status: ('A' for Active; 'I' for Inactive)
REMARK    1  A    between atoms: C2_2  and  N1_5 
REMARK    2  A    between atoms: N1_5  and  C5_7 
REMARK    3  A    between atoms: C5_7  and  C6_8 
REMARK    4  A    between atoms: C5_7  and  C25_48 
REMARK       I    between atoms: C6_8  and  N2_10 
REMARK    5  A    between atoms: N3_12  and  S1_13 
REMARK    6  A    between atoms: S1_13  and  C8_16 
REMARK    7  A    between atoms: C9_20  and  C10_21 
REMARK       I    between atoms: C10_21  and  N5_23 
REMARK    8  A    between atoms: N5_23  and  C11_25 
REMARK    9  A    between atoms: C11_25  and  C12_26 
REMARK       I    between atoms: C12_26  and  N6_28 
REMARK   10  A    between atoms: N6_28  and  S2_30 
REMARK   11  A    between atoms: S2_30  and  C13_33 
REMARK   12  A    between atoms: C19_39  and  C20_40 
REMARK       I    between atoms: C20_40  and  N7_42 
ROOT
HETATM    1  C6  UNL     1     -35.897   2.706 -17.786  1.00  0.00     0.245 C 
HETATM    2  O1  UNL     1     -37.073   2.453 -18.159  1.00  0.00    -0.271 OA
HETATM    3  N2  UNL     1     -34.896   1.710 -17.664  1.00  0.00    -0.318 N 
HETATM    4  C7  UNL     1     -33.522   1.967 -17.308  1.00  0.00     0.241 C 
HETATM    5  N3  UNL     1     -32.929   0.657 -17.057  1.00  0.00    -0.150 NA
HETATM    6  C9  UNL     1     -33.616  -0.090 -18.052  1.00  0.00     0.104 C 
HETATM    7  C19 UNL     1     -35.038   0.237 -17.835  1.00  0.00     0.231 C 
ENDROOT
BRANCH   6   8
HETATM    8  C10 UNL     1     -33.147  -1.400 -18.387  1.00  0.00     0.263 C 
HETATM    9  O4  UNL     1     -33.787  -2.468 -18.356  1.00  0.00    -0.267 OA
HETATM   10  N5  UNL     1     -31.771  -1.537 -18.820  1.00  0.00    -0.338 N 
ATOM     11  H5  UNL     1     -31.212  -0.685 -18.866  1.00  0.00     0.164 HD
BRANCH  10  12
HETATM   12  C11 UNL     1     -31.134  -2.748 -19.184  1.00  0.00     0.115 A 
HETATM   13  C17 UNL     1     -30.216  -2.659 -20.418  1.00  0.00     0.044 A 
HETATM   14  C18 UNL     1     -31.424  -3.514 -20.421  1.00  0.00     0.044 A 
BRANCH  12  15
HETATM   15  C12 UNL     1     -30.555  -3.547 -18.046  1.00  0.00     0.259 C 
HETATM   16  O5  UNL     1     -30.143  -2.914 -17.027  1.00  0.00    -0.270 OA
HETATM   17  N6  UNL     1     -30.461  -4.925 -18.080  1.00  0.00    -0.252 N 
ATOM     18  H6  UNL     1     -30.786  -5.453 -18.891  1.00  0.00     0.181 HD
BRANCH  17  19
HETATM   19  S2  UNL     1     -29.772  -5.740 -16.701  1.00  0.00     0.240 S 
HETATM   20  O6  UNL     1     -30.243  -5.121 -15.430  1.00  0.00    -0.205 OA
HETATM   21  O7  UNL     1     -30.132  -7.194 -16.736  1.00  0.00    -0.205 OA
BRANCH  19  22
HETATM   22  C13 UNL     1     -27.993  -5.626 -16.751  1.00  0.00     0.072 C 
HETATM   23  C14 UNL     1     -27.465  -4.785 -15.625  1.00  0.00     0.033 C 
HETATM   24  C15 UNL     1     -27.524  -5.037 -18.060  1.00  0.00     0.033 C 
HETATM   25  C16 UNL     1     -27.433  -7.021 -16.609  1.00  0.00     0.033 C 
ENDBRANCH  19  22
ENDBRANCH  17  19
ENDBRANCH  12  15
ENDBRANCH  10  12
ENDBRANCH   6   8
BRANCH   5  26
HETATM   26  S1  UNL     1     -33.071   0.263 -15.442  1.00  0.00     0.253 S 
HETATM   27  O2  UNL     1     -34.437   0.392 -14.829  1.00  0.00    -0.205 OA
HETATM   28  O3  UNL     1     -32.644  -1.153 -15.187  1.00  0.00    -0.205 OA
BRANCH  26  29
HETATM   29  C8  UNL     1     -32.030   1.264 -14.424  1.00  0.00     0.208 C 
HETATM   30  N4  UNL     1     -30.853   1.498 -14.827  1.00  0.00    -0.398 N 
ATOM     31  H42 UNL     1     -30.531   1.111 -15.714  1.00  0.00     0.156 HD
ATOM     32  H41 UNL     1     -30.252   2.076 -14.240  1.00  0.00     0.156 HD
ENDBRANCH  26  29
ENDBRANCH   5  26
BRANCH   7  33
HETATM   33  C20 UNL     1     -35.915  -0.070 -18.990  1.00  0.00     0.248 C 
HETATM   34  O8  UNL     1     -35.522   0.284 -20.127  1.00  0.00    -0.271 OA
HETATM   35  N7  UNL     1     -37.165  -0.730 -18.931  1.00  0.00    -0.346 N 
HETATM   36  C21 UNL     1     -37.834  -1.195 -17.737  1.00  0.00     0.152 C 
HETATM   37  C24 UNL     1     -37.938  -1.013 -20.155  1.00  0.00     0.152 C 
HETATM   38  C22 UNL     1     -39.126  -0.437 -17.522  1.00  0.00     0.187 C 
HETATM   39  O9  UNL     1     -39.761  -0.311 -18.753  1.00  0.00    -0.388 OA
HETATM   40  C23 UNL     1     -39.358  -1.260 -19.679  1.00  0.00     0.187 C 
ENDBRANCH   7  33
BRANCH   1  41
HETATM   41  C5  UNL     1     -35.624   4.127 -17.480  1.00  0.00     0.177 C 
BRANCH  41  42
HETATM   42  N1  UNL     1     -36.279   5.092 -18.265  1.00  0.00    -0.401 N 
ATOM     43  H1  UNL     1     -37.238   5.335 -18.014  1.00  0.00     0.154 HD
BRANCH  42  44
HETATM   44  C2  UNL     1     -35.719   5.733 -19.347  1.00  0.00     0.015 C 
HETATM   45  C1  UNL     1     -35.844   4.867 -20.619  1.00  0.00     0.037 C 
HETATM   46  C3  UNL     1     -34.186   5.754 -19.108  1.00  0.00     0.037 C 
HETATM   47  C4  UNL     1     -36.073   7.109 -19.729  1.00  0.00     0.037 C 
ENDBRANCH  42  44
ENDBRANCH  41  42
BRANCH  41  48
HETATM   48  C25 UNL     1     -36.120   4.443 -16.044  1.00  0.00    -0.022 C 
HETATM   49  C26 UNL     1     -37.553   3.981 -15.888  1.00  0.00     0.017 C 
HETATM   50  C27 UNL     1     -35.333   3.778 -14.979  1.00  0.00     0.017 C 
HETATM   51  C28 UNL     1     -36.035   5.933 -15.851  1.00  0.00     0.017 C 
ENDBRANCH  41  48
ENDBRANCH   1  41
TORSDOF 12
ENDMDL
MODEL 5
REMARK VINA RESULT: -7.453178028      4.162      6.661
REMARK  12 active torsions:
REMARK  status: ('A' for Active; 'I' for Inactive)
REMARK    1  A    between atoms: C2_2  and  N1_5 
REMARK    2  A    between atoms: N1_5  and  C5_7 
REMARK    3  A    between atoms: C5_7  and  C6_8 
REMARK    4  A    between atoms: C5_7  and  C25_48 
REMARK       I    between atoms: C6_8  and  N2_10 
REMARK    5  A    between atoms: N3_12  and  S1_13 
REMARK    6  A    between atoms: S1_13  and  C8_16 
REMARK    7  A    between atoms: C9_20  and  C10_21 
REMARK       I    between atoms: C10_21  and  N5_23 
REMARK    8  A    between atoms: N5_23  and  C11_25 
REMARK    9  A    between atoms: C11_25  and  C12_26 
REMARK       I    between atoms: C12_26  and  N6_28 
REMARK   10  A    between atoms: N6_28  and  S2_30 
REMARK   11  A    between atoms: S2_30  and  C13_33 
REMARK   12  A    between atoms: C19_39  and  C20_40 
REMARK       I    between atoms: C20_40  and  N7_42 
ROOT
HETATM    1  C6  UNL     1     -36.199   0.540 -17.831  1.00  0.00     0.245 C 
HETATM    2  O1  UNL     1     -35.532   0.957 -18.815  1.00  0.00    -0.271 OA
HETATM    3  N2  UNL     1     -36.827  -0.730 -17.810  1.00  0.00    -0.318 N 
HETATM    4  C7  UNL     1     -37.540  -1.273 -16.679  1.00  0.00     0.241 C 
HETATM    5  N3  UNL     1     -38.221  -2.464 -17.179  1.00  0.00    -0.150 NA
HETATM    6  C9  UNL     1     -37.230  -2.918 -18.090  1.00  0.00     0.104 C 
HETATM    7  C19 UNL     1     -36.916  -1.732 -18.908  1.00  0.00     0.231 C 
ENDROOT
BRANCH   6   8
HETATM    8  C10 UNL     1     -37.328  -4.243 -18.621  1.00  0.00     0.263 C 
HETATM    9  O4  UNL     1     -36.397  -5.026 -18.890  1.00  0.00    -0.267 OA
HETATM   10  N5  UNL     1     -38.651  -4.772 -18.886  1.00  0.00    -0.338 N 
ATOM     11  H5  UNL     1     -39.444  -4.166 -18.674  1.00  0.00     0.164 HD
BRANCH  10  12
HETATM   12  C11 UNL     1     -38.942  -6.053 -19.415  1.00  0.00     0.115 A 
HETATM   13  C17 UNL     1     -39.190  -6.094 -20.934  1.00  0.00     0.044 A 
HETATM   14  C18 UNL     1     -40.256  -6.456 -19.972  1.00  0.00     0.044 A 
BRANCH  12  15
HETATM   15  C12 UNL     1     -38.081  -7.178 -18.903  1.00  0.00     0.259 C 
HETATM   16  O5  UNL     1     -37.271  -7.721 -19.715  1.00  0.00    -0.270 OA
HETATM   17  N6  UNL     1     -38.148  -7.630 -17.599  1.00  0.00    -0.252 N 
ATOM     18  H6  UNL     1     -38.794  -7.208 -16.931  1.00  0.00     0.181 HD
BRANCH  17  19
HETATM   19  S2  UNL     1     -37.101  -8.941 -17.125  1.00  0.00     0.240 S 
HETATM   20  O6  UNL     1     -35.731  -8.753 -17.680  1.00  0.00    -0.205 OA
HETATM   21  O7  UNL     1     -37.047  -9.035 -15.629  1.00  0.00    -0.205 OA
BRANCH  19  22
HETATM   22  C13 UNL     1     -37.744 -10.488 -17.736  1.00  0.00     0.072 C 
HETATM   23  C14 UNL     1     -36.963 -10.976 -18.922  1.00  0.00     0.033 C 
HETATM   24  C15 UNL     1     -39.196 -10.353 -18.131  1.00  0.00     0.033 C 
HETATM   25  C16 UNL     1     -37.625 -11.511 -16.631  1.00  0.00     0.033 C 
ENDBRANCH  19  22
ENDBRANCH  17  19
ENDBRANCH  12  15
ENDBRANCH  10  12
ENDBRANCH   6   8
BRANCH   5  26
HETATM   26  S1  UNL     1     -39.754  -2.069 -17.709  1.00  0.00     0.253 S 
HETATM   27  O2  UNL     1     -39.935  -1.896 -19.192  1.00  0.00    -0.205 OA
HETATM   28  O3  UNL     1     -40.757  -3.104 -17.295  1.00  0.00    -0.205 OA
BRANCH  26  29
HETATM   29  C8  UNL     1     -40.322  -0.548 -17.012  1.00  0.00     0.208 C 
HETATM   30  N4  UNL     1     -41.558  -0.286 -17.084  1.00  0.00    -0.398 N 
ATOM     31  H42 UNL     1     -42.193  -0.945 -17.535  1.00  0.00     0.156 HD
ATOM     32  H41 UNL     1     -41.886   0.591 -16.682  1.00  0.00     0.156 HD
ENDBRANCH  26  29
ENDBRANCH   5  26
BRANCH   7  33
HETATM   33  C20 UNL     1     -35.629  -1.820 -19.638  1.00  0.00     0.248 C 
HETATM   34  O8  UNL     1     -35.647  -1.610 -20.875  1.00  0.00    -0.271 OA
HETATM   35  N7  UNL     1     -34.371  -2.124 -19.068  1.00  0.00    -0.346 N 
HETATM   36  C21 UNL     1     -34.110  -2.436 -17.681  1.00  0.00     0.152 C 
HETATM   37  C24 UNL     1     -33.146  -2.151 -19.890  1.00  0.00     0.152 C 
HETATM   38  C22 UNL     1     -33.622  -3.862 -17.539  1.00  0.00     0.187 C 
HETATM   39  O9  UNL     1     -32.711  -4.108 -18.562  1.00  0.00    -0.388 OA
HETATM   40  C23 UNL     1     -32.144  -2.955 -19.082  1.00  0.00     0.187 C 
ENDBRANCH   7  33
BRANCH   1  41
HETATM   41  C5  UNL     1     -36.287   1.473 -16.688  1.00  0.00     0.177 C 
BRANCH  41  42
HETATM   42  N1  UNL     1     -35.081   2.002 -16.194  1.00  0.00    -0.401 N 
ATOM     43  H1  UNL     1     -34.879   2.983 -16.390  1.00  0.00     0.154 HD
BRANCH  42  44
HETATM   44  C2  UNL     1     -34.153   1.291 -15.466  1.00  0.00     0.015 C 
HETATM   45  C1  UNL     1     -33.527   2.176 -14.367  1.00  0.00     0.037 C 
HETATM   46  C3  UNL     1     -32.950   1.031 -16.411  1.00  0.00     0.037 C 
HETATM   47  C4  UNL     1     -34.454  -0.011 -14.849  1.00  0.00     0.037 C 
ENDBRANCH  42  44
ENDBRANCH  41  42
BRANCH  41  48
HETATM   48  C25 UNL     1     -37.076   2.737 -17.120  1.00  0.00    -0.022 C 
HETATM   49  C26 UNL     1     -37.014   3.776 -16.022  1.00  0.00     0.017 C 
HETATM   50  C27 UNL     1     -36.553   3.376 -18.350  1.00  0.00     0.017 C 
HETATM   51  C28 UNL     1     -38.503   2.323 -17.358  1.00  0.00     0.017 C 
ENDBRANCH  41  48
ENDBRANCH   1  41
TORSDOF 12
ENDMDL
