MODEL 1
REMARK VINA RESULT: -11.339357568      0.000      0.000
REMARK  11 active torsions:
REMARK  status: ('A' for Active; 'I' for Inactive)
REMARK    1  A    between atoms: C5_5  and  S1_6 
REMARK    2  A    between atoms: S1_6  and  N1_9 
REMARK    3  A    between atoms: N1_9  and  C6_11 
REMARK    4  A    between atoms: C7_14  and  C8_15 
REMARK    5  A    between atoms: N5_21  and  C10_22 
REMARK    6  A    between atoms: C10_22  and  N6_23 
REMARK       I    between atoms: N6_23  and  C11_25 
REMARK    7  A    between atoms: C11_25  and  C12_27 
REMARK       I    between atoms: C12_27  and  N7_29 
REMARK    8  A    between atoms: C15_32  and  C16_33 
REMARK    9  A    between atoms: C16_33  and  C17_34 
REMARK   10  A    between atoms: C20_37  and  C21_38 
REMARK   11  A    between atoms: C24_41  and  S2_42 
ROOT
HETATM    1  C6  UNL     1     -37.646   2.687 -17.182  1.00  0.00     0.721 A 
HETATM    2  N2  UNL     1     -38.904   2.235 -17.135  1.00  0.00    -0.182 N 
ATOM      3  H2  UNL     1     -39.715   2.794 -16.869  1.00  0.00     0.184 HD
HETATM    4  C7  UNL     1     -38.946   0.927 -17.491  1.00  0.00     0.141 A 
HETATM    5  C9  UNL     1     -37.648   0.583 -17.768  1.00  0.00     0.117 A 
HETATM    6  N4  UNL     1     -36.844   1.637 -17.583  1.00  0.00    -0.030 N 
HETATM    7  O4  UNL     1     -35.541   1.285 -17.841  1.00  0.00    -0.158 OA
HETATM    8  N5  UNL     1     -35.484  -0.072 -17.738  1.00  0.00    -0.138 NA
HETATM    9  C15 UNL     1     -36.697  -0.507 -18.218  1.00  0.00     0.169 C 
ENDROOT
BRANCH   9  10
HETATM   10  C16 UNL     1     -36.933  -1.040 -19.543  1.00  0.00     0.013 C 
BRANCH  10  11
HETATM   11  C17 UNL     1     -37.503  -2.340 -19.780  1.00  0.00    -0.038 A 
HETATM   12  C18 UNL     1     -38.497  -2.545 -20.712  1.00  0.00     0.012 A 
HETATM   13  C19 UNL     1     -39.103  -3.755 -20.941  1.00  0.00     0.013 A 
HETATM   14  C20 UNL     1     -38.729  -4.865 -20.215  1.00  0.00    -0.026 A 
HETATM   15  C28 UNL     1     -37.732  -4.699 -19.270  1.00  0.00     0.013 A 
HETATM   16  C29 UNL     1     -37.143  -3.479 -19.063  1.00  0.00     0.012 A 
BRANCH  14  17
HETATM   17  C21 UNL     1     -39.370  -6.171 -20.414  1.00  0.00    -0.026 A 
HETATM   18  C22 UNL     1     -40.228  -6.685 -19.478  1.00  0.00     0.014 A 
HETATM   19  C23 UNL     1     -40.799  -7.951 -19.673  1.00  0.00     0.024 A 
HETATM   20  C24 UNL     1     -40.513  -8.686 -20.789  1.00  0.00     0.058 A 
HETATM   21  C26 UNL     1     -39.655  -8.184 -21.741  1.00  0.00     0.024 A 
HETATM   22  C27 UNL     1     -39.106  -6.941 -21.532  1.00  0.00     0.014 A 
BRANCH  20  23
HETATM   23  S2  UNL     1     -41.176 -10.289 -21.068  1.00  0.00     0.171 S 
HETATM   24  C25 UNL     1     -42.653 -10.268 -22.001  1.00  0.00     0.167 C 
HETATM   25  O7  UNL     1     -41.353 -10.978 -19.733  1.00  0.00    -0.223 OA
HETATM   26  O8  UNL     1     -40.109 -11.080 -21.805  1.00  0.00    -0.223 OA
ENDBRANCH  20  23
ENDBRANCH  14  17
ENDBRANCH  10  11
ENDBRANCH   9  10
BRANCH   8  27
HETATM   27  C10 UNL     1     -34.238  -0.522 -18.171  1.00  0.00     0.248 C 
BRANCH  27  28
HETATM   28  N6  UNL     1     -33.998  -1.864 -17.624  1.00  0.00    -0.339 N 
HETATM   29  C11 UNL     1     -33.577  -2.913 -18.542  1.00  0.00     0.310 C 
HETATM   30  O5  UNL     1     -33.446  -2.596 -19.751  1.00  0.00    -0.262 OA
ATOM     31  H6  UNL     1     -34.122  -2.056 -16.630  1.00  0.00     0.164 HD
BRANCH  29  32
HETATM   32  C12 UNL     1     -33.319  -4.248 -18.088  1.00  0.00     0.310 C 
HETATM   33  O6  UNL     1     -34.259  -5.113 -18.008  1.00  0.00    -0.262 OA
HETATM   34  N7  UNL     1     -32.024  -4.664 -17.714  1.00  0.00    -0.353 N 
HETATM   35  C13 UNL     1     -30.903  -3.767 -17.765  1.00  0.00     0.152 C 
HETATM   36  C14 UNL     1     -31.792  -6.044 -17.250  1.00  0.00     0.152 C 
ENDBRANCH  29  32
ENDBRANCH  27  28
ENDBRANCH   8  27
BRANCH   4  37
HETATM   37  C8  UNL     1     -40.118   0.087 -17.556  1.00  0.00     0.284 C 
HETATM   38  N3  UNL     1     -41.243   0.402 -16.751  1.00  0.00    -0.056 NA
HETATM   39  O3  UNL     1     -40.231  -0.929 -18.286  1.00  0.00    -0.269 OA
ENDBRANCH   4  37
BRANCH   1  40
HETATM   40  N1  UNL     1     -37.181   3.842 -16.935  1.00  0.00    -0.110 N 
ATOM     41  H1  UNL     1     -37.671   4.307 -16.171  1.00  0.00     0.197 HD
BRANCH  40  42
HETATM   42  S1  UNL     1     -35.962   4.771 -17.567  1.00  0.00     0.276 S 
HETATM   43  O1  UNL     1     -36.103   6.196 -17.065  1.00  0.00    -0.200 OA
HETATM   44  O2  UNL     1     -34.612   4.241 -17.054  1.00  0.00    -0.200 OA
BRANCH  42  45
HETATM   45  C5  UNL     1     -35.802   4.841 -19.294  1.00  0.00     0.080 A 
HETATM   46  C4  UNL     1     -36.100   3.784 -20.128  1.00  0.00     0.026 A 
HETATM   47  C3  UNL     1     -35.960   3.890 -21.488  1.00  0.00     0.008 A 
HETATM   48  C2  UNL     1     -35.512   5.056 -22.090  1.00  0.00    -0.062 A 
HETATM   49  C1  UNL     1     -35.353   5.206 -23.553  1.00  0.00     0.048 C 
HETATM   50  C31 UNL     1     -35.215   6.109 -21.278  1.00  0.00     0.008 A 
HETATM   51  C30 UNL     1     -35.353   6.015 -19.907  1.00  0.00     0.026 A 
ENDBRANCH  42  45
ENDBRANCH  40  42
ENDBRANCH   1  40
TORSDOF 11
ENDMDL
MODEL 2
REMARK VINA RESULT: -11.238569474      0.717      1.061
REMARK  11 active torsions:
REMARK  status: ('A' for Active; 'I' for Inactive)
REMARK    1  A    between atoms: C5_5  and  S1_6 
REMARK    2  A    between atoms: S1_6  and  N1_9 
REMARK    3  A    between atoms: N1_9  and  C6_11 
REMARK    4  A    between atoms: C7_14  and  C8_15 
REMARK    5  A    between atoms: N5_21  and  C10_22 
REMARK    6  A    between atoms: C10_22  and  N6_23 
REMARK       I    between atoms: N6_23  and  C11_25 
REMARK    7  A    between atoms: C11_25  and  C12_27 
REMARK       I    between atoms: C12_27  and  N7_29 
REMARK    8  A    between atoms: C15_32  and  C16_33 
REMARK    9  A    between atoms: C16_33  and  C17_34 
REMARK   10  A    between atoms: C20_37  and  C21_38 
REMARK   11  A    between atoms: C24_41  and  S2_42 
ROOT
HETATM    1  C6  UNL     1     -38.218   2.520 -17.008  1.00  0.00     0.721 A 
HETATM    2  N2  UNL     1     -39.442   1.983 -16.978  1.00  0.00    -0.182 N 
ATOM      3  H2  UNL     1     -40.290   2.479 -16.703  1.00  0.00     0.184 HD
HETATM    4  C7  UNL     1     -39.394   0.684 -17.365  1.00  0.00     0.141 A 
HETATM    5  C9  UNL     1     -38.075   0.435 -17.643  1.00  0.00     0.117 A 
HETATM    6  N4  UNL     1     -37.344   1.537 -17.430  1.00  0.00    -0.030 N 
HETATM    7  O4  UNL     1     -36.019   1.280 -17.690  1.00  0.00    -0.158 OA
HETATM    8  N5  UNL     1     -35.872  -0.073 -17.618  1.00  0.00    -0.138 NA
HETATM    9  C15 UNL     1     -37.051  -0.577 -18.115  1.00  0.00     0.169 C 
ENDROOT
BRANCH   9  10
HETATM   10  C16 UNL     1     -37.245  -1.093 -19.453  1.00  0.00     0.013 C 
BRANCH  10  11
HETATM   11  C17 UNL     1     -37.739  -2.417 -19.724  1.00  0.00    -0.038 A 
HETATM   12  C18 UNL     1     -38.574  -2.685 -20.786  1.00  0.00     0.012 A 
HETATM   13  C19 UNL     1     -39.107  -3.920 -21.057  1.00  0.00     0.013 A 
HETATM   14  C20 UNL     1     -38.818  -4.992 -20.242  1.00  0.00    -0.026 A 
HETATM   15  C28 UNL     1     -37.981  -4.764 -19.165  1.00  0.00     0.013 A 
HETATM   16  C29 UNL     1     -37.462  -3.519 -18.918  1.00  0.00     0.012 A 
BRANCH  14  17
HETATM   17  C21 UNL     1     -39.388  -6.324 -20.486  1.00  0.00    -0.026 A 
HETATM   18  C22 UNL     1     -39.120  -7.005 -21.644  1.00  0.00     0.014 A 
HETATM   19  C23 UNL     1     -39.707  -8.258 -21.871  1.00  0.00     0.024 A 
HETATM   20  C24 UNL     1     -40.547  -8.817 -20.949  1.00  0.00     0.058 A 
HETATM   21  C26 UNL     1     -40.825  -8.148 -19.778  1.00  0.00     0.024 A 
HETATM   22  C27 UNL     1     -40.240  -6.921 -19.575  1.00  0.00     0.014 A 
BRANCH  20  23
HETATM   23  S2  UNL     1     -41.333 -10.369 -21.194  1.00  0.00     0.171 S 
HETATM   24  C25 UNL     1     -40.457 -11.417 -22.283  1.00  0.00     0.167 C 
HETATM   25  O7  UNL     1     -42.753 -10.123 -21.657  1.00  0.00    -0.223 OA
HETATM   26  O8  UNL     1     -41.449 -11.021 -19.827  1.00  0.00    -0.223 OA
ENDBRANCH  20  23
ENDBRANCH  14  17
ENDBRANCH  10  11
ENDBRANCH   9  10
BRANCH   8  27
HETATM   27  C10 UNL     1     -34.597  -0.426 -18.055  1.00  0.00     0.248 C 
BRANCH  27  28
HETATM   28  N6  UNL     1     -34.303  -1.797 -17.614  1.00  0.00    -0.339 N 
HETATM   29  C11 UNL     1     -33.823  -2.748 -18.607  1.00  0.00     0.310 C 
HETATM   30  O5  UNL     1     -33.690  -2.329 -19.783  1.00  0.00    -0.262 OA
ATOM     31  H6  UNL     1     -34.432  -2.074 -16.641  1.00  0.00     0.164 HD
BRANCH  29  32
HETATM   32  C12 UNL     1     -33.511  -4.103 -18.257  1.00  0.00     0.310 C 
HETATM   33  O6  UNL     1     -34.408  -5.016 -18.280  1.00  0.00    -0.262 OA
HETATM   34  N7  UNL     1     -32.207  -4.486 -17.875  1.00  0.00    -0.353 N 
HETATM   35  C13 UNL     1     -31.133  -3.536 -17.815  1.00  0.00     0.152 C 
HETATM   36  C14 UNL     1     -31.920  -5.888 -17.520  1.00  0.00     0.152 C 
ENDBRANCH  29  32
ENDBRANCH  27  28
ENDBRANCH   8  27
BRANCH   4  37
HETATM   37  C8  UNL     1     -40.506  -0.232 -17.456  1.00  0.00     0.284 C 
HETATM   38  N3  UNL     1     -41.676   0.021 -16.695  1.00  0.00    -0.056 NA
HETATM   39  O3  UNL     1     -40.527  -1.263 -18.172  1.00  0.00    -0.269 OA
ENDBRANCH   4  37
BRANCH   1  40
HETATM   40  N1  UNL     1     -37.832   3.698 -16.732  1.00  0.00    -0.110 N 
ATOM     41  H1  UNL     1     -38.539   4.232 -16.226  1.00  0.00     0.197 HD
BRANCH  40  42
HETATM   42  S1  UNL     1     -36.448   4.569 -17.002  1.00  0.00     0.276 S 
HETATM   43  O1  UNL     1     -36.539   5.897 -16.274  1.00  0.00    -0.200 OA
HETATM   44  O2  UNL     1     -35.252   3.805 -16.407  1.00  0.00    -0.200 OA
BRANCH  42  45
HETATM   45  C5  UNL     1     -36.006   4.906 -18.646  1.00  0.00     0.080 A 
HETATM   46  C4  UNL     1     -36.015   3.955 -19.646  1.00  0.00     0.026 A 
HETATM   47  C3  UNL     1     -35.659   4.272 -20.931  1.00  0.00     0.008 A 
HETATM   48  C2  UNL     1     -35.272   5.554 -21.290  1.00  0.00    -0.062 A 
HETATM   49  C1  UNL     1     -34.886   5.932 -22.667  1.00  0.00     0.048 C 
HETATM   50  C31 UNL     1     -35.259   6.504 -20.313  1.00  0.00     0.008 A 
HETATM   51  C30 UNL     1     -35.617   6.197 -19.015  1.00  0.00     0.026 A 
ENDBRANCH  42  45
ENDBRANCH  40  42
ENDBRANCH   1  40
TORSDOF 11
ENDMDL
MODEL 3
REMARK VINA RESULT: -11.228418369      1.560      1.974
REMARK  11 active torsions:
REMARK  status: ('A' for Active; 'I' for Inactive)
REMARK    1  A    between atoms: C5_5  and  S1_6 
REMARK    2  A    between atoms: S1_6  and  N1_9 
REMARK    3  A    between atoms: N1_9  and  C6_11 
REMARK    4  A    between atoms: C7_14  and  C8_15 
REMARK    5  A    between atoms: N5_21  and  C10_22 
REMARK    6  A    between atoms: C10_22  and  N6_23 
REMARK       I    between atoms: N6_23  and  C11_25 
REMARK    7  A    between atoms: C11_25  and  C12_27 
REMARK       I    between atoms: C12_27  and  N7_29 
REMARK    8  A    between atoms: C15_32  and  C16_33 
REMARK    9  A    between atoms: C16_33  and  C17_34 
REMARK   10  A    between atoms: C20_37  and  C21_38 
REMARK   11  A    between atoms: C24_41  and  S2_42 
ROOT
HETATM    1  C6  UNL     1     -38.901   2.138 -17.117  1.00  0.00     0.721 A 
HETATM    2  N2  UNL     1     -40.113   1.742 -16.714  1.00  0.00    -0.182 N 
ATOM      3  H2  UNL     1     -40.789   2.333 -16.231  1.00  0.00     0.184 HD
HETATM    4  C7  UNL     1     -40.313   0.440 -17.040  1.00  0.00     0.141 A 
HETATM    5  C9  UNL     1     -39.163   0.042 -17.672  1.00  0.00     0.117 A 
HETATM    6  N4  UNL     1     -38.292   1.058 -17.725  1.00  0.00    -0.030 N 
HETATM    7  O4  UNL     1     -37.133   0.651 -18.341  1.00  0.00    -0.158 OA
HETATM    8  N5  UNL     1     -37.111  -0.708 -18.254  1.00  0.00    -0.138 NA
HETATM    9  C15 UNL     1     -38.429  -1.084 -18.370  1.00  0.00     0.169 C 
ENDROOT
BRANCH   9  10
HETATM   10  C16 UNL     1     -39.053  -1.593 -19.572  1.00  0.00     0.013 C 
BRANCH  10  11
HETATM   11  C17 UNL     1     -39.192  -2.997 -19.856  1.00  0.00    -0.038 A 
HETATM   12  C18 UNL     1     -39.518  -3.913 -18.879  1.00  0.00     0.012 A 
HETATM   13  C19 UNL     1     -39.615  -5.265 -19.090  1.00  0.00     0.013 A 
HETATM   14  C20 UNL     1     -39.380  -5.789 -20.343  1.00  0.00    -0.026 A 
HETATM   15  C28 UNL     1     -39.051  -4.900 -21.351  1.00  0.00     0.013 A 
HETATM   16  C29 UNL     1     -38.961  -3.554 -21.112  1.00  0.00     0.012 A 
BRANCH  14  17
HETATM   17  C21 UNL     1     -39.452  -7.232 -20.603  1.00  0.00    -0.026 A 
HETATM   18  C22 UNL     1     -38.324  -7.952 -20.900  1.00  0.00     0.014 A 
HETATM   19  C23 UNL     1     -38.423  -9.322 -21.183  1.00  0.00     0.024 A 
HETATM   20  C24 UNL     1     -39.633  -9.957 -21.165  1.00  0.00     0.058 A 
HETATM   21  C26 UNL     1     -40.776  -9.250 -20.865  1.00  0.00     0.024 A 
HETATM   22  C27 UNL     1     -40.658  -7.908 -20.592  1.00  0.00     0.014 A 
BRANCH  20  23
HETATM   23  S2  UNL     1     -39.819 -11.663 -21.540  1.00  0.00     0.171 S 
HETATM   24  C25 UNL     1     -39.128 -12.105 -23.083  1.00  0.00     0.167 C 
HETATM   25  O7  UNL     1     -41.286 -12.022 -21.448  1.00  0.00    -0.223 OA
HETATM   26  O8  UNL     1     -39.132 -12.433 -20.425  1.00  0.00    -0.223 OA
ENDBRANCH  20  23
ENDBRANCH  14  17
ENDBRANCH  10  11
ENDBRANCH   9  10
BRANCH   8  27
HETATM   27  C10 UNL     1     -36.060  -1.208 -19.020  1.00  0.00     0.248 C 
BRANCH  27  28
HETATM   28  N6  UNL     1     -34.989  -1.665 -18.123  1.00  0.00    -0.339 N 
HETATM   29  C11 UNL     1     -35.080  -3.013 -17.579  1.00  0.00     0.310 C 
HETATM   30  O5  UNL     1     -36.076  -3.700 -17.917  1.00  0.00    -0.262 OA
ATOM     31  H6  UNL     1     -34.206  -1.056 -17.888  1.00  0.00     0.164 HD
BRANCH  29  32
HETATM   32  C12 UNL     1     -34.076  -3.536 -16.700  1.00  0.00     0.310 C 
HETATM   33  O6  UNL     1     -33.978  -3.128 -15.491  1.00  0.00    -0.262 OA
HETATM   34  N7  UNL     1     -33.157  -4.518 -17.128  1.00  0.00    -0.353 N 
HETATM   35  C13 UNL     1     -33.183  -5.037 -18.466  1.00  0.00     0.152 C 
HETATM   36  C14 UNL     1     -32.136  -5.034 -16.199  1.00  0.00     0.152 C 
ENDBRANCH  29  32
ENDBRANCH  27  28
ENDBRANCH   8  27
BRANCH   4  37
HETATM   37  C8  UNL     1     -41.492  -0.346 -16.769  1.00  0.00     0.284 C 
HETATM   38  N3  UNL     1     -42.609   0.270 -16.149  1.00  0.00    -0.056 NA
HETATM   39  O3  UNL     1     -41.618  -1.565 -17.043  1.00  0.00    -0.269 OA
ENDBRANCH   4  37
BRANCH   1  40
HETATM   40  N1  UNL     1     -38.332   3.269 -17.015  1.00  0.00    -0.110 N 
ATOM     41  H1  UNL     1     -38.994   4.025 -16.836  1.00  0.00     0.197 HD
BRANCH  40  42
HETATM   42  S1  UNL     1     -36.766   3.802 -17.105  1.00  0.00     0.276 S 
HETATM   43  O1  UNL     1     -36.546   4.893 -16.073  1.00  0.00    -0.200 OA
HETATM   44  O2  UNL     1     -35.821   2.642 -16.746  1.00  0.00    -0.200 OA
BRANCH  42  45
HETATM   45  C5  UNL     1     -36.196   4.405 -18.629  1.00  0.00     0.080 A 
HETATM   46  C4  UNL     1     -36.121   3.634 -19.771  1.00  0.00     0.026 A 
HETATM   47  C3  UNL     1     -35.666   4.158 -20.953  1.00  0.00     0.008 A 
HETATM   48  C2  UNL     1     -35.258   5.479 -21.061  1.00  0.00    -0.062 A 
HETATM   49  C1  UNL     1     -34.767   6.077 -22.321  1.00  0.00     0.048 C 
HETATM   50  C31 UNL     1     -35.328   6.252 -19.941  1.00  0.00     0.008 A 
HETATM   51  C30 UNL     1     -35.785   5.737 -18.745  1.00  0.00     0.026 A 
ENDBRANCH  42  45
ENDBRANCH  40  42
ENDBRANCH   1  40
TORSDOF 11
ENDMDL
MODEL 4
REMARK VINA RESULT: -11.066417695      1.027      1.477
REMARK  11 active torsions:
REMARK  status: ('A' for Active; 'I' for Inactive)
REMARK    1  A    between atoms: C5_5  and  S1_6 
REMARK    2  A    between atoms: S1_6  and  N1_9 
REMARK    3  A    between atoms: N1_9  and  C6_11 
REMARK    4  A    between atoms: C7_14  and  C8_15 
REMARK    5  A    between atoms: N5_21  and  C10_22 
REMARK    6  A    between atoms: C10_22  and  N6_23 
REMARK       I    between atoms: N6_23  and  C11_25 
REMARK    7  A    between atoms: C11_25  and  C12_27 
REMARK       I    between atoms: C12_27  and  N7_29 
REMARK    8  A    between atoms: C15_32  and  C16_33 
REMARK    9  A    between atoms: C16_33  and  C17_34 
REMARK   10  A    between atoms: C20_37  and  C21_38 
REMARK   11  A    between atoms: C24_41  and  S2_42 
ROOT
HETATM    1  C6  UNL     1     -37.435   2.181 -17.030  1.00  0.00     0.721 A 
HETATM    2  N2  UNL     1     -38.733   1.898 -17.181  1.00  0.00    -0.182 N 
ATOM      3  H2  UNL     1     -39.495   2.560 -17.036  1.00  0.00     0.184 HD
HETATM    4  C7  UNL     1     -38.891   0.604 -17.557  1.00  0.00     0.141 A 
HETATM    5  C9  UNL     1     -37.622   0.091 -17.636  1.00  0.00     0.117 A 
HETATM    6  N4  UNL     1     -36.724   1.032 -17.317  1.00  0.00    -0.030 N 
HETATM    7  O4  UNL     1     -35.454   0.511 -17.378  1.00  0.00    -0.158 OA
HETATM    8  N5  UNL     1     -35.592  -0.842 -17.285  1.00  0.00    -0.138 NA
HETATM    9  C15 UNL     1     -36.764  -1.117 -17.951  1.00  0.00     0.169 C 
ENDROOT
BRANCH   9  10
HETATM   10  C16 UNL     1     -36.861  -1.624 -19.303  1.00  0.00     0.013 C 
BRANCH  10  11
HETATM   11  C17 UNL     1     -37.568  -2.830 -19.644  1.00  0.00    -0.038 A 
HETATM   12  C18 UNL     1     -37.384  -4.008 -18.952  1.00  0.00     0.012 A 
HETATM   13  C19 UNL     1     -37.999  -5.193 -19.268  1.00  0.00     0.013 A 
HETATM   14  C20 UNL     1     -38.864  -5.260 -20.339  1.00  0.00    -0.026 A 
HETATM   15  C28 UNL     1     -39.075  -4.097 -21.059  1.00  0.00     0.013 A 
HETATM   16  C29 UNL     1     -38.447  -2.927 -20.720  1.00  0.00     0.012 A 
BRANCH  14  17
HETATM   17  C21 UNL     1     -39.522  -6.515 -20.723  1.00  0.00    -0.026 A 
HETATM   18  C22 UNL     1     -39.217  -7.139 -21.905  1.00  0.00     0.014 A 
HETATM   19  C23 UNL     1     -39.887  -8.316 -22.268  1.00  0.00     0.024 A 
HETATM   20  C24 UNL     1     -40.845  -8.858 -21.457  1.00  0.00     0.058 A 
HETATM   21  C26 UNL     1     -41.162  -8.246 -20.265  1.00  0.00     0.024 A 
HETATM   22  C27 UNL     1     -40.494  -7.093 -19.927  1.00  0.00     0.014 A 
BRANCH  20  23
HETATM   23  S2  UNL     1     -41.736 -10.312 -21.876  1.00  0.00     0.171 S 
HETATM   24  C25 UNL     1     -41.855 -11.448 -20.554  1.00  0.00     0.167 C 
HETATM   25  O7  UNL     1     -41.103 -10.930 -23.104  1.00  0.00    -0.223 OA
HETATM   26  O8  UNL     1     -43.123  -9.867 -22.304  1.00  0.00    -0.223 OA
ENDBRANCH  20  23
ENDBRANCH  14  17
ENDBRANCH  10  11
ENDBRANCH   9  10
BRANCH   8  27
HETATM   27  C10 UNL     1     -34.364  -1.454 -17.528  1.00  0.00     0.248 C 
BRANCH  27  28
HETATM   28  N6  UNL     1     -34.439  -2.860 -17.108  1.00  0.00    -0.339 N 
HETATM   29  C11 UNL     1     -33.757  -3.855 -17.922  1.00  0.00     0.310 C 
HETATM   30  O5  UNL     1     -33.144  -3.441 -18.938  1.00  0.00    -0.262 OA
ATOM     31  H6  UNL     1     -34.954  -3.130 -16.270  1.00  0.00     0.164 HD
BRANCH  29  32
HETATM   32  C12 UNL     1     -33.779  -5.247 -17.580  1.00  0.00     0.310 C 
HETATM   33  O6  UNL     1     -34.542  -6.069 -18.198  1.00  0.00    -0.262 OA
HETATM   34  N7  UNL     1     -32.964  -5.769 -16.552  1.00  0.00    -0.353 N 
HETATM   35  C13 UNL     1     -32.078  -4.928 -15.798  1.00  0.00     0.152 C 
HETATM   36  C14 UNL     1     -33.012  -7.205 -16.224  1.00  0.00     0.152 C 
ENDBRANCH  29  32
ENDBRANCH  27  28
ENDBRANCH   8  27
BRANCH   4  37
HETATM   37  C8  UNL     1     -40.138  -0.076 -17.812  1.00  0.00     0.284 C 
HETATM   38  N3  UNL     1     -41.257   0.197 -16.984  1.00  0.00    -0.056 NA
HETATM   39  O3  UNL     1     -40.323  -0.912 -18.730  1.00  0.00    -0.269 OA
ENDBRANCH   4  37
BRANCH   1  40
HETATM   40  N1  UNL     1     -36.866   3.267 -16.700  1.00  0.00    -0.110 N 
ATOM     41  H1  UNL     1     -37.239   3.657 -15.834  1.00  0.00     0.197 HD
BRANCH  40  42
HETATM   42  S1  UNL     1     -35.658   4.198 -17.348  1.00  0.00     0.276 S 
HETATM   43  O1  UNL     1     -35.707   5.585 -16.734  1.00  0.00    -0.200 OA
HETATM   44  O2  UNL     1     -34.298   3.584 -16.974  1.00  0.00    -0.200 OA
BRANCH  42  45
HETATM   45  C5  UNL     1     -35.616   4.393 -19.072  1.00  0.00     0.080 A 
HETATM   46  C4  UNL     1     -35.795   3.352 -19.960  1.00  0.00     0.026 A 
HETATM   47  C3  UNL     1     -35.755   3.558 -21.314  1.00  0.00     0.008 A 
HETATM   48  C2  UNL     1     -35.532   4.814 -21.859  1.00  0.00    -0.062 A 
HETATM   49  C1  UNL     1     -35.488   5.073 -23.314  1.00  0.00     0.048 C 
HETATM   50  C31 UNL     1     -35.354   5.852 -20.993  1.00  0.00     0.008 A 
HETATM   51  C30 UNL     1     -35.393   5.657 -19.627  1.00  0.00     0.026 A 
ENDBRANCH  42  45
ENDBRANCH  40  42
ENDBRANCH   1  40
TORSDOF 11
ENDMDL
MODEL 5
REMARK VINA RESULT: -11.061467618      1.854      2.756
REMARK  11 active torsions:
REMARK  status: ('A' for Active; 'I' for Inactive)
REMARK    1  A    between atoms: C5_5  and  S1_6 
REMARK    2  A    between atoms: S1_6  and  N1_9 
REMARK    3  A    between atoms: N1_9  and  C6_11 
REMARK    4  A    between atoms: C7_14  and  C8_15 
REMARK    5  A    between atoms: N5_21  and  C10_22 
REMARK    6  A    between atoms: C10_22  and  N6_23 
REMARK       I    between atoms: N6_23  and  C11_25 
REMARK    7  A    between atoms: C11_25  and  C12_27 
REMARK       I    between atoms: C12_27  and  N7_29 
REMARK    8  A    between atoms: C15_32  and  C16_33 
REMARK    9  A    between atoms: C16_33  and  C17_34 
REMARK   10  A    between atoms: C20_37  and  C21_38 
REMARK   11  A    between atoms: C24_41  and  S2_42 
ROOT
HETATM    1  C6  UNL     1     -37.629   2.770 -17.255  1.00  0.00     0.721 A 
HETATM    2  N2  UNL     1     -38.885   2.312 -17.209  1.00  0.00    -0.182 N 
ATOM      3  H2  UNL     1     -39.704   2.876 -16.984  1.00  0.00     0.184 HD
HETATM    4  C7  UNL     1     -38.912   0.988 -17.505  1.00  0.00     0.141 A 
HETATM    5  C9  UNL     1     -37.607   0.640 -17.743  1.00  0.00     0.117 A 
HETATM    6  N4  UNL     1     -36.813   1.709 -17.593  1.00  0.00    -0.030 N 
HETATM    7  O4  UNL     1     -35.503   1.354 -17.812  1.00  0.00    -0.158 OA
HETATM    8  N5  UNL     1     -35.440   0.004 -17.645  1.00  0.00    -0.138 NA
HETATM    9  C15 UNL     1     -36.641  -0.462 -18.126  1.00  0.00     0.169 C 
ENDROOT
BRANCH   9  10
HETATM   10  C16 UNL     1     -36.849  -1.057 -19.428  1.00  0.00     0.013 C 
BRANCH  10  11
HETATM   11  C17 UNL     1     -37.530  -2.310 -19.623  1.00  0.00    -0.038 A 
HETATM   12  C18 UNL     1     -37.235  -3.429 -18.875  1.00  0.00     0.012 A 
HETATM   13  C19 UNL     1     -37.822  -4.656 -19.055  1.00  0.00     0.013 A 
HETATM   14  C20 UNL     1     -38.775  -4.829 -20.035  1.00  0.00    -0.026 A 
HETATM   15  C28 UNL     1     -39.101  -3.728 -20.807  1.00  0.00     0.013 A 
HETATM   16  C29 UNL     1     -38.498  -2.514 -20.605  1.00  0.00     0.012 A 
BRANCH  14  17
HETATM   17  C21 UNL     1     -39.409  -6.132 -20.274  1.00  0.00    -0.026 A 
HETATM   18  C22 UNL     1     -40.257  -6.684 -19.350  1.00  0.00     0.014 A 
HETATM   19  C23 UNL     1     -40.821  -7.947 -19.583  1.00  0.00     0.024 A 
HETATM   20  C24 UNL     1     -40.538  -8.642 -20.726  1.00  0.00     0.058 A 
HETATM   21  C26 UNL     1     -39.690  -8.101 -21.666  1.00  0.00     0.024 A 
HETATM   22  C27 UNL     1     -39.148  -6.862 -21.419  1.00  0.00     0.014 A 
BRANCH  20  23
HETATM   23  S2  UNL     1     -41.190 -10.239 -21.056  1.00  0.00     0.171 S 
HETATM   24  C25 UNL     1     -42.680 -10.196 -21.968  1.00  0.00     0.167 C 
HETATM   25  O7  UNL     1     -41.346 -10.978 -19.744  1.00  0.00    -0.223 OA
HETATM   26  O8  UNL     1     -40.127 -10.993 -21.834  1.00  0.00    -0.223 OA
ENDBRANCH  20  23
ENDBRANCH  14  17
ENDBRANCH  10  11
ENDBRANCH   9  10
BRANCH   8  27
HETATM   27  C10 UNL     1     -34.183  -0.456 -18.035  1.00  0.00     0.248 C 
BRANCH  27  28
HETATM   28  N6  UNL     1     -33.185   0.586 -17.758  1.00  0.00    -0.339 N 
HETATM   29  C11 UNL     1     -32.265   0.378 -16.649  1.00  0.00     0.310 C 
HETATM   30  O5  UNL     1     -32.387  -0.690 -15.998  1.00  0.00    -0.262 OA
ATOM     31  H6  UNL     1     -33.139   1.432 -18.327  1.00  0.00     0.164 HD
BRANCH  29  32
HETATM   32  C12 UNL     1     -31.261   1.345 -16.316  1.00  0.00     0.310 C 
HETATM   33  O6  UNL     1     -30.109   1.321 -16.873  1.00  0.00    -0.262 OA
HETATM   34  N7  UNL     1     -31.499   2.360 -15.365  1.00  0.00    -0.353 N 
HETATM   35  C13 UNL     1     -32.758   2.469 -14.683  1.00  0.00     0.152 C 
HETATM   36  C14 UNL     1     -30.444   3.339 -15.044  1.00  0.00     0.152 C 
ENDBRANCH  29  32
ENDBRANCH  27  28
ENDBRANCH   8  27
BRANCH   4  37
HETATM   37  C8  UNL     1     -40.077   0.137 -17.552  1.00  0.00     0.284 C 
HETATM   38  N3  UNL     1     -41.171   0.412 -16.692  1.00  0.00    -0.056 NA
HETATM   39  O3  UNL     1     -40.209  -0.855 -18.310  1.00  0.00    -0.269 OA
ENDBRANCH   4  37
BRANCH   1  40
HETATM   40  N1  UNL     1     -37.175   3.938 -17.054  1.00  0.00    -0.110 N 
ATOM     41  H1  UNL     1     -37.694   4.441 -16.333  1.00  0.00     0.197 HD
BRANCH  40  42
HETATM   42  S1  UNL     1     -35.937   4.837 -17.691  1.00  0.00     0.276 S 
HETATM   43  O1  UNL     1     -36.048   6.268 -17.197  1.00  0.00    -0.200 OA
HETATM   44  O2  UNL     1     -34.599   4.281 -17.174  1.00  0.00    -0.200 OA
BRANCH  42  45
HETATM   45  C5  UNL     1     -35.775   4.894 -19.418  1.00  0.00     0.080 A 
HETATM   46  C4  UNL     1     -36.031   3.817 -20.241  1.00  0.00     0.026 A 
HETATM   47  C3  UNL     1     -35.892   3.913 -21.601  1.00  0.00     0.008 A 
HETATM   48  C2  UNL     1     -35.486   5.088 -22.216  1.00  0.00    -0.062 A 
HETATM   49  C1  UNL     1     -35.329   5.228 -23.680  1.00  0.00     0.048 C 
HETATM   50  C31 UNL     1     -35.230   6.161 -21.414  1.00  0.00     0.008 A 
HETATM   51  C30 UNL     1     -35.369   6.076 -20.044  1.00  0.00     0.026 A 
ENDBRANCH  42  45
ENDBRANCH  40  42
ENDBRANCH   1  40
TORSDOF 11
ENDMDL
