MODEL 1
REMARK VINA RESULT: -10.708678186      0.000      0.000
REMARK  13 active torsions:
REMARK  status: ('A' for Active; 'I' for Inactive)
REMARK    1  A    between atoms: S1_2  and  N1_5 
REMARK    2  A    between atoms: N1_5  and  C2_7 
REMARK    3  A    between atoms: C2_7  and  O3_8 
REMARK    4  A    between atoms: C2_7  and  C3_10 
REMARK    5  A    between atoms: C4_11  and  C5_12 
REMARK    6  A    between atoms: C6_13  and  C7_14 
REMARK    7  A    between atoms: C10_17  and  C11_18 
REMARK       I    between atoms: C11_18  and  N2_20 
REMARK    8  A    between atoms: N2_20  and  S2_22 
REMARK    9  A    between atoms: S2_22  and  C12_25 
REMARK   10  A    between atoms: N4_36  and  S3_37 
REMARK   11  A    between atoms: S3_37  and  N5_40 
REMARK       I    between atoms: N5_40  and  C22_42 
REMARK   12  A    between atoms: C22_42  and  C23_44 
REMARK   13  A    between atoms: C27_48  and  O10_49 
ROOT
HETATM    1  C12 UNL     1     -40.267  -7.277 -19.827  1.00  0.00     0.080 A 
HETATM    2  C13 UNL     1     -41.189  -8.113 -20.416  1.00  0.00     0.027 A 
HETATM    3  C14 UNL     1     -40.907  -8.663 -21.662  1.00  0.00     0.024 A 
HETATM    4  C15 UNL     1     -39.725  -8.371 -22.283  1.00  0.00     0.044 A 
HETATM    5  C16 UNL     1     -39.458  -8.958 -23.590  1.00  0.00     0.099 C 
HETATM    6  N3  UNL     1     -39.265  -9.417 -24.630  1.00  0.00    -0.191 NA
HETATM    7  C17 UNL     1     -38.797  -7.541 -21.708  1.00  0.00     0.024 A 
HETATM    8  C18 UNL     1     -39.079  -6.990 -20.460  1.00  0.00     0.027 A 
ENDROOT
BRANCH   1   9
HETATM    9  S2  UNL     1     -40.572  -6.516 -18.281  1.00  0.00     0.265 S 
HETATM   10  O5  UNL     1     -39.988  -7.331 -17.178  1.00  0.00    -0.200 OA
HETATM   11  O6  UNL     1     -42.057  -6.443 -18.061  1.00  0.00    -0.200 OA
BRANCH   9  12
HETATM   12  N2  UNL     1     -39.874  -4.928 -18.251  1.00  0.00    -0.246 N 
HETATM   13  C11 UNL     1     -40.441  -3.950 -17.423  1.00  0.00     0.265 C 
HETATM   14  O4  UNL     1     -41.454  -4.216 -16.694  1.00  0.00    -0.267 OA
ATOM     15  H2  UNL     1     -39.062  -4.709 -18.829  1.00  0.00     0.182 HD
BRANCH  13  16
HETATM   16  C10 UNL     1     -39.894  -2.608 -17.368  1.00  0.00     0.033 A 
HETATM   17  C9  UNL     1     -38.513  -2.412 -17.480  1.00  0.00     0.018 A 
HETATM   18  C8  UNL     1     -37.968  -1.129 -17.417  1.00  0.00     0.022 A 
HETATM   19  C7  UNL     1     -38.774  -0.027 -17.240  1.00  0.00     0.018 A 
HETATM   20  C20 UNL     1     -40.135  -0.255 -17.134  1.00  0.00     0.022 A 
HETATM   21  C19 UNL     1     -40.704  -1.510 -17.193  1.00  0.00     0.018 A 
BRANCH  19  22
HETATM   22  C6  UNL     1     -38.212   1.289 -17.154  1.00  0.00    -0.061 C 
HETATM   23  C5  UNL     1     -37.714   2.374 -17.060  1.00  0.00    -0.059 C 
BRANCH  23  24
HETATM   24  C4  UNL     1     -37.127   3.696 -16.910  1.00  0.00     0.046 C 
HETATM   25  C3  UNL     1     -36.385   4.361 -17.741  1.00  0.00     0.032 C 
HETATM   26  C29 UNL     1     -35.971   5.707 -17.122  1.00  0.00     0.187 C 
HETATM   27  N4  UNL     1     -36.396   5.581 -15.823  1.00  0.00    -0.264 N 
HETATM   28  C21 UNL     1     -37.332   4.552 -15.677  1.00  0.00     0.126 C 
BRANCH  25  29
HETATM   29  C2  UNL     1     -35.916   4.012 -19.068  1.00  0.00     0.159 C 
BRANCH  29  30
HETATM   30  N1  UNL     1     -36.226   4.609 -20.290  1.00  0.00    -0.264 N 
ATOM     31  H1  UNL     1     -37.050   4.308 -20.811  1.00  0.00     0.180 HD
BRANCH  30  32
HETATM   32  S1  UNL     1     -35.192   5.884 -20.933  1.00  0.00     0.228 S 
HETATM   33  C1  UNL     1     -33.779   6.133 -19.910  1.00  0.00     0.186 C 
HETATM   34  O1  UNL     1     -36.004   7.169 -20.913  1.00  0.00    -0.206 OA
HETATM   35  O2  UNL     1     -34.804   5.508 -22.334  1.00  0.00    -0.206 OA
ENDBRANCH  30  32
ENDBRANCH  29  30
BRANCH  29  36
HETATM   36  O3  UNL     1     -35.091   3.004 -19.138  1.00  0.00    -0.345 OA
ATOM     37  H3  UNL     1     -35.389   2.209 -18.712  1.00  0.00     0.219 HD
ENDBRANCH  29  36
ENDBRANCH  25  29
BRANCH  27  38
HETATM   38  S3  UNL     1     -35.512   5.978 -14.489  1.00  0.00     0.327 S 
HETATM   39  O7  UNL     1     -35.489   7.490 -14.319  1.00  0.00    -0.182 OA
HETATM   40  O8  UNL     1     -36.104   5.463 -13.191  1.00  0.00    -0.182 OA
BRANCH  38  41
HETATM   41  N5  UNL     1     -33.871   5.396 -14.518  1.00  0.00    -0.233 N 
HETATM   42  C22 UNL     1     -33.620   4.003 -14.485  1.00  0.00     0.266 C 
HETATM   43  O9  UNL     1     -34.627   3.227 -14.438  1.00  0.00    -0.267 OA
ATOM     44  H5  UNL     1     -33.094   6.056 -14.559  1.00  0.00     0.183 HD
BRANCH  42  45
HETATM   45  C23 UNL     1     -32.290   3.441 -14.500  1.00  0.00     0.035 A 
HETATM   46  C24 UNL     1     -32.154   2.114 -14.119  1.00  0.00     0.017 A 
HETATM   47  C25 UNL     1     -30.928   1.505 -14.097  1.00  0.00     0.004 A 
HETATM   48  C26 UNL     1     -29.790   2.187 -14.450  1.00  0.00     0.036 A 
HETATM   49  C27 UNL     1     -29.933   3.514 -14.830  1.00  0.00     0.066 A 
HETATM   50  C28 UNL     1     -31.160   4.135 -14.856  1.00  0.00     0.053 A 
BRANCH  49  51
HETATM   51  O10 UNL     1     -28.798   4.226 -15.193  1.00  0.00    -0.361 OA
ATOM     52  H10 UNL     1     -28.903   5.007 -15.722  1.00  0.00     0.217 HD
ENDBRANCH  49  51
ENDBRANCH  42  45
ENDBRANCH  38  41
ENDBRANCH  27  38
ENDBRANCH  23  24
ENDBRANCH  19  22
ENDBRANCH  13  16
ENDBRANCH   9  12
ENDBRANCH   1   9
TORSDOF 13
ENDMDL
MODEL 2
REMARK VINA RESULT: -10.244880854      4.000     15.006
REMARK  13 active torsions:
REMARK  status: ('A' for Active; 'I' for Inactive)
REMARK    1  A    between atoms: S1_2  and  N1_5 
REMARK    2  A    between atoms: N1_5  and  C2_7 
REMARK    3  A    between atoms: C2_7  and  O3_8 
REMARK    4  A    between atoms: C2_7  and  C3_10 
REMARK    5  A    between atoms: C4_11  and  C5_12 
REMARK    6  A    between atoms: C6_13  and  C7_14 
REMARK    7  A    between atoms: C10_17  and  C11_18 
REMARK       I    between atoms: C11_18  and  N2_20 
REMARK    8  A    between atoms: N2_20  and  S2_22 
REMARK    9  A    between atoms: S2_22  and  C12_25 
REMARK   10  A    between atoms: N4_36  and  S3_37 
REMARK   11  A    between atoms: S3_37  and  N5_40 
REMARK       I    between atoms: N5_40  and  C22_42 
REMARK   12  A    between atoms: C22_42  and  C23_44 
REMARK   13  A    between atoms: C27_48  and  O10_49 
ROOT
HETATM    1  C12 UNL     1     -36.284   3.665 -18.227  1.00  0.00     0.080 A 
HETATM    2  C13 UNL     1     -36.053   3.001 -19.411  1.00  0.00     0.027 A 
HETATM    3  C14 UNL     1     -35.590   3.717 -20.511  1.00  0.00     0.024 A 
HETATM    4  C15 UNL     1     -35.369   5.061 -20.404  1.00  0.00     0.044 A 
HETATM    5  C16 UNL     1     -34.888   5.786 -21.573  1.00  0.00     0.099 C 
HETATM    6  N3  UNL     1     -34.521   6.350 -22.508  1.00  0.00    -0.191 NA
HETATM    7  C17 UNL     1     -35.594   5.735 -19.231  1.00  0.00     0.024 A 
HETATM    8  C18 UNL     1     -36.058   5.019 -18.130  1.00  0.00     0.027 A 
ENDROOT
BRANCH   1   9
HETATM    9  S2  UNL     1     -36.907   2.838 -16.817  1.00  0.00     0.265 S 
HETATM   10  O5  UNL     1     -38.162   3.491 -16.347  1.00  0.00    -0.200 OA
HETATM   11  O6  UNL     1     -35.896   2.937 -15.710  1.00  0.00    -0.200 OA
BRANCH   9  12
HETATM   12  N2  UNL     1     -37.233   1.177 -17.196  1.00  0.00    -0.246 N 
HETATM   13  C11 UNL     1     -38.558   0.776 -17.415  1.00  0.00     0.265 C 
HETATM   14  O4  UNL     1     -39.517   1.614 -17.343  1.00  0.00    -0.267 OA
ATOM     15  H2  UNL     1     -36.471   0.501 -17.259  1.00  0.00     0.182 HD
BRANCH  13  16
HETATM   16  C10 UNL     1     -38.878  -0.603 -17.731  1.00  0.00     0.033 A 
HETATM   17  C9  UNL     1     -38.080  -1.317 -18.632  1.00  0.00     0.018 A 
HETATM   18  C8  UNL     1     -38.381  -2.640 -18.958  1.00  0.00     0.022 A 
HETATM   19  C7  UNL     1     -39.471  -3.274 -18.404  1.00  0.00     0.018 A 
HETATM   20  C20 UNL     1     -40.238  -2.540 -17.516  1.00  0.00     0.022 A 
HETATM   21  C19 UNL     1     -39.967  -1.233 -17.173  1.00  0.00     0.018 A 
BRANCH  19  22
HETATM   22  C6  UNL     1     -39.792  -4.626 -18.754  1.00  0.00    -0.061 C 
HETATM   23  C5  UNL     1     -40.040  -5.768 -19.015  1.00  0.00    -0.059 C 
BRANCH  23  24
HETATM   24  C4  UNL     1     -40.304  -7.159 -19.349  1.00  0.00     0.046 C 
HETATM   25  C3  UNL     1     -40.268  -8.205 -18.582  1.00  0.00     0.032 C 
HETATM   26  C29 UNL     1     -40.589  -9.470 -19.397  1.00  0.00     0.187 C 
HETATM   27  N4  UNL     1     -40.590  -9.001 -20.686  1.00  0.00    -0.264 N 
HETATM   28  C21 UNL     1     -40.710  -7.609 -20.737  1.00  0.00     0.126 C 
BRANCH  25  29
HETATM   29  C2  UNL     1     -39.964  -8.325 -17.169  1.00  0.00     0.159 C 
BRANCH  29  30
HETATM   30  N1  UNL     1     -38.733  -8.197 -16.526  1.00  0.00    -0.264 N 
ATOM     31  H1  UNL     1     -38.550  -7.391 -15.929  1.00  0.00     0.180 HD
BRANCH  30  32
HETATM   32  S1  UNL     1     -37.491  -9.430 -16.749  1.00  0.00     0.228 S 
HETATM   33  C1  UNL     1     -38.197 -11.044 -16.770  1.00  0.00     0.186 C 
HETATM   34  O1  UNL     1     -36.564  -9.351 -15.547  1.00  0.00    -0.206 OA
HETATM   35  O2  UNL     1     -36.757  -9.127 -18.023  1.00  0.00    -0.206 OA
ENDBRANCH  30  32
ENDBRANCH  29  30
BRANCH  29  36
HETATM   36  O3  UNL     1     -40.972  -8.588 -16.386  1.00  0.00    -0.345 OA
ATOM     37  H3  UNL     1     -40.898  -9.395 -15.890  1.00  0.00     0.219 HD
ENDBRANCH  29  36
ENDBRANCH  25  29
BRANCH  27  38
HETATM   38  S3  UNL     1     -39.847  -9.731 -21.966  1.00  0.00     0.327 S 
HETATM   39  O7  UNL     1     -39.487  -8.687 -23.014  1.00  0.00    -0.182 OA
HETATM   40  O8  UNL     1     -38.524 -10.380 -21.612  1.00  0.00    -0.182 OA
BRANCH  38  41
HETATM   41  N5  UNL     1     -40.793 -10.979 -22.726  1.00  0.00    -0.233 N 
HETATM   42  C22 UNL     1     -41.194 -12.110 -21.975  1.00  0.00     0.266 C 
HETATM   43  O9  UNL     1     -40.840 -12.158 -20.754  1.00  0.00    -0.267 OA
ATOM     44  H5  UNL     1     -41.057 -10.897 -23.708  1.00  0.00     0.183 HD
BRANCH  42  45
HETATM   45  C23 UNL     1     -41.974 -13.192 -22.531  1.00  0.00     0.035 A 
HETATM   46  C24 UNL     1     -42.107 -14.341 -21.767  1.00  0.00     0.017 A 
HETATM   47  C25 UNL     1     -42.821 -15.416 -22.224  1.00  0.00     0.004 A 
HETATM   48  C26 UNL     1     -43.431 -15.393 -23.454  1.00  0.00     0.036 A 
HETATM   49  C27 UNL     1     -43.294 -14.240 -24.213  1.00  0.00     0.066 A 
HETATM   50  C28 UNL     1     -42.578 -13.154 -23.764  1.00  0.00     0.053 A 
BRANCH  49  51
HETATM   51  O10 UNL     1     -43.901 -14.191 -25.459  1.00  0.00    -0.361 OA
ATOM     52  H10 UNL     1     -44.702 -13.688 -25.555  1.00  0.00     0.217 HD
ENDBRANCH  49  51
ENDBRANCH  42  45
ENDBRANCH  38  41
ENDBRANCH  27  38
ENDBRANCH  23  24
ENDBRANCH  19  22
ENDBRANCH  13  16
ENDBRANCH   9  12
ENDBRANCH   1   9
TORSDOF 13
ENDMDL
MODEL 3
REMARK VINA RESULT: -10.021864953      1.212      1.641
REMARK  13 active torsions:
REMARK  status: ('A' for Active; 'I' for Inactive)
REMARK    1  A    between atoms: S1_2  and  N1_5 
REMARK    2  A    between atoms: N1_5  and  C2_7 
REMARK    3  A    between atoms: C2_7  and  O3_8 
REMARK    4  A    between atoms: C2_7  and  C3_10 
REMARK    5  A    between atoms: C4_11  and  C5_12 
REMARK    6  A    between atoms: C6_13  and  C7_14 
REMARK    7  A    between atoms: C10_17  and  C11_18 
REMARK       I    between atoms: C11_18  and  N2_20 
REMARK    8  A    between atoms: N2_20  and  S2_22 
REMARK    9  A    between atoms: S2_22  and  C12_25 
REMARK   10  A    between atoms: N4_36  and  S3_37 
REMARK   11  A    between atoms: S3_37  and  N5_40 
REMARK       I    between atoms: N5_40  and  C22_42 
REMARK   12  A    between atoms: C22_42  and  C23_44 
REMARK   13  A    between atoms: C27_48  and  O10_49 
ROOT
HETATM    1  C12 UNL     1     -40.336  -7.281 -19.795  1.00  0.00     0.080 A 
HETATM    2  C13 UNL     1     -41.086  -8.349 -20.235  1.00  0.00     0.027 A 
HETATM    3  C14 UNL     1     -40.821  -8.893 -21.488  1.00  0.00     0.024 A 
HETATM    4  C15 UNL     1     -39.826  -8.366 -22.263  1.00  0.00     0.044 A 
HETATM    5  C16 UNL     1     -39.573  -8.953 -23.572  1.00  0.00     0.099 C 
HETATM    6  N3  UNL     1     -39.393  -9.418 -24.611  1.00  0.00    -0.191 NA
HETATM    7  C17 UNL     1     -39.070  -7.304 -21.837  1.00  0.00     0.024 A 
HETATM    8  C18 UNL     1     -39.335  -6.758 -20.583  1.00  0.00     0.027 A 
ENDROOT
BRANCH   1   9
HETATM    9  S2  UNL     1     -40.641  -6.519 -18.250  1.00  0.00     0.265 S 
HETATM   10  O5  UNL     1     -40.079  -7.346 -17.145  1.00  0.00    -0.200 OA
HETATM   11  O6  UNL     1     -42.126  -6.422 -18.041  1.00  0.00    -0.200 OA
BRANCH   9  12
HETATM   12  N2  UNL     1     -39.917  -4.943 -18.211  1.00  0.00    -0.246 N 
HETATM   13  C11 UNL     1     -40.485  -3.953 -17.397  1.00  0.00     0.265 C 
HETATM   14  O4  UNL     1     -41.516  -4.199 -16.688  1.00  0.00    -0.267 OA
ATOM     15  H2  UNL     1     -39.090  -4.739 -18.772  1.00  0.00     0.182 HD
BRANCH  13  16
HETATM   16  C10 UNL     1     -39.916  -2.620 -17.335  1.00  0.00     0.033 A 
HETATM   17  C9  UNL     1     -38.529  -2.448 -17.412  1.00  0.00     0.018 A 
HETATM   18  C8  UNL     1     -37.964  -1.174 -17.341  1.00  0.00     0.022 A 
HETATM   19  C7  UNL     1     -38.755  -0.057 -17.191  1.00  0.00     0.018 A 
HETATM   20  C20 UNL     1     -40.123  -0.262 -17.119  1.00  0.00     0.022 A 
HETATM   21  C19 UNL     1     -40.711  -1.507 -17.187  1.00  0.00     0.018 A 
BRANCH  19  22
HETATM   22  C6  UNL     1     -38.174   1.250 -17.097  1.00  0.00    -0.061 C 
HETATM   23  C5  UNL     1     -37.663   2.328 -16.992  1.00  0.00    -0.059 C 
BRANCH  23  24
HETATM   24  C4  UNL     1     -37.065   3.643 -16.831  1.00  0.00     0.046 C 
HETATM   25  C3  UNL     1     -36.269   4.283 -17.631  1.00  0.00     0.032 C 
HETATM   26  C29 UNL     1     -35.870   5.634 -17.012  1.00  0.00     0.187 C 
HETATM   27  N4  UNL     1     -36.367   5.536 -15.737  1.00  0.00    -0.264 N 
HETATM   28  C21 UNL     1     -37.325   4.524 -15.626  1.00  0.00     0.126 C 
BRANCH  25  29
HETATM   29  C2  UNL     1     -35.733   3.905 -18.924  1.00  0.00     0.159 C 
BRANCH  29  30
HETATM   30  N1  UNL     1     -36.366   3.235 -19.971  1.00  0.00    -0.264 N 
ATOM     31  H1  UNL     1     -37.082   3.710 -20.521  1.00  0.00     0.180 HD
BRANCH  30  32
HETATM   32  S1  UNL     1     -35.928   1.568 -20.342  1.00  0.00     0.228 S 
HETATM   33  C1  UNL     1     -34.628   1.004 -19.293  1.00  0.00     0.186 C 
HETATM   34  O1  UNL     1     -35.404   1.552 -21.769  1.00  0.00    -0.206 OA
HETATM   35  O2  UNL     1     -37.160   0.721 -20.204  1.00  0.00    -0.206 OA
ENDBRANCH  30  32
ENDBRANCH  29  30
BRANCH  29  36
HETATM   36  O3  UNL     1     -34.490   4.231 -19.147  1.00  0.00    -0.345 OA
ATOM     37  H3  UNL     1     -34.183   4.995 -18.673  1.00  0.00     0.219 HD
ENDBRANCH  29  36
ENDBRANCH  25  29
BRANCH  27  38
HETATM   38  S3  UNL     1     -35.552   5.943 -14.362  1.00  0.00     0.327 S 
HETATM   39  O7  UNL     1     -35.584   7.454 -14.175  1.00  0.00    -0.182 OA
HETATM   40  O8  UNL     1     -36.181   5.395 -13.096  1.00  0.00    -0.182 OA
BRANCH  38  41
HETATM   41  N5  UNL     1     -33.894   5.413 -14.329  1.00  0.00    -0.233 N 
HETATM   42  C22 UNL     1     -33.602   4.029 -14.269  1.00  0.00     0.266 C 
HETATM   43  O9  UNL     1     -34.586   3.223 -14.246  1.00  0.00    -0.267 OA
ATOM     44  H5  UNL     1     -33.137   6.096 -14.352  1.00  0.00     0.183 HD
BRANCH  42  45
HETATM   45  C23 UNL     1     -32.255   3.508 -14.232  1.00  0.00     0.035 A 
HETATM   46  C24 UNL     1     -31.800   3.001 -13.024  1.00  0.00     0.017 A 
HETATM   47  C25 UNL     1     -30.534   2.496 -12.900  1.00  0.00     0.004 A 
HETATM   48  C26 UNL     1     -29.671   2.473 -13.967  1.00  0.00     0.036 A 
HETATM   49  C27 UNL     1     -30.132   2.981 -15.173  1.00  0.00     0.066 A 
HETATM   50  C28 UNL     1     -31.403   3.492 -15.308  1.00  0.00     0.053 A 
BRANCH  49  51
HETATM   51  O10 UNL     1     -29.280   2.969 -16.268  1.00  0.00    -0.361 OA
ATOM     52  H10 UNL     1     -29.643   3.142 -17.128  1.00  0.00     0.217 HD
ENDBRANCH  49  51
ENDBRANCH  42  45
ENDBRANCH  38  41
ENDBRANCH  27  38
ENDBRANCH  23  24
ENDBRANCH  19  22
ENDBRANCH  13  16
ENDBRANCH   9  12
ENDBRANCH   1   9
TORSDOF 13
ENDMDL
MODEL 4
REMARK VINA RESULT: -10.008630439      1.480      2.209
REMARK  13 active torsions:
REMARK  status: ('A' for Active; 'I' for Inactive)
REMARK    1  A    between atoms: S1_2  and  N1_5 
REMARK    2  A    between atoms: N1_5  and  C2_7 
REMARK    3  A    between atoms: C2_7  and  O3_8 
REMARK    4  A    between atoms: C2_7  and  C3_10 
REMARK    5  A    between atoms: C4_11  and  C5_12 
REMARK    6  A    between atoms: C6_13  and  C7_14 
REMARK    7  A    between atoms: C10_17  and  C11_18 
REMARK       I    between atoms: C11_18  and  N2_20 
REMARK    8  A    between atoms: N2_20  and  S2_22 
REMARK    9  A    between atoms: S2_22  and  C12_25 
REMARK   10  A    between atoms: N4_36  and  S3_37 
REMARK   11  A    between atoms: S3_37  and  N5_40 
REMARK       I    between atoms: N5_40  and  C22_42 
REMARK   12  A    between atoms: C22_42  and  C23_44 
REMARK   13  A    between atoms: C27_48  and  O10_49 
ROOT
HETATM    1  C12 UNL     1     -40.298  -7.140 -19.857  1.00  0.00     0.080 A 
HETATM    2  C13 UNL     1     -39.342  -6.646 -20.716  1.00  0.00     0.027 A 
HETATM    3  C14 UNL     1     -39.129  -7.287 -21.932  1.00  0.00     0.024 A 
HETATM    4  C15 UNL     1     -39.866  -8.390 -22.260  1.00  0.00     0.044 A 
HETATM    5  C16 UNL     1     -39.619  -9.043 -23.539  1.00  0.00     0.099 C 
HETATM    6  N3  UNL     1     -39.403  -9.558 -24.547  1.00  0.00    -0.191 NA
HETATM    7  C17 UNL     1     -40.822  -8.892 -21.414  1.00  0.00     0.024 A 
HETATM    8  C18 UNL     1     -41.036  -8.251 -20.196  1.00  0.00     0.027 A 
ENDROOT
BRANCH   1   9
HETATM    9  S2  UNL     1     -40.591  -6.412 -18.292  1.00  0.00     0.265 S 
HETATM   10  O5  UNL     1     -40.017  -7.262 -17.211  1.00  0.00    -0.200 OA
HETATM   11  O6  UNL     1     -42.074  -6.324 -18.068  1.00  0.00    -0.200 OA
BRANCH   9  12
HETATM   12  N2  UNL     1     -39.871  -4.835 -18.225  1.00  0.00    -0.246 N 
HETATM   13  C11 UNL     1     -40.436  -3.865 -17.386  1.00  0.00     0.265 C 
HETATM   14  O4  UNL     1     -41.462  -4.129 -16.676  1.00  0.00    -0.267 OA
ATOM     15  H2  UNL     1     -39.048  -4.618 -18.787  1.00  0.00     0.182 HD
BRANCH  13  16
HETATM   16  C10 UNL     1     -39.870  -2.532 -17.300  1.00  0.00     0.033 A 
HETATM   17  C9  UNL     1     -38.485  -2.367 -17.185  1.00  0.00     0.018 A 
HETATM   18  C8  UNL     1     -37.925  -1.093 -17.087  1.00  0.00     0.022 A 
HETATM   19  C7  UNL     1     -38.719   0.032 -17.100  1.00  0.00     0.018 A 
HETATM   20  C20 UNL     1     -40.084  -0.166 -17.217  1.00  0.00     0.022 A 
HETATM   21  C19 UNL     1     -40.668  -1.411 -17.315  1.00  0.00     0.018 A 
BRANCH  19  22
HETATM   22  C6  UNL     1     -38.145   1.340 -16.980  1.00  0.00    -0.061 C 
HETATM   23  C5  UNL     1     -37.642   2.424 -16.909  1.00  0.00    -0.059 C 
BRANCH  23  24
HETATM   24  C4  UNL     1     -37.000   3.724 -16.802  1.00  0.00     0.046 C 
HETATM   25  C3  UNL     1     -36.101   4.258 -17.570  1.00  0.00     0.032 C 
HETATM   26  C29 UNL     1     -35.698   5.642 -17.032  1.00  0.00     0.187 C 
HETATM   27  N4  UNL     1     -36.321   5.679 -15.810  1.00  0.00    -0.264 N 
HETATM   28  C21 UNL     1     -37.332   4.719 -15.709  1.00  0.00     0.126 C 
BRANCH  25  29
HETATM   29  C2  UNL     1     -35.461   3.744 -18.766  1.00  0.00     0.159 C 
BRANCH  29  30
HETATM   30  N1  UNL     1     -34.195   3.176 -18.904  1.00  0.00    -0.264 N 
ATOM     31  H1  UNL     1     -33.454   3.689 -19.384  1.00  0.00     0.180 HD
BRANCH  30  32
HETATM   32  S1  UNL     1     -33.874   1.570 -18.250  1.00  0.00     0.228 S 
HETATM   33  C1  UNL     1     -34.969   0.374 -18.938  1.00  0.00     0.186 C 
HETATM   34  O1  UNL     1     -34.147   1.635 -16.756  1.00  0.00    -0.206 OA
HETATM   35  O2  UNL     1     -32.437   1.232 -18.526  1.00  0.00    -0.206 OA
ENDBRANCH  30  32
ENDBRANCH  29  30
BRANCH  29  36
HETATM   36  O3  UNL     1     -36.157   3.818 -19.866  1.00  0.00    -0.345 OA
ATOM     37  H3  UNL     1     -36.021   4.608 -20.377  1.00  0.00     0.219 HD
ENDBRANCH  29  36
ENDBRANCH  25  29
BRANCH  27  38
HETATM   38  S3  UNL     1     -35.623   6.176 -14.401  1.00  0.00     0.327 S 
HETATM   39  O7  UNL     1     -35.621   7.697 -14.337  1.00  0.00    -0.182 OA
HETATM   40  O8  UNL     1     -36.384   5.749 -13.161  1.00  0.00    -0.182 OA
BRANCH  38  41
HETATM   41  N5  UNL     1     -33.994   5.608 -14.169  1.00  0.00    -0.233 N 
HETATM   42  C22 UNL     1     -33.744   4.218 -14.062  1.00  0.00     0.266 C 
HETATM   43  O9  UNL     1     -34.744   3.435 -14.146  1.00  0.00    -0.267 OA
ATOM     44  H5  UNL     1     -33.222   6.272 -14.110  1.00  0.00     0.183 HD
BRANCH  42  45
HETATM   45  C23 UNL     1     -32.425   3.666 -13.863  1.00  0.00     0.035 A 
HETATM   46  C24 UNL     1     -31.581   3.617 -14.963  1.00  0.00     0.017 A 
HETATM   47  C25 UNL     1     -30.317   3.101 -14.863  1.00  0.00     0.004 A 
HETATM   48  C26 UNL     1     -29.840   2.614 -13.671  1.00  0.00     0.036 A 
HETATM   49  C27 UNL     1     -30.689   2.666 -12.575  1.00  0.00     0.066 A 
HETATM   50  C28 UNL     1     -31.961   3.182 -12.664  1.00  0.00     0.053 A 
BRANCH  49  51
HETATM   51  O10 UNL     1     -30.231   2.181 -11.358  1.00  0.00    -0.361 OA
ATOM     52  H10 UNL     1     -29.444   2.560 -10.986  1.00  0.00     0.217 HD
ENDBRANCH  49  51
ENDBRANCH  42  45
ENDBRANCH  38  41
ENDBRANCH  27  38
ENDBRANCH  23  24
ENDBRANCH  19  22
ENDBRANCH  13  16
ENDBRANCH   9  12
ENDBRANCH   1   9
TORSDOF 13
ENDMDL
MODEL 5
REMARK VINA RESULT: -9.897476791      3.942     13.981
REMARK  13 active torsions:
REMARK  status: ('A' for Active; 'I' for Inactive)
REMARK    1  A    between atoms: S1_2  and  N1_5 
REMARK    2  A    between atoms: N1_5  and  C2_7 
REMARK    3  A    between atoms: C2_7  and  O3_8 
REMARK    4  A    between atoms: C2_7  and  C3_10 
REMARK    5  A    between atoms: C4_11  and  C5_12 
REMARK    6  A    between atoms: C6_13  and  C7_14 
REMARK    7  A    between atoms: C10_17  and  C11_18 
REMARK       I    between atoms: C11_18  and  N2_20 
REMARK    8  A    between atoms: N2_20  and  S2_22 
REMARK    9  A    between atoms: S2_22  and  C12_25 
REMARK   10  A    between atoms: N4_36  and  S3_37 
REMARK   11  A    between atoms: S3_37  and  N5_40 
REMARK       I    between atoms: N5_40  and  C22_42 
REMARK   12  A    between atoms: C22_42  and  C23_44 
REMARK   13  A    between atoms: C27_48  and  O10_49 
ROOT
HETATM    1  C12 UNL     1     -35.080   2.856 -18.006  1.00  0.00     0.080 A 
HETATM    2  C13 UNL     1     -35.491   2.679 -19.308  1.00  0.00     0.027 A 
HETATM    3  C14 UNL     1     -35.628   3.791 -20.133  1.00  0.00     0.024 A 
HETATM    4  C15 UNL     1     -35.355   5.038 -19.646  1.00  0.00     0.044 A 
HETATM    5  C16 UNL     1     -35.511   6.185 -20.531  1.00  0.00     0.099 C 
HETATM    6  N3  UNL     1     -35.653   7.084 -21.238  1.00  0.00    -0.191 NA
HETATM    7  C17 UNL     1     -34.944   5.229 -18.352  1.00  0.00     0.024 A 
HETATM    8  C18 UNL     1     -34.806   4.117 -17.525  1.00  0.00     0.027 A 
ENDROOT
BRANCH   1   9
HETATM    9  S2  UNL     1     -34.926   1.510 -16.899  1.00  0.00     0.265 S 
HETATM   10  O5  UNL     1     -35.744   1.749 -15.676  1.00  0.00    -0.200 OA
HETATM   11  O6  UNL     1     -33.490   1.391 -16.475  1.00  0.00    -0.200 OA
BRANCH   9  12
HETATM   12  N2  UNL     1     -35.456   0.046 -17.665  1.00  0.00    -0.246 N 
HETATM   13  C11 UNL     1     -36.830  -0.206 -17.775  1.00  0.00     0.265 C 
HETATM   14  O4  UNL     1     -37.687   0.625 -17.325  1.00  0.00    -0.267 OA
ATOM     15  H2  UNL     1     -34.777  -0.622 -18.031  1.00  0.00     0.182 HD
BRANCH  13  16
HETATM   16  C10 UNL     1     -37.320  -1.417 -18.404  1.00  0.00     0.033 A 
HETATM   17  C9  UNL     1     -38.589  -1.434 -18.994  1.00  0.00     0.018 A 
HETATM   18  C8  UNL     1     -39.082  -2.595 -19.592  1.00  0.00     0.022 A 
HETATM   19  C7  UNL     1     -38.334  -3.751 -19.614  1.00  0.00     0.018 A 
HETATM   20  C20 UNL     1     -37.083  -3.700 -19.023  1.00  0.00     0.022 A 
HETATM   21  C19 UNL     1     -36.568  -2.570 -18.425  1.00  0.00     0.018 A 
BRANCH  19  22
HETATM   22  C6  UNL     1     -38.848  -4.949 -20.211  1.00  0.00    -0.061 C 
HETATM   23  C5  UNL     1     -39.291  -5.960 -20.674  1.00  0.00    -0.059 C 
BRANCH  23  24
HETATM   24  C4  UNL     1     -39.798  -7.208 -21.222  1.00  0.00     0.046 C 
HETATM   25  C3  UNL     1     -40.526  -8.117 -20.649  1.00  0.00     0.032 C 
HETATM   26  C29 UNL     1     -40.782  -9.280 -21.622  1.00  0.00     0.187 C 
HETATM   27  N4  UNL     1     -39.951  -8.980 -22.671  1.00  0.00    -0.264 N 
HETATM   28  C21 UNL     1     -39.544  -7.643 -22.650  1.00  0.00     0.126 C 
BRANCH  25  29
HETATM   29  C2  UNL     1     -41.066  -8.179 -19.305  1.00  0.00     0.159 C 
BRANCH  29  30
HETATM   30  N1  UNL     1     -41.702  -7.177 -18.571  1.00  0.00    -0.264 N 
ATOM     31  H1  UNL     1     -42.392  -6.575 -19.020  1.00  0.00     0.180 HD
BRANCH  30  32
HETATM   32  S1  UNL     1     -41.311  -6.952 -16.866  1.00  0.00     0.228 S 
HETATM   33  C1  UNL     1     -41.646  -5.301 -16.350  1.00  0.00     0.186 C 
HETATM   34  O1  UNL     1     -39.816  -7.184 -16.717  1.00  0.00    -0.206 OA
HETATM   35  O2  UNL     1     -42.099  -7.954 -16.071  1.00  0.00    -0.206 OA
ENDBRANCH  30  32
ENDBRANCH  29  30
BRANCH  29  36
HETATM   36  O3  UNL     1     -40.945  -9.323 -18.691  1.00  0.00    -0.345 OA
ATOM     37  H3  UNL     1     -40.829 -10.075 -19.259  1.00  0.00     0.219 HD
ENDBRANCH  29  36
ENDBRANCH  25  29
BRANCH  27  38
HETATM   38  S3  UNL     1     -38.951 -10.050 -23.430  1.00  0.00     0.327 S 
HETATM   39  O7  UNL     1     -39.616 -10.562 -24.701  1.00  0.00    -0.182 OA
HETATM   40  O8  UNL     1     -37.651  -9.434 -23.909  1.00  0.00    -0.182 OA
BRANCH  38  41
HETATM   41  N5  UNL     1     -38.491 -11.417 -22.455  1.00  0.00    -0.233 N 
HETATM   42  C22 UNL     1     -37.860 -11.206 -21.205  1.00  0.00     0.266 C 
HETATM   43  O9  UNL     1     -37.660 -10.001 -20.846  1.00  0.00    -0.267 OA
ATOM     44  H5  UNL     1     -38.675 -12.366 -22.782  1.00  0.00     0.183 HD
BRANCH  42  45
HETATM   45  C23 UNL     1     -37.443 -12.284 -20.339  1.00  0.00     0.035 A 
HETATM   46  C24 UNL     1     -37.818 -12.213 -19.006  1.00  0.00     0.017 A 
HETATM   47  C25 UNL     1     -37.457 -13.188 -18.116  1.00  0.00     0.004 A 
HETATM   48  C26 UNL     1     -36.710 -14.270 -18.512  1.00  0.00     0.036 A 
HETATM   49  C27 UNL     1     -36.338 -14.335 -19.848  1.00  0.00     0.066 A 
HETATM   50  C28 UNL     1     -36.696 -13.360 -20.750  1.00  0.00     0.053 A 
BRANCH  49  51
HETATM   51  O10 UNL     1     -35.584 -15.419 -20.274  1.00  0.00    -0.361 OA
ATOM     52  H10 UNL     1     -34.705 -15.523 -19.931  1.00  0.00     0.217 HD
ENDBRANCH  49  51
ENDBRANCH  42  45
ENDBRANCH  38  41
ENDBRANCH  27  38
ENDBRANCH  23  24
ENDBRANCH  19  22
ENDBRANCH  13  16
ENDBRANCH   9  12
ENDBRANCH   1   9
TORSDOF 13
ENDMDL
