MODEL 1
REMARK VINA RESULT: -8.738435559      0.000      0.000
REMARK  10 active torsions:
REMARK  status: ('A' for Active; 'I' for Inactive)
REMARK    1  A    between atoms: C2_2  and  C4_4 
REMARK    2  A    between atoms: C4_4  and  N1_5 
REMARK    3  A    between atoms: N1_5  and  C5_6 
REMARK    4  A    between atoms: N1_5  and  S2_41 
REMARK    5  A    between atoms: C5_6  and  C6_7 
REMARK    6  A    between atoms: C6_7  and  O1_8 
REMARK    7  A    between atoms: C6_7  and  C7_10 
REMARK    8  A    between atoms: N3_25  and  S1_26 
REMARK    9  A    between atoms: S1_26  and  N4_29 
REMARK   10  A    between atoms: S2_41  and  C26_44 
ROOT
HETATM    1  C7  UNL     1     -32.039   2.072 -15.582  1.00  0.00     0.123 C 
HETATM    2  C8  UNL     1     -31.450   0.762 -15.038  1.00  0.00     0.130 C 
HETATM    3  C9  UNL     1     -30.127   0.504 -15.681  1.00  0.00     0.219 C 
HETATM    4  O2  UNL     1     -29.479   1.492 -16.116  1.00  0.00    -0.274 OA
HETATM    5  N2  UNL     1     -29.586  -0.803 -15.812  1.00  0.00    -0.361 N 
ATOM      6  H2  UNL     1     -29.040  -1.016 -16.647  1.00  0.00     0.162 HD
HETATM    7  C10 UNL     1     -29.765  -1.849 -14.827  1.00  0.00     0.122 C 
HETATM    8  C11 UNL     1     -29.574  -3.224 -15.431  1.00  0.00     0.020 C 
HETATM    9  C12 UNL     1     -30.816  -3.574 -16.183  1.00  0.00     0.002 C 
HETATM   10  C13 UNL     1     -30.647  -4.645 -17.208  1.00  0.00     0.000 C 
HETATM   11  C14 UNL     1     -31.114  -4.117 -18.547  1.00  0.00     0.000 C 
HETATM   12  C15 UNL     1     -32.299  -4.857 -19.079  1.00  0.00     0.000 C 
HETATM   13  C16 UNL     1     -33.555  -4.665 -18.298  1.00  0.00     0.001 C 
HETATM   14  C17 UNL     1     -33.945  -3.263 -18.037  1.00  0.00     0.015 C 
HETATM   15  C18 UNL     1     -35.032  -2.752 -18.989  1.00  0.00     0.108 C 
HETATM   16  N3  UNL     1     -35.527  -1.545 -18.399  1.00  0.00    -0.197 NA
HETATM   17  C23 UNL     1     -34.763  -0.381 -18.710  1.00  0.00     0.117 C 
HETATM   18  C24 UNL     1     -34.393   0.322 -17.396  1.00  0.00     0.118 C 
HETATM   19  C25 UNL     1     -33.463   1.448 -17.640  1.00  0.00     0.219 C 
HETATM   20  O6  UNL     1     -33.834   2.205 -18.621  1.00  0.00    -0.274 OA
HETATM   21  N5  UNL     1     -32.301   1.793 -16.995  1.00  0.00    -0.353 N 
ATOM     22  H5  UNL     1     -31.484   1.866 -17.601  1.00  0.00     0.163 HD
ENDROOT
BRANCH   1  23
HETATM   23  C6  UNL     1     -33.257   2.487 -14.892  1.00  0.00     0.155 C 
BRANCH  23  24
HETATM   24  C5  UNL     1     -34.180   3.499 -15.403  1.00  0.00     0.141 C 
BRANCH  24  25
HETATM   25  N1  UNL     1     -35.179   4.086 -14.562  1.00  0.00    -0.203 NA
BRANCH  25  26
HETATM   26  C4  UNL     1     -34.486   5.017 -13.673  1.00  0.00     0.111 C 
BRANCH  26  27
HETATM   27  C2  UNL     1     -34.785   4.853 -12.229  1.00  0.00    -0.009 C 
HETATM   28  C1  UNL     1     -33.890   3.940 -11.447  1.00  0.00     0.011 C 
HETATM   29  C3  UNL     1     -35.047   6.133 -11.473  1.00  0.00     0.011 C 
ENDBRANCH  26  27
ENDBRANCH  25  26
BRANCH  25  30
HETATM   30  S2  UNL     1     -36.319   4.952 -15.461  1.00  0.00     0.251 S 
HETATM   31  O7  UNL     1     -37.733   4.701 -14.986  1.00  0.00    -0.205 OA
HETATM   32  O8  UNL     1     -36.158   6.466 -15.377  1.00  0.00    -0.205 OA
BRANCH  30  33
HETATM   33  C26 UNL     1     -36.298   4.645 -17.202  1.00  0.00     0.131 A 
HETATM   34  C27 UNL     1     -36.804   3.574 -17.901  1.00  0.00     0.120 A 
HETATM   35  N6  UNL     1     -36.671   3.573 -19.187  1.00  0.00    -0.367 N 
HETATM   36  C28 UNL     1     -36.062   4.583 -19.789  1.00  0.00     0.139 A 
ATOM     37  H6  UNL     1     -37.034   2.795 -19.738  1.00  0.00     0.165 HD
HETATM   38  S3  UNL     1     -35.653   5.593 -18.477  1.00  0.00    -0.070 SA
ENDBRANCH  30  33
ENDBRANCH  25  30
ENDBRANCH  24  25
ENDBRANCH  23  24
BRANCH  23  39
HETATM   39  O1  UNL     1     -33.908   1.370 -14.336  1.00  0.00    -0.392 OA
ATOM     40  H1  UNL     1     -33.328   0.630 -14.192  1.00  0.00     0.210 HD
ENDBRANCH  23  39
ENDBRANCH   1  23
BRANCH  16  41
HETATM   41  S1  UNL     1     -37.198  -1.389 -18.535  1.00  0.00     0.283 S 
HETATM   42  O3  UNL     1     -37.753  -2.742 -18.969  1.00  0.00    -0.194 OA
HETATM   43  O4  UNL     1     -37.485  -0.476 -19.731  1.00  0.00    -0.194 OA
BRANCH  41  44
HETATM   44  N4  UNL     1     -38.053  -0.908 -17.162  1.00  0.00    -0.194 NA
HETATM   45  C19 UNL     1     -38.707   0.347 -17.183  1.00  0.00     0.134 C 
HETATM   46  C20 UNL     1     -39.947   0.363 -18.058  1.00  0.00     0.183 C 
HETATM   47  O5  UNL     1     -40.489  -0.884 -18.243  1.00  0.00    -0.389 OA
HETATM   48  C21 UNL     1     -40.354  -1.759 -17.196  1.00  0.00     0.183 C 
HETATM   49  C22 UNL     1     -38.960  -1.927 -16.675  1.00  0.00     0.134 C 
ENDBRANCH  41  44
ENDBRANCH  16  41
TORSDOF 10
ENDMDL
MODEL 2
REMARK VINA RESULT: -8.346116418      3.188      5.461
REMARK  10 active torsions:
REMARK  status: ('A' for Active; 'I' for Inactive)
REMARK    1  A    between atoms: C2_2  and  C4_4 
REMARK    2  A    between atoms: C4_4  and  N1_5 
REMARK    3  A    between atoms: N1_5  and  C5_6 
REMARK    4  A    between atoms: N1_5  and  S2_41 
REMARK    5  A    between atoms: C5_6  and  C6_7 
REMARK    6  A    between atoms: C6_7  and  O1_8 
REMARK    7  A    between atoms: C6_7  and  C7_10 
REMARK    8  A    between atoms: N3_25  and  S1_26 
REMARK    9  A    between atoms: S1_26  and  N4_29 
REMARK   10  A    between atoms: S2_41  and  C26_44 
ROOT
HETATM    1  C7  UNL     1     -32.657  -4.001 -17.280  1.00  0.00     0.123 C 
HETATM    2  C8  UNL     1     -33.513  -5.174 -16.778  1.00  0.00     0.130 C 
HETATM    3  C9  UNL     1     -33.169  -6.408 -17.545  1.00  0.00     0.219 C 
HETATM    4  O2  UNL     1     -32.021  -6.484 -18.058  1.00  0.00    -0.274 OA
HETATM    5  N2  UNL     1     -34.084  -7.482 -17.710  1.00  0.00    -0.361 N 
ATOM      6  H2  UNL     1     -34.071  -7.994 -18.592  1.00  0.00     0.162 HD
HETATM    7  C10 UNL     1     -35.034  -7.891 -16.697  1.00  0.00     0.122 C 
HETATM    8  C11 UNL     1     -36.200  -8.649 -17.296  1.00  0.00     0.020 C 
HETATM    9  C12 UNL     1     -37.126  -7.656 -17.915  1.00  0.00     0.002 C 
HETATM   10  C13 UNL     1     -38.058  -8.219 -18.935  1.00  0.00     0.000 C 
HETATM   11  C14 UNL     1     -37.885  -7.453 -20.228  1.00  0.00     0.000 C 
HETATM   12  C15 UNL     1     -39.120  -6.709 -20.629  1.00  0.00     0.000 C 
HETATM   13  C16 UNL     1     -39.482  -5.576 -19.729  1.00  0.00     0.001 C 
HETATM   14  C17 UNL     1     -38.406  -4.601 -19.452  1.00  0.00     0.015 C 
HETATM   15  C18 UNL     1     -38.511  -3.327 -20.298  1.00  0.00     0.108 C 
HETATM   16  N3  UNL     1     -37.636  -2.379 -19.680  1.00  0.00    -0.197 NA
HETATM   17  C23 UNL     1     -36.272  -2.486 -20.083  1.00  0.00     0.117 C 
HETATM   18  C24 UNL     1     -35.400  -2.592 -18.823  1.00  0.00     0.118 C 
HETATM   19  C25 UNL     1     -33.989  -2.868 -19.176  1.00  0.00     0.219 C 
HETATM   20  O6  UNL     1     -33.548  -2.109 -20.126  1.00  0.00    -0.274 OA
HETATM   21  N5  UNL     1     -33.109  -3.785 -18.655  1.00  0.00    -0.353 N 
ATOM     22  H5  UNL     1     -32.704  -4.422 -19.340  1.00  0.00     0.163 HD
ENDROOT
BRANCH   1  23
HETATM   23  C6  UNL     1     -32.810  -2.791 -16.478  1.00  0.00     0.155 C 
BRANCH  23  24
HETATM   24  C5  UNL     1     -32.557  -1.442 -16.980  1.00  0.00     0.141 C 
BRANCH  24  25
HETATM   25  N1  UNL     1     -32.232  -0.367 -16.093  1.00  0.00    -0.203 NA
BRANCH  25  26
HETATM   26  C4  UNL     1     -31.210   0.436 -16.762  1.00  0.00     0.111 C 
BRANCH  26  27
HETATM   27  C2  UNL     1     -30.052   0.817 -15.918  1.00  0.00    -0.009 C 
HETATM   28  C1  UNL     1     -29.848   2.280 -15.660  1.00  0.00     0.011 C 
HETATM   29  C3  UNL     1     -29.884   0.016 -14.648  1.00  0.00     0.011 C 
ENDBRANCH  26  27
ENDBRANCH  25  26
BRANCH  25  30
HETATM   30  S2  UNL     1     -33.571   0.617 -15.788  1.00  0.00     0.251 S 
HETATM   31  O7  UNL     1     -34.715  -0.150 -15.162  1.00  0.00    -0.205 OA
HETATM   32  O8  UNL     1     -33.300   1.753 -14.807  1.00  0.00    -0.205 OA
BRANCH  30  33
HETATM   33  C26 UNL     1     -34.227   1.458 -17.199  1.00  0.00     0.131 A 
HETATM   34  C27 UNL     1     -34.508   0.963 -18.451  1.00  0.00     0.120 A 
HETATM   35  N6  UNL     1     -34.992   1.780 -19.330  1.00  0.00    -0.367 N 
HETATM   36  C28 UNL     1     -35.200   3.047 -19.010  1.00  0.00     0.139 A 
ATOM     37  H6  UNL     1     -35.212   1.448 -20.269  1.00  0.00     0.165 HD
HETATM   38  S3  UNL     1     -34.689   3.098 -17.383  1.00  0.00    -0.070 SA
ENDBRANCH  30  33
ENDBRANCH  25  30
ENDBRANCH  24  25
ENDBRANCH  23  24
BRANCH  23  39
HETATM   39  O1  UNL     1     -33.964  -2.879 -15.676  1.00  0.00    -0.392 OA
ATOM     40  H1  UNL     1     -34.680  -2.338 -15.987  1.00  0.00     0.210 HD
ENDBRANCH  23  39
ENDBRANCH   1  23
BRANCH  16  41
HETATM   41  S1  UNL     1     -38.277  -0.821 -19.651  1.00  0.00     0.283 S 
HETATM   42  O3  UNL     1     -39.566  -0.840 -20.466  1.00  0.00    -0.194 OA
HETATM   43  O4  UNL     1     -37.343   0.082 -20.463  1.00  0.00    -0.194 OA
BRANCH  41  44
HETATM   44  N4  UNL     1     -38.639  -0.153 -18.144  1.00  0.00    -0.194 NA
HETATM   45  C19 UNL     1     -39.925  -0.384 -17.598  1.00  0.00     0.134 C 
HETATM   46  C20 UNL     1     -40.122  -1.805 -17.106  1.00  0.00     0.183 C 
HETATM   47  O5  UNL     1     -38.943  -2.437 -16.802  1.00  0.00    -0.389 OA
HETATM   48  C21 UNL     1     -37.940  -1.635 -16.318  1.00  0.00     0.183 C 
HETATM   49  C22 UNL     1     -37.626  -0.428 -17.146  1.00  0.00     0.134 C 
ENDBRANCH  41  44
ENDBRANCH  16  41
TORSDOF 10
ENDMDL
MODEL 3
REMARK VINA RESULT: -8.274666692      3.389      6.996
REMARK  10 active torsions:
REMARK  status: ('A' for Active; 'I' for Inactive)
REMARK    1  A    between atoms: C2_2  and  C4_4 
REMARK    2  A    between atoms: C4_4  and  N1_5 
REMARK    3  A    between atoms: N1_5  and  C5_6 
REMARK    4  A    between atoms: N1_5  and  S2_41 
REMARK    5  A    between atoms: C5_6  and  C6_7 
REMARK    6  A    between atoms: C6_7  and  O1_8 
REMARK    7  A    between atoms: C6_7  and  C7_10 
REMARK    8  A    between atoms: N3_25  and  S1_26 
REMARK    9  A    between atoms: S1_26  and  N4_29 
REMARK   10  A    between atoms: S2_41  and  C26_44 
ROOT
HETATM    1  C7  UNL     1     -37.748  -1.596 -18.707  1.00  0.00     0.123 C 
HETATM    2  C8  UNL     1     -38.108  -2.894 -19.444  1.00  0.00     0.130 C 
HETATM    3  C9  UNL     1     -39.230  -3.578 -18.734  1.00  0.00     0.219 C 
HETATM    4  O2  UNL     1     -40.007  -2.870 -18.039  1.00  0.00    -0.274 OA
HETATM    5  N2  UNL     1     -39.444  -4.979 -18.818  1.00  0.00    -0.361 N 
ATOM      6  H2  UNL     1     -39.797  -5.463 -17.992  1.00  0.00     0.162 HD
HETATM    7  C10 UNL     1     -39.189  -5.760 -20.010  1.00  0.00     0.122 C 
HETATM    8  C11 UNL     1     -38.978  -7.224 -19.685  1.00  0.00     0.020 C 
HETATM    9  C12 UNL     1     -37.592  -7.385 -19.156  1.00  0.00     0.002 C 
HETATM   10  C13 UNL     1     -37.364  -8.627 -18.361  1.00  0.00     0.000 C 
HETATM   11  C14 UNL     1     -36.829  -8.243 -16.999  1.00  0.00     0.000 C 
HETATM   12  C15 UNL     1     -35.444  -8.752 -16.757  1.00  0.00     0.000 C 
HETATM   13  C16 UNL     1     -34.393  -8.123 -17.610  1.00  0.00     0.001 C 
HETATM   14  C17 UNL     1     -34.365  -6.645 -17.616  1.00  0.00     0.015 C 
HETATM   15  C18 UNL     1     -33.287  -6.057 -16.698  1.00  0.00     0.108 C 
HETATM   16  N3  UNL     1     -33.165  -4.682 -17.077  1.00  0.00    -0.197 NA
HETATM   17  C23 UNL     1     -34.111  -3.814 -16.454  1.00  0.00     0.117 C 
HETATM   18  C24 UNL     1     -34.821  -3.005 -17.550  1.00  0.00     0.118 C 
HETATM   19  C25 UNL     1     -35.928  -2.202 -16.982  1.00  0.00     0.219 C 
HETATM   20  O6  UNL     1     -35.590  -1.561 -15.911  1.00  0.00    -0.274 OA
HETATM   21  N5  UNL     1     -37.221  -2.046 -17.418  1.00  0.00    -0.353 N 
ATOM     22  H5  UNL     1     -37.933  -2.282 -16.727  1.00  0.00     0.163 HD
ENDROOT
BRANCH   1  23
HETATM   23  C6  UNL     1     -36.770  -0.781 -19.421  1.00  0.00     0.155 C 
BRANCH  23  24
HETATM   24  C5  UNL     1     -35.908   0.210 -18.778  1.00  0.00     0.141 C 
BRANCH  24  25
HETATM   25  N1  UNL     1     -36.353   1.553 -18.560  1.00  0.00    -0.203 NA
BRANCH  25  26
HETATM   26  C4  UNL     1     -37.056   1.559 -17.278  1.00  0.00     0.111 C 
BRANCH  26  27
HETATM   27  C2  UNL     1     -38.208   2.490 -17.194  1.00  0.00    -0.009 C 
HETATM   28  C1  UNL     1     -39.577   1.881 -17.210  1.00  0.00     0.011 C 
HETATM   29  C3  UNL     1     -38.102   3.557 -16.130  1.00  0.00     0.011 C 
ENDBRANCH  26  27
ENDBRANCH  25  26
BRANCH  25  30
HETATM   30  S2  UNL     1     -35.056   2.632 -18.465  1.00  0.00     0.251 S 
HETATM   31  O7  UNL     1     -34.820   3.122 -17.054  1.00  0.00    -0.205 OA
HETATM   32  O8  UNL     1     -33.717   2.034 -18.883  1.00  0.00    -0.205 OA
BRANCH  30  33
HETATM   33  C26 UNL     1     -35.190   4.065 -19.492  1.00  0.00     0.131 A 
HETATM   34  C27 UNL     1     -35.839   4.213 -20.696  1.00  0.00     0.120 A 
HETATM   35  N6  UNL     1     -35.800   5.374 -21.265  1.00  0.00    -0.367 N 
HETATM   36  C28 UNL     1     -35.150   6.372 -20.688  1.00  0.00     0.139 A 
ATOM     37  H6  UNL     1     -36.270   5.520 -22.158  1.00  0.00     0.165 HD
HETATM   38  S3  UNL     1     -34.558   5.643 -19.264  1.00  0.00    -0.070 SA
ENDBRANCH  30  33
ENDBRANCH  25  30
ENDBRANCH  24  25
ENDBRANCH  23  24
BRANCH  23  39
HETATM   39  O1  UNL     1     -36.102  -1.554 -20.389  1.00  0.00    -0.392 OA
ATOM     40  H1  UNL     1     -35.222  -1.802 -20.131  1.00  0.00     0.210 HD
ENDBRANCH  23  39
ENDBRANCH   1  23
BRANCH  16  41
HETATM   41  S1  UNL     1     -31.568  -4.147 -17.087  1.00  0.00     0.283 S 
HETATM   42  O3  UNL     1     -30.755  -5.112 -16.231  1.00  0.00    -0.194 OA
HETATM   43  O4  UNL     1     -31.513  -2.830 -16.307  1.00  0.00    -0.194 OA
BRANCH  41  44
HETATM   44  N4  UNL     1     -30.796  -4.021 -18.582  1.00  0.00    -0.194 NA
HETATM   45  C19 UNL     1     -31.596  -3.968 -19.749  1.00  0.00     0.134 C 
HETATM   46  C20 UNL     1     -32.321  -2.646 -19.921  1.00  0.00     0.183 C 
HETATM   47  O5  UNL     1     -31.712  -1.610 -19.257  1.00  0.00    -0.389 OA
HETATM   48  C21 UNL     1     -30.345  -1.680 -19.162  1.00  0.00     0.183 C 
HETATM   49  C22 UNL     1     -29.804  -2.967 -18.619  1.00  0.00     0.134 C 
ENDBRANCH  41  44
ENDBRANCH  16  41
TORSDOF 10
ENDMDL
MODEL 4
REMARK VINA RESULT: -8.249521134      2.685      7.118
REMARK  10 active torsions:
REMARK  status: ('A' for Active; 'I' for Inactive)
REMARK    1  A    between atoms: C2_2  and  C4_4 
REMARK    2  A    between atoms: C4_4  and  N1_5 
REMARK    3  A    between atoms: N1_5  and  C5_6 
REMARK    4  A    between atoms: N1_5  and  S2_41 
REMARK    5  A    between atoms: C5_6  and  C6_7 
REMARK    6  A    between atoms: C6_7  and  O1_8 
REMARK    7  A    between atoms: C6_7  and  C7_10 
REMARK    8  A    between atoms: N3_25  and  S1_26 
REMARK    9  A    between atoms: S1_26  and  N4_29 
REMARK   10  A    between atoms: S2_41  and  C26_44 
ROOT
HETATM    1  C7  UNL     1     -35.159  -2.704 -16.978  1.00  0.00     0.123 C 
HETATM    2  C8  UNL     1     -33.983  -2.801 -17.961  1.00  0.00     0.130 C 
HETATM    3  C9  UNL     1     -33.021  -3.842 -17.490  1.00  0.00     0.219 C 
HETATM    4  O2  UNL     1     -33.463  -4.766 -16.757  1.00  0.00    -0.274 OA
HETATM    5  N2  UNL     1     -31.645  -3.820 -17.839  1.00  0.00    -0.361 N 
ATOM      6  H2  UNL     1     -30.968  -4.143 -17.148  1.00  0.00     0.162 HD
HETATM    7  C10 UNL     1     -31.148  -3.365 -19.121  1.00  0.00     0.122 C 
HETATM    8  C11 UNL     1     -29.696  -2.942 -19.040  1.00  0.00     0.020 C 
HETATM    9  C12 UNL     1     -29.645  -1.585 -18.420  1.00  0.00     0.002 C 
HETATM   10  C13 UNL     1     -28.322  -1.212 -17.838  1.00  0.00     0.000 C 
HETATM   11  C14 UNL     1     -28.518  -0.836 -16.385  1.00  0.00     0.000 C 
HETATM   12  C15 UNL     1     -28.182   0.595 -16.108  1.00  0.00     0.000 C 
HETATM   13  C16 UNL     1     -29.107   1.583 -16.735  1.00  0.00     0.001 C 
HETATM   14  C17 UNL     1     -30.547   1.372 -16.478  1.00  0.00     0.015 C 
HETATM   15  C18 UNL     1     -31.104   2.279 -15.375  1.00  0.00     0.108 C 
HETATM   16  N3  UNL     1     -32.529   2.201 -15.493  1.00  0.00    -0.197 NA
HETATM   17  C23 UNL     1     -33.115   1.089 -14.819  1.00  0.00     0.117 C 
HETATM   18  C24 UNL     1     -34.003   0.331 -15.817  1.00  0.00     0.118 C 
HETATM   19  C25 UNL     1     -34.513  -0.926 -15.223  1.00  0.00     0.219 C 
HETATM   20  O6  UNL     1     -34.984  -0.767 -14.029  1.00  0.00    -0.274 OA
HETATM   21  N5  UNL     1     -34.557  -2.197 -15.743  1.00  0.00    -0.353 N 
ATOM     22  H5  UNL     1     -34.092  -2.905 -15.175  1.00  0.00     0.163 HD
ENDROOT
BRANCH   1  23
HETATM   23  C6  UNL     1     -36.228  -1.826 -17.442  1.00  0.00     0.155 C 
BRANCH  23  24
HETATM   24  C5  UNL     1     -36.618  -1.686 -18.845  1.00  0.00     0.141 C 
BRANCH  24  25
HETATM   25  N1  UNL     1     -37.556  -0.688 -19.260  1.00  0.00    -0.203 NA
BRANCH  25  26
HETATM   26  C4  UNL     1     -37.273  -0.405 -20.666  1.00  0.00     0.111 C 
BRANCH  26  27
HETATM   27  C2  UNL     1     -35.889   0.048 -20.953  1.00  0.00    -0.009 C 
HETATM   28  C1  UNL     1     -35.077  -0.795 -21.889  1.00  0.00     0.011 C 
HETATM   29  C3  UNL     1     -35.743   1.516 -21.280  1.00  0.00     0.011 C 
ENDBRANCH  26  27
ENDBRANCH  25  26
BRANCH  25  30
HETATM   30  S2  UNL     1     -39.148  -1.239 -19.135  1.00  0.00     0.251 S 
HETATM   31  O7  UNL     1     -39.822  -0.761 -17.868  1.00  0.00    -0.205 OA
HETATM   32  O8  UNL     1     -40.065  -0.754 -20.253  1.00  0.00    -0.205 OA
BRANCH  30  33
HETATM   33  C26 UNL     1     -39.346  -2.996 -19.191  1.00  0.00     0.131 A 
HETATM   34  C27 UNL     1     -39.840  -3.845 -18.229  1.00  0.00     0.120 A 
HETATM   35  N6  UNL     1     -39.891  -5.107 -18.505  1.00  0.00    -0.367 N 
HETATM   36  C28 UNL     1     -39.476  -5.544 -19.684  1.00  0.00     0.139 A 
ATOM     37  H6  UNL     1     -40.251  -5.767 -17.816  1.00  0.00     0.165 HD
HETATM   38  S3  UNL     1     -38.984  -4.102 -20.451  1.00  0.00    -0.070 SA
ENDBRANCH  30  33
ENDBRANCH  25  30
ENDBRANCH  24  25
ENDBRANCH  23  24
BRANCH  23  39
HETATM   39  O1  UNL     1     -37.325  -1.885 -16.563  1.00  0.00    -0.392 OA
ATOM     40  H1  UNL     1     -37.121  -1.583 -15.686  1.00  0.00     0.210 HD
ENDBRANCH  23  39
ENDBRANCH   1  23
BRANCH  16  41
HETATM   41  S1  UNL     1     -33.285   3.688 -15.259  1.00  0.00     0.283 S 
HETATM   42  O3  UNL     1     -32.210   4.693 -14.862  1.00  0.00    -0.194 OA
HETATM   43  O4  UNL     1     -34.160   3.574 -14.008  1.00  0.00    -0.194 OA
BRANCH  41  44
HETATM   44  N4  UNL     1     -34.136   4.344 -16.561  1.00  0.00    -0.194 NA
HETATM   45  C19 UNL     1     -34.653   3.461 -17.539  1.00  0.00     0.134 C 
HETATM   46  C20 UNL     1     -35.849   2.661 -17.055  1.00  0.00     0.183 C 
HETATM   47  O5  UNL     1     -36.512   3.264 -16.016  1.00  0.00    -0.389 OA
HETATM   48  C21 UNL     1     -36.511   4.636 -16.019  1.00  0.00     0.183 C 
HETATM   49  C22 UNL     1     -35.165   5.277 -16.150  1.00  0.00     0.134 C 
ENDBRANCH  41  44
ENDBRANCH  16  41
TORSDOF 10
ENDMDL
MODEL 5
REMARK VINA RESULT: -8.220432609      7.428     11.716
REMARK  10 active torsions:
REMARK  status: ('A' for Active; 'I' for Inactive)
REMARK    1  A    between atoms: C2_2  and  C4_4 
REMARK    2  A    between atoms: C4_4  and  N1_5 
REMARK    3  A    between atoms: N1_5  and  C5_6 
REMARK    4  A    between atoms: N1_5  and  S2_41 
REMARK    5  A    between atoms: C5_6  and  C6_7 
REMARK    6  A    between atoms: C6_7  and  O1_8 
REMARK    7  A    between atoms: C6_7  and  C7_10 
REMARK    8  A    between atoms: N3_25  and  S1_26 
REMARK    9  A    between atoms: S1_26  and  N4_29 
REMARK   10  A    between atoms: S2_41  and  C26_44 
ROOT
HETATM    1  C7  UNL     1     -40.610  -7.604 -20.295  1.00  0.00     0.123 C 
HETATM    2  C8  UNL     1     -40.042  -8.407 -21.475  1.00  0.00     0.130 C 
HETATM    3  C9  UNL     1     -41.095  -9.317 -22.014  1.00  0.00     0.219 C 
HETATM    4  O2  UNL     1     -42.300  -8.996 -21.838  1.00  0.00    -0.274 OA
HETATM    5  N2  UNL     1     -40.783 -10.516 -22.709  1.00  0.00    -0.361 N 
ATOM      6  H2  UNL     1     -41.399 -11.319 -22.583  1.00  0.00     0.162 HD
HETATM    7  C10 UNL     1     -39.640 -10.663 -23.585  1.00  0.00     0.122 C 
HETATM    8  C11 UNL     1     -39.244 -12.115 -23.751  1.00  0.00     0.020 C 
HETATM    9  C12 UNL     1     -38.494 -12.530 -22.529  1.00  0.00     0.002 C 
HETATM   10  C13 UNL     1     -38.436 -14.004 -22.301  1.00  0.00     0.000 C 
HETATM   11  C14 UNL     1     -38.981 -14.305 -20.921  1.00  0.00     0.000 C 
HETATM   12  C15 UNL     1     -37.954 -14.897 -20.010  1.00  0.00     0.000 C 
HETATM   13  C16 UNL     1     -36.851 -13.967 -19.630  1.00  0.00     0.001 C 
HETATM   14  C17 UNL     1     -37.268 -12.655 -19.092  1.00  0.00     0.015 C 
HETATM   15  C18 UNL     1     -37.203 -12.581 -17.563  1.00  0.00     0.108 C 
HETATM   16  N3  UNL     1     -37.295 -11.190 -17.239  1.00  0.00    -0.197 NA
HETATM   17  C23 UNL     1     -38.629 -10.689 -17.167  1.00  0.00     0.117 C 
HETATM   18  C24 UNL     1     -38.731  -9.450 -18.069  1.00  0.00     0.118 C 
HETATM   19  C25 UNL     1     -40.131  -8.977 -18.164  1.00  0.00     0.219 C 
HETATM   20  O6  UNL     1     -40.722  -8.912 -17.016  1.00  0.00    -0.274 OA
HETATM   21  N5  UNL     1     -40.868  -8.610 -19.264  1.00  0.00    -0.353 N 
ATOM     22  H5  UNL     1     -41.741  -9.125 -19.381  1.00  0.00     0.163 HD
ENDROOT
BRANCH   1  23
HETATM   23  C6  UNL     1     -39.699  -6.572 -19.809  1.00  0.00     0.155 C 
BRANCH  23  24
HETATM   24  C5  UNL     1     -39.870  -5.865 -18.540  1.00  0.00     0.141 C 
BRANCH  24  25
HETATM   25  N1  UNL     1     -40.183  -4.469 -18.504  1.00  0.00    -0.203 NA
BRANCH  25  26
HETATM   26  C4  UNL     1     -40.365  -4.115 -17.097  1.00  0.00     0.111 C 
BRANCH  26  27
HETATM   27  C2  UNL     1     -41.705  -3.586 -16.746  1.00  0.00    -0.009 C 
HETATM   28  C1  UNL     1     -42.449  -4.287 -15.650  1.00  0.00     0.011 C 
HETATM   29  C3  UNL     1     -41.787  -2.086 -16.583  1.00  0.00     0.011 C 
ENDBRANCH  26  27
ENDBRANCH  25  26
BRANCH  25  30
HETATM   30  S2  UNL     1     -38.926  -3.532 -19.134  1.00  0.00     0.251 S 
HETATM   31  O7  UNL     1     -37.564  -4.086 -18.777  1.00  0.00    -0.205 OA
HETATM   32  O8  UNL     1     -38.911  -3.451 -20.657  1.00  0.00    -0.205 OA
BRANCH  30  33
HETATM   33  C26 UNL     1     -38.933  -1.832 -18.646  1.00  0.00     0.131 A 
HETATM   34  C27 UNL     1     -39.596  -0.768 -19.213  1.00  0.00     0.120 A 
HETATM   35  N6  UNL     1     -39.449   0.396 -18.670  1.00  0.00    -0.367 N 
HETATM   36  C28 UNL     1     -38.679   0.534 -17.602  1.00  0.00     0.139 A 
ATOM     37  H6  UNL     1     -39.925   1.207 -19.064  1.00  0.00     0.165 HD
HETATM   38  S3  UNL     1     -38.129  -1.060 -17.343  1.00  0.00    -0.070 SA
ENDBRANCH  30  33
ENDBRANCH  25  30
ENDBRANCH  24  25
ENDBRANCH  23  24
BRANCH  23  39
HETATM   39  O1  UNL     1     -38.365  -6.936 -20.068  1.00  0.00    -0.392 OA
ATOM     40  H1  UNL     1     -38.161  -7.827 -19.808  1.00  0.00     0.210 HD
ENDBRANCH  23  39
ENDBRANCH   1  23
BRANCH  16  41
HETATM   41  S1  UNL     1     -36.271 -10.744 -15.978  1.00  0.00     0.283 S 
HETATM   42  O3  UNL     1     -36.389 -11.808 -14.892  1.00  0.00    -0.194 OA
HETATM   43  O4  UNL     1     -36.856  -9.488 -15.325  1.00  0.00    -0.194 OA
BRANCH  41  44
HETATM   44  N4  UNL     1     -34.631 -10.560 -16.332  1.00  0.00    -0.194 NA
HETATM   45  C19 UNL     1     -34.026  -9.306 -16.077  1.00  0.00     0.134 C 
HETATM   46  C20 UNL     1     -33.820  -9.028 -14.600  1.00  0.00     0.183 C 
HETATM   47  O5  UNL     1     -33.767 -10.170 -13.841  1.00  0.00    -0.389 OA
HETATM   48  C21 UNL     1     -33.225 -11.272 -14.452  1.00  0.00     0.183 C 
HETATM   49  C22 UNL     1     -33.812 -11.622 -15.784  1.00  0.00     0.134 C 
ENDBRANCH  41  44
ENDBRANCH  16  41
TORSDOF 10
ENDMDL
