MODEL 1
REMARK VINA RESULT: -10.542256683      0.000      0.000
REMARK  16 active torsions:
REMARK  status: ('A' for Active; 'I' for Inactive)
REMARK    1  A    between atoms: C2_2  and  C4_4 
REMARK    2  A    between atoms: C4_4  and  C5_5 
REMARK    3  A    between atoms: C5_5  and  N1_6 
REMARK    4  A    between atoms: C5_5  and  C15_20 
REMARK    5  A    between atoms: N1_6  and  C6_8 
REMARK    6  A    between atoms: C6_8  and  C7_9 
REMARK    7  A    between atoms: C7_9  and  C8_11 
REMARK    8  A    between atoms: C8_11  and  O2_12 
REMARK    9  A    between atoms: O2_12  and  C9_13 
REMARK   10  A    between atoms: N3_26  and  C18_27 
REMARK   11  A    between atoms: C18_27  and  O4_28 
REMARK   12  A    between atoms: C18_27  and  C19_30 
REMARK   13  A    between atoms: C19_30  and  C20_31 
REMARK   14  A    between atoms: C19_30  and  C27_38 
REMARK   15  A    between atoms: C20_31  and  C21_32 
REMARK   16  A    between atoms: C29_42  and  N5_43 
ROOT
HETATM    1  C15 UNL     1      22.237  47.178  43.946  1.00  0.00     0.211 C 
HETATM    2  N2  UNL     1      23.131  47.136  42.812  1.00  0.00    -0.336 N 
ATOM      3  H2  UNL     1      22.855  47.141  41.830  1.00  0.00     0.164 HD
HETATM    4  C16 UNL     1      24.459  47.087  43.302  1.00  0.00     0.237 C 
HETATM    5  O3  UNL     1      25.428  46.597  42.694  1.00  0.00    -0.272 OA
HETATM    6  C17 UNL     1      24.370  47.739  44.650  1.00  0.00     0.229 C 
HETATM    7  N3  UNL     1      22.994  47.671  45.075  1.00  0.00    -0.333 N 
ENDROOT
BRANCH   7   8
HETATM    8  C18 UNL     1      22.472  48.038  46.320  1.00  0.00     0.126 C 
BRANCH   8   9
HETATM    9  O4  UNL     1      21.561  47.229  46.785  1.00  0.00    -0.349 OA
ATOM     10  H4  UNL     1      21.139  47.526  47.583  1.00  0.00     0.219 HD
ENDBRANCH   8   9
BRANCH   8  11
HETATM   11  C19 UNL     1      22.771  49.166  47.194  1.00  0.00     0.116 C 
BRANCH  11  12
HETATM   12  C20 UNL     1      23.921  48.924  48.131  1.00  0.00     0.057 C 
BRANCH  12  13
HETATM   13  C21 UNL     1      23.642  49.492  49.471  1.00  0.00    -0.057 A 
HETATM   14  C22 UNL     1      22.861  48.754  50.375  1.00  0.00     0.007 A 
HETATM   15  C23 UNL     1      22.600  49.226  51.641  1.00  0.00     0.001 A 
HETATM   16  C24 UNL     1      23.081  50.436  52.091  1.00  0.00     0.000 A 
HETATM   17  C25 UNL     1      23.849  51.174  51.218  1.00  0.00     0.001 A 
HETATM   18  C26 UNL     1      24.111  50.695  49.941  1.00  0.00     0.007 A 
ENDBRANCH  12  13
ENDBRANCH  11  12
BRANCH  11  19
HETATM   19  C27 UNL     1      22.758  50.457  46.500  1.00  0.00     0.054 A 
HETATM   20  C28 UNL     1      22.083  50.642  45.279  1.00  0.00     0.132 A 
HETATM   21  N4  UNL     1      22.261  51.924  44.934  1.00  0.00    -0.200 N 
HETATM   22  C29 UNL     1      23.002  52.555  45.853  1.00  0.00     0.675 A 
ATOM     23  H4  UNL     1      21.885  52.357  44.090  1.00  0.00     0.183 HD
HETATM   24  N6  UNL     1      23.288  51.648  46.787  1.00  0.00    -0.194 N 
ATOM     25  H6  UNL     1      23.845  51.840  47.619  1.00  0.00     0.184 HD
BRANCH  22  26
HETATM   26  N5  UNL     1      23.358  53.812  45.818  1.00  0.00    -0.234 N 
ATOM     27  H52 UNL     1      24.215  54.232  46.181  1.00  0.00     0.174 HD
ATOM     28  H51 UNL     1      22.817  54.576  45.412  1.00  0.00     0.174 HD
ENDBRANCH  22  26
ENDBRANCH  11  19
ENDBRANCH   8  11
ENDBRANCH   7   8
BRANCH   1  29
HETATM   29  C5  UNL     1      21.674  45.743  44.201  1.00  0.00     0.124 C 
BRANCH  29  30
HETATM   30  C4  UNL     1      22.520  44.742  43.600  1.00  0.00     0.033 C 
BRANCH  30  31
HETATM   31  C2  UNL     1      23.226  43.645  44.294  1.00  0.00    -0.021 C 
HETATM   32  C1  UNL     1      22.305  43.193  45.502  1.00  0.00     0.009 C 
HETATM   33  C3  UNL     1      24.496  44.077  45.039  1.00  0.00     0.009 C 
ENDBRANCH  30  31
ENDBRANCH  29  30
BRANCH  29  34
HETATM   34  N1  UNL     1      20.320  45.830  44.047  1.00  0.00    -0.387 N 
ATOM     35  H1  UNL     1      20.003  46.698  43.615  1.00  0.00     0.159 HD
BRANCH  34  36
HETATM   36  C6  UNL     1      19.310  44.961  44.372  1.00  0.00     0.136 C 
BRANCH  36  37
HETATM   37  C7  UNL     1      18.513  44.615  43.119  1.00  0.00     0.188 C 
HETATM   38  O1  UNL     1      18.193  43.470  42.923  1.00  0.00    -0.289 OA
BRANCH  37  39
HETATM   39  C8  UNL     1      18.141  45.669  42.159  1.00  0.00     0.260 C 
BRANCH  39  40
HETATM   40  O2  UNL     1      17.112  45.247  41.290  1.00  0.00    -0.340 OA
BRANCH  40  41
HETATM   41  C9  UNL     1      16.026  46.049  40.978  1.00  0.00     0.107 A 
HETATM   42  C10 UNL     1      16.141  47.308  40.420  1.00  0.00     0.040 A 
HETATM   43  C11 UNL     1      15.052  48.080  40.121  1.00  0.00     0.003 A 
HETATM   44  C12 UNL     1      13.776  47.620  40.371  1.00  0.00     0.003 A 
HETATM   45  C13 UNL     1      13.620  46.369  40.927  1.00  0.00     0.045 A 
HETATM   46  C14 UNL     1      14.726  45.608  41.220  1.00  0.00     0.149 A 
HETATM   47  F1  UNL     1      14.605  44.366  41.770  1.00  0.00    -0.203 F 
ENDBRANCH  40  41
ENDBRANCH  39  40
ENDBRANCH  37  39
ENDBRANCH  36  37
ENDBRANCH  34  36
ENDBRANCH  29  34
ENDBRANCH   1  29
TORSDOF 16
ENDMDL
MODEL 2
REMARK VINA RESULT: -10.532754371      0.944      1.323
REMARK  16 active torsions:
REMARK  status: ('A' for Active; 'I' for Inactive)
REMARK    1  A    between atoms: C2_2  and  C4_4 
REMARK    2  A    between atoms: C4_4  and  C5_5 
REMARK    3  A    between atoms: C5_5  and  N1_6 
REMARK    4  A    between atoms: C5_5  and  C15_20 
REMARK    5  A    between atoms: N1_6  and  C6_8 
REMARK    6  A    between atoms: C6_8  and  C7_9 
REMARK    7  A    between atoms: C7_9  and  C8_11 
REMARK    8  A    between atoms: C8_11  and  O2_12 
REMARK    9  A    between atoms: O2_12  and  C9_13 
REMARK   10  A    between atoms: N3_26  and  C18_27 
REMARK   11  A    between atoms: C18_27  and  O4_28 
REMARK   12  A    between atoms: C18_27  and  C19_30 
REMARK   13  A    between atoms: C19_30  and  C20_31 
REMARK   14  A    between atoms: C19_30  and  C27_38 
REMARK   15  A    between atoms: C20_31  and  C21_32 
REMARK   16  A    between atoms: C29_42  and  N5_43 
ROOT
HETATM    1  C15 UNL     1      21.892  47.185  43.748  1.00  0.00     0.211 C 
HETATM    2  N2  UNL     1      22.744  47.145  42.582  1.00  0.00    -0.336 N 
ATOM      3  H2  UNL     1      22.439  47.243  41.613  1.00  0.00     0.164 HD
HETATM    4  C16 UNL     1      24.076  46.948  43.018  1.00  0.00     0.237 C 
HETATM    5  O3  UNL     1      24.979  46.419  42.344  1.00  0.00    -0.272 OA
HETATM    6  C17 UNL     1      24.088  47.510  44.409  1.00  0.00     0.229 C 
HETATM    7  N3  UNL     1      22.725  47.532  44.880  1.00  0.00    -0.333 N 
ENDROOT
BRANCH   7   8
HETATM    8  C18 UNL     1      22.276  47.855  46.164  1.00  0.00     0.126 C 
BRANCH   8   9
HETATM    9  O4  UNL     1      21.404  47.020  46.659  1.00  0.00    -0.349 OA
ATOM     10  H4  UNL     1      21.777  46.340  47.208  1.00  0.00     0.219 HD
ENDBRANCH   8   9
BRANCH   8  11
HETATM   11  C19 UNL     1      22.616  48.960  47.052  1.00  0.00     0.116 C 
BRANCH  11  12
HETATM   12  C20 UNL     1      23.766  48.671  47.974  1.00  0.00     0.057 C 
BRANCH  12  13
HETATM   13  C21 UNL     1      23.570  49.324  49.290  1.00  0.00    -0.057 A 
HETATM   14  C22 UNL     1      22.801  48.670  50.267  1.00  0.00     0.007 A 
HETATM   15  C23 UNL     1      22.615  49.223  51.514  1.00  0.00     0.001 A 
HETATM   16  C24 UNL     1      23.162  50.435  51.872  1.00  0.00     0.000 A 
HETATM   17  C25 UNL     1      23.918  51.091  50.926  1.00  0.00     0.001 A 
HETATM   18  C26 UNL     1      24.106  50.531  49.669  1.00  0.00     0.007 A 
ENDBRANCH  12  13
ENDBRANCH  11  12
BRANCH  11  19
HETATM   19  C27 UNL     1      22.633  50.261  46.378  1.00  0.00     0.054 A 
HETATM   20  C28 UNL     1      22.083  50.446  45.096  1.00  0.00     0.132 A 
HETATM   21  N4  UNL     1      22.255  51.738  44.787  1.00  0.00    -0.200 N 
HETATM   22  C29 UNL     1      22.875  52.377  45.788  1.00  0.00     0.675 A 
ATOM     23  H4  UNL     1      21.956  52.173  43.915  1.00  0.00     0.183 HD
HETATM   24  N6  UNL     1      23.092  51.463  46.734  1.00  0.00    -0.194 N 
ATOM     25  H6  UNL     1      23.553  51.658  47.623  1.00  0.00     0.184 HD
BRANCH  22  26
HETATM   26  N5  UNL     1      23.193  53.644  45.807  1.00  0.00    -0.234 N 
ATOM     27  H52 UNL     1      22.955  54.360  45.120  1.00  0.00     0.174 HD
ATOM     28  H51 UNL     1      23.739  54.113  46.530  1.00  0.00     0.174 HD
ENDBRANCH  22  26
ENDBRANCH  11  19
ENDBRANCH   8  11
ENDBRANCH   7   8
BRANCH   1  29
HETATM   29  C5  UNL     1      21.213  45.790  43.928  1.00  0.00     0.124 C 
BRANCH  29  30
HETATM   30  C4  UNL     1      22.199  44.743  44.021  1.00  0.00     0.033 C 
BRANCH  30  31
HETATM   31  C2  UNL     1      22.749  44.150  45.258  1.00  0.00    -0.021 C 
HETATM   32  C1  UNL     1      24.245  43.730  44.944  1.00  0.00     0.009 C 
HETATM   33  C3  UNL     1      22.139  42.794  45.639  1.00  0.00     0.009 C 
ENDBRANCH  30  31
ENDBRANCH  29  30
BRANCH  29  34
HETATM   34  N1  UNL     1      20.128  45.784  43.097  1.00  0.00    -0.387 N 
ATOM     35  H1  UNL     1      20.361  45.751  42.105  1.00  0.00     0.159 HD
BRANCH  34  36
HETATM   36  C6  UNL     1      18.783  45.814  43.359  1.00  0.00     0.136 C 
BRANCH  36  37
HETATM   37  C7  UNL     1      18.130  44.546  42.821  1.00  0.00     0.188 C 
HETATM   38  O1  UNL     1      18.523  43.473  43.205  1.00  0.00    -0.289 OA
BRANCH  37  39
HETATM   39  C8  UNL     1      17.032  44.632  41.843  1.00  0.00     0.260 C 
BRANCH  39  40
HETATM   40  O2  UNL     1      16.913  45.932  41.303  1.00  0.00    -0.340 OA
BRANCH  40  41
HETATM   41  C9  UNL     1      15.688  46.492  40.978  1.00  0.00     0.107 A 
HETATM   42  C10 UNL     1      14.474  45.900  41.268  1.00  0.00     0.040 A 
HETATM   43  C11 UNL     1      13.278  46.475  40.936  1.00  0.00     0.003 A 
HETATM   44  C12 UNL     1      13.241  47.691  40.287  1.00  0.00     0.003 A 
HETATM   45  C13 UNL     1      14.431  48.314  39.979  1.00  0.00     0.045 A 
HETATM   46  C14 UNL     1      15.622  47.720  40.321  1.00  0.00     0.149 A 
HETATM   47  F1  UNL     1      16.816  48.312  40.031  1.00  0.00    -0.203 F 
ENDBRANCH  40  41
ENDBRANCH  39  40
ENDBRANCH  37  39
ENDBRANCH  36  37
ENDBRANCH  34  36
ENDBRANCH  29  34
ENDBRANCH   1  29
TORSDOF 16
ENDMDL
MODEL 3
REMARK VINA RESULT: -10.343954816      0.945      1.246
REMARK  16 active torsions:
REMARK  status: ('A' for Active; 'I' for Inactive)
REMARK    1  A    between atoms: C2_2  and  C4_4 
REMARK    2  A    between atoms: C4_4  and  C5_5 
REMARK    3  A    between atoms: C5_5  and  N1_6 
REMARK    4  A    between atoms: C5_5  and  C15_20 
REMARK    5  A    between atoms: N1_6  and  C6_8 
REMARK    6  A    between atoms: C6_8  and  C7_9 
REMARK    7  A    between atoms: C7_9  and  C8_11 
REMARK    8  A    between atoms: C8_11  and  O2_12 
REMARK    9  A    between atoms: O2_12  and  C9_13 
REMARK   10  A    between atoms: N3_26  and  C18_27 
REMARK   11  A    between atoms: C18_27  and  O4_28 
REMARK   12  A    between atoms: C18_27  and  C19_30 
REMARK   13  A    between atoms: C19_30  and  C20_31 
REMARK   14  A    between atoms: C19_30  and  C27_38 
REMARK   15  A    between atoms: C20_31  and  C21_32 
REMARK   16  A    between atoms: C29_42  and  N5_43 
ROOT
HETATM    1  C15 UNL     1      21.828  47.477  43.466  1.00  0.00     0.211 C 
HETATM    2  N2  UNL     1      22.831  46.978  42.554  1.00  0.00    -0.336 N 
ATOM      3  H2  UNL     1      22.654  46.508  41.666  1.00  0.00     0.164 HD
HETATM    4  C16 UNL     1      24.105  47.255  43.108  1.00  0.00     0.237 C 
HETATM    5  O3  UNL     1      25.142  46.609  42.874  1.00  0.00    -0.272 OA
HETATM    6  C17 UNL     1      23.865  48.449  43.983  1.00  0.00     0.229 C 
HETATM    7  N3  UNL     1      22.456  48.490  44.287  1.00  0.00    -0.333 N 
ENDROOT
BRANCH   7   8
HETATM    8  C18 UNL     1      21.802  49.353  45.172  1.00  0.00     0.126 C 
BRANCH   8   9
HETATM    9  O4  UNL     1      20.537  49.534  44.917  1.00  0.00    -0.349 OA
ATOM     10  H4  UNL     1      20.345  50.308  44.400  1.00  0.00     0.219 HD
ENDBRANCH   8   9
BRANCH   8  11
HETATM   11  C19 UNL     1      22.288  50.084  46.337  1.00  0.00     0.116 C 
BRANCH  11  12
HETATM   12  C20 UNL     1      23.419  49.404  47.056  1.00  0.00     0.057 C 
BRANCH  12  13
HETATM   13  C21 UNL     1      23.397  49.724  48.503  1.00  0.00    -0.057 A 
HETATM   14  C22 UNL     1      22.896  48.770  49.404  1.00  0.00     0.007 A 
HETATM   15  C23 UNL     1      22.882  49.009  50.759  1.00  0.00     0.001 A 
HETATM   16  C24 UNL     1      23.350  50.183  51.306  1.00  0.00     0.000 A 
HETATM   17  C25 UNL     1      23.845  51.131  50.437  1.00  0.00     0.001 A 
HETATM   18  C26 UNL     1      23.859  50.886  49.070  1.00  0.00     0.007 A 
ENDBRANCH  12  13
ENDBRANCH  11  12
BRANCH  11  19
HETATM   19  C27 UNL     1      22.440  51.521  46.098  1.00  0.00     0.054 A 
HETATM   20  C28 UNL     1      23.681  52.097  45.767  1.00  0.00     0.132 A 
HETATM   21  N4  UNL     1      23.464  53.409  45.607  1.00  0.00    -0.200 N 
HETATM   22  C29 UNL     1      22.173  53.697  45.816  1.00  0.00     0.675 A 
ATOM     23  H4  UNL     1      24.181  54.092  45.362  1.00  0.00     0.183 HD
HETATM   24  N6  UNL     1      21.578  52.541  46.111  1.00  0.00    -0.194 N 
ATOM     25  H6  UNL     1      20.584  52.446  46.320  1.00  0.00     0.184 HD
BRANCH  22  26
HETATM   26  N5  UNL     1      21.631  54.883  45.740  1.00  0.00    -0.234 N 
ATOM     27  H52 UNL     1      21.784  55.683  46.354  1.00  0.00     0.174 HD
ATOM     28  H51 UNL     1      20.957  55.188  45.037  1.00  0.00     0.174 HD
ENDBRANCH  22  26
ENDBRANCH  11  19
ENDBRANCH   8  11
ENDBRANCH   7   8
BRANCH   1  29
HETATM   29  C5  UNL     1      21.283  46.288  44.320  1.00  0.00     0.124 C 
BRANCH  29  30
HETATM   30  C4  UNL     1      22.075  45.101  44.119  1.00  0.00     0.033 C 
BRANCH  30  31
HETATM   31  C2  UNL     1      22.721  44.279  45.163  1.00  0.00    -0.021 C 
HETATM   32  C1  UNL     1      24.027  43.652  44.518  1.00  0.00     0.009 C 
HETATM   33  C3  UNL     1      21.946  43.010  45.544  1.00  0.00     0.009 C 
ENDBRANCH  30  31
ENDBRANCH  29  30
BRANCH  29  34
HETATM   34  N1  UNL     1      19.920  46.352  44.238  1.00  0.00    -0.387 N 
ATOM     35  H1  UNL     1      19.561  47.258  43.936  1.00  0.00     0.159 HD
BRANCH  34  36
HETATM   36  C6  UNL     1      18.949  45.417  44.490  1.00  0.00     0.136 C 
BRANCH  36  37
HETATM   37  C7  UNL     1      18.525  44.758  43.183  1.00  0.00     0.188 C 
HETATM   38  O1  UNL     1      18.503  43.555  43.110  1.00  0.00    -0.289 OA
BRANCH  37  39
HETATM   39  C8  UNL     1      18.146  45.583  42.023  1.00  0.00     0.260 C 
BRANCH  39  40
HETATM   40  O2  UNL     1      16.948  45.131  41.426  1.00  0.00    -0.340 OA
BRANCH  40  41
HETATM   41  C9  UNL     1      15.933  45.995  41.049  1.00  0.00     0.107 A 
HETATM   42  C10 UNL     1      16.156  47.259  40.539  1.00  0.00     0.040 A 
HETATM   43  C11 UNL     1      15.135  48.094  40.173  1.00  0.00     0.003 A 
HETATM   44  C12 UNL     1      13.822  47.694  40.303  1.00  0.00     0.003 A 
HETATM   45  C13 UNL     1      13.558  46.438  40.808  1.00  0.00     0.045 A 
HETATM   46  C14 UNL     1      14.597  45.616  41.170  1.00  0.00     0.149 A 
HETATM   47  F1  UNL     1      14.369  44.368  41.672  1.00  0.00    -0.203 F 
ENDBRANCH  40  41
ENDBRANCH  39  40
ENDBRANCH  37  39
ENDBRANCH  36  37
ENDBRANCH  34  36
ENDBRANCH  29  34
ENDBRANCH   1  29
TORSDOF 16
ENDMDL
MODEL 4
REMARK VINA RESULT: -9.993923881      1.536      3.288
REMARK  16 active torsions:
REMARK  status: ('A' for Active; 'I' for Inactive)
REMARK    1  A    between atoms: C2_2  and  C4_4 
REMARK    2  A    between atoms: C4_4  and  C5_5 
REMARK    3  A    between atoms: C5_5  and  N1_6 
REMARK    4  A    between atoms: C5_5  and  C15_20 
REMARK    5  A    between atoms: N1_6  and  C6_8 
REMARK    6  A    between atoms: C6_8  and  C7_9 
REMARK    7  A    between atoms: C7_9  and  C8_11 
REMARK    8  A    between atoms: C8_11  and  O2_12 
REMARK    9  A    between atoms: O2_12  and  C9_13 
REMARK   10  A    between atoms: N3_26  and  C18_27 
REMARK   11  A    between atoms: C18_27  and  O4_28 
REMARK   12  A    between atoms: C18_27  and  C19_30 
REMARK   13  A    between atoms: C19_30  and  C20_31 
REMARK   14  A    between atoms: C19_30  and  C27_38 
REMARK   15  A    between atoms: C20_31  and  C21_32 
REMARK   16  A    between atoms: C29_42  and  N5_43 
ROOT
HETATM    1  C15 UNL     1      21.990  47.804  43.517  1.00  0.00     0.211 C 
HETATM    2  N2  UNL     1      22.916  47.136  42.631  1.00  0.00    -0.336 N 
ATOM      3  H2  UNL     1      22.669  46.608  41.793  1.00  0.00     0.164 HD
HETATM    4  C16 UNL     1      24.226  47.342  43.127  1.00  0.00     0.237 C 
HETATM    5  O3  UNL     1      25.194  46.586  42.930  1.00  0.00    -0.272 OA
HETATM    6  C17 UNL     1      24.122  48.626  43.896  1.00  0.00     0.229 C 
HETATM    7  N3  UNL     1      22.732  48.823  44.227  1.00  0.00    -0.333 N 
ENDROOT
BRANCH   7   8
HETATM    8  C18 UNL     1      22.186  49.817  45.046  1.00  0.00     0.126 C 
BRANCH   8   9
HETATM    9  O4  UNL     1      20.883  49.863  45.048  1.00  0.00    -0.349 OA
ATOM     10  H4  UNL     1      20.512  50.584  44.553  1.00  0.00     0.219 HD
ENDBRANCH   8   9
BRANCH   8  11
HETATM   11  C19 UNL     1      22.820  50.811  45.904  1.00  0.00     0.116 C 
BRANCH  11  12
HETATM   12  C20 UNL     1      22.199  52.177  45.819  1.00  0.00     0.057 C 
BRANCH  12  13
HETATM   13  C21 UNL     1      23.236  53.235  45.841  1.00  0.00    -0.057 A 
HETATM   14  C22 UNL     1      22.905  54.524  45.392  1.00  0.00     0.007 A 
HETATM   15  C23 UNL     1      23.825  55.546  45.421  1.00  0.00     0.001 A 
HETATM   16  C24 UNL     1      25.110  55.370  45.884  1.00  0.00     0.000 A 
HETATM   17  C25 UNL     1      25.453  54.112  46.330  1.00  0.00     0.001 A 
HETATM   18  C26 UNL     1      24.522  53.082  46.300  1.00  0.00     0.007 A 
ENDBRANCH  12  13
ENDBRANCH  11  12
BRANCH  11  19
HETATM   19  C27 UNL     1      23.114  50.313  47.250  1.00  0.00     0.054 A 
HETATM   20  C28 UNL     1      23.394  48.956  47.500  1.00  0.00     0.132 A 
HETATM   21  N4  UNL     1      23.626  48.849  48.815  1.00  0.00    -0.200 N 
HETATM   22  C29 UNL     1      23.511  50.045  49.407  1.00  0.00     0.675 A 
ATOM     23  H4  UNL     1      23.857  47.980  49.296  1.00  0.00     0.183 HD
HETATM   24  N6  UNL     1      23.202  50.909  48.441  1.00  0.00    -0.194 N 
ATOM     25  H6  UNL     1      23.051  51.907  48.593  1.00  0.00     0.184 HD
BRANCH  22  26
HETATM   26  N5  UNL     1      23.675  50.287  50.680  1.00  0.00    -0.234 N 
ATOM     27  H52 UNL     1      23.947  49.632  51.414  1.00  0.00     0.174 HD
ATOM     28  H51 UNL     1      23.551  51.191  51.138  1.00  0.00     0.174 HD
ENDBRANCH  22  26
ENDBRANCH  11  19
ENDBRANCH   8  11
ENDBRANCH   7   8
BRANCH   1  29
HETATM   29  C5  UNL     1      21.368  46.749  44.487  1.00  0.00     0.124 C 
BRANCH  29  30
HETATM   30  C4  UNL     1      22.364  45.813  44.942  1.00  0.00     0.033 C 
BRANCH  30  31
HETATM   31  C2  UNL     1      22.530  44.412  44.502  1.00  0.00    -0.021 C 
HETATM   32  C1  UNL     1      21.779  43.502  45.562  1.00  0.00     0.009 C 
HETATM   33  C3  UNL     1      23.963  43.874  44.618  1.00  0.00     0.009 C 
ENDBRANCH  30  31
ENDBRANCH  29  30
BRANCH  29  34
HETATM   34  N1  UNL     1      20.151  46.417  43.961  1.00  0.00    -0.387 N 
ATOM     35  H1  UNL     1      19.904  46.937  43.119  1.00  0.00     0.159 HD
BRANCH  34  36
HETATM   36  C6  UNL     1      19.204  45.511  44.363  1.00  0.00     0.136 C 
BRANCH  36  37
HETATM   37  C7  UNL     1      18.567  44.863  43.139  1.00  0.00     0.188 C 
HETATM   38  O1  UNL     1      18.427  43.666  43.113  1.00  0.00    -0.289 OA
BRANCH  37  39
HETATM   39  C8  UNL     1      18.129  45.691  42.002  1.00  0.00     0.260 C 
BRANCH  39  40
HETATM   40  O2  UNL     1      16.938  45.199  41.424  1.00  0.00    -0.340 OA
BRANCH  40  41
HETATM   41  C9  UNL     1      15.901  46.031  41.035  1.00  0.00     0.107 A 
HETATM   42  C10 UNL     1      16.091  47.291  40.500  1.00  0.00     0.040 A 
HETATM   43  C11 UNL     1      15.048  48.094  40.125  1.00  0.00     0.003 A 
HETATM   44  C12 UNL     1      13.746  47.665  40.269  1.00  0.00     0.003 A 
HETATM   45  C13 UNL     1      13.515  46.414  40.800  1.00  0.00     0.045 A 
HETATM   46  C14 UNL     1      14.575  45.623  41.171  1.00  0.00     0.149 A 
HETATM   47  F1  UNL     1      14.379  44.381  41.699  1.00  0.00    -0.203 F 
ENDBRANCH  40  41
ENDBRANCH  39  40
ENDBRANCH  37  39
ENDBRANCH  36  37
ENDBRANCH  34  36
ENDBRANCH  29  34
ENDBRANCH   1  29
TORSDOF 16
ENDMDL
MODEL 5
REMARK VINA RESULT: -9.617982095      1.843      3.578
REMARK  16 active torsions:
REMARK  status: ('A' for Active; 'I' for Inactive)
REMARK    1  A    between atoms: C2_2  and  C4_4 
REMARK    2  A    between atoms: C4_4  and  C5_5 
REMARK    3  A    between atoms: C5_5  and  N1_6 
REMARK    4  A    between atoms: C5_5  and  C15_20 
REMARK    5  A    between atoms: N1_6  and  C6_8 
REMARK    6  A    between atoms: C6_8  and  C7_9 
REMARK    7  A    between atoms: C7_9  and  C8_11 
REMARK    8  A    between atoms: C8_11  and  O2_12 
REMARK    9  A    between atoms: O2_12  and  C9_13 
REMARK   10  A    between atoms: N3_26  and  C18_27 
REMARK   11  A    between atoms: C18_27  and  O4_28 
REMARK   12  A    between atoms: C18_27  and  C19_30 
REMARK   13  A    between atoms: C19_30  and  C20_31 
REMARK   14  A    between atoms: C19_30  and  C27_38 
REMARK   15  A    between atoms: C20_31  and  C21_32 
REMARK   16  A    between atoms: C29_42  and  N5_43 
ROOT
HETATM    1  C15 UNL     1      21.893  48.049  43.614  1.00  0.00     0.211 C 
HETATM    2  N2  UNL     1      22.771  47.277  42.764  1.00  0.00    -0.336 N 
ATOM      3  H2  UNL     1      22.483  46.686  41.984  1.00  0.00     0.164 HD
HETATM    4  C16 UNL     1      24.101  47.484  43.203  1.00  0.00     0.237 C 
HETATM    5  O3  UNL     1      25.040  46.683  43.046  1.00  0.00    -0.272 OA
HETATM    6  C17 UNL     1      24.059  48.833  43.858  1.00  0.00     0.229 C 
HETATM    7  N3  UNL     1      22.686  49.102  44.210  1.00  0.00    -0.333 N 
ENDROOT
BRANCH   7   8
HETATM    8  C18 UNL     1      22.196  50.181  44.953  1.00  0.00     0.126 C 
BRANCH   8   9
HETATM    9  O4  UNL     1      20.924  50.416  44.792  1.00  0.00    -0.349 OA
ATOM     10  H4  UNL     1      20.681  50.697  43.917  1.00  0.00     0.219 HD
ENDBRANCH   8   9
BRANCH   8  11
HETATM   11  C19 UNL     1      22.858  51.089  45.882  1.00  0.00     0.116 C 
BRANCH  11  12
HETATM   12  C20 UNL     1      22.296  52.482  45.880  1.00  0.00     0.057 C 
BRANCH  12  13
HETATM   13  C21 UNL     1      23.379  53.492  45.852  1.00  0.00    -0.057 A 
HETATM   14  C22 UNL     1      23.100  54.778  45.359  1.00  0.00     0.007 A 
HETATM   15  C23 UNL     1      24.065  55.759  45.340  1.00  0.00     0.001 A 
HETATM   16  C24 UNL     1      25.347  55.541  45.795  1.00  0.00     0.000 A 
HETATM   17  C25 UNL     1      25.640  54.286  46.282  1.00  0.00     0.001 A 
HETATM   18  C26 UNL     1      24.663  53.298  46.301  1.00  0.00     0.007 A 
ENDBRANCH  12  13
ENDBRANCH  11  12
BRANCH  11  19
HETATM   19  C27 UNL     1      23.111  50.491  47.196  1.00  0.00     0.054 A 
HETATM   20  C28 UNL     1      23.308  49.108  47.362  1.00  0.00     0.132 A 
HETATM   21  N4  UNL     1      23.523  48.906  48.669  1.00  0.00    -0.200 N 
HETATM   22  C29 UNL     1      23.474  50.067  49.334  1.00  0.00     0.675 A 
ATOM     23  H4  UNL     1      23.698  47.996  49.096  1.00  0.00     0.183 HD
HETATM   24  N6  UNL     1      23.224  51.007  48.422  1.00  0.00    -0.194 N 
ATOM     25  H6  UNL     1      23.131  52.000  48.635  1.00  0.00     0.184 HD
BRANCH  22  26
HETATM   26  N5  UNL     1      23.641  50.220  50.620  1.00  0.00    -0.234 N 
ATOM     27  H52 UNL     1      23.934  51.060  51.120  1.00  0.00     0.174 HD
ATOM     28  H51 UNL     1      23.500  49.502  51.331  1.00  0.00     0.174 HD
ENDBRANCH  22  26
ENDBRANCH  11  19
ENDBRANCH   8  11
ENDBRANCH   7   8
BRANCH   1  29
HETATM   29  C5  UNL     1      21.271  47.104  44.691  1.00  0.00     0.124 C 
BRANCH  29  30
HETATM   30  C4  UNL     1      22.173  46.029  45.020  1.00  0.00     0.033 C 
BRANCH  30  31
HETATM   31  C2  UNL     1      22.125  44.643  44.509  1.00  0.00    -0.021 C 
HETATM   32  C1  UNL     1      21.421  43.763  45.624  1.00  0.00     0.009 C 
HETATM   33  C3  UNL     1      23.492  43.953  44.411  1.00  0.00     0.009 C 
ENDBRANCH  30  31
ENDBRANCH  29  30
BRANCH  29  34
HETATM   34  N1  UNL     1      19.955  46.957  44.356  1.00  0.00    -0.387 N 
ATOM     35  H1  UNL     1      19.531  47.791  43.949  1.00  0.00     0.159 HD
BRANCH  34  36
HETATM   36  C6  UNL     1      19.102  45.890  44.468  1.00  0.00     0.136 C 
BRANCH  36  37
HETATM   37  C7  UNL     1      18.756  45.364  43.080  1.00  0.00     0.188 C 
HETATM   38  O1  UNL     1      19.556  45.491  42.187  1.00  0.00    -0.289 OA
BRANCH  37  39
HETATM   39  C8  UNL     1      17.460  44.710  42.834  1.00  0.00     0.260 C 
BRANCH  39  40
HETATM   40  O2  UNL     1      17.020  44.901  41.505  1.00  0.00    -0.340 OA
BRANCH  40  41
HETATM   41  C9  UNL     1      15.898  45.652  41.195  1.00  0.00     0.107 A 
HETATM   42  C10 UNL     1      14.606  45.248  41.472  1.00  0.00     0.040 A 
HETATM   43  C11 UNL     1      13.514  46.009  41.154  1.00  0.00     0.003 A 
HETATM   44  C12 UNL     1      13.668  47.231  40.535  1.00  0.00     0.003 A 
HETATM   45  C13 UNL     1      14.941  47.670  40.241  1.00  0.00     0.045 A 
HETATM   46  C14 UNL     1      16.024  46.891  40.568  1.00  0.00     0.149 A 
HETATM   47  F1  UNL     1      17.297  47.297  40.292  1.00  0.00    -0.203 F 
ENDBRANCH  40  41
ENDBRANCH  39  40
ENDBRANCH  37  39
ENDBRANCH  36  37
ENDBRANCH  34  36
ENDBRANCH  29  34
ENDBRANCH   1  29
TORSDOF 16
ENDMDL
