MODEL 1
REMARK VINA RESULT: -9.313169928      0.000      0.000
REMARK  14 active torsions:
REMARK  status: ('A' for Active; 'I' for Inactive)
REMARK       I    between atoms: N2_3  and  C2_5 
REMARK    1  A    between atoms: N4_7  and  C3_9 
REMARK    2  A    between atoms: C3_9  and  C4_10 
REMARK    3  A    between atoms: C4_10  and  C5_11 
REMARK    4  A    between atoms: C5_11  and  C6_12 
REMARK    5  A    between atoms: C6_12  and  C7_13 
REMARK    6  A    between atoms: C6_12  and  N5_20 
REMARK    7  A    between atoms: C7_13  and  C8_14 
REMARK    8  A    between atoms: N5_20  and  S1_22 
REMARK    9  A    between atoms: S1_22  and  N6_25 
REMARK   10  A    between atoms: N6_25  and  C14_27 
REMARK   11  A    between atoms: C14_27  and  C15_28 
REMARK   12  A    between atoms: C18_31  and  C19_32 
REMARK   13  A    between atoms: C19_32  and  N7_33 
REMARK   14  A    between atoms: N7_33  and  C20_35 
ROOT
HETATM    1  N1  UNL     1      26.750  54.478  46.336  1.00  0.00    -0.172 NA
HETATM    2  C1  UNL     1      25.604  54.431  46.161  1.00  0.00     0.184 C 
HETATM    3  N2  UNL     1      24.211  54.373  45.947  1.00  0.00    -0.268 N 
ATOM      4  H2  UNL     1      23.729  55.201  45.596  1.00  0.00     0.180 HD
HETATM    5  C2  UNL     1      23.463  53.199  46.205  1.00  0.00     0.197 C 
HETATM    6  N3  UNL     1      24.091  52.168  46.949  1.00  0.00    -0.063 NA
HETATM    7  N4  UNL     1      22.276  53.044  45.798  1.00  0.00    -0.364 N 
ATOM      8  H4  UNL     1      21.874  53.817  45.267  1.00  0.00     0.162 HD
ENDROOT
BRANCH   7   9
HETATM    9  C3  UNL     1      21.439  51.911  46.000  1.00  0.00     0.122 C 
BRANCH   9  10
HETATM   10  C4  UNL     1      21.178  51.122  44.707  1.00  0.00     0.022 C 
BRANCH  10  11
HETATM   11  C5  UNL     1      22.469  50.816  44.048  1.00  0.00     0.028 C 
BRANCH  11  12
HETATM   12  C6  UNL     1      23.103  49.503  44.375  1.00  0.00     0.099 C 
BRANCH  12  13
HETATM   13  C7  UNL     1      23.846  48.803  43.327  1.00  0.00     0.064 C 
BRANCH  13  14
HETATM   14  C8  UNL     1      23.757  47.379  43.165  1.00  0.00    -0.056 A 
HETATM   15  C9  UNL     1      24.458  46.527  43.983  1.00  0.00     0.007 A 
HETATM   16  C10 UNL     1      24.400  45.153  43.848  1.00  0.00     0.001 A 
HETATM   17  C11 UNL     1      23.633  44.585  42.882  1.00  0.00     0.000 A 
HETATM   18  C12 UNL     1      22.913  45.429  42.040  1.00  0.00     0.001 A 
HETATM   19  C13 UNL     1      22.986  46.796  42.192  1.00  0.00     0.007 A 
ENDBRANCH  13  14
ENDBRANCH  12  13
BRANCH  12  20
HETATM   20  N5  UNL     1      23.803  49.550  45.639  1.00  0.00    -0.298 N 
ATOM     21  H5  UNL     1      24.640  50.117  45.776  1.00  0.00     0.174 HD
BRANCH  20  22
HETATM   22  S1  UNL     1      23.141  48.600  46.877  1.00  0.00     0.315 S 
HETATM   23  O1  UNL     1      24.054  47.436  47.249  1.00  0.00    -0.183 OA
HETATM   24  O2  UNL     1      22.802  49.397  48.112  1.00  0.00    -0.183 OA
BRANCH  22  25
HETATM   25  N6  UNL     1      21.676  47.883  46.329  1.00  0.00    -0.299 N 
ATOM     26  H6  UNL     1      20.773  48.350  46.245  1.00  0.00     0.174 HD
BRANCH  25  27
HETATM   27  C14 UNL     1      21.953  46.500  46.008  1.00  0.00     0.172 C 
BRANCH  27  28
HETATM   28  C15 UNL     1      20.849  45.890  45.217  1.00  0.00    -0.040 A 
HETATM   29  C16 UNL     1      20.505  44.573  45.417  1.00  0.00     0.009 A 
HETATM   30  C17 UNL     1      19.490  43.946  44.716  1.00  0.00     0.009 A 
HETATM   31  C18 UNL     1      18.774  44.650  43.770  1.00  0.00    -0.041 A 
HETATM   32  C25 UNL     1      19.122  45.969  43.574  1.00  0.00     0.009 A 
HETATM   33  C26 UNL     1      20.136  46.604  44.271  1.00  0.00     0.009 A 
BRANCH  31  34
HETATM   34  C19 UNL     1      17.677  44.056  42.984  1.00  0.00     0.159 C 
BRANCH  34  35
HETATM   35  N7  UNL     1      17.610  44.713  41.709  1.00  0.00    -0.372 N 
ATOM     36  H7  UNL     1      18.369  44.569  41.043  1.00  0.00     0.161 HD
BRANCH  35  37
HETATM   37  C20 UNL     1      16.632  45.475  41.373  1.00  0.00     0.101 A 
HETATM   38  C21 UNL     1      16.819  46.624  40.665  1.00  0.00     0.050 A 
HETATM   39  C22 UNL     1      15.706  47.405  40.331  1.00  0.00     0.029 A 
HETATM   40  C23 UNL     1      14.474  46.967  40.739  1.00  0.00     0.049 A 
HETATM   41 CL1  UNL     1      13.018  47.868  40.376  1.00  0.00    -0.083 Cl
HETATM   42  C24 UNL     1      14.325  45.789  41.461  1.00  0.00     0.113 A 
HETATM   43  N8  UNL     1      15.400  45.054  41.773  1.00  0.00    -0.351 N 
ATOM     44  H8  UNL     1      15.297  44.188  42.303  1.00  0.00     0.166 HD
ENDBRANCH  35  37
ENDBRANCH  34  35
ENDBRANCH  31  34
ENDBRANCH  27  28
ENDBRANCH  25  27
ENDBRANCH  22  25
ENDBRANCH  20  22
ENDBRANCH  12  20
ENDBRANCH  11  12
ENDBRANCH  10  11
ENDBRANCH   9  10
ENDBRANCH   7   9
TORSDOF 14
ENDMDL
MODEL 2
REMARK VINA RESULT: -8.860674446      2.332      3.616
REMARK  14 active torsions:
REMARK  status: ('A' for Active; 'I' for Inactive)
REMARK       I    between atoms: N2_3  and  C2_5 
REMARK    1  A    between atoms: N4_7  and  C3_9 
REMARK    2  A    between atoms: C3_9  and  C4_10 
REMARK    3  A    between atoms: C4_10  and  C5_11 
REMARK    4  A    between atoms: C5_11  and  C6_12 
REMARK    5  A    between atoms: C6_12  and  C7_13 
REMARK    6  A    between atoms: C6_12  and  N5_20 
REMARK    7  A    between atoms: C7_13  and  C8_14 
REMARK    8  A    between atoms: N5_20  and  S1_22 
REMARK    9  A    between atoms: S1_22  and  N6_25 
REMARK   10  A    between atoms: N6_25  and  C14_27 
REMARK   11  A    between atoms: C14_27  and  C15_28 
REMARK   12  A    between atoms: C18_31  and  C19_32 
REMARK   13  A    between atoms: C19_32  and  N7_33 
REMARK   14  A    between atoms: N7_33  and  C20_35 
ROOT
HETATM    1  N1  UNL     1      25.090  56.590  45.189  1.00  0.00    -0.172 NA
HETATM    2  C1  UNL     1      24.155  55.932  45.382  1.00  0.00     0.184 C 
HETATM    3  N2  UNL     1      23.017  55.131  45.614  1.00  0.00    -0.268 N 
ATOM      4  H2  UNL     1      22.100  55.576  45.667  1.00  0.00     0.180 HD
HETATM    5  C2  UNL     1      23.111  53.727  45.777  1.00  0.00     0.197 C 
HETATM    6  N3  UNL     1      24.400  53.173  45.982  1.00  0.00    -0.063 NA
HETATM    7  N4  UNL     1      22.100  52.968  45.743  1.00  0.00    -0.364 N 
ATOM      8  H4  UNL     1      21.198  53.420  45.591  1.00  0.00     0.162 HD
ENDROOT
BRANCH   7   9
HETATM    9  C3  UNL     1      22.083  51.553  45.894  1.00  0.00     0.122 C 
BRANCH   9  10
HETATM   10  C4  UNL     1      21.978  50.810  44.552  1.00  0.00     0.022 C 
BRANCH  10  11
HETATM   11  C5  UNL     1      22.378  49.396  44.740  1.00  0.00     0.028 C 
BRANCH  11  12
HETATM   12  C6  UNL     1      23.578  49.138  45.592  1.00  0.00     0.099 C 
BRANCH  12  13
HETATM   13  C7  UNL     1      23.397  48.441  46.865  1.00  0.00     0.064 C 
BRANCH  13  14
HETATM   14  C8  UNL     1      23.397  49.147  48.115  1.00  0.00    -0.056 A 
HETATM   15  C9  UNL     1      23.741  50.475  48.179  1.00  0.00     0.007 A 
HETATM   16  C10 UNL     1      23.759  51.181  49.367  1.00  0.00     0.001 A 
HETATM   17  C11 UNL     1      23.431  50.574  50.536  1.00  0.00     0.000 A 
HETATM   18  C12 UNL     1      23.078  49.227  50.497  1.00  0.00     0.001 A 
HETATM   19  C13 UNL     1      23.068  48.543  49.302  1.00  0.00     0.007 A 
ENDBRANCH  13  14
ENDBRANCH  12  13
BRANCH  12  20
HETATM   20  N5  UNL     1      24.684  48.628  44.812  1.00  0.00    -0.298 N 
ATOM     21  H5  UNL     1      25.517  49.184  44.622  1.00  0.00     0.174 HD
BRANCH  20  22
HETATM   22  S1  UNL     1      24.503  47.044  44.236  1.00  0.00     0.315 S 
HETATM   23  O1  UNL     1      23.783  47.008  42.892  1.00  0.00    -0.183 OA
HETATM   24  O2  UNL     1      25.814  46.304  44.132  1.00  0.00    -0.183 OA
BRANCH  22  25
HETATM   25  N6  UNL     1      23.510  46.150  45.320  1.00  0.00    -0.299 N 
ATOM     26  H6  UNL     1      23.201  46.455  46.242  1.00  0.00     0.174 HD
BRANCH  25  27
HETATM   27  C14 UNL     1      23.191  44.888  44.688  1.00  0.00     0.172 C 
BRANCH  27  28
HETATM   28  C15 UNL     1      21.722  44.720  44.512  1.00  0.00    -0.040 A 
HETATM   29  C16 UNL     1      21.032  43.824  45.294  1.00  0.00     0.009 A 
HETATM   30  C17 UNL     1      19.668  43.620  45.181  1.00  0.00     0.009 A 
HETATM   31  C18 UNL     1      18.944  44.336  44.250  1.00  0.00    -0.041 A 
HETATM   32  C25 UNL     1      19.639  45.233  43.469  1.00  0.00     0.009 A 
HETATM   33  C26 UNL     1      21.003  45.442  43.576  1.00  0.00     0.009 A 
BRANCH  31  34
HETATM   34  C19 UNL     1      17.489  44.179  44.070  1.00  0.00     0.159 C 
BRANCH  34  35
HETATM   35  N7  UNL     1      17.217  43.932  42.681  1.00  0.00    -0.372 N 
ATOM     36  H7  UNL     1      17.567  43.073  42.258  1.00  0.00     0.161 HD
BRANCH  35  37
HETATM   37  C20 UNL     1      16.550  44.752  41.950  1.00  0.00     0.101 A 
HETATM   38  C21 UNL     1      17.156  45.734  41.227  1.00  0.00     0.050 A 
HETATM   39  C22 UNL     1      16.366  46.591  40.449  1.00  0.00     0.029 A 
HETATM   40  C23 UNL     1      15.011  46.392  40.458  1.00  0.00     0.049 A 
HETATM   41 CL1  UNL     1      13.933  47.406  39.523  1.00  0.00    -0.083 Cl
HETATM   42  C24 UNL     1      14.431  45.378  41.211  1.00  0.00     0.113 A 
HETATM   43  N8  UNL     1      15.200  44.568  41.949  1.00  0.00    -0.351 N 
ATOM     44  H8  UNL     1      14.780  43.823  42.504  1.00  0.00     0.166 HD
ENDBRANCH  35  37
ENDBRANCH  34  35
ENDBRANCH  31  34
ENDBRANCH  27  28
ENDBRANCH  25  27
ENDBRANCH  22  25
ENDBRANCH  20  22
ENDBRANCH  12  20
ENDBRANCH  11  12
ENDBRANCH  10  11
ENDBRANCH   9  10
ENDBRANCH   7   9
TORSDOF 14
ENDMDL
MODEL 3
REMARK VINA RESULT: -8.812409754      3.003      5.582
REMARK  14 active torsions:
REMARK  status: ('A' for Active; 'I' for Inactive)
REMARK       I    between atoms: N2_3  and  C2_5 
REMARK    1  A    between atoms: N4_7  and  C3_9 
REMARK    2  A    between atoms: C3_9  and  C4_10 
REMARK    3  A    between atoms: C4_10  and  C5_11 
REMARK    4  A    between atoms: C5_11  and  C6_12 
REMARK    5  A    between atoms: C6_12  and  C7_13 
REMARK    6  A    between atoms: C6_12  and  N5_20 
REMARK    7  A    between atoms: C7_13  and  C8_14 
REMARK    8  A    between atoms: N5_20  and  S1_22 
REMARK    9  A    between atoms: S1_22  and  N6_25 
REMARK   10  A    between atoms: N6_25  and  C14_27 
REMARK   11  A    between atoms: C14_27  and  C15_28 
REMARK   12  A    between atoms: C18_31  and  C19_32 
REMARK   13  A    between atoms: C19_32  and  N7_33 
REMARK   14  A    between atoms: N7_33  and  C20_35 
ROOT
HETATM    1  N1  UNL     1      22.944  45.729  35.101  1.00  0.00    -0.172 NA
HETATM    2  C1  UNL     1      23.466  45.763  36.136  1.00  0.00     0.184 C 
HETATM    3  N2  UNL     1      24.100  45.807  37.396  1.00  0.00    -0.268 N 
ATOM      4  H2  UNL     1      25.071  46.114  37.451  1.00  0.00     0.180 HD
HETATM    5  C2  UNL     1      23.427  45.436  38.585  1.00  0.00     0.197 C 
HETATM    6  N3  UNL     1      22.192  44.751  38.456  1.00  0.00    -0.063 NA
HETATM    7  N4  UNL     1      23.884  45.693  39.735  1.00  0.00    -0.364 N 
ATOM      8  H4  UNL     1      24.776  46.188  39.769  1.00  0.00     0.162 HD
ENDROOT
BRANCH   7   9
HETATM    9  C3  UNL     1      23.292  45.367  40.988  1.00  0.00     0.122 C 
BRANCH   9  10
HETATM   10  C4  UNL     1      23.110  46.592  41.900  1.00  0.00     0.022 C 
BRANCH  10  11
HETATM   11  C5  UNL     1      24.319  46.764  42.740  1.00  0.00     0.028 C 
BRANCH  11  12
HETATM   12  C6  UNL     1      24.223  46.324  44.164  1.00  0.00     0.099 C 
BRANCH  12  13
HETATM   13  C7  UNL     1      24.528  44.931  44.490  1.00  0.00     0.064 C 
BRANCH  13  14
HETATM   14  C8  UNL     1      23.549  44.066  45.086  1.00  0.00    -0.056 A 
HETATM   15  C9  UNL     1      23.854  43.303  46.186  1.00  0.00     0.007 A 
HETATM   16  C10 UNL     1      22.937  42.455  46.778  1.00  0.00     0.001 A 
HETATM   17  C11 UNL     1      21.678  42.344  46.283  1.00  0.00     0.000 A 
HETATM   18  C12 UNL     1      21.345  43.108  45.167  1.00  0.00     0.001 A 
HETATM   19  C13 UNL     1      22.275  43.946  44.592  1.00  0.00     0.007 A 
ENDBRANCH  13  14
ENDBRANCH  12  13
BRANCH  12  20
HETATM   20  N5  UNL     1      24.852  47.271  45.057  1.00  0.00    -0.298 N 
ATOM     21  H5  UNL     1      25.865  47.376  45.112  1.00  0.00     0.174 HD
BRANCH  20  22
HETATM   22  S1  UNL     1      23.794  48.195  46.007  1.00  0.00     0.315 S 
HETATM   23  O1  UNL     1      24.343  48.420  47.412  1.00  0.00    -0.183 OA
HETATM   24  O2  UNL     1      23.446  49.521  45.377  1.00  0.00    -0.183 OA
BRANCH  22  25
HETATM   25  N6  UNL     1      22.316  47.339  46.216  1.00  0.00    -0.299 N 
ATOM     26  H6  UNL     1      22.168  46.538  46.829  1.00  0.00     0.174 HD
BRANCH  25  27
HETATM   27  C14 UNL     1      21.322  47.959  45.368  1.00  0.00     0.172 C 
BRANCH  27  28
HETATM   28  C15 UNL     1      20.392  46.951  44.789  1.00  0.00    -0.040 A 
HETATM   29  C16 UNL     1      20.356  46.747  43.429  1.00  0.00     0.009 A 
HETATM   30  C17 UNL     1      19.516  45.826  42.828  1.00  0.00     0.009 A 
HETATM   31  C18 UNL     1      18.666  45.066  43.604  1.00  0.00    -0.041 A 
HETATM   32  C25 UNL     1      18.705  45.273  44.965  1.00  0.00     0.009 A 
HETATM   33  C26 UNL     1      19.543  46.192  45.575  1.00  0.00     0.009 A 
BRANCH  31  34
HETATM   34  C19 UNL     1      17.743  44.063  43.040  1.00  0.00     0.159 C 
BRANCH  34  35
HETATM   35  N7  UNL     1      17.455  44.412  41.677  1.00  0.00    -0.372 N 
ATOM     36  H7  UNL     1      18.016  43.993  40.936  1.00  0.00     0.161 HD
BRANCH  35  37
HETATM   37  C20 UNL     1      16.518  45.229  41.354  1.00  0.00     0.101 A 
HETATM   38  C21 UNL     1      16.745  46.315  40.564  1.00  0.00     0.050 A 
HETATM   39  C22 UNL     1      15.674  47.163  40.250  1.00  0.00     0.029 A 
HETATM   40  C23 UNL     1      14.443  46.850  40.761  1.00  0.00     0.049 A 
HETATM   41 CL1  UNL     1      13.039  47.843  40.432  1.00  0.00    -0.083 Cl
HETATM   42  C24 UNL     1      14.252  45.733  41.565  1.00  0.00     0.113 A 
HETATM   43  N8  UNL     1      15.286  44.933  41.856  1.00  0.00    -0.351 N 
ATOM     44  H8  UNL     1      15.153  44.112  42.445  1.00  0.00     0.166 HD
ENDBRANCH  35  37
ENDBRANCH  34  35
ENDBRANCH  31  34
ENDBRANCH  27  28
ENDBRANCH  25  27
ENDBRANCH  22  25
ENDBRANCH  20  22
ENDBRANCH  12  20
ENDBRANCH  11  12
ENDBRANCH  10  11
ENDBRANCH   9  10
ENDBRANCH   7   9
TORSDOF 14
ENDMDL
MODEL 4
REMARK VINA RESULT: -8.734504471      2.526      3.917
REMARK  14 active torsions:
REMARK  status: ('A' for Active; 'I' for Inactive)
REMARK       I    between atoms: N2_3  and  C2_5 
REMARK    1  A    between atoms: N4_7  and  C3_9 
REMARK    2  A    between atoms: C3_9  and  C4_10 
REMARK    3  A    between atoms: C4_10  and  C5_11 
REMARK    4  A    between atoms: C5_11  and  C6_12 
REMARK    5  A    between atoms: C6_12  and  C7_13 
REMARK    6  A    between atoms: C6_12  and  N5_20 
REMARK    7  A    between atoms: C7_13  and  C8_14 
REMARK    8  A    between atoms: N5_20  and  S1_22 
REMARK    9  A    between atoms: S1_22  and  N6_25 
REMARK   10  A    between atoms: N6_25  and  C14_27 
REMARK   11  A    between atoms: C14_27  and  C15_28 
REMARK   12  A    between atoms: C18_31  and  C19_32 
REMARK   13  A    between atoms: C19_32  and  N7_33 
REMARK   14  A    between atoms: N7_33  and  C20_35 
ROOT
HETATM    1  N1  UNL     1      28.180  55.159  46.280  1.00  0.00    -0.172 NA
HETATM    2  C1  UNL     1      27.050  55.181  46.022  1.00  0.00     0.184 C 
HETATM    3  N2  UNL     1      25.675  55.206  45.707  1.00  0.00    -0.268 N 
ATOM      4  H2  UNL     1      25.308  55.977  45.149  1.00  0.00     0.180 HD
HETATM    5  C2  UNL     1      24.789  54.190  46.143  1.00  0.00     0.197 C 
HETATM    6  N3  UNL     1      25.253  53.295  47.140  1.00  0.00    -0.063 NA
HETATM    7  N4  UNL     1      23.620  54.060  45.679  1.00  0.00    -0.364 N 
ATOM      8  H4  UNL     1      23.339  54.731  44.963  1.00  0.00     0.162 HD
ENDROOT
BRANCH   7   9
HETATM    9  C3  UNL     1      22.654  53.081  46.044  1.00  0.00     0.122 C 
BRANCH   9  10
HETATM   10  C4  UNL     1      23.088  51.650  45.687  1.00  0.00     0.022 C 
BRANCH  10  11
HETATM   11  C5  UNL     1      22.617  50.716  46.737  1.00  0.00     0.028 C 
BRANCH  11  12
HETATM   12  C6  UNL     1      23.219  49.349  46.748  1.00  0.00     0.099 C 
BRANCH  12  13
HETATM   13  C7  UNL     1      23.312  48.635  48.022  1.00  0.00     0.064 C 
BRANCH  13  14
HETATM   14  C8  UNL     1      23.342  49.334  49.276  1.00  0.00    -0.056 A 
HETATM   15  C9  UNL     1      23.930  50.570  49.383  1.00  0.00     0.007 A 
HETATM   16  C10 UNL     1      23.983  51.266  50.577  1.00  0.00     0.001 A 
HETATM   17  C11 UNL     1      23.446  50.740  51.707  1.00  0.00     0.000 A 
HETATM   18  C12 UNL     1      22.844  49.486  51.623  1.00  0.00     0.001 A 
HETATM   19  C13 UNL     1      22.802  48.811  50.423  1.00  0.00     0.007 A 
ENDBRANCH  13  14
ENDBRANCH  12  13
BRANCH  12  20
HETATM   20  N5  UNL     1      22.706  48.533  45.671  1.00  0.00    -0.298 N 
ATOM     21  H5  UNL     1      21.710  48.349  45.554  1.00  0.00     0.174 HD
BRANCH  20  22
HETATM   22  S1  UNL     1      23.872  47.901  44.614  1.00  0.00     0.315 S 
HETATM   23  O1  UNL     1      24.076  48.795  43.395  1.00  0.00    -0.183 OA
HETATM   24  O2  UNL     1      25.198  47.646  45.287  1.00  0.00    -0.183 OA
BRANCH  22  25
HETATM   25  N6  UNL     1      23.327  46.391  43.995  1.00  0.00    -0.299 N 
ATOM     26  H6  UNL     1      23.530  46.012  43.070  1.00  0.00     0.174 HD
BRANCH  25  27
HETATM   27  C14 UNL     1      22.529  45.755  45.020  1.00  0.00     0.172 C 
BRANCH  27  28
HETATM   28  C15 UNL     1      21.186  45.367  44.507  1.00  0.00    -0.040 A 
HETATM   29  C16 UNL     1      20.540  44.271  45.029  1.00  0.00     0.009 A 
HETATM   30  C17 UNL     1      19.292  43.857  44.597  1.00  0.00     0.009 A 
HETATM   31  C18 UNL     1      18.645  44.558  43.599  1.00  0.00    -0.041 A 
HETATM   32  C25 UNL     1      19.296  45.655  43.080  1.00  0.00     0.009 A 
HETATM   33  C26 UNL     1      20.545  46.075  43.506  1.00  0.00     0.009 A 
BRANCH  31  34
HETATM   34  C19 UNL     1      17.315  44.183  43.086  1.00  0.00     0.159 C 
BRANCH  34  35
HETATM   35  N7  UNL     1      17.196  44.637  41.728  1.00  0.00    -0.372 N 
ATOM     36  H7  UNL     1      17.874  44.309  41.041  1.00  0.00     0.161 HD
BRANCH  35  37
HETATM   37  C20 UNL     1      16.268  45.439  41.345  1.00  0.00     0.101 A 
HETATM   38  C21 UNL     1      16.538  46.577  40.646  1.00  0.00     0.050 A 
HETATM   39  C22 UNL     1      15.476  47.404  40.259  1.00  0.00     0.029 A 
HETATM   40  C23 UNL     1      14.209  47.020  40.608  1.00  0.00     0.049 A 
HETATM   41 CL1  UNL     1      12.811  47.981  40.174  1.00  0.00    -0.083 Cl
HETATM   42  C24 UNL     1      13.975  45.852  41.323  1.00  0.00     0.113 A 
HETATM   43  N8  UNL     1      15.001  45.072  41.686  1.00  0.00    -0.351 N 
ATOM     44  H8  UNL     1      14.836  44.213  42.211  1.00  0.00     0.166 HD
ENDBRANCH  35  37
ENDBRANCH  34  35
ENDBRANCH  31  34
ENDBRANCH  27  28
ENDBRANCH  25  27
ENDBRANCH  22  25
ENDBRANCH  20  22
ENDBRANCH  12  20
ENDBRANCH  11  12
ENDBRANCH  10  11
ENDBRANCH   9  10
ENDBRANCH   7   9
TORSDOF 14
ENDMDL
MODEL 5
REMARK VINA RESULT: -8.647091227      3.504      6.143
REMARK  14 active torsions:
REMARK  status: ('A' for Active; 'I' for Inactive)
REMARK       I    between atoms: N2_3  and  C2_5 
REMARK    1  A    between atoms: N4_7  and  C3_9 
REMARK    2  A    between atoms: C3_9  and  C4_10 
REMARK    3  A    between atoms: C4_10  and  C5_11 
REMARK    4  A    between atoms: C5_11  and  C6_12 
REMARK    5  A    between atoms: C6_12  and  C7_13 
REMARK    6  A    between atoms: C6_12  and  N5_20 
REMARK    7  A    between atoms: C7_13  and  C8_14 
REMARK    8  A    between atoms: N5_20  and  S1_22 
REMARK    9  A    between atoms: S1_22  and  N6_25 
REMARK   10  A    between atoms: N6_25  and  C14_27 
REMARK   11  A    between atoms: C14_27  and  C15_28 
REMARK   12  A    between atoms: C18_31  and  C19_32 
REMARK   13  A    between atoms: C19_32  and  N7_33 
REMARK   14  A    between atoms: N7_33  and  C20_35 
ROOT
HETATM    1  N1  UNL     1      23.661  45.731  34.545  1.00  0.00    -0.172 NA
HETATM    2  C1  UNL     1      24.023  45.590  35.638  1.00  0.00     0.184 C 
HETATM    3  N2  UNL     1      24.462  45.423  36.968  1.00  0.00    -0.268 N 
ATOM      4  H2  UNL     1      25.463  45.371  37.156  1.00  0.00     0.180 HD
HETATM    5  C2  UNL     1      23.552  45.324  38.049  1.00  0.00     0.197 C 
HETATM    6  N3  UNL     1      22.184  45.114  37.742  1.00  0.00    -0.063 NA
HETATM    7  N4  UNL     1      23.917  45.417  39.256  1.00  0.00    -0.364 N 
ATOM      8  H4  UNL     1      24.912  45.569  39.420  1.00  0.00     0.162 HD
ENDROOT
BRANCH   7   9
HETATM    9  C3  UNL     1      23.090  45.333  40.412  1.00  0.00     0.122 C 
BRANCH   9  10
HETATM   10  C4  UNL     1      23.590  46.213  41.570  1.00  0.00     0.022 C 
BRANCH  10  11
HETATM   11  C5  UNL     1      23.433  45.479  42.848  1.00  0.00     0.028 C 
BRANCH  11  12
HETATM   12  C6  UNL     1      24.256  45.948  44.004  1.00  0.00     0.099 C 
BRANCH  12  13
HETATM   13  C7  UNL     1      24.698  47.343  44.030  1.00  0.00     0.064 C 
BRANCH  13  14
HETATM   14  C8  UNL     1      23.843  48.393  44.507  1.00  0.00    -0.056 A 
HETATM   15  C9  UNL     1      22.985  49.049  43.659  1.00  0.00     0.007 A 
HETATM   16  C10 UNL     1      22.156  50.069  44.084  1.00  0.00     0.001 A 
HETATM   17  C11 UNL     1      22.161  50.468  45.382  1.00  0.00     0.000 A 
HETATM   18  C12 UNL     1      23.024  49.819  46.262  1.00  0.00     0.001 A 
HETATM   19  C13 UNL     1      23.842  48.804  45.816  1.00  0.00     0.007 A 
ENDBRANCH  13  14
ENDBRANCH  12  13
BRANCH  12  20
HETATM   20  N5  UNL     1      23.708  45.498  45.264  1.00  0.00    -0.298 N 
ATOM     21  H5  UNL     1      23.509  46.141  46.031  1.00  0.00     0.174 HD
BRANCH  20  22
HETATM   22  S1  UNL     1      23.417  43.832  45.382  1.00  0.00     0.315 S 
HETATM   23  O1  UNL     1      23.820  43.095  44.109  1.00  0.00    -0.183 OA
HETATM   24  O2  UNL     1      24.094  43.201  46.573  1.00  0.00    -0.183 OA
BRANCH  22  25
HETATM   25  N6  UNL     1      21.728  43.556  45.563  1.00  0.00    -0.299 N 
ATOM     26  H6  UNL     1      21.277  42.650  45.683  1.00  0.00     0.174 HD
BRANCH  25  27
HETATM   27  C14 UNL     1      21.063  44.840  45.515  1.00  0.00     0.172 C 
BRANCH  27  28
HETATM   28  C15 UNL     1      19.927  44.832  44.552  1.00  0.00    -0.040 A 
HETATM   29  C16 UNL     1      18.862  43.985  44.751  1.00  0.00     0.009 A 
HETATM   30  C17 UNL     1      17.775  43.928  43.895  1.00  0.00     0.009 A 
HETATM   31  C18 UNL     1      17.734  44.748  42.786  1.00  0.00    -0.041 A 
HETATM   32  C25 UNL     1      18.803  45.595  42.591  1.00  0.00     0.009 A 
HETATM   33  C26 UNL     1      19.893  45.658  43.443  1.00  0.00     0.009 A 
BRANCH  31  34
HETATM   34  C19 UNL     1      16.613  44.749  41.828  1.00  0.00     0.159 C 
BRANCH  34  35
HETATM   35  N7  UNL     1      15.699  45.798  42.185  1.00  0.00    -0.372 N 
ATOM     36  H7  UNL     1      15.623  46.070  43.165  1.00  0.00     0.161 HD
BRANCH  35  37
HETATM   37  C20 UNL     1      14.972  46.407  41.319  1.00  0.00     0.101 A 
HETATM   38  C21 UNL     1      15.486  47.342  40.471  1.00  0.00     0.050 A 
HETATM   39  C22 UNL     1      14.634  47.966  39.549  1.00  0.00     0.029 A 
HETATM   40  C23 UNL     1      13.316  47.597  39.550  1.00  0.00     0.049 A 
HETATM   41 CL1  UNL     1      12.167  48.314  38.440  1.00  0.00    -0.083 Cl
HETATM   42  C24 UNL     1      12.829  46.639  40.432  1.00  0.00     0.113 A 
HETATM   43  N8  UNL     1      13.656  46.053  41.307  1.00  0.00    -0.351 N 
ATOM     44  H8  UNL     1      13.305  45.350  41.956  1.00  0.00     0.166 HD
ENDBRANCH  35  37
ENDBRANCH  34  35
ENDBRANCH  31  34
ENDBRANCH  27  28
ENDBRANCH  25  27
ENDBRANCH  22  25
ENDBRANCH  20  22
ENDBRANCH  12  20
ENDBRANCH  11  12
ENDBRANCH  10  11
ENDBRANCH   9  10
ENDBRANCH   7   9
TORSDOF 14
ENDMDL
