MODEL 1
REMARK VINA RESULT: -8.376700271      0.000      0.000
REMARK  17 active torsions:
REMARK  status: ('A' for Active; 'I' for Inactive)
REMARK    1  A    between atoms: N2_7  and  C4_9 
REMARK    2  A    between atoms: C4_9  and  C5_10 
REMARK    3  A    between atoms: C4_9  and  C18_31 
REMARK    4  A    between atoms: C5_10  and  C6_11 
REMARK    5  A    between atoms: C6_11  and  C7_12 
REMARK    6  A    between atoms: C7_12  and  N3_13 
REMARK       I    between atoms: C8_15  and  N5_17 
REMARK    7  A    between atoms: N5_17  and  C9_19 
REMARK    8  A    between atoms: C9_19  and  C12_22 
REMARK    9  A    between atoms: C12_22  and  O2_23 
REMARK   10  A    between atoms: C12_22  and  N6_25 
REMARK   11  A    between atoms: N6_25  and  C14_27 
REMARK   12  A    between atoms: C14_27  and  C15_28 
REMARK       I    between atoms: C18_31  and  N7_33 
REMARK   13  A    between atoms: N7_33  and  C19_34 
REMARK   14  A    between atoms: C19_34  and  C20_35 
REMARK   15  A    between atoms: C19_34  and  C24_39 
REMARK   16  A    between atoms: C20_35  and  C21_36 
REMARK   17  A    between atoms: C24_39  and  O4_40 
ROOT
HETATM    1  C4  UNL     1      17.883  45.147  43.495  1.00  0.00     0.190 C 
ENDROOT
BRANCH   1   2
HETATM    2  N2  UNL     1      16.751  44.863  42.816  1.00  0.00    -0.360 N 
HETATM    3  C3  UNL     1      15.920  45.115  41.934  1.00  0.00     0.130 A 
HETATM    4  N1  UNL     1      14.805  44.323  41.672  1.00  0.00    -0.245 N 
HETATM    5  C25 UNL     1      15.844  46.188  41.078  1.00  0.00     0.015 A 
HETATM    6  O1  UNL     1      14.148  44.894  40.740  1.00  0.00    -0.240 OA
ATOM      7  H1  UNL     1      14.560  43.451  42.139  1.00  0.00     0.196 HD
HETATM    8  C2  UNL     1      14.690  46.003  40.329  1.00  0.00     0.082 A 
HETATM    9  C1  UNL     1      14.124  46.869  39.242  1.00  0.00     0.079 C 
HETATM   10  C26 UNL     1      16.703  47.389  40.920  1.00  0.00     0.055 C 
ATOM     11  H2  UNL     1      16.404  44.008  43.251  1.00  0.00     0.162 HD
ENDBRANCH   1   2
BRANCH   1  12
HETATM   12  C5  UNL     1      19.064  45.281  42.560  1.00  0.00     0.037 C 
BRANCH  12  13
HETATM   13  C6  UNL     1      20.036  46.350  42.798  1.00  0.00     0.022 C 
BRANCH  13  14
HETATM   14  C7  UNL     1      19.383  47.589  43.422  1.00  0.00     0.122 C 
BRANCH  14  15
HETATM   15  N3  UNL     1      20.401  48.277  44.173  1.00  0.00    -0.365 N 
HETATM   16  C8  UNL     1      20.779  48.028  45.365  1.00  0.00     0.185 C 
HETATM   17  N4  UNL     1      20.217  46.986  46.140  1.00  0.00    -0.064 NA
HETATM   18  N5  UNL     1      21.757  48.842  46.006  1.00  0.00    -0.349 N 
ATOM     19  H5  UNL     1      21.399  49.644  46.524  1.00  0.00     0.163 HD
ATOM     20  H3  UNL     1      20.872  49.048  43.700  1.00  0.00     0.162 HD
BRANCH  18  21
HETATM   21  C9  UNL     1      23.187  48.677  46.017  1.00  0.00     0.090 C 
HETATM   22  C10 UNL     1      23.506  47.332  45.313  1.00  0.00     0.047 C 
HETATM   23  C11 UNL     1      23.731  49.760  45.072  1.00  0.00     0.047 C 
BRANCH  21  24
HETATM   24  C12 UNL     1      23.813  48.658  47.331  1.00  0.00     0.141 C 
BRANCH  24  25
HETATM   25  O2  UNL     1      24.665  47.664  47.535  1.00  0.00    -0.348 OA
ATOM     26  H2  UNL     1      24.424  46.835  47.138  1.00  0.00     0.219 HD
ENDBRANCH  24  25
BRANCH  24  27
HETATM   27  N6  UNL     1      23.688  49.496  48.451  1.00  0.00    -0.367 N 
HETATM   28  C13 UNL     1      23.356  50.910  48.132  1.00  0.00     0.151 C 
BRANCH  27  29
HETATM   29  C14 UNL     1      23.869  49.197  49.842  1.00  0.00     0.128 C 
BRANCH  29  30
HETATM   30  C15 UNL     1      22.947  49.882  50.801  1.00  0.00    -0.005 C 
HETATM   31  C16 UNL     1      23.683  50.877  51.695  1.00  0.00     0.011 C 
HETATM   32  C17 UNL     1      22.353  48.811  51.725  1.00  0.00     0.011 C 
ENDBRANCH  29  30
ENDBRANCH  27  29
ENDBRANCH  24  27
ENDBRANCH  21  24
ENDBRANCH  18  21
ENDBRANCH  14  15
ENDBRANCH  13  14
ENDBRANCH  12  13
ENDBRANCH   1  12
BRANCH   1  33
HETATM   33  C18 UNL     1      18.311  43.899  44.348  1.00  0.00     0.314 C 
HETATM   34  O3  UNL     1      17.305  43.170  44.582  1.00  0.00    -0.255 OA
HETATM   35  N7  UNL     1      19.571  43.699  44.743  1.00  0.00    -0.374 NA
BRANCH  35  36
HETATM   36  C19 UNL     1      20.886  43.486  45.156  1.00  0.00     0.110 C 
BRANCH  36  37
HETATM   37  C20 UNL     1      21.962  44.458  44.799  1.00  0.00     0.076 C 
BRANCH  37  38
HETATM   38  C21 UNL     1      22.976  44.074  43.781  1.00  0.00    -0.016 C 
HETATM   39  C22 UNL     1      23.280  45.053  42.706  1.00  0.00     0.010 C 
HETATM   40  C23 UNL     1      24.312  43.969  44.596  1.00  0.00     0.010 C 
ENDBRANCH  37  38
ENDBRANCH  36  37
BRANCH  36  41
HETATM   41  C24 UNL     1      21.045  42.762  46.450  1.00  0.00     0.274 C 
HETATM   42 CL1  UNL     1      22.719  42.347  46.825  1.00  0.00    -0.088 Cl
BRANCH  41  43
HETATM   43  O4  UNL     1      20.499  43.435  47.532  1.00  0.00    -0.374 OA
ATOM     44  H4  UNL     1      20.307  42.871  48.272  1.00  0.00     0.212 HD
ENDBRANCH  41  43
ENDBRANCH  36  41
ENDBRANCH  35  36
ENDBRANCH   1  33
TORSDOF 17
ENDMDL
MODEL 2
REMARK VINA RESULT: -8.362123360      1.976      5.834
REMARK  17 active torsions:
REMARK  status: ('A' for Active; 'I' for Inactive)
REMARK    1  A    between atoms: N2_7  and  C4_9 
REMARK    2  A    between atoms: C4_9  and  C5_10 
REMARK    3  A    between atoms: C4_9  and  C18_31 
REMARK    4  A    between atoms: C5_10  and  C6_11 
REMARK    5  A    between atoms: C6_11  and  C7_12 
REMARK    6  A    between atoms: C7_12  and  N3_13 
REMARK       I    between atoms: C8_15  and  N5_17 
REMARK    7  A    between atoms: N5_17  and  C9_19 
REMARK    8  A    between atoms: C9_19  and  C12_22 
REMARK    9  A    between atoms: C12_22  and  O2_23 
REMARK   10  A    between atoms: C12_22  and  N6_25 
REMARK   11  A    between atoms: N6_25  and  C14_27 
REMARK   12  A    between atoms: C14_27  and  C15_28 
REMARK       I    between atoms: C18_31  and  N7_33 
REMARK   13  A    between atoms: N7_33  and  C19_34 
REMARK   14  A    between atoms: C19_34  and  C20_35 
REMARK   15  A    between atoms: C19_34  and  C24_39 
REMARK   16  A    between atoms: C20_35  and  C21_36 
REMARK   17  A    between atoms: C24_39  and  O4_40 
ROOT
HETATM    1  C4  UNL     1      18.812  44.351  43.579  1.00  0.00     0.190 C 
ENDROOT
BRANCH   1   2
HETATM    2  N2  UNL     1      19.418  43.793  44.650  1.00  0.00    -0.360 N 
HETATM    3  C3  UNL     1      20.430  43.526  45.309  1.00  0.00     0.130 A 
HETATM    4  N1  UNL     1      20.407  42.831  46.516  1.00  0.00    -0.245 N 
HETATM    5  C25 UNL     1      21.753  43.770  45.027  1.00  0.00     0.015 A 
HETATM    6  O1  UNL     1      21.618  42.693  46.895  1.00  0.00    -0.240 OA
ATOM      7  H1  UNL     1      19.578  42.495  47.005  1.00  0.00     0.196 HD
HETATM    8  C2  UNL     1      22.480  43.218  46.074  1.00  0.00     0.082 A 
HETATM    9  C1  UNL     1      23.966  43.199  46.281  1.00  0.00     0.079 C 
HETATM   10  C26 UNL     1      22.412  44.415  43.864  1.00  0.00     0.055 C 
ATOM     11  H2  UNL     1      18.653  43.387  45.189  1.00  0.00     0.162 HD
ENDBRANCH   1   2
BRANCH   1  12
HETATM   12  C5  UNL     1      18.680  45.849  43.742  1.00  0.00     0.037 C 
BRANCH  12  13
HETATM   13  C6  UNL     1      19.517  46.725  42.920  1.00  0.00     0.022 C 
BRANCH  13  14
HETATM   14  C7  UNL     1      20.980  46.715  43.380  1.00  0.00     0.122 C 
BRANCH  14  15
HETATM   15  N3  UNL     1      21.232  47.976  44.030  1.00  0.00    -0.365 N 
HETATM   16  C8  UNL     1      21.542  48.163  45.251  1.00  0.00     0.185 C 
HETATM   17  N4  UNL     1      21.690  47.098  46.171  1.00  0.00    -0.064 NA
HETATM   18  N5  UNL     1      21.696  49.480  45.773  1.00  0.00    -0.349 N 
ATOM     19  H5  UNL     1      20.852  49.910  46.153  1.00  0.00     0.163 HD
ATOM     20  H3  UNL     1      21.154  48.810  43.449  1.00  0.00     0.162 HD
BRANCH  18  21
HETATM   21  C9  UNL     1      22.889  50.283  45.832  1.00  0.00     0.090 C 
HETATM   22  C10 UNL     1      23.993  49.534  45.040  1.00  0.00     0.047 C 
HETATM   23  C11 UNL     1      22.582  51.537  44.999  1.00  0.00     0.047 C 
BRANCH  21  24
HETATM   24  C12 UNL     1      23.401  50.560  47.167  1.00  0.00     0.141 C 
BRANCH  24  25
HETATM   25  O2  UNL     1      24.046  51.709  47.297  1.00  0.00    -0.348 OA
ATOM     26  H2  UNL     1      24.434  51.861  48.151  1.00  0.00     0.219 HD
ENDBRANCH  24  25
BRANCH  24  27
HETATM   27  N6  UNL     1      23.351  49.834  48.368  1.00  0.00    -0.367 N 
HETATM   28  C13 UNL     1      24.002  48.498  48.313  1.00  0.00     0.151 C 
BRANCH  27  29
HETATM   29  C14 UNL     1      22.736  50.175  49.618  1.00  0.00     0.128 C 
BRANCH  29  30
HETATM   30  C15 UNL     1      23.414  49.680  50.857  1.00  0.00    -0.005 C 
HETATM   31  C16 UNL     1      22.470  48.875  51.746  1.00  0.00     0.011 C 
HETATM   32  C17 UNL     1      23.852  50.905  51.672  1.00  0.00     0.011 C 
ENDBRANCH  29  30
ENDBRANCH  27  29
ENDBRANCH  24  27
ENDBRANCH  21  24
ENDBRANCH  18  21
ENDBRANCH  14  15
ENDBRANCH  13  14
ENDBRANCH  12  13
ENDBRANCH   1  12
BRANCH   1  33
HETATM   33  C18 UNL     1      17.303  43.915  43.543  1.00  0.00     0.314 C 
HETATM   34  O3  UNL     1      17.054  43.140  44.511  1.00  0.00    -0.255 OA
HETATM   35  N7  UNL     1      16.459  44.333  42.597  1.00  0.00    -0.374 NA
BRANCH  35  36
HETATM   36  C19 UNL     1      15.575  44.769  41.611  1.00  0.00     0.110 C 
BRANCH  36  37
HETATM   37  C20 UNL     1      14.904  46.098  41.723  1.00  0.00     0.076 C 
BRANCH  37  38
HETATM   38  C21 UNL     1      14.565  46.845  40.482  1.00  0.00    -0.016 C 
HETATM   39  C22 UNL     1      13.342  47.690  40.496  1.00  0.00     0.010 C 
HETATM   40  C23 UNL     1      15.740  47.871  40.323  1.00  0.00     0.010 C 
ENDBRANCH  37  38
ENDBRANCH  36  37
BRANCH  36  41
HETATM   41  C24 UNL     1      15.859  44.281  40.230  1.00  0.00     0.274 C 
HETATM   42 CL1  UNL     1      17.558  44.417  39.770  1.00  0.00    -0.088 Cl
BRANCH  41  43
HETATM   43  O4  UNL     1      15.437  42.980  40.005  1.00  0.00    -0.374 OA
ATOM     44  H4  UNL     1      16.129  42.403  39.704  1.00  0.00     0.212 HD
ENDBRANCH  41  43
ENDBRANCH  36  41
ENDBRANCH  35  36
ENDBRANCH   1  33
TORSDOF 17
ENDMDL
MODEL 3
REMARK VINA RESULT: -8.251965107      2.472      6.093
REMARK  17 active torsions:
REMARK  status: ('A' for Active; 'I' for Inactive)
REMARK    1  A    between atoms: N2_7  and  C4_9 
REMARK    2  A    between atoms: C4_9  and  C5_10 
REMARK    3  A    between atoms: C4_9  and  C18_31 
REMARK    4  A    between atoms: C5_10  and  C6_11 
REMARK    5  A    between atoms: C6_11  and  C7_12 
REMARK    6  A    between atoms: C7_12  and  N3_13 
REMARK       I    between atoms: C8_15  and  N5_17 
REMARK    7  A    between atoms: N5_17  and  C9_19 
REMARK    8  A    between atoms: C9_19  and  C12_22 
REMARK    9  A    between atoms: C12_22  and  O2_23 
REMARK   10  A    between atoms: C12_22  and  N6_25 
REMARK   11  A    between atoms: N6_25  and  C14_27 
REMARK   12  A    between atoms: C14_27  and  C15_28 
REMARK       I    between atoms: C18_31  and  N7_33 
REMARK   13  A    between atoms: N7_33  and  C19_34 
REMARK   14  A    between atoms: C19_34  and  C20_35 
REMARK   15  A    between atoms: C19_34  and  C24_39 
REMARK   16  A    between atoms: C20_35  and  C21_36 
REMARK   17  A    between atoms: C24_39  and  O4_40 
ROOT
HETATM    1  C4  UNL     1      20.405  45.041  43.216  1.00  0.00     0.190 C 
ENDROOT
BRANCH   1   2
HETATM    2  N2  UNL     1      20.372  44.457  44.434  1.00  0.00    -0.360 N 
HETATM    3  C3  UNL     1      20.927  43.887  45.382  1.00  0.00     0.130 A 
HETATM    4  N1  UNL     1      20.262  43.478  46.534  1.00  0.00    -0.245 N 
HETATM    5  C25 UNL     1      22.233  43.484  45.522  1.00  0.00     0.015 A 
HETATM    6  O1  UNL     1      21.120  42.891  47.276  1.00  0.00    -0.240 OA
ATOM      7  H1  UNL     1      19.275  43.619  46.746  1.00  0.00     0.196 HD
HETATM    8  C2  UNL     1      22.311  42.849  46.755  1.00  0.00     0.082 A 
HETATM    9  C1  UNL     1      23.502  42.221  47.417  1.00  0.00     0.079 C 
HETATM   10  C26 UNL     1      23.401  43.581  44.610  1.00  0.00     0.055 C 
ATOM     11  H2  UNL     1      19.393  44.516  44.715  1.00  0.00     0.162 HD
ENDBRANCH   1   2
BRANCH   1  12
HETATM   12  C5  UNL     1      21.500  46.080  43.135  1.00  0.00     0.037 C 
BRANCH  12  13
HETATM   13  C6  UNL     1      22.450  46.021  42.022  1.00  0.00     0.022 C 
BRANCH  13  14
HETATM   14  C7  UNL     1      23.903  46.124  42.502  1.00  0.00     0.122 C 
BRANCH  14  15
HETATM   15  N3  UNL     1      23.912  46.987  43.655  1.00  0.00    -0.365 N 
HETATM   16  C8  UNL     1      23.878  48.261  43.663  1.00  0.00     0.185 C 
HETATM   17  N4  UNL     1      23.818  49.028  42.476  1.00  0.00    -0.064 NA
HETATM   18  N5  UNL     1      23.962  48.987  44.886  1.00  0.00    -0.349 N 
ATOM     19  H5  UNL     1      24.903  49.233  45.194  1.00  0.00     0.163 HD
ATOM     20  H3  UNL     1      23.950  46.529  44.566  1.00  0.00     0.162 HD
BRANCH  18  21
HETATM   21  C9  UNL     1      22.889  49.419  45.744  1.00  0.00     0.090 C 
HETATM   22  C10 UNL     1      23.105  50.927  46.035  1.00  0.00     0.047 C 
HETATM   23  C11 UNL     1      21.622  49.358  44.877  1.00  0.00     0.047 C 
BRANCH  21  24
HETATM   24  C12 UNL     1      22.779  48.725  47.019  1.00  0.00     0.141 C 
BRANCH  24  25
HETATM   25  O2  UNL     1      21.997  47.655  47.014  1.00  0.00    -0.348 OA
ATOM     26  H2  UNL     1      21.293  47.666  47.651  1.00  0.00     0.219 HD
ENDBRANCH  24  25
BRANCH  24  27
HETATM   27  N6  UNL     1      23.344  48.970  48.281  1.00  0.00    -0.367 N 
HETATM   28  C13 UNL     1      24.549  48.155  48.591  1.00  0.00     0.151 C 
BRANCH  27  29
HETATM   29  C14 UNL     1      22.910  49.859  49.320  1.00  0.00     0.128 C 
BRANCH  29  30
HETATM   30  C15 UNL     1      23.521  49.660  50.672  1.00  0.00    -0.005 C 
HETATM   31  C16 UNL     1      22.539  49.037  51.660  1.00  0.00     0.011 C 
HETATM   32  C17 UNL     1      23.891  51.043  51.226  1.00  0.00     0.011 C 
ENDBRANCH  29  30
ENDBRANCH  27  29
ENDBRANCH  24  27
ENDBRANCH  21  24
ENDBRANCH  18  21
ENDBRANCH  14  15
ENDBRANCH  13  14
ENDBRANCH  12  13
ENDBRANCH   1  12
BRANCH   1  33
HETATM   33  C18 UNL     1      19.126  45.932  43.024  1.00  0.00     0.314 C 
HETATM   34  O3  UNL     1      19.302  47.062  43.564  1.00  0.00    -0.255 OA
HETATM   35  N7  UNL     1      18.040  45.498  42.381  1.00  0.00    -0.374 NA
BRANCH  35  36
HETATM   36  C19 UNL     1      16.904  45.047  41.709  1.00  0.00     0.110 C 
BRANCH  36  37
HETATM   37  C20 UNL     1      15.643  45.847  41.724  1.00  0.00     0.076 C 
BRANCH  37  38
HETATM   38  C21 UNL     1      15.201  46.526  40.476  1.00  0.00    -0.016 C 
HETATM   39  C22 UNL     1      13.820  47.072  40.439  1.00  0.00     0.010 C 
HETATM   40  C23 UNL     1      16.120  47.793  40.387  1.00  0.00     0.010 C 
ENDBRANCH  37  38
ENDBRANCH  36  37
BRANCH  36  41
HETATM   41  C24 UNL     1      17.160  44.232  40.487  1.00  0.00     0.274 C 
HETATM   42 CL1  UNL     1      15.694  43.572  39.758  1.00  0.00    -0.088 Cl
BRANCH  41  43
HETATM   43  O4  UNL     1      17.879  44.906  39.511  1.00  0.00    -0.374 OA
ATOM     44  H4  UNL     1      17.383  45.067  38.717  1.00  0.00     0.212 HD
ENDBRANCH  41  43
ENDBRANCH  36  41
ENDBRANCH  35  36
ENDBRANCH   1  33
TORSDOF 17
ENDMDL
MODEL 4
REMARK VINA RESULT: -8.097291393      2.515      9.263
REMARK  17 active torsions:
REMARK  status: ('A' for Active; 'I' for Inactive)
REMARK    1  A    between atoms: N2_7  and  C4_9 
REMARK    2  A    between atoms: C4_9  and  C5_10 
REMARK    3  A    between atoms: C4_9  and  C18_31 
REMARK    4  A    between atoms: C5_10  and  C6_11 
REMARK    5  A    between atoms: C6_11  and  C7_12 
REMARK    6  A    between atoms: C7_12  and  N3_13 
REMARK       I    between atoms: C8_15  and  N5_17 
REMARK    7  A    between atoms: N5_17  and  C9_19 
REMARK    8  A    between atoms: C9_19  and  C12_22 
REMARK    9  A    between atoms: C12_22  and  O2_23 
REMARK   10  A    between atoms: C12_22  and  N6_25 
REMARK   11  A    between atoms: N6_25  and  C14_27 
REMARK   12  A    between atoms: C14_27  and  C15_28 
REMARK       I    between atoms: C18_31  and  N7_33 
REMARK   13  A    between atoms: N7_33  and  C19_34 
REMARK   14  A    between atoms: C19_34  and  C20_35 
REMARK   15  A    between atoms: C19_34  and  C24_39 
REMARK   16  A    between atoms: C20_35  and  C21_36 
REMARK   17  A    between atoms: C24_39  and  O4_40 
ROOT
HETATM    1  C4  UNL     1      20.295  45.533  46.045  1.00  0.00     0.190 C 
ENDROOT
BRANCH   1   2
HETATM    2  N2  UNL     1      21.365  44.993  45.422  1.00  0.00    -0.360 N 
HETATM    3  C3  UNL     1      22.141  44.921  44.460  1.00  0.00     0.130 A 
HETATM    4  N1  UNL     1      23.219  44.042  44.400  1.00  0.00    -0.245 N 
HETATM    5  C25 UNL     1      22.122  45.594  43.262  1.00  0.00     0.015 A 
HETATM    6  O1  UNL     1      23.773  44.201  43.262  1.00  0.00    -0.240 OA
ATOM      7  H1  UNL     1      23.510  43.391  45.129  1.00  0.00     0.196 HD
HETATM    8  C2  UNL     1      23.189  45.099  42.524  1.00  0.00     0.082 A 
HETATM    9  C1  UNL     1      23.638  45.484  41.145  1.00  0.00     0.079 C 
HETATM   10  C26 UNL     1      21.186  46.608  42.713  1.00  0.00     0.055 C 
ATOM     11  H2  UNL     1      21.706  44.286  46.073  1.00  0.00     0.162 HD
ENDBRANCH   1   2
BRANCH   1  12
HETATM   12  C5  UNL     1      19.026  45.304  45.254  1.00  0.00     0.037 C 
BRANCH  12  13
HETATM   13  C6  UNL     1      18.546  43.934  45.070  1.00  0.00     0.022 C 
BRANCH  13  14
HETATM   14  C7  UNL     1      18.384  43.578  43.587  1.00  0.00     0.122 C 
BRANCH  14  15
HETATM   15  N3  UNL     1      17.238  44.298  43.097  1.00  0.00    -0.365 N 
HETATM   16  C8  UNL     1      17.222  45.196  42.193  1.00  0.00     0.185 C 
HETATM   17  N4  UNL     1      18.391  45.618  41.518  1.00  0.00    -0.064 NA
HETATM   18  N5  UNL     1      16.014  45.875  41.858  1.00  0.00    -0.349 N 
ATOM     19  H5  UNL     1      15.817  46.722  42.391  1.00  0.00     0.163 HD
ATOM     20  H3  UNL     1      16.339  44.064  43.519  1.00  0.00     0.162 HD
BRANCH  18  21
HETATM   21  C9  UNL     1      15.037  45.517  40.863  1.00  0.00     0.090 C 
HETATM   22  C10 UNL     1      15.775  45.410  39.503  1.00  0.00     0.047 C 
HETATM   23  C11 UNL     1      14.614  44.079  41.202  1.00  0.00     0.047 C 
BRANCH  21  24
HETATM   24  C12 UNL     1      13.928  46.447  40.702  1.00  0.00     0.141 C 
BRANCH  24  25
HETATM   25  O2  UNL     1      12.780  46.055  41.236  1.00  0.00    -0.348 OA
ATOM     26  H2  UNL     1      12.005  46.266  40.728  1.00  0.00     0.219 HD
ENDBRANCH  24  25
BRANCH  24  27
HETATM   27  N6  UNL     1      13.829  47.701  40.077  1.00  0.00    -0.367 N 
HETATM   28  C13 UNL     1      14.259  48.849  40.918  1.00  0.00     0.151 C 
BRANCH  27  29
HETATM   29  C14 UNL     1      13.342  48.035  38.770  1.00  0.00     0.128 C 
BRANCH  29  30
HETATM   30  C15 UNL     1      11.858  47.994  38.576  1.00  0.00    -0.005 C 
HETATM   31  C16 UNL     1      11.451  48.431  37.171  1.00  0.00     0.011 C 
HETATM   32  C17 UNL     1      11.230  48.998  39.552  1.00  0.00     0.011 C 
ENDBRANCH  29  30
ENDBRANCH  27  29
ENDBRANCH  24  27
ENDBRANCH  21  24
ENDBRANCH  18  21
ENDBRANCH  14  15
ENDBRANCH  13  14
ENDBRANCH  12  13
ENDBRANCH   1  12
BRANCH   1  33
HETATM   33  C18 UNL     1      20.399  47.100  46.007  1.00  0.00     0.314 C 
HETATM   34  O3  UNL     1      19.247  47.606  45.888  1.00  0.00    -0.255 OA
HETATM   35  N7  UNL     1      21.567  47.742  46.085  1.00  0.00    -0.374 NA
BRANCH  35  36
HETATM   36  C19 UNL     1      22.785  48.416  46.168  1.00  0.00     0.110 C 
BRANCH  36  37
HETATM   37  C20 UNL     1      23.547  48.456  47.451  1.00  0.00     0.076 C 
BRANCH  37  38
HETATM   38  C21 UNL     1      23.073  49.343  48.548  1.00  0.00    -0.016 C 
HETATM   39  C22 UNL     1      23.781  49.267  49.852  1.00  0.00     0.010 C 
HETATM   40  C23 UNL     1      23.380  50.789  48.026  1.00  0.00     0.010 C 
ENDBRANCH  37  38
ENDBRANCH  36  37
BRANCH  36  41
HETATM   41  C24 UNL     1      23.591  48.445  44.914  1.00  0.00     0.274 C 
HETATM   42 CL1  UNL     1      22.979  49.579  43.707  1.00  0.00    -0.088 Cl
BRANCH  41  43
HETATM   43  O4  UNL     1      24.937  48.702  45.126  1.00  0.00    -0.374 OA
ATOM     44  H4  UNL     1      25.325  48.159  45.801  1.00  0.00     0.212 HD
ENDBRANCH  41  43
ENDBRANCH  36  41
ENDBRANCH  35  36
ENDBRANCH   1  33
TORSDOF 17
ENDMDL
MODEL 5
REMARK VINA RESULT: -8.081272432      2.438      5.974
REMARK  17 active torsions:
REMARK  status: ('A' for Active; 'I' for Inactive)
REMARK    1  A    between atoms: N2_7  and  C4_9 
REMARK    2  A    between atoms: C4_9  and  C5_10 
REMARK    3  A    between atoms: C4_9  and  C18_31 
REMARK    4  A    between atoms: C5_10  and  C6_11 
REMARK    5  A    between atoms: C6_11  and  C7_12 
REMARK    6  A    between atoms: C7_12  and  N3_13 
REMARK       I    between atoms: C8_15  and  N5_17 
REMARK    7  A    between atoms: N5_17  and  C9_19 
REMARK    8  A    between atoms: C9_19  and  C12_22 
REMARK    9  A    between atoms: C12_22  and  O2_23 
REMARK   10  A    between atoms: C12_22  and  N6_25 
REMARK   11  A    between atoms: N6_25  and  C14_27 
REMARK   12  A    between atoms: C14_27  and  C15_28 
REMARK       I    between atoms: C18_31  and  N7_33 
REMARK   13  A    between atoms: N7_33  and  C19_34 
REMARK   14  A    between atoms: C19_34  and  C20_35 
REMARK   15  A    between atoms: C19_34  and  C24_39 
REMARK   16  A    between atoms: C20_35  and  C21_36 
REMARK   17  A    between atoms: C24_39  and  O4_40 
ROOT
HETATM    1  C4  UNL     1      19.379  45.052  43.307  1.00  0.00     0.190 C 
ENDROOT
BRANCH   1   2
HETATM    2  N2  UNL     1      20.200  44.457  44.200  1.00  0.00    -0.360 N 
HETATM    3  C3  UNL     1      21.330  44.199  44.633  1.00  0.00     0.130 A 
HETATM    4  N1  UNL     1      21.566  43.428  45.768  1.00  0.00    -0.245 N 
HETATM    5  C25 UNL     1      22.564  44.527  44.124  1.00  0.00     0.015 A 
HETATM    6  O1  UNL     1      22.832  43.327  45.899  1.00  0.00    -0.240 OA
ATOM      7  H1  UNL     1      20.860  43.020  46.380  1.00  0.00     0.196 HD
HETATM    8  C2  UNL     1      23.499  43.946  44.970  1.00  0.00     0.082 A 
HETATM    9  C1  UNL     1      24.996  43.988  44.890  1.00  0.00     0.079 C 
HETATM   10  C26 UNL     1      22.962  45.278  42.907  1.00  0.00     0.055 C 
ATOM     11  H2  UNL     1      19.569  43.979  44.843  1.00  0.00     0.162 HD
ENDBRANCH   1   2
BRANCH   1  12
HETATM   12  C5  UNL     1      19.209  46.523  43.614  1.00  0.00     0.037 C 
BRANCH  12  13
HETATM   13  C6  UNL     1      20.398  47.327  43.902  1.00  0.00     0.022 C 
BRANCH  13  14
HETATM   14  C7  UNL     1      20.512  47.665  45.394  1.00  0.00     0.122 C 
BRANCH  14  15
HETATM   15  N3  UNL     1      21.530  48.675  45.526  1.00  0.00    -0.365 N 
HETATM   16  C8  UNL     1      21.521  49.847  45.026  1.00  0.00     0.185 C 
HETATM   17  N4  UNL     1      20.449  50.331  44.240  1.00  0.00    -0.064 NA
HETATM   18  N5  UNL     1      22.637  50.719  45.186  1.00  0.00    -0.349 N 
ATOM     19  H5  UNL     1      23.356  50.659  44.465  1.00  0.00     0.163 HD
ATOM     20  H3  UNL     1      22.349  48.425  46.080  1.00  0.00     0.162 HD
BRANCH  18  21
HETATM   21  C9  UNL     1      22.880  51.675  46.235  1.00  0.00     0.090 C 
HETATM   22  C10 UNL     1      23.766  52.801  45.642  1.00  0.00     0.047 C 
HETATM   23  C11 UNL     1      21.521  52.339  46.508  1.00  0.00     0.047 C 
BRANCH  21  24
HETATM   24  C12 UNL     1      23.544  51.157  47.423  1.00  0.00     0.141 C 
BRANCH  24  25
HETATM   25  O2  UNL     1      24.528  51.909  47.893  1.00  0.00    -0.348 OA
ATOM     26  H2  UNL     1      25.380  51.490  47.921  1.00  0.00     0.219 HD
ENDBRANCH  24  25
BRANCH  24  27
HETATM   27  N6  UNL     1      23.350  49.991  48.182  1.00  0.00    -0.367 N 
HETATM   28  C13 UNL     1      23.918  48.756  47.580  1.00  0.00     0.151 C 
BRANCH  27  29
HETATM   29  C14 UNL     1      22.657  49.815  49.426  1.00  0.00     0.128 C 
BRANCH  29  30
HETATM   30  C15 UNL     1      23.504  49.666  50.651  1.00  0.00    -0.005 C 
HETATM   31  C16 UNL     1      22.729  49.055  51.814  1.00  0.00     0.011 C 
HETATM   32  C17 UNL     1      23.935  51.071  51.095  1.00  0.00     0.011 C 
ENDBRANCH  29  30
ENDBRANCH  27  29
ENDBRANCH  24  27
ENDBRANCH  21  24
ENDBRANCH  18  21
ENDBRANCH  14  15
ENDBRANCH  13  14
ENDBRANCH  12  13
ENDBRANCH   1  12
BRANCH   1  33
HETATM   33  C18 UNL     1      17.913  44.527  43.511  1.00  0.00     0.314 C 
HETATM   34  O3  UNL     1      17.705  44.292  44.736  1.00  0.00    -0.255 OA
HETATM   35  N7  UNL     1      17.061  44.369  42.496  1.00  0.00    -0.374 NA
BRANCH  35  36
HETATM   36  C19 UNL     1      16.168  44.203  41.438  1.00  0.00     0.110 C 
BRANCH  36  37
HETATM   37  C20 UNL     1      14.895  44.981  41.387  1.00  0.00     0.076 C 
BRANCH  37  38
HETATM   38  C21 UNL     1      14.951  46.467  41.424  1.00  0.00    -0.016 C 
HETATM   39  C22 UNL     1      15.931  47.143  40.534  1.00  0.00     0.010 C 
HETATM   40  C23 UNL     1      13.554  46.914  40.870  1.00  0.00     0.010 C 
ENDBRANCH  37  38
ENDBRANCH  36  37
BRANCH  36  41
HETATM   41  C24 UNL     1      16.783  43.847  40.126  1.00  0.00     0.274 C 
HETATM   42 CL1  UNL     1      15.690  44.050  38.755  1.00  0.00    -0.088 Cl
BRANCH  41  43
HETATM   43  O4  UNL     1      17.961  44.529  39.863  1.00  0.00    -0.374 OA
ATOM     44  H4  UNL     1      18.713  44.183  40.329  1.00  0.00     0.212 HD
ENDBRANCH  41  43
ENDBRANCH  36  41
ENDBRANCH  35  36
ENDBRANCH   1  33
TORSDOF 17
ENDMDL
