MODEL 1
REMARK VINA RESULT: -5.953719060      0.000      0.000
REMARK  3 active torsions:
REMARK  status: ('A' for Active; 'I' for Inactive)
REMARK    1  A    between atoms: N1_2  and  C1_4 
REMARK    2  A    between atoms: C3_6  and  C4_7 
REMARK    3  A    between atoms: C8_14  and  N3_15 
ROOT
HETATM    1  C1  UNL     1      -2.157  87.119  26.211  1.00  0.00     0.148 A 
HETATM    2  C2  UNL     1      -1.493  87.916  25.270  1.00  0.00     0.066 A 
HETATM    3  C3  UNL     1      -0.718  87.123  24.467  1.00  0.00     0.027 A 
HETATM    4  N2  UNL     1      -0.876  85.836  24.881  1.00  0.00    -0.343 N 
ATOM      5  H2  UNL     1      -0.422  85.019  24.474  1.00  0.00     0.167 HD
HETATM    6  C8  UNL     1      -1.723  85.826  25.909  1.00  0.00     0.137 A 
ENDROOT
BRANCH   6   7
HETATM    7  N3  UNL     1      -2.130  84.648  26.597  1.00  0.00    -0.362 N 
HETATM    8  C9  UNL     1      -3.312  83.957  26.174  1.00  0.00     0.152 C 
HETATM    9  C10 UNL     1      -3.062  82.473  26.349  1.00  0.00     0.252 C 
HETATM   10  N4  UNL     1      -1.662  82.142  26.401  1.00  0.00    -0.072 N 
HETATM   11  C11 UNL     1      -0.963  82.738  27.505  1.00  0.00     0.252 C 
ATOM     12  H42 UNL     1      -1.532  81.130  26.398  1.00  0.00     0.277 HD
ATOM     13  H41 UNL     1      -1.205  82.376  25.519  1.00  0.00     0.277 HD
HETATM   14  C12 UNL     1      -1.324  84.197  27.705  1.00  0.00     0.152 C 
ENDBRANCH   6   7
BRANCH   1  15
HETATM   15  N1  UNL     1      -3.047  87.556  27.218  1.00  0.00    -0.112 N 
HETATM   16  O1  UNL     1      -2.621  88.205  28.172  1.00  0.00    -0.532 OA
HETATM   17  O2  UNL     1      -4.371  87.255  27.124  1.00  0.00    -0.532 OA
ENDBRANCH   1  15
BRANCH   3  18
HETATM   18  C4  UNL     1       0.154  87.563  23.338  1.00  0.00     0.097 C 
HETATM   19  C5  UNL     1      -0.045  88.963  22.928  1.00  0.00     0.022 C 
HETATM   20  C6  UNL     1       1.163  89.661  22.535  1.00  0.00     0.012 C 
HETATM   21  C7  UNL     1       2.418  88.878  22.663  1.00  0.00     0.075 C 
HETATM   22  S1  UNL     1       1.913  87.599  23.887  1.00  0.00    -0.158 SA
ENDBRANCH   3  18
TORSDOF 3
ENDMDL
MODEL 2
REMARK VINA RESULT: -5.844802748      2.439      3.454
REMARK  3 active torsions:
REMARK  status: ('A' for Active; 'I' for Inactive)
REMARK    1  A    between atoms: N1_2  and  C1_4 
REMARK    2  A    between atoms: C3_6  and  C4_7 
REMARK    3  A    between atoms: C8_14  and  N3_15 
ROOT
HETATM    1  C1  UNL     1      -0.947  84.581  25.942  1.00  0.00     0.148 A 
HETATM    2  C2  UNL     1       0.178  85.119  25.306  1.00  0.00     0.066 A 
HETATM    3  C3  UNL     1      -0.185  86.238  24.605  1.00  0.00     0.027 A 
HETATM    4  N2  UNL     1      -1.521  86.421  24.784  1.00  0.00    -0.343 N 
ATOM      5  H2  UNL     1      -2.079  87.175  24.383  1.00  0.00     0.167 HD
HETATM    6  C8  UNL     1      -1.978  85.448  25.572  1.00  0.00     0.137 A 
ENDROOT
BRANCH   6   7
HETATM    7  N3  UNL     1      -3.335  85.322  25.979  1.00  0.00    -0.362 N 
HETATM    8  C9  UNL     1      -3.830  86.136  27.050  1.00  0.00     0.152 C 
HETATM    9  C10 UNL     1      -5.263  86.503  26.723  1.00  0.00     0.252 C 
HETATM   10  N4  UNL     1      -5.566  86.384  25.321  1.00  0.00    -0.072 N 
HETATM   11  C11 UNL     1      -5.430  85.050  24.806  1.00  0.00     0.252 C 
ATOM     12  H42 UNL     1      -6.497  86.751  25.123  1.00  0.00     0.277 HD
ATOM     13  H41 UNL     1      -5.004  87.038  24.775  1.00  0.00     0.277 HD
HETATM   14  C12 UNL     1      -4.165  84.366  25.287  1.00  0.00     0.152 C 
ENDBRANCH   6   7
BRANCH   1  15
HETATM   15  N1  UNL     1      -0.993  83.429  26.759  1.00  0.00    -0.112 N 
HETATM   16  O1  UNL     1      -1.379  82.360  26.288  1.00  0.00    -0.532 OA
HETATM   17  O2  UNL     1      -0.608  83.509  28.061  1.00  0.00    -0.532 OA
ENDBRANCH   1  15
BRANCH   3  18
HETATM   18  C4  UNL     1       0.702  87.114  23.784  1.00  0.00     0.097 C 
HETATM   19  C5  UNL     1      -0.008  87.928  22.783  1.00  0.00     0.022 C 
HETATM   20  C6  UNL     1       0.530  89.260  22.588  1.00  0.00     0.012 C 
HETATM   21  C7  UNL     1       1.673  89.617  23.466  1.00  0.00     0.075 C 
HETATM   22  S1  UNL     1       1.443  88.423  24.847  1.00  0.00    -0.158 SA
ENDBRANCH   3  18
TORSDOF 3
ENDMDL
MODEL 3
REMARK VINA RESULT: -5.674697677      1.395      1.971
REMARK  3 active torsions:
REMARK  status: ('A' for Active; 'I' for Inactive)
REMARK    1  A    between atoms: N1_2  and  C1_4 
REMARK    2  A    between atoms: C3_6  and  C4_7 
REMARK    3  A    between atoms: C8_14  and  N3_15 
ROOT
HETATM    1  C1  UNL     1      -2.457  87.047  25.604  1.00  0.00     0.148 A 
HETATM    2  C2  UNL     1      -1.704  88.178  25.263  1.00  0.00     0.066 A 
HETATM    3  C3  UNL     1      -0.485  87.785  24.778  1.00  0.00     0.027 A 
HETATM    4  N2  UNL     1      -0.449  86.425  24.805  1.00  0.00    -0.343 N 
ATOM      5  H2  UNL     1       0.333  85.843  24.505  1.00  0.00     0.167 HD
HETATM    6  C8  UNL     1      -1.608  85.983  25.291  1.00  0.00     0.137 A 
ENDROOT
BRANCH   6   7
HETATM    7  N3  UNL     1      -1.931  84.607  25.458  1.00  0.00    -0.362 N 
HETATM    8  C9  UNL     1      -1.097  83.781  26.279  1.00  0.00     0.152 C 
HETATM    9  C10 UNL     1      -1.994  82.795  26.999  1.00  0.00     0.252 C 
HETATM   10  N4  UNL     1      -3.365  83.229  27.065  1.00  0.00    -0.072 N 
HETATM   11  C11 UNL     1      -3.989  83.385  25.781  1.00  0.00     0.252 C 
ATOM     12  H42 UNL     1      -3.911  82.602  27.656  1.00  0.00     0.277 HD
ATOM     13  H41 UNL     1      -3.443  84.089  27.608  1.00  0.00     0.277 HD
HETATM   14  C12 UNL     1      -3.099  84.097  24.782  1.00  0.00     0.152 C 
ENDBRANCH   6   7
BRANCH   1  15
HETATM   15  N1  UNL     1      -3.764  87.027  26.139  1.00  0.00    -0.112 N 
HETATM   16  O1  UNL     1      -4.689  87.545  25.516  1.00  0.00    -0.532 OA
HETATM   17  O2  UNL     1      -3.991  86.432  27.342  1.00  0.00    -0.532 OA
ENDBRANCH   1  15
BRANCH   3  18
HETATM   18  C4  UNL     1       0.622  88.666  24.303  1.00  0.00     0.097 C 
HETATM   19  C5  UNL     1       1.748  87.946  23.685  1.00  0.00     0.022 C 
HETATM   20  C6  UNL     1       2.356  88.620  22.554  1.00  0.00     0.012 C 
HETATM   21  C7  UNL     1       1.714  89.900  22.159  1.00  0.00     0.075 C 
HETATM   22  S1  UNL     1       0.038  89.694  22.890  1.00  0.00    -0.158 SA
ENDBRANCH   3  18
TORSDOF 3
ENDMDL
MODEL 4
REMARK VINA RESULT: -5.653735742      4.120      7.242
REMARK  3 active torsions:
REMARK  status: ('A' for Active; 'I' for Inactive)
REMARK    1  A    between atoms: N1_2  and  C1_4 
REMARK    2  A    between atoms: C3_6  and  C4_7 
REMARK    3  A    between atoms: C8_14  and  N3_15 
ROOT
HETATM    1  C1  UNL     1       0.832  88.780  23.164  1.00  0.00     0.148 A 
HETATM    2  C2  UNL     1       0.610  87.446  23.527  1.00  0.00     0.066 A 
HETATM    3  C3  UNL     1      -0.596  87.343  24.168  1.00  0.00     0.027 A 
HETATM    4  N2  UNL     1      -1.144  88.587  24.220  1.00  0.00    -0.343 N 
ATOM      5  H2  UNL     1      -2.042  88.826  24.640  1.00  0.00     0.167 HD
HETATM    6  C8  UNL     1      -0.307  89.441  23.630  1.00  0.00     0.137 A 
ENDROOT
BRANCH   6   7
HETATM    7  N3  UNL     1      -0.555  90.835  23.493  1.00  0.00    -0.362 N 
HETATM    8  C9  UNL     1      -0.329  91.706  24.608  1.00  0.00     0.152 C 
HETATM    9  C10 UNL     1       0.208  93.014  24.067  1.00  0.00     0.252 C 
HETATM   10  N4  UNL     1       0.784  92.884  22.754  1.00  0.00    -0.072 N 
HETATM   11  C11 UNL     1      -0.148  92.456  21.749  1.00  0.00     0.252 C 
ATOM     12  H42 UNL     1       1.239  93.753  22.475  1.00  0.00     0.277 HD
ATOM     13  H41 UNL     1       1.595  92.265  22.777  1.00  0.00     0.277 HD
HETATM   14  C12 UNL     1      -1.031  91.317  22.219  1.00  0.00     0.152 C 
ENDBRANCH   6   7
BRANCH   1  15
HETATM   15  N1  UNL     1       1.959  89.301  22.489  1.00  0.00    -0.112 N 
HETATM   16  O1  UNL     1       2.334  88.786  21.437  1.00  0.00    -0.532 OA
HETATM   17  O2  UNL     1       2.622  90.370  23.008  1.00  0.00    -0.532 OA
ENDBRANCH   1  15
BRANCH   3  18
HETATM   18  C4  UNL     1      -1.219  86.105  24.721  1.00  0.00     0.097 C 
HETATM   19  C5  UNL     1      -0.257  85.135  25.272  1.00  0.00     0.022 C 
HETATM   20  C6  UNL     1      -0.707  84.436  26.460  1.00  0.00     0.012 C 
HETATM   21  C7  UNL     1      -2.040  84.846  26.969  1.00  0.00     0.075 C 
HETATM   22  S1  UNL     1      -2.204  86.519  26.222  1.00  0.00    -0.158 SA
ENDBRANCH   3  18
TORSDOF 3
ENDMDL
MODEL 5
REMARK VINA RESULT: -5.633497953      3.439      6.312
REMARK  3 active torsions:
REMARK  status: ('A' for Active; 'I' for Inactive)
REMARK    1  A    between atoms: N1_2  and  C1_4 
REMARK    2  A    between atoms: C3_6  and  C4_7 
REMARK    3  A    between atoms: C8_14  and  N3_15 
ROOT
HETATM    1  C1  UNL     1      -0.000  88.007  24.290  1.00  0.00     0.148 A 
HETATM    2  C2  UNL     1       0.212  86.629  24.423  1.00  0.00     0.066 A 
HETATM    3  C3  UNL     1      -0.770  86.090  25.211  1.00  0.00     0.027 A 
HETATM    4  N2  UNL     1      -1.602  87.101  25.583  1.00  0.00    -0.343 N 
ATOM      5  H2  UNL     1      -2.428  87.006  26.174  1.00  0.00     0.167 HD
HETATM    6  C8  UNL     1      -1.155  88.234  25.043  1.00  0.00     0.137 A 
ENDROOT
BRANCH   6   7
HETATM    7  N3  UNL     1      -1.781  89.500  25.213  1.00  0.00    -0.362 N 
HETATM    8  C9  UNL     1      -1.734  90.145  26.492  1.00  0.00     0.152 C 
HETATM    9  C10 UNL     1      -1.608  91.635  26.250  1.00  0.00     0.252 C 
HETATM   10  N4  UNL     1      -1.098  91.950  24.941  1.00  0.00    -0.072 N 
HETATM   11  C11 UNL     1      -1.937  91.499  23.865  1.00  0.00     0.252 C 
ATOM     12  H42 UNL     1      -0.914  92.949  24.858  1.00  0.00     0.277 HD
ATOM     13  H41 UNL     1      -0.149  91.591  24.829  1.00  0.00     0.277 HD
HETATM   14  C12 UNL     1      -2.446  90.087  24.075  1.00  0.00     0.152 C 
ENDBRANCH   6   7
BRANCH   1  15
HETATM   15  N1  UNL     1       0.791  88.922  23.560  1.00  0.00    -0.112 N 
HETATM   16  O1  UNL     1       1.301  89.883  24.134  1.00  0.00    -0.532 OA
HETATM   17  O2  UNL     1       0.982  88.733  22.226  1.00  0.00    -0.532 OA
ENDBRANCH   1  15
BRANCH   3  18
HETATM   18  C4  UNL     1      -0.922  84.660  25.609  1.00  0.00     0.097 C 
HETATM   19  C5  UNL     1       0.342  83.988  25.955  1.00  0.00     0.022 C 
HETATM   20  C6  UNL     1       0.251  83.041  27.049  1.00  0.00     0.012 C 
HETATM   21  C7  UNL     1      -1.086  82.938  27.687  1.00  0.00     0.075 C 
HETATM   22  S1  UNL     1      -1.832  84.550  27.207  1.00  0.00    -0.158 SA
ENDBRANCH   3  18
TORSDOF 3
ENDMDL
