MODEL 1
REMARK VINA RESULT: -7.107920733      0.000      0.000
REMARK  5 active torsions:
REMARK  status: ('A' for Active; 'I' for Inactive)
REMARK    1  A    between atoms: C2_2  and  N2_6 
REMARK    2  A    between atoms: N2_6  and  C3_8 
REMARK    3  A    between atoms: C3_8  and  C4_9 
REMARK       I    between atoms: N3_13  and  C7_14 
REMARK    4  A    between atoms: C7_14  and  O3_16 
REMARK    5  A    between atoms: O3_16  and  C8_17 
ROOT
HETATM    1  C4  UNL     1      -2.042  85.866  25.122  1.00  0.00     0.026 C 
HETATM    2  C5  UNL     1      -3.140  86.317  26.027  1.00  0.00     0.036 C 
HETATM    3  C6  UNL     1      -2.644  86.403  27.464  1.00  0.00     0.202 C 
HETATM    4  O1  UNL     1      -2.245  85.185  27.882  1.00  0.00    -0.274 OA
HETATM    5  N3  UNL     1      -1.465  84.529  27.073  1.00  0.00    -0.201 N 
HETATM    6  C7  UNL     1      -0.560  83.564  27.671  1.00  0.00     0.387 C 
HETATM    7  O2  UNL     1      -0.579  83.439  28.910  1.00  0.00    -0.236 OA
HETATM    8  C14 UNL     1      -1.397  84.620  25.665  1.00  0.00     0.168 C 
ENDROOT
BRANCH   6   9
HETATM    9  O3  UNL     1       0.308  82.786  26.956  1.00  0.00    -0.297 OA
BRANCH   9  10
HETATM   10  C8  UNL     1       1.695  82.896  26.921  1.00  0.00     0.133 C 
HETATM   11  C9  UNL     1       2.404  81.684  27.473  1.00  0.00     0.032 C 
HETATM   12  C10 UNL     1       3.549  81.218  26.648  1.00  0.00     0.002 C 
HETATM   13  C11 UNL     1       4.355  82.276  25.981  1.00  0.00     0.000 C 
HETATM   14  C12 UNL     1       3.592  83.470  25.519  1.00  0.00     0.002 C 
HETATM   15  C13 UNL     1       2.119  83.106  25.469  1.00  0.00     0.032 C 
ENDBRANCH   9  10
ENDBRANCH   6   9
BRANCH   1  16
HETATM   16  C3  UNL     1      -1.029  86.901  24.752  1.00  0.00     0.127 C 
BRANCH  16  17
HETATM   17  N2  UNL     1       0.293  86.477  24.468  1.00  0.00    -0.380 N 
ATOM     18  H2  UNL     1       0.437  85.479  24.316  1.00  0.00     0.160 HD
BRANCH  17  19
HETATM   19  C2  UNL     1       1.426  87.306  24.375  1.00  0.00     0.066 C 
HETATM   20  C1  UNL     1       2.792  86.732  24.075  1.00  0.00     0.088 C 
HETATM   21  N1  UNL     1       1.290  88.590  24.575  1.00  0.00    -0.389 N 
ATOM     22  H12 UNL     1       2.111  89.191  24.508  1.00  0.00     0.157 HD
ATOM     23  H11 UNL     1       0.368  88.977  24.777  1.00  0.00     0.157 HD
ENDBRANCH  17  19
ENDBRANCH  16  17
ENDBRANCH   1  16
TORSDOF 5
ENDMDL
MODEL 2
REMARK VINA RESULT: -6.780133911      1.121      1.370
REMARK  5 active torsions:
REMARK  status: ('A' for Active; 'I' for Inactive)
REMARK    1  A    between atoms: C2_2  and  N2_6 
REMARK    2  A    between atoms: N2_6  and  C3_8 
REMARK    3  A    between atoms: C3_8  and  C4_9 
REMARK       I    between atoms: N3_13  and  C7_14 
REMARK    4  A    between atoms: C7_14  and  O3_16 
REMARK    5  A    between atoms: O3_16  and  C8_17 
ROOT
HETATM    1  C4  UNL     1      -1.875  86.211  25.117  1.00  0.00     0.026 C 
HETATM    2  C5  UNL     1      -3.007  86.601  26.009  1.00  0.00     0.036 C 
HETATM    3  C6  UNL     1      -2.582  86.531  27.469  1.00  0.00     0.202 C 
HETATM    4  O1  UNL     1      -2.234  85.267  27.782  1.00  0.00    -0.274 OA
HETATM    5  N3  UNL     1      -1.429  84.671  26.950  1.00  0.00    -0.201 N 
HETATM    6  C7  UNL     1      -0.578  83.627  27.491  1.00  0.00     0.387 C 
HETATM    7  O2  UNL     1      -0.663  83.381  28.709  1.00  0.00    -0.236 OA
HETATM    8  C14 UNL     1      -1.288  84.900  25.563  1.00  0.00     0.168 C 
ENDROOT
BRANCH   6   9
HETATM    9  O3  UNL     1       0.307  82.899  26.744  1.00  0.00    -0.297 OA
BRANCH   9  10
HETATM   10  C8  UNL     1       1.696  82.961  26.799  1.00  0.00     0.133 C 
HETATM   11  C9  UNL     1       2.323  81.747  27.439  1.00  0.00     0.032 C 
HETATM   12  C10 UNL     1       3.502  81.213  26.710  1.00  0.00     0.002 C 
HETATM   13  C11 UNL     1       4.388  82.217  26.064  1.00  0.00     0.000 C 
HETATM   14  C12 UNL     1       3.701  83.419  25.510  1.00  0.00     0.002 C 
HETATM   15  C13 UNL     1       2.223  83.103  25.374  1.00  0.00     0.032 C 
ENDBRANCH   9  10
ENDBRANCH   6   9
BRANCH   1  16
HETATM   16  C3  UNL     1      -0.820  87.249  24.902  1.00  0.00     0.127 C 
BRANCH  16  17
HETATM   17  N2  UNL     1      -0.266  87.386  23.605  1.00  0.00    -0.380 N 
ATOM     18  H2  UNL     1      -0.075  86.527  23.090  1.00  0.00     0.160 HD
BRANCH  17  19
HETATM   19  C2  UNL     1       0.046  88.598  22.963  1.00  0.00     0.066 C 
HETATM   20  C1  UNL     1      -0.852  89.807  23.098  1.00  0.00     0.088 C 
HETATM   21  N1  UNL     1       1.118  88.665  22.220  1.00  0.00    -0.389 N 
ATOM     22  H12 UNL     1       1.344  89.544  21.755  1.00  0.00     0.157 HD
ATOM     23  H11 UNL     1       1.724  87.850  22.130  1.00  0.00     0.157 HD
ENDBRANCH  17  19
ENDBRANCH  16  17
ENDBRANCH   1  16
TORSDOF 5
ENDMDL
MODEL 3
REMARK VINA RESULT: -6.723962089      2.491      3.422
REMARK  5 active torsions:
REMARK  status: ('A' for Active; 'I' for Inactive)
REMARK    1  A    between atoms: C2_2  and  N2_6 
REMARK    2  A    between atoms: N2_6  and  C3_8 
REMARK    3  A    between atoms: C3_8  and  C4_9 
REMARK       I    between atoms: N3_13  and  C7_14 
REMARK    4  A    between atoms: C7_14  and  O3_16 
REMARK    5  A    between atoms: O3_16  and  C8_17 
ROOT
HETATM    1  C4  UNL     1      -3.571  84.845  25.058  1.00  0.00     0.026 C 
HETATM    2  C5  UNL     1      -4.267  83.727  24.354  1.00  0.00     0.036 C 
HETATM    3  C6  UNL     1      -4.422  82.528  25.280  1.00  0.00     0.202 C 
HETATM    4  O1  UNL     1      -3.206  82.081  25.653  1.00  0.00    -0.274 OA
HETATM    5  N3  UNL     1      -2.365  82.985  26.065  1.00  0.00    -0.201 N 
HETATM    6  C7  UNL     1      -1.342  82.553  26.999  1.00  0.00     0.387 C 
HETATM    7  O2  UNL     1      -1.344  81.359  27.354  1.00  0.00    -0.236 OA
HETATM    8  C14 UNL     1      -2.305  84.348  25.699  1.00  0.00     0.168 C 
ENDROOT
BRANCH   6   9
HETATM    9  O3  UNL     1      -0.376  83.377  27.510  1.00  0.00    -0.297 OA
BRANCH   9  10
HETATM   10  C8  UNL     1       0.980  83.369  27.199  1.00  0.00     0.133 C 
HETATM   11  C9  UNL     1       1.651  82.048  27.487  1.00  0.00     0.032 C 
HETATM   12  C10 UNL     1       2.554  81.573  26.407  1.00  0.00     0.002 C 
HETATM   13  C11 UNL     1       3.321  82.620  25.681  1.00  0.00     0.000 C 
HETATM   14  C12 UNL     1       2.613  83.918  25.490  1.00  0.00     0.002 C 
HETATM   15  C13 UNL     1       1.130  83.692  25.714  1.00  0.00     0.032 C 
ENDBRANCH   9  10
ENDBRANCH   6   9
BRANCH   1  16
HETATM   16  C3  UNL     1      -4.404  85.639  26.013  1.00  0.00     0.127 C 
BRANCH  16  17
HETATM   17  N2  UNL     1      -4.076  85.592  27.392  1.00  0.00    -0.380 N 
ATOM     18  H2  UNL     1      -4.690  85.045  27.995  1.00  0.00     0.160 HD
BRANCH  17  19
HETATM   19  C2  UNL     1      -2.983  86.230  28.004  1.00  0.00     0.066 C 
HETATM   20  C1  UNL     1      -2.544  87.613  27.575  1.00  0.00     0.088 C 
HETATM   21  N1  UNL     1      -2.326  85.602  28.942  1.00  0.00    -0.389 N 
ATOM     22  H12 UNL     1      -1.533  86.065  29.386  1.00  0.00     0.157 HD
ATOM     23  H11 UNL     1      -2.622  84.670  29.231  1.00  0.00     0.157 HD
ENDBRANCH  17  19
ENDBRANCH  16  17
ENDBRANCH   1  16
TORSDOF 5
ENDMDL
MODEL 4
REMARK VINA RESULT: -6.713504720      2.407      5.777
REMARK  5 active torsions:
REMARK  status: ('A' for Active; 'I' for Inactive)
REMARK    1  A    between atoms: C2_2  and  N2_6 
REMARK    2  A    between atoms: N2_6  and  C3_8 
REMARK    3  A    between atoms: C3_8  and  C4_9 
REMARK       I    between atoms: N3_13  and  C7_14 
REMARK    4  A    between atoms: C7_14  and  O3_16 
REMARK    5  A    between atoms: O3_16  and  C8_17 
ROOT
HETATM    1  C4  UNL     1      -0.664  83.441  26.735  1.00  0.00     0.026 C 
HETATM    2  C5  UNL     1       0.156  82.201  26.866  1.00  0.00     0.036 C 
HETATM    3  C6  UNL     1       1.630  82.551  27.020  1.00  0.00     0.202 C 
HETATM    4  O1  UNL     1       2.058  83.210  25.925  1.00  0.00    -0.274 OA
HETATM    5  N3  UNL     1       1.304  84.188  25.513  1.00  0.00    -0.201 N 
HETATM    6  C7  UNL     1       1.957  85.258  24.782  1.00  0.00     0.387 C 
HETATM    7  O2  UNL     1       3.189  85.179  24.610  1.00  0.00    -0.236 OA
HETATM    8  C14 UNL     1      -0.091  84.335  25.670  1.00  0.00     0.168 C 
ENDROOT
BRANCH   6   9
HETATM    9  O3  UNL     1       1.302  86.345  24.270  1.00  0.00    -0.297 OA
BRANCH   9  10
HETATM   10  C8  UNL     1       1.751  87.662  24.258  1.00  0.00     0.133 C 
HETATM   11  C9  UNL     1       2.697  87.960  23.121  1.00  0.00     0.032 C 
HETATM   12  C10 UNL     1       2.418  89.236  22.413  1.00  0.00     0.002 C 
HETATM   13  C11 UNL     1       1.934  90.364  23.253  1.00  0.00     0.000 C 
HETATM   14  C12 UNL     1       1.054  89.983  24.394  1.00  0.00     0.002 C 
HETATM   15  C13 UNL     1       0.535  88.578  24.150  1.00  0.00     0.032 C 
ENDBRANCH   9  10
ENDBRANCH   6   9
BRANCH   1  16
HETATM   16  C3  UNL     1      -0.933  84.188  28.003  1.00  0.00     0.127 C 
BRANCH  16  17
HETATM   17  N2  UNL     1      -2.234  84.709  28.214  1.00  0.00    -0.380 N 
ATOM     18  H2  UNL     1      -2.852  84.177  28.826  1.00  0.00     0.160 HD
BRANCH  17  19
HETATM   19  C2  UNL     1      -2.750  85.894  27.658  1.00  0.00     0.066 C 
HETATM   20  C1  UNL     1      -3.504  85.878  26.348  1.00  0.00     0.088 C 
HETATM   21  N1  UNL     1      -2.551  87.025  28.279  1.00  0.00    -0.389 N 
ATOM     22  H12 UNL     1      -2.926  87.884  27.877  1.00  0.00     0.157 HD
ATOM     23  H11 UNL     1      -2.042  87.035  29.164  1.00  0.00     0.157 HD
ENDBRANCH  17  19
ENDBRANCH  16  17
ENDBRANCH   1  16
TORSDOF 5
ENDMDL
MODEL 5
REMARK VINA RESULT: -6.678246243      2.389      5.340
REMARK  5 active torsions:
REMARK  status: ('A' for Active; 'I' for Inactive)
REMARK    1  A    between atoms: C2_2  and  N2_6 
REMARK    2  A    between atoms: N2_6  and  C3_8 
REMARK    3  A    between atoms: C3_8  and  C4_9 
REMARK       I    between atoms: N3_13  and  C7_14 
REMARK    4  A    between atoms: C7_14  and  O3_16 
REMARK    5  A    between atoms: O3_16  and  C8_17 
ROOT
HETATM    1  C4  UNL     1      -0.845  83.071  27.357  1.00  0.00     0.026 C 
HETATM    2  C5  UNL     1      -2.037  82.181  27.482  1.00  0.00     0.036 C 
HETATM    3  C6  UNL     1      -3.008  82.428  26.335  1.00  0.00     0.202 C 
HETATM    4  O1  UNL     1      -3.445  83.703  26.375  1.00  0.00    -0.274 OA
HETATM    5  N3  UNL     1      -2.531  84.618  26.524  1.00  0.00    -0.201 N 
HETATM    6  C7  UNL     1      -2.825  85.934  25.989  1.00  0.00     0.387 C 
HETATM    7  O2  UNL     1      -3.919  86.098  25.415  1.00  0.00    -0.236 OA
HETATM    8  C14 UNL     1      -1.278  84.499  27.166  1.00  0.00     0.168 C 
ENDROOT
BRANCH   6   9
HETATM    9  O3  UNL     1      -1.977  87.003  26.080  1.00  0.00    -0.297 OA
BRANCH   9  10
HETATM   10  C8  UNL     1      -1.439  87.736  25.025  1.00  0.00     0.133 C 
HETATM   11  C9  UNL     1      -0.735  88.994  25.471  1.00  0.00     0.032 C 
HETATM   12  C10 UNL     1       0.578  89.223  24.815  1.00  0.00     0.002 C 
HETATM   13  C11 UNL     1       0.684  88.811  23.390  1.00  0.00     0.000 C 
HETATM   14  C12 UNL     1      -0.090  87.594  23.013  1.00  0.00     0.002 C 
HETATM   15  C13 UNL     1      -0.448  86.844  24.283  1.00  0.00     0.032 C 
ENDBRANCH   9  10
ENDBRANCH   6   9
BRANCH   1  16
HETATM   16  C3  UNL     1       0.179  82.661  26.348  1.00  0.00     0.127 C 
BRANCH  16  17
HETATM   17  N2  UNL     1       1.458  83.268  26.401  1.00  0.00    -0.380 N 
ATOM     18  H2  UNL     1       1.485  84.281  26.523  1.00  0.00     0.160 HD
BRANCH  17  19
HETATM   19  C2  UNL     1       2.694  82.605  26.302  1.00  0.00     0.066 C 
HETATM   20  C1  UNL     1       3.748  83.058  25.316  1.00  0.00     0.088 C 
HETATM   21  N1  UNL     1       2.919  81.566  27.061  1.00  0.00    -0.389 N 
ATOM     22  H12 UNL     1       3.815  81.085  26.989  1.00  0.00     0.157 HD
ATOM     23  H11 UNL     1       2.208  81.261  27.726  1.00  0.00     0.157 HD
ENDBRANCH  17  19
ENDBRANCH  16  17
ENDBRANCH   1  16
TORSDOF 5
ENDMDL
