MODEL 1
REMARK VINA RESULT: -6.061872718      0.000      0.000
REMARK  4 active torsions:
REMARK  status: ('A' for Active; 'I' for Inactive)
REMARK    1  A    between atoms: C3_4  and  S1_5 
REMARK    2  A    between atoms: S1_5  and  C4_6 
REMARK    3  A    between atoms: C10_13  and  S3_14 
REMARK    4  A    between atoms: S3_14  and  N2_15 
ROOT
HETATM    1  N1  UNL     1       1.344  83.231  26.188  1.00  0.00    -0.100 NA
HETATM    2  C1  UNL     1       0.337  84.212  25.787  1.00  0.00     0.078 A 
HETATM    3  C2  UNL     1       0.652  85.318  25.080  1.00  0.00     0.054 A 
HETATM    4  C3  UNL     1      -0.367  86.166  24.760  1.00  0.00     0.044 A 
HETATM    5  S2  UNL     1      -1.730  85.417  25.443  1.00  0.00    -0.068 SA
HETATM    6  C10 UNL     1      -0.982  84.045  26.120  1.00  0.00     0.145 A 
ENDROOT
BRANCH   4   7
HETATM    7  S1  UNL     1      -0.346  87.712  23.845  1.00  0.00    -0.118 SA
BRANCH   7   8
HETATM    8  C4  UNL     1       1.222  88.575  24.165  1.00  0.00     0.053 C 
HETATM    9  C5  UNL     1       0.924  90.067  23.959  1.00  0.00     0.015 C 
HETATM   10  C6  UNL     1       0.697  90.231  22.463  1.00  0.00     0.001 C 
HETATM   11  C7  UNL     1       1.971  89.965  21.714  1.00  0.00     0.000 C 
HETATM   12  C8  UNL     1       2.987  89.277  22.594  1.00  0.00     0.001 C 
HETATM   13  C9  UNL     1       2.280  88.080  23.223  1.00  0.00     0.015 C 
ENDBRANCH   7   8
ENDBRANCH   4   7
BRANCH   6  14
HETATM   14  S3  UNL     1      -1.704  82.708  27.033  1.00  0.00     0.265 S 
HETATM   15  O1  UNL     1      -1.563  81.410  26.300  1.00  0.00    -0.200 OA
HETATM   16  O2  UNL     1      -1.038  82.687  28.375  1.00  0.00    -0.200 OA
BRANCH  14  17
HETATM   17  N2  UNL     1      -3.368  83.126  27.263  1.00  0.00    -0.324 N 
ATOM     18  H22 UNL     1      -3.735  83.779  27.956  1.00  0.00     0.169 HD
ATOM     19  H21 UNL     1      -3.893  82.591  26.572  1.00  0.00     0.169 HD
ENDBRANCH  14  17
ENDBRANCH   6  14
TORSDOF 4
ENDMDL
MODEL 2
REMARK VINA RESULT: -6.039768697      4.711      7.107
REMARK  4 active torsions:
REMARK  status: ('A' for Active; 'I' for Inactive)
REMARK    1  A    between atoms: C3_4  and  S1_5 
REMARK    2  A    between atoms: S1_5  and  C4_6 
REMARK    3  A    between atoms: C10_13  and  S3_14 
REMARK    4  A    between atoms: S3_14  and  N2_15 
ROOT
HETATM    1  N1  UNL     1       4.082  87.493  23.274  1.00  0.00    -0.100 NA
HETATM    2  C1  UNL     1       2.699  87.242  23.675  1.00  0.00     0.078 A 
HETATM    3  C2  UNL     1       2.337  86.129  24.348  1.00  0.00     0.054 A 
HETATM    4  C3  UNL     1       1.018  85.997  24.673  1.00  0.00     0.044 A 
HETATM    5  S2  UNL     1       0.315  87.408  24.041  1.00  0.00    -0.068 SA
HETATM    6  C10 UNL     1       1.705  88.138  23.379  1.00  0.00     0.145 A 
ENDROOT
BRANCH   4   7
HETATM    7  S1  UNL     1       0.165  84.682  25.549  1.00  0.00    -0.118 SA
BRANCH   7   8
HETATM    8  C4  UNL     1      -1.464  85.281  26.090  1.00  0.00     0.053 C 
HETATM    9  C5  UNL     1      -1.852  84.405  27.289  1.00  0.00     0.015 C 
HETATM   10  C6  UNL     1      -2.128  83.025  26.709  1.00  0.00     0.001 C 
HETATM   11  C7  UNL     1      -3.342  83.068  25.828  1.00  0.00     0.000 C 
HETATM   12  C8  UNL     1      -3.718  84.489  25.487  1.00  0.00     0.001 C 
HETATM   13  C9  UNL     1      -2.452  85.163  24.967  1.00  0.00     0.015 C 
ENDBRANCH   7   8
ENDBRANCH   4   7
BRANCH   6  14
HETATM   14  S3  UNL     1       1.861  89.677  22.515  1.00  0.00     0.265 S 
HETATM   15  O1  UNL     1       2.679  90.659  23.298  1.00  0.00    -0.200 OA
HETATM   16  O2  UNL     1       2.459  89.368  21.176  1.00  0.00    -0.200 OA
BRANCH  14  17
HETATM   17  N2  UNL     1       0.249  90.255  22.265  1.00  0.00    -0.324 N 
ATOM     18  H22 UNL     1      -0.572  89.683  22.068  1.00  0.00     0.169 HD
ATOM     19  H21 UNL     1       0.294  91.271  22.357  1.00  0.00     0.169 HD
ENDBRANCH  14  17
ENDBRANCH   6  14
TORSDOF 4
ENDMDL
MODEL 3
REMARK VINA RESULT: -6.027158022      4.701      7.492
REMARK  4 active torsions:
REMARK  status: ('A' for Active; 'I' for Inactive)
REMARK    1  A    between atoms: C3_4  and  S1_5 
REMARK    2  A    between atoms: S1_5  and  C4_6 
REMARK    3  A    between atoms: C10_13  and  S3_14 
REMARK    4  A    between atoms: S3_14  and  N2_15 
ROOT
HETATM    1  N1  UNL     1      -0.788  89.438  23.003  1.00  0.00    -0.100 NA
HETATM    2  C1  UNL     1       0.052  88.373  23.549  1.00  0.00     0.078 A 
HETATM    3  C2  UNL     1      -0.470  87.280  24.147  1.00  0.00     0.054 A 
HETATM    4  C3  UNL     1       0.406  86.349  24.621  1.00  0.00     0.044 A 
HETATM    5  S2  UNL     1       1.924  87.004  24.230  1.00  0.00    -0.068 SA
HETATM    6  C10 UNL     1       1.418  88.444  23.475  1.00  0.00     0.145 A 
ENDROOT
BRANCH   4   7
HETATM    7  S1  UNL     1       0.102  84.791  25.462  1.00  0.00    -0.118 SA
BRANCH   7   8
HETATM    8  C4  UNL     1      -1.527  84.854  26.269  1.00  0.00     0.053 C 
HETATM    9  C5  UNL     1      -1.347  84.155  27.623  1.00  0.00     0.015 C 
HETATM   10  C6  UNL     1      -1.143  82.683  27.294  1.00  0.00     0.001 C 
HETATM   11  C7  UNL     1      -2.396  82.106  26.702  1.00  0.00     0.000 C 
HETATM   12  C8  UNL     1      -3.350  83.197  26.278  1.00  0.00     0.001 C 
HETATM   13  C9  UNL     1      -2.549  84.165  25.414  1.00  0.00     0.015 C 
ENDBRANCH   7   8
ENDBRANCH   4   7
BRANCH   6  14
HETATM   14  S3  UNL     1       2.394  89.737  22.756  1.00  0.00     0.265 S 
HETATM   15  O1  UNL     1       2.351  90.980  23.592  1.00  0.00    -0.200 OA
HETATM   16  O2  UNL     1       3.784  89.198  22.597  1.00  0.00    -0.200 OA
BRANCH  14  17
HETATM   17  N2  UNL     1       1.739  90.014  21.178  1.00  0.00    -0.324 N 
ATOM     18  H22 UNL     1       1.700  90.910  20.691  1.00  0.00     0.169 HD
ATOM     19  H21 UNL     1       1.409  89.108  20.845  1.00  0.00     0.169 HD
ENDBRANCH  14  17
ENDBRANCH   6  14
TORSDOF 4
ENDMDL
MODEL 4
REMARK VINA RESULT: -6.004328450      1.524      1.895
REMARK  4 active torsions:
REMARK  status: ('A' for Active; 'I' for Inactive)
REMARK    1  A    between atoms: C3_4  and  S1_5 
REMARK    2  A    between atoms: S1_5  and  C4_6 
REMARK    3  A    between atoms: C10_13  and  S3_14 
REMARK    4  A    between atoms: S3_14  and  N2_15 
ROOT
HETATM    1  N1  UNL     1      -3.459  85.610  27.442  1.00  0.00    -0.100 NA
HETATM    2  C1  UNL     1      -2.337  85.735  26.512  1.00  0.00     0.078 A 
HETATM    3  C2  UNL     1      -2.139  86.846  25.771  1.00  0.00     0.054 A 
HETATM    4  C3  UNL     1      -1.061  86.856  24.935  1.00  0.00     0.044 A 
HETATM    5  S2  UNL     1      -0.351  85.333  25.193  1.00  0.00    -0.068 SA
HETATM    6  C10 UNL     1      -1.434  84.717  26.354  1.00  0.00     0.145 A 
ENDROOT
BRANCH   4   7
HETATM    7  S1  UNL     1      -0.475  88.127  23.811  1.00  0.00    -0.118 SA
BRANCH   7   8
HETATM    8  C4  UNL     1       1.226  88.586  24.259  1.00  0.00     0.053 C 
HETATM    9  C5  UNL     1       1.435  90.002  23.704  1.00  0.00     0.015 C 
HETATM   10  C6  UNL     1       1.470  89.841  22.191  1.00  0.00     0.001 C 
HETATM   11  C7  UNL     1       2.686  89.062  21.781  1.00  0.00     0.000 C 
HETATM   12  C8  UNL     1       3.313  88.368  22.966  1.00  0.00     0.001 C 
HETATM   13  C9  UNL     1       2.194  87.604  23.667  1.00  0.00     0.015 C 
ENDBRANCH   7   8
ENDBRANCH   4   7
BRANCH   6  14
HETATM   14  S3  UNL     1      -1.423  83.147  27.178  1.00  0.00     0.265 S 
HETATM   15  O1  UNL     1      -0.721  82.108  26.358  1.00  0.00    -0.200 OA
HETATM   16  O2  UNL     1      -0.776  83.360  28.513  1.00  0.00    -0.200 OA
BRANCH  14  17
HETATM   17  N2  UNL     1      -3.081  82.730  27.443  1.00  0.00    -0.324 N 
ATOM     18  H22 UNL     1      -3.585  82.794  28.328  1.00  0.00     0.169 HD
ATOM     19  H21 UNL     1      -3.441  82.413  26.542  1.00  0.00     0.169 HD
ENDBRANCH  14  17
ENDBRANCH   6  14
TORSDOF 4
ENDMDL
MODEL 5
REMARK VINA RESULT: -5.873364539      4.595      7.134
REMARK  4 active torsions:
REMARK  status: ('A' for Active; 'I' for Inactive)
REMARK    1  A    between atoms: C3_4  and  S1_5 
REMARK    2  A    between atoms: S1_5  and  C4_6 
REMARK    3  A    between atoms: C10_13  and  S3_14 
REMARK    4  A    between atoms: S3_14  and  N2_15 
ROOT
HETATM    1  N1  UNL     1       2.900  87.450  23.383  1.00  0.00    -0.100 NA
HETATM    2  C1  UNL     1       1.486  87.654  23.693  1.00  0.00     0.078 A 
HETATM    3  C2  UNL     1       0.774  86.767  24.420  1.00  0.00     0.054 A 
HETATM    4  C3  UNL     1      -0.540  87.058  24.649  1.00  0.00     0.044 A 
HETATM    5  S2  UNL     1      -0.756  88.544  23.854  1.00  0.00    -0.068 SA
HETATM    6  C10 UNL     1       0.820  88.767  23.249  1.00  0.00     0.145 A 
ENDROOT
BRANCH   4   7
HETATM    7  S1  UNL     1      -1.790  86.142  25.555  1.00  0.00    -0.118 SA
BRANCH   7   8
HETATM    8  C4  UNL     1      -1.386  84.369  25.507  1.00  0.00     0.053 C 
HETATM    9  C5  UNL     1      -2.377  83.691  26.463  1.00  0.00     0.015 C 
HETATM   10  C6  UNL     1      -1.963  84.137  27.858  1.00  0.00     0.001 C 
HETATM   11  C7  UNL     1      -0.615  83.573  28.203  1.00  0.00     0.000 C 
HETATM   12  C8  UNL     1       0.084  83.044  26.974  1.00  0.00     0.001 C 
HETATM   13  C9  UNL     1       0.037  84.156  25.932  1.00  0.00     0.015 C 
ENDBRANCH   7   8
ENDBRANCH   4   7
BRANCH   6  14
HETATM   14  S3  UNL     1       1.473  90.101  22.282  1.00  0.00     0.265 S 
HETATM   15  O1  UNL     1       0.376  90.960  21.730  1.00  0.00    -0.200 OA
HETATM   16  O2  UNL     1       2.410  90.864  23.168  1.00  0.00    -0.200 OA
BRANCH  14  17
HETATM   17  N2  UNL     1       2.401  89.371  21.017  1.00  0.00    -0.324 N 
ATOM     18  H22 UNL     1       3.361  89.031  21.093  1.00  0.00     0.169 HD
ATOM     19  H21 UNL     1       1.796  89.352  20.196  1.00  0.00     0.169 HD
ENDBRANCH  14  17
ENDBRANCH   6  14
TORSDOF 4
ENDMDL
