MODEL 1
REMARK VINA RESULT: -9.361795931      0.000      0.000
REMARK  12 active torsions:
REMARK  status: ('A' for Active; 'I' for Inactive)
REMARK    1  A    between atoms: C6_8  and  N2_9 
REMARK    2  A    between atoms: N2_9  and  C7_11 
REMARK    3  A    between atoms: C7_11  and  C8_12 
REMARK    4  A    between atoms: C8_12  and  C9_13 
REMARK    5  A    between atoms: C9_13  and  C10_14 
REMARK    6  A    between atoms: C10_14  and  C11_15 
REMARK    7  A    between atoms: C11_15  and  C12_16 
REMARK    8  A    between atoms: C12_16  and  C13_17 
REMARK       I    between atoms: C13_17  and  N3_19 
REMARK    9  A    between atoms: N3_19  and  C14_20 
REMARK   10  A    between atoms: N3_19  and  C16_24 
REMARK   11  A    between atoms: C14_20  and  C15_21 
REMARK   12  A    between atoms: C16_24  and  C17_25 
ROOT
HETATM    1  C13 UNL     1      -1.451   4.921  10.930  1.00  0.00     0.224 C 
HETATM    2  O1  UNL     1      -1.441   5.629  11.984  1.00  0.00    -0.273 OA
HETATM    3  N3  UNL     1      -2.647   4.222  10.632  1.00  0.00    -0.317 N 
ENDROOT
BRANCH   3   4
HETATM    4  C14 UNL     1      -3.738   4.350  11.607  1.00  0.00     0.244 C 
BRANCH   4   5
HETATM    5  C15 UNL     1      -3.638   3.280  12.637  1.00  0.00     0.191 C 
HETATM    6  O2  UNL     1      -3.765   3.569  13.848  1.00  0.00    -0.647 OA
HETATM    7  O3  UNL     1      -3.402   1.965  12.302  1.00  0.00    -0.647 OA
ENDBRANCH   4   5
ENDBRANCH   3   4
BRANCH   3   8
HETATM    8  C16 UNL     1      -2.751   3.415   9.481  1.00  0.00     0.111 C 
BRANCH   8   9
HETATM    9  C17 UNL     1      -3.694   3.772   8.426  1.00  0.00     0.048 A 
HETATM   10  C18 UNL     1      -3.336   4.790   7.544  1.00  0.00     0.032 A 
HETATM   11  C19 UNL     1      -4.078   5.214   6.473  1.00  0.00    -0.005 A 
HETATM   12  C20 UNL     1      -3.669   6.237   5.632  1.00  0.00     0.053 A 
HETATM   13  C24 UNL     1      -5.286   4.541   6.290  1.00  0.00     0.048 A 
HETATM   14  C21 UNL     1      -4.453   6.622   4.586  1.00  0.00     0.105 A 
HETATM   15  C22 UNL     1      -5.662   5.971   4.380  1.00  0.00     0.107 A 
HETATM   16  O6  UNL     1      -4.339   7.596   3.569  1.00  0.00    -0.323 OA
HETATM   17  C23 UNL     1      -6.061   4.957   5.214  1.00  0.00     0.070 A 
HETATM   18  O5  UNL     1      -6.236   6.564   3.261  1.00  0.00    -0.323 OA
HETATM   19  C26 UNL     1      -5.170   7.159   2.491  1.00  0.00     0.352 C 
HETATM   20  N4  UNL     1      -5.645   3.570   7.115  1.00  0.00    -0.322 N 
HETATM   21  C25 UNL     1      -4.892   3.168   8.168  1.00  0.00     0.257 A 
ATOM     22  H4  UNL     1      -6.535   3.100   6.950  1.00  0.00     0.169 HD
HETATM   23  O4  UNL     1      -5.350   2.236   8.871  1.00  0.00    -0.267 OA
ENDBRANCH   8   9
ENDBRANCH   3   8
BRANCH   1  24
HETATM   24  C12 UNL     1      -0.222   4.883  10.123  1.00  0.00     0.103 C 
BRANCH  24  25
HETATM   25  C11 UNL     1       1.050   4.957  10.865  1.00  0.00     0.009 C 
BRANCH  25  26
HETATM   26  C10 UNL     1       1.438   3.792  11.726  1.00  0.00     0.001 C 
BRANCH  26  27
HETATM   27  C9  UNL     1       1.452   4.108  13.194  1.00  0.00     0.002 C 
BRANCH  27  28
HETATM   28  C8  UNL     1       1.179   2.880  14.006  1.00  0.00     0.020 C 
BRANCH  28  29
HETATM   29  C7  UNL     1      -0.322   2.660  14.070  1.00  0.00     0.138 C 
BRANCH  29  30
HETATM   30  N2  UNL     1      -0.781   2.854  15.416  1.00  0.00    -0.226 N 
ATOM     31  H2  UNL     1      -0.556   3.717  15.911  1.00  0.00     0.177 HD
BRANCH  30  32
HETATM   32  C6  UNL     1      -1.474   1.943  15.999  1.00  0.00     0.678 A 
HETATM   33  N1  UNL     1      -2.574   1.517  15.335  1.00  0.00    -0.196 N 
HETATM   34  C4  UNL     1      -3.354   0.580  15.887  1.00  0.00     0.024 A 
ATOM     35  H1  UNL     1      -2.807   1.908  14.422  1.00  0.00     0.184 HD
HETATM   36  C3  UNL     1      -3.046   0.049  17.110  1.00  0.00     0.050 A 
HETATM   37  C5  UNL     1      -4.575   0.069  15.213  1.00  0.00     0.068 C 
HETATM   38  C2  UNL     1      -1.931   0.491  17.762  1.00  0.00     0.024 A 
HETATM   39  C1  UNL     1      -1.555  -0.039  19.091  1.00  0.00     0.068 C 
HETATM   40  N5  UNL     1      -1.167   1.435  17.186  1.00  0.00    -0.196 N 
ATOM     41  H5  UNL     1      -0.334   1.766  17.671  1.00  0.00     0.184 HD
ENDBRANCH  30  32
ENDBRANCH  29  30
ENDBRANCH  28  29
ENDBRANCH  27  28
ENDBRANCH  26  27
ENDBRANCH  25  26
ENDBRANCH  24  25
ENDBRANCH   1  24
TORSDOF 12
ENDMDL
MODEL 2
REMARK VINA RESULT: -9.323283797      2.573     10.679
REMARK  12 active torsions:
REMARK  status: ('A' for Active; 'I' for Inactive)
REMARK    1  A    between atoms: C6_8  and  N2_9 
REMARK    2  A    between atoms: N2_9  and  C7_11 
REMARK    3  A    between atoms: C7_11  and  C8_12 
REMARK    4  A    between atoms: C8_12  and  C9_13 
REMARK    5  A    between atoms: C9_13  and  C10_14 
REMARK    6  A    between atoms: C10_14  and  C11_15 
REMARK    7  A    between atoms: C11_15  and  C12_16 
REMARK    8  A    between atoms: C12_16  and  C13_17 
REMARK       I    between atoms: C13_17  and  N3_19 
REMARK    9  A    between atoms: N3_19  and  C14_20 
REMARK   10  A    between atoms: N3_19  and  C16_24 
REMARK   11  A    between atoms: C14_20  and  C15_21 
REMARK   12  A    between atoms: C16_24  and  C17_25 
ROOT
HETATM    1  C13 UNL     1      -5.715   3.512   9.566  1.00  0.00     0.224 C 
HETATM    2  O1  UNL     1      -6.416   4.516   9.224  1.00  0.00    -0.273 OA
HETATM    3  N3  UNL     1      -4.307   3.647   9.477  1.00  0.00    -0.317 N 
ENDROOT
BRANCH   3   4
HETATM    4  C14 UNL     1      -3.806   4.921   8.948  1.00  0.00     0.244 C 
BRANCH   4   5
HETATM    5  C15 UNL     1      -3.705   4.861   7.464  1.00  0.00     0.191 C 
HETATM    6  O2  UNL     1      -3.395   5.887   6.820  1.00  0.00    -0.647 OA
HETATM    7  O3  UNL     1      -3.952   3.700   6.763  1.00  0.00    -0.647 OA
ENDBRANCH   4   5
ENDBRANCH   3   4
BRANCH   3   8
HETATM    8  C16 UNL     1      -3.452   2.586   9.839  1.00  0.00     0.111 C 
BRANCH   8   9
HETATM    9  C17 UNL     1      -2.860   2.553  11.172  1.00  0.00     0.048 A 
HETATM   10  C18 UNL     1      -3.563   1.902  12.185  1.00  0.00     0.032 A 
HETATM   11  C19 UNL     1      -3.130   1.736  13.475  1.00  0.00    -0.005 A 
HETATM   12  C20 UNL     1      -3.878   1.081  14.440  1.00  0.00     0.053 A 
HETATM   13  C24 UNL     1      -1.876   2.281  13.750  1.00  0.00     0.048 A 
HETATM   14  C21 UNL     1      -3.400   0.952  15.710  1.00  0.00     0.105 A 
HETATM   15  C22 UNL     1      -2.156   1.487  16.014  1.00  0.00     0.107 A 
HETATM   16  O6  UNL     1      -3.889   0.361  16.896  1.00  0.00    -0.323 OA
HETATM   17  C23 UNL     1      -1.418   2.133  15.054  1.00  0.00     0.070 A 
HETATM   18  O5  UNL     1      -1.932   1.208  17.358  1.00  0.00    -0.323 OA
HETATM   19  C26 UNL     1      -2.747   0.069  17.706  1.00  0.00     0.352 C 
HETATM   20  N4  UNL     1      -1.191   2.903  12.804  1.00  0.00    -0.322 N 
HETATM   21  C25 UNL     1      -1.641   3.053  11.533  1.00  0.00     0.257 A 
ATOM     22  H4  UNL     1      -0.278   3.289  13.042  1.00  0.00     0.169 HD
HETATM   23  O4  UNL     1      -0.891   3.664  10.734  1.00  0.00    -0.267 OA
ENDBRANCH   8   9
ENDBRANCH   3   8
BRANCH   1  24
HETATM   24  C12 UNL     1      -6.428   2.304  10.010  1.00  0.00     0.103 C 
BRANCH  24  25
HETATM   25  C11 UNL     1      -7.892   2.419  10.138  1.00  0.00     0.009 C 
BRANCH  25  26
HETATM   26  C10 UNL     1      -8.750   1.716   9.129  1.00  0.00     0.001 C 
BRANCH  26  27
HETATM   27  C9  UNL     1      -8.010   1.318   7.884  1.00  0.00     0.002 C 
BRANCH  27  28
HETATM   28  C8  UNL     1      -8.685   1.868   6.665  1.00  0.00     0.020 C 
BRANCH  28  29
HETATM   29  C7  UNL     1      -8.572   3.382   6.686  1.00  0.00     0.138 C 
BRANCH  29  30
HETATM   30  N2  UNL     1      -7.252   3.773   6.278  1.00  0.00    -0.226 N 
ATOM     31  H2  UNL     1      -6.437   3.314   6.685  1.00  0.00     0.177 HD
BRANCH  30  32
HETATM   32  C6  UNL     1      -7.095   4.699   5.402  1.00  0.00     0.678 A 
HETATM   33  N1  UNL     1      -8.226   5.304   4.968  1.00  0.00    -0.196 N 
HETATM   34  C4  UNL     1      -8.142   6.269   4.045  1.00  0.00     0.024 A 
ATOM     35  H1  UNL     1      -9.133   5.027   5.342  1.00  0.00     0.184 HD
HETATM   36  C3  UNL     1      -6.927   6.649   3.542  1.00  0.00     0.050 A 
HETATM   37  C5  UNL     1      -9.343   6.974   3.526  1.00  0.00     0.068 C 
HETATM   38  C2  UNL     1      -5.800   6.027   3.994  1.00  0.00     0.024 A 
HETATM   39  C1  UNL     1      -4.461   6.388   3.479  1.00  0.00     0.068 C 
HETATM   40  N5  UNL     1      -5.913   5.060   4.920  1.00  0.00    -0.196 N 
ATOM     41  H5  UNL     1      -5.072   4.594   5.260  1.00  0.00     0.184 HD
ENDBRANCH  30  32
ENDBRANCH  29  30
ENDBRANCH  28  29
ENDBRANCH  27  28
ENDBRANCH  26  27
ENDBRANCH  25  26
ENDBRANCH  24  25
ENDBRANCH   1  24
TORSDOF 12
ENDMDL
MODEL 3
REMARK VINA RESULT: -9.320347045      0.488      1.464
REMARK  12 active torsions:
REMARK  status: ('A' for Active; 'I' for Inactive)
REMARK    1  A    between atoms: C6_8  and  N2_9 
REMARK    2  A    between atoms: N2_9  and  C7_11 
REMARK    3  A    between atoms: C7_11  and  C8_12 
REMARK    4  A    between atoms: C8_12  and  C9_13 
REMARK    5  A    between atoms: C9_13  and  C10_14 
REMARK    6  A    between atoms: C10_14  and  C11_15 
REMARK    7  A    between atoms: C11_15  and  C12_16 
REMARK    8  A    between atoms: C12_16  and  C13_17 
REMARK       I    between atoms: C13_17  and  N3_19 
REMARK    9  A    between atoms: N3_19  and  C14_20 
REMARK   10  A    between atoms: N3_19  and  C16_24 
REMARK   11  A    between atoms: C14_20  and  C15_21 
REMARK   12  A    between atoms: C16_24  and  C17_25 
ROOT
HETATM    1  C13 UNL     1      -1.480   4.994  10.984  1.00  0.00     0.224 C 
HETATM    2  O1  UNL     1      -1.529   5.627  12.085  1.00  0.00    -0.273 OA
HETATM    3  N3  UNL     1      -2.578   4.155  10.670  1.00  0.00    -0.317 N 
ENDROOT
BRANCH   3   4
HETATM    4  C14 UNL     1      -3.640   4.065  11.681  1.00  0.00     0.244 C 
BRANCH   4   5
HETATM    5  C15 UNL     1      -3.831   2.652  12.105  1.00  0.00     0.191 C 
HETATM    6  O2  UNL     1      -4.980   2.156  12.117  1.00  0.00    -0.647 OA
HETATM    7  O3  UNL     1      -2.775   1.858  12.497  1.00  0.00    -0.647 OA
ENDBRANCH   4   5
ENDBRANCH   3   4
BRANCH   3   8
HETATM    8  C16 UNL     1      -2.611   3.418   9.469  1.00  0.00     0.111 C 
BRANCH   8   9
HETATM    9  C17 UNL     1      -3.566   3.774   8.425  1.00  0.00     0.048 A 
HETATM   10  C18 UNL     1      -3.237   4.820   7.564  1.00  0.00     0.032 A 
HETATM   11  C19 UNL     1      -3.993   5.248   6.505  1.00  0.00    -0.005 A 
HETATM   12  C20 UNL     1      -3.612   6.299   5.685  1.00  0.00     0.053 A 
HETATM   13  C24 UNL     1      -5.184   4.549   6.310  1.00  0.00     0.048 A 
HETATM   14  C21 UNL     1      -4.409   6.686   4.649  1.00  0.00     0.105 A 
HETATM   15  C22 UNL     1      -5.602   6.010   4.433  1.00  0.00     0.107 A 
HETATM   16  O6  UNL     1      -4.323   7.685   3.654  1.00  0.00    -0.323 OA
HETATM   17  C23 UNL     1      -5.973   4.968   5.246  1.00  0.00     0.070 A 
HETATM   18  O5  UNL     1      -6.194   6.612   3.328  1.00  0.00    -0.323 OA
HETATM   19  C26 UNL     1      -5.146   7.251   2.568  1.00  0.00     0.352 C 
HETATM   20  N4  UNL     1      -5.516   3.552   7.114  1.00  0.00    -0.322 N 
HETATM   21  C25 UNL     1      -4.749   3.146   8.157  1.00  0.00     0.257 A 
ATOM     22  H4  UNL     1      -6.394   3.063   6.942  1.00  0.00     0.169 HD
HETATM   23  O4  UNL     1      -5.182   2.187   8.840  1.00  0.00    -0.267 OA
ENDBRANCH   8   9
ENDBRANCH   3   8
BRANCH   1  24
HETATM   24  C12 UNL     1      -0.287   5.182  10.143  1.00  0.00     0.103 C 
BRANCH  24  25
HETATM   25  C11 UNL     1       1.007   5.232  10.848  1.00  0.00     0.009 C 
BRANCH  25  26
HETATM   26  C10 UNL     1       1.371   4.090  11.748  1.00  0.00     0.001 C 
BRANCH  26  27
HETATM   27  C9  UNL     1       1.504   4.481  13.192  1.00  0.00     0.002 C 
BRANCH  27  28
HETATM   28  C8  UNL     1       1.429   3.278  14.079  1.00  0.00     0.020 C 
BRANCH  28  29
HETATM   29  C7  UNL     1      -0.018   2.825  14.167  1.00  0.00     0.138 C 
BRANCH  29  30
HETATM   30  N2  UNL     1      -0.485   2.960  15.518  1.00  0.00    -0.226 N 
ATOM     31  H2  UNL     1      -0.167   3.742  16.090  1.00  0.00     0.177 HD
BRANCH  30  32
HETATM   32  C6  UNL     1      -1.301   2.097  16.008  1.00  0.00     0.678 A 
HETATM   33  N1  UNL     1      -0.918   1.505  17.163  1.00  0.00    -0.196 N 
HETATM   34  C4  UNL     1      -1.711   0.586  17.725  1.00  0.00     0.024 A 
ATOM     35  H1  UNL     1      -0.032   1.759  17.601  1.00  0.00     0.184 HD
HETATM   36  C3  UNL     1      -2.903   0.245  17.145  1.00  0.00     0.050 A 
HETATM   37  C5  UNL     1      -1.351  -0.102  18.992  1.00  0.00     0.068 C 
HETATM   38  C2  UNL     1      -3.271   0.854  15.981  1.00  0.00     0.024 A 
HETATM   39  C1  UNL     1      -4.541   0.518  15.303  1.00  0.00     0.068 C 
HETATM   40  N5  UNL     1      -2.454   1.773  15.437  1.00  0.00    -0.196 N 
ATOM     41  H5  UNL     1      -2.727   2.231  14.567  1.00  0.00     0.184 HD
ENDBRANCH  30  32
ENDBRANCH  29  30
ENDBRANCH  28  29
ENDBRANCH  27  28
ENDBRANCH  26  27
ENDBRANCH  25  26
ENDBRANCH  24  25
ENDBRANCH   1  24
TORSDOF 12
ENDMDL
MODEL 4
REMARK VINA RESULT: -9.290930651      1.095      1.447
REMARK  12 active torsions:
REMARK  status: ('A' for Active; 'I' for Inactive)
REMARK    1  A    between atoms: C6_8  and  N2_9 
REMARK    2  A    between atoms: N2_9  and  C7_11 
REMARK    3  A    between atoms: C7_11  and  C8_12 
REMARK    4  A    between atoms: C8_12  and  C9_13 
REMARK    5  A    between atoms: C9_13  and  C10_14 
REMARK    6  A    between atoms: C10_14  and  C11_15 
REMARK    7  A    between atoms: C11_15  and  C12_16 
REMARK    8  A    between atoms: C12_16  and  C13_17 
REMARK       I    between atoms: C13_17  and  N3_19 
REMARK    9  A    between atoms: N3_19  and  C14_20 
REMARK   10  A    between atoms: N3_19  and  C16_24 
REMARK   11  A    between atoms: C14_20  and  C15_21 
REMARK   12  A    between atoms: C16_24  and  C17_25 
ROOT
HETATM    1  C13 UNL     1      -2.345   4.707  10.712  1.00  0.00     0.224 C 
HETATM    2  O1  UNL     1      -2.340   5.232  11.870  1.00  0.00    -0.273 OA
HETATM    3  N3  UNL     1      -3.398   3.807  10.415  1.00  0.00    -0.317 N 
ENDROOT
BRANCH   3   4
HETATM    4  C14 UNL     1      -4.349   3.535  11.499  1.00  0.00     0.244 C 
BRANCH   4   5
HETATM    5  C15 UNL     1      -4.020   2.245  12.165  1.00  0.00     0.191 C 
HETATM    6  O2  UNL     1      -4.721   1.841  13.118  1.00  0.00    -0.647 OA
HETATM    7  O3  UNL     1      -2.951   1.471  11.766  1.00  0.00    -0.647 OA
ENDBRANCH   4   5
ENDBRANCH   3   4
BRANCH   3   8
HETATM    8  C16 UNL     1      -3.485   3.181   9.155  1.00  0.00     0.111 C 
BRANCH   8   9
HETATM    9  C17 UNL     1      -4.432   3.677   8.161  1.00  0.00     0.048 A 
HETATM   10  C18 UNL     1      -3.983   4.628   7.246  1.00  0.00     0.032 A 
HETATM   11  C19 UNL     1      -4.723   5.159   6.222  1.00  0.00    -0.005 A 
HETATM   12  C20 UNL     1      -4.221   6.107   5.345  1.00  0.00     0.053 A 
HETATM   13  C24 UNL     1      -6.028   4.678   6.127  1.00  0.00     0.048 A 
HETATM   14  C21 UNL     1      -5.006   6.606   4.348  1.00  0.00     0.105 A 
HETATM   15  C22 UNL     1      -6.310   6.147   4.231  1.00  0.00     0.107 A 
HETATM   16  O6  UNL     1      -4.814   7.551   3.316  1.00  0.00    -0.323 OA
HETATM   17  C23 UNL     1      -6.802   5.206   5.101  1.00  0.00     0.070 A 
HETATM   18  O5  UNL     1      -6.861   6.820   3.146  1.00  0.00    -0.323 OA
HETATM   19  C26 UNL     1      -5.772   7.245   2.300  1.00  0.00     0.352 C 
HETATM   20  N4  UNL     1      -6.475   3.774   6.985  1.00  0.00    -0.322 N 
HETATM   21  C25 UNL     1      -5.722   3.262   7.990  1.00  0.00     0.257 A 
ATOM     22  H4  UNL     1      -7.435   3.445   6.885  1.00  0.00     0.169 HD
HETATM   23  O4  UNL     1      -6.268   2.411   8.732  1.00  0.00    -0.267 OA
ENDBRANCH   8   9
ENDBRANCH   3   8
BRANCH   1  24
HETATM   24  C12 UNL     1      -1.254   5.073   9.795  1.00  0.00     0.103 C 
BRANCH  24  25
HETATM   25  C11 UNL     1      -0.232   5.991  10.328  1.00  0.00     0.009 C 
BRANCH  25  26
HETATM   26  C10 UNL     1       1.061   5.410  10.816  1.00  0.00     0.001 C 
BRANCH  26  27
HETATM   27  C9  UNL     1       1.073   3.908  10.839  1.00  0.00     0.002 C 
BRANCH  27  28
HETATM   28  C8  UNL     1       1.471   3.398  12.190  1.00  0.00     0.020 C 
BRANCH  28  29
HETATM   29  C7  UNL     1       0.449   3.868  13.209  1.00  0.00     0.138 C 
BRANCH  29  30
HETATM   30  N2  UNL     1      -0.576   2.873  13.359  1.00  0.00    -0.226 N 
ATOM     31  H2  UNL     1      -1.043   2.496  12.534  1.00  0.00     0.177 HD
BRANCH  30  32
HETATM   32  C6  UNL     1      -0.906   2.457  14.529  1.00  0.00     0.678 A 
HETATM   33  N1  UNL     1      -1.881   1.520  14.573  1.00  0.00    -0.196 N 
HETATM   34  C4  UNL     1      -2.288   1.049  15.757  1.00  0.00     0.024 A 
ATOM     35  H1  UNL     1      -2.303   1.176  13.710  1.00  0.00     0.184 HD
HETATM   36  C3  UNL     1      -1.724   1.503  16.919  1.00  0.00     0.050 A 
HETATM   37  C5  UNL     1      -3.353   0.021  15.877  1.00  0.00     0.068 C 
HETATM   38  C2  UNL     1      -0.741   2.448  16.851  1.00  0.00     0.024 A 
HETATM   39  C1  UNL     1      -0.103   2.984  18.074  1.00  0.00     0.068 C 
HETATM   40  N5  UNL     1      -0.353   2.905  15.649  1.00  0.00    -0.196 N 
ATOM     41  H5  UNL     1       0.382   3.610  15.596  1.00  0.00     0.184 HD
ENDBRANCH  30  32
ENDBRANCH  29  30
ENDBRANCH  28  29
ENDBRANCH  27  28
ENDBRANCH  26  27
ENDBRANCH  25  26
ENDBRANCH  24  25
ENDBRANCH   1  24
TORSDOF 12
ENDMDL
MODEL 5
REMARK VINA RESULT: -9.241333195      2.609     11.004
REMARK  12 active torsions:
REMARK  status: ('A' for Active; 'I' for Inactive)
REMARK    1  A    between atoms: C6_8  and  N2_9 
REMARK    2  A    between atoms: N2_9  and  C7_11 
REMARK    3  A    between atoms: C7_11  and  C8_12 
REMARK    4  A    between atoms: C8_12  and  C9_13 
REMARK    5  A    between atoms: C9_13  and  C10_14 
REMARK    6  A    between atoms: C10_14  and  C11_15 
REMARK    7  A    between atoms: C11_15  and  C12_16 
REMARK    8  A    between atoms: C12_16  and  C13_17 
REMARK       I    between atoms: C13_17  and  N3_19 
REMARK    9  A    between atoms: N3_19  and  C14_20 
REMARK   10  A    between atoms: N3_19  and  C16_24 
REMARK   11  A    between atoms: C14_20  and  C15_21 
REMARK   12  A    between atoms: C16_24  and  C17_25 
ROOT
HETATM    1  C13 UNL     1      -6.098   3.498   9.577  1.00  0.00     0.224 C 
HETATM    2  O1  UNL     1      -6.831   4.497   9.296  1.00  0.00    -0.273 OA
HETATM    3  N3  UNL     1      -4.696   3.671   9.461  1.00  0.00    -0.317 N 
ENDROOT
BRANCH   3   4
HETATM    4  C14 UNL     1      -4.239   4.980   8.976  1.00  0.00     0.244 C 
BRANCH   4   5
HETATM    5  C15 UNL     1      -4.022   4.939   7.504  1.00  0.00     0.191 C 
HETATM    6  O2  UNL     1      -3.442   5.889   6.935  1.00  0.00    -0.647 OA
HETATM    7  O3  UNL     1      -4.447   3.878   6.734  1.00  0.00    -0.647 OA
ENDBRANCH   4   5
ENDBRANCH   3   4
BRANCH   3   8
HETATM    8  C16 UNL     1      -3.807   2.618   9.755  1.00  0.00     0.111 C 
BRANCH   8   9
HETATM    9  C17 UNL     1      -3.159   2.558  11.062  1.00  0.00     0.048 A 
HETATM   10  C18 UNL     1      -3.841   1.928  12.102  1.00  0.00     0.032 A 
HETATM   11  C19 UNL     1      -3.360   1.741  13.372  1.00  0.00    -0.005 A 
HETATM   12  C20 UNL     1      -4.088   1.109  14.366  1.00  0.00     0.053 A 
HETATM   13  C24 UNL     1      -2.076   2.240  13.594  1.00  0.00     0.048 A 
HETATM   14  C21 UNL     1      -3.561   0.957  15.614  1.00  0.00     0.105 A 
HETATM   15  C22 UNL     1      -2.287   1.446  15.866  1.00  0.00     0.107 A 
HETATM   16  O6  UNL     1      -4.019   0.379  16.819  1.00  0.00    -0.323 OA
HETATM   17  C23 UNL     1      -1.568   2.069  14.877  1.00  0.00     0.070 A 
HETATM   18  O5  UNL     1      -2.016   1.153  17.198  1.00  0.00    -0.323 OA
HETATM   19  C26 UNL     1      -2.855   0.043  17.578  1.00  0.00     0.352 C 
HETATM   20  N4  UNL     1      -1.411   2.841  12.621  1.00  0.00    -0.322 N 
HETATM   21  C25 UNL     1      -1.909   3.013  11.371  1.00  0.00     0.257 A 
ATOM     22  H4  UNL     1      -0.475   3.193  12.820  1.00  0.00     0.169 HD
HETATM   23  O4  UNL     1      -1.173   3.600  10.543  1.00  0.00    -0.267 OA
ENDBRANCH   8   9
ENDBRANCH   3   8
BRANCH   1  24
HETATM   24  C12 UNL     1      -6.770   2.254   9.985  1.00  0.00     0.103 C 
BRANCH  24  25
HETATM   25  C11 UNL     1      -7.234   1.375   8.896  1.00  0.00     0.009 C 
BRANCH  25  26
HETATM   26  C10 UNL     1      -8.616   1.586   8.354  1.00  0.00     0.001 C 
BRANCH  26  27
HETATM   27  C9  UNL     1      -8.651   1.804   6.868  1.00  0.00     0.002 C 
BRANCH  27  28
HETATM   28  C8  UNL     1      -8.755   3.262   6.545  1.00  0.00     0.020 C 
BRANCH  28  29
HETATM   29  C7  UNL     1      -8.292   3.480   5.115  1.00  0.00     0.138 C 
BRANCH  29  30
HETATM   30  N2  UNL     1      -7.020   4.145   5.115  1.00  0.00    -0.226 N 
ATOM     31  H2  UNL     1      -6.247   3.763   5.661  1.00  0.00     0.177 HD
BRANCH  30  32
HETATM   32  C6  UNL     1      -6.853   5.220   4.431  1.00  0.00     0.678 A 
HETATM   33  N1  UNL     1      -5.635   5.801   4.527  1.00  0.00    -0.196 N 
HETATM   34  C4  UNL     1      -5.392   6.932   3.853  1.00  0.00     0.024 A 
ATOM     35  H1  UNL     1      -4.908   5.381   5.107  1.00  0.00     0.184 HD
HETATM   36  C3  UNL     1      -6.360   7.499   3.070  1.00  0.00     0.050 A 
HETATM   37  C5  UNL     1      -4.077   7.622   3.914  1.00  0.00     0.068 C 
HETATM   38  C2  UNL     1      -7.582   6.895   2.987  1.00  0.00     0.024 A 
HETATM   39  C1  UNL     1      -8.670   7.467   2.165  1.00  0.00     0.068 C 
HETATM   40  N5  UNL     1      -7.799   5.761   3.675  1.00  0.00    -0.196 N 
ATOM     41  H5  UNL     1      -8.711   5.308   3.614  1.00  0.00     0.184 HD
ENDBRANCH  30  32
ENDBRANCH  29  30
ENDBRANCH  28  29
ENDBRANCH  27  28
ENDBRANCH  26  27
ENDBRANCH  25  26
ENDBRANCH  24  25
ENDBRANCH   1  24
TORSDOF 12
ENDMDL
