MODEL 1
REMARK VINA RESULT: -9.144203860      0.000      0.000
REMARK  12 active torsions:
REMARK  status: ('A' for Active; 'I' for Inactive)
REMARK    1  A    between atoms: C4_4  and  O1_5 
REMARK    2  A    between atoms: O1_5  and  C5_6 
REMARK    3  A    between atoms: C5_6  and  C6_7 
REMARK    4  A    between atoms: C6_7  and  C7_8 
REMARK    5  A    between atoms: C7_8  and  C8_9 
REMARK    6  A    between atoms: C8_9  and  C9_10 
REMARK    7  A    between atoms: C9_10  and  C10_11 
REMARK    8  A    between atoms: C10_11  and  N1_12 
REMARK    9  A    between atoms: C16_21  and  C17_22 
REMARK       I    between atoms: C17_22  and  N3_24 
REMARK   10  A    between atoms: N3_24  and  C18_26 
REMARK   11  A    between atoms: C22_33  and  N5_34 
REMARK   12  A    between atoms: N5_34  and  C23_36 
ROOT
HETATM    1  C6  UNL     1      -6.627   2.928   9.458  1.00  0.00     0.116 C 
HETATM    2  C15 UNL     1      -6.339   4.037   8.515  1.00  0.00     0.108 C 
HETATM    3  C16 UNL     1      -5.020   3.588   7.945  1.00  0.00     0.102 C 
HETATM    4  N4  UNL     1      -4.906   2.327   8.183  1.00  0.00    -0.264 N 
ATOM      5  H4  UNL     1      -4.101   1.768   7.903  1.00  0.00     0.194 HD
HETATM    6  O3  UNL     1      -5.987   1.822   8.854  1.00  0.00    -0.266 OA
ENDROOT
BRANCH   1   7
HETATM    7  C5  UNL     1      -5.995   3.121  10.805  1.00  0.00     0.216 C 
BRANCH   7   8
HETATM    8  O1  UNL     1      -5.248   2.032  11.248  1.00  0.00    -0.348 OA
BRANCH   8   9
HETATM    9  C4  UNL     1      -4.120   2.315  12.048  1.00  0.00     0.074 A 
HETATM   10  C3  UNL     1      -3.860   1.626  13.209  1.00  0.00     0.061 A 
HETATM   11  C2  UNL     1      -2.759   1.904  13.988  1.00  0.00     0.009 A 
HETATM   12  C1  UNL     1      -2.500   1.136  15.252  1.00  0.00     0.068 C 
HETATM   13  N6  UNL     1      -1.934   2.875  13.582  1.00  0.00    -0.346 N 
HETATM   14  C22 UNL     1      -2.144   3.595  12.432  1.00  0.00     0.104 A 
ATOM     15  H6  UNL     1      -1.115   3.090  14.150  1.00  0.00     0.167 HD
HETATM   16  C21 UNL     1      -3.244   3.320  11.652  1.00  0.00     0.085 A 
BRANCH  14  17
HETATM   17  N5  UNL     1      -1.284   4.505  12.124  1.00  0.00    -0.372 N 
ATOM     18  H5  UNL     1      -0.770   4.995  12.856  1.00  0.00     0.161 HD
BRANCH  17  19
HETATM   19  C23 UNL     1      -1.055   4.824  10.740  1.00  0.00     0.083 C 
HETATM   20  C24 UNL     1      -0.213   6.066  10.553  1.00  0.00     0.025 C 
HETATM   21  C25 UNL     1       1.239   5.605  10.645  1.00  0.00     0.002 C 
HETATM   22  C26 UNL     1       1.161   4.098  10.852  1.00  0.00     0.002 C 
HETATM   23  C27 UNL     1      -0.129   3.775  10.100  1.00  0.00     0.025 C 
ENDBRANCH  17  19
ENDBRANCH  14  17
ENDBRANCH   8   9
ENDBRANCH   7   8
ENDBRANCH   1   7
BRANCH   1  24
HETATM   24  C7  UNL     1      -8.075   2.587   9.609  1.00  0.00     0.043 C 
BRANCH  24  25
HETATM   25  C8  UNL     1      -8.578   1.541   8.683  1.00  0.00     0.005 C 
BRANCH  25  26
HETATM   26  C9  UNL     1      -9.445   2.232   7.622  1.00  0.00     0.030 C 
BRANCH  26  27
HETATM   27  C10 UNL     1      -8.690   2.389   6.329  1.00  0.00     0.272 C 
BRANCH  27  28
HETATM   28  N1  UNL     1      -8.752   3.670   5.743  1.00  0.00     0.091 N 
HETATM   29  C11 UNL     1     -10.031   4.234   5.531  1.00  0.00     0.300 C 
HETATM   30  C12 UNL     1     -10.639   3.981   4.198  1.00  0.00     0.262 C 
HETATM   31  N2  UNL     1     -10.056   2.892   3.461  1.00  0.00    -0.072 N 
HETATM   32  C13 UNL     1      -8.632   2.887   3.430  1.00  0.00     0.262 C 
ATOM     33  H22 UNL     1     -10.404   2.000   3.812  1.00  0.00     0.277 HD
ATOM     34  H21 UNL     1     -10.430   2.866   2.512  1.00  0.00     0.277 HD
HETATM   35  C14 UNL     1      -7.994   3.696   4.521  1.00  0.00     0.300 C 
ENDBRANCH  27  28
ENDBRANCH  26  27
ENDBRANCH  25  26
ENDBRANCH  24  25
ENDBRANCH   1  24
BRANCH   3  36
HETATM   36  C17 UNL     1      -4.062   4.434   7.252  1.00  0.00     0.266 C 
HETATM   37  O2  UNL     1      -2.887   4.536   7.689  1.00  0.00    -0.266 OA
HETATM   38  N3  UNL     1      -4.438   5.143   6.094  1.00  0.00    -0.351 N 
ATOM     39  H3  UNL     1      -5.391   5.058   5.738  1.00  0.00     0.163 HD
BRANCH  38  40
HETATM   40  C18 UNL     1      -3.500   5.984   5.408  1.00  0.00     0.084 A 
HETATM   41  C19 UNL     1      -3.906   6.983   4.401  1.00  0.00     0.027 A 
HETATM   42  C20 UNL     1      -3.524   7.410   5.826  1.00  0.00     0.027 A 
ENDBRANCH  38  40
ENDBRANCH   3  36
TORSDOF 12
ENDMDL
MODEL 2
REMARK VINA RESULT: -9.133247663      2.094      9.026
REMARK  12 active torsions:
REMARK  status: ('A' for Active; 'I' for Inactive)
REMARK    1  A    between atoms: C4_4  and  O1_5 
REMARK    2  A    between atoms: O1_5  and  C5_6 
REMARK    3  A    between atoms: C5_6  and  C6_7 
REMARK    4  A    between atoms: C6_7  and  C7_8 
REMARK    5  A    between atoms: C7_8  and  C8_9 
REMARK    6  A    between atoms: C8_9  and  C9_10 
REMARK    7  A    between atoms: C9_10  and  C10_11 
REMARK    8  A    between atoms: C10_11  and  N1_12 
REMARK    9  A    between atoms: C16_21  and  C17_22 
REMARK       I    between atoms: C17_22  and  N3_24 
REMARK   10  A    between atoms: N3_24  and  C18_26 
REMARK   11  A    between atoms: C22_33  and  N5_34 
REMARK   12  A    between atoms: N5_34  and  C23_36 
ROOT
HETATM    1  C6  UNL     1      -3.515   3.529  11.721  1.00  0.00     0.116 C 
HETATM    2  C15 UNL     1      -3.629   3.565  13.201  1.00  0.00     0.108 C 
HETATM    3  C16 UNL     1      -3.287   2.139  13.545  1.00  0.00     0.102 C 
HETATM    4  N4  UNL     1      -2.679   1.633  12.530  1.00  0.00    -0.264 N 
ATOM      5  H4  UNL     1      -2.336   0.672  12.496  1.00  0.00     0.194 HD
HETATM    6  O3  UNL     1      -2.544   2.526  11.501  1.00  0.00    -0.266 OA
ENDROOT
BRANCH   1   7
HETATM    7  C5  UNL     1      -4.775   3.078  11.045  1.00  0.00     0.216 C 
BRANCH   7   8
HETATM    8  O1  UNL     1      -5.626   4.114  10.669  1.00  0.00    -0.348 OA
BRANCH   8   9
HETATM    9  C4  UNL     1      -6.119   4.087   9.347  1.00  0.00     0.074 A 
HETATM   10  C3  UNL     1      -7.056   3.168   8.937  1.00  0.00     0.061 A 
HETATM   11  C2  UNL     1      -7.536   3.143   7.647  1.00  0.00     0.009 A 
HETATM   12  C1  UNL     1      -8.558   2.127   7.227  1.00  0.00     0.068 C 
HETATM   13  N6  UNL     1      -7.062   4.051   6.787  1.00  0.00    -0.346 N 
HETATM   14  C22 UNL     1      -6.127   4.992   7.139  1.00  0.00     0.104 A 
ATOM     15  H6  UNL     1      -7.410   4.044   5.828  1.00  0.00     0.167 HD
HETATM   16  C21 UNL     1      -5.646   5.018   8.428  1.00  0.00     0.085 A 
BRANCH  14  17
HETATM   17  N5  UNL     1      -5.742   5.828   6.237  1.00  0.00    -0.372 N 
ATOM     18  H5  UNL     1      -6.119   6.776   6.220  1.00  0.00     0.161 HD
BRANCH  17  19
HETATM   19  C23 UNL     1      -4.776   5.415   5.254  1.00  0.00     0.083 C 
HETATM   20  C24 UNL     1      -4.931   6.139   3.934  1.00  0.00     0.025 C 
HETATM   21  C25 UNL     1      -4.159   7.447   4.083  1.00  0.00     0.002 C 
HETATM   22  C26 UNL     1      -3.566   7.399   5.485  1.00  0.00     0.002 C 
HETATM   23  C27 UNL     1      -3.370   5.894   5.657  1.00  0.00     0.025 C 
ENDBRANCH  17  19
ENDBRANCH  14  17
ENDBRANCH   8   9
ENDBRANCH   7   8
ENDBRANCH   1   7
BRANCH   1  24
HETATM   24  C7  UNL     1      -3.013   4.790  11.096  1.00  0.00     0.043 C 
BRANCH  24  25
HETATM   25  C8  UNL     1      -2.192   4.606   9.872  1.00  0.00     0.005 C 
BRANCH  25  26
HETATM   26  C9  UNL     1      -1.030   5.606   9.932  1.00  0.00     0.030 C 
BRANCH  26  27
HETATM   27  C10 UNL     1      -0.743   6.011  11.354  1.00  0.00     0.272 C 
BRANCH  27  28
HETATM   28  N1  UNL     1       0.586   5.822  11.781  1.00  0.00     0.091 N 
HETATM   29  C11 UNL     1       1.404   4.955  11.020  1.00  0.00     0.300 C 
HETATM   30  C12 UNL     1       1.432   3.535  11.461  1.00  0.00     0.262 C 
HETATM   31  N2  UNL     1       0.349   3.145  12.322  1.00  0.00    -0.072 N 
HETATM   32  C13 UNL     1       0.078   4.050  13.388  1.00  0.00     0.262 C 
ATOM     33  H22 UNL     1      -0.496   2.981  11.775  1.00  0.00     0.277 HD
ATOM     34  H21 UNL     1       0.508   2.206  12.687  1.00  0.00     0.277 HD
HETATM   35  C14 UNL     1       0.614   5.434  13.166  1.00  0.00     0.300 C 
ENDBRANCH  27  28
ENDBRANCH  26  27
ENDBRANCH  25  26
ENDBRANCH  24  25
ENDBRANCH   1  24
BRANCH   3  36
HETATM   36  C17 UNL     1      -3.593   1.473  14.801  1.00  0.00     0.266 C 
HETATM   37  O2  UNL     1      -4.788   1.227  15.103  1.00  0.00    -0.266 OA
HETATM   38  N3  UNL     1      -2.560   1.100  15.684  1.00  0.00    -0.351 N 
ATOM     39  H3  UNL     1      -1.590   1.297  15.437  1.00  0.00     0.163 HD
BRANCH  38  40
HETATM   40  C18 UNL     1      -2.854   0.447  16.926  1.00  0.00     0.084 A 
HETATM   41  C19 UNL     1      -1.809   0.037  17.884  1.00  0.00     0.027 A 
HETATM   42  C20 UNL     1      -2.658   1.292  18.134  1.00  0.00     0.027 A 
ENDBRANCH  38  40
ENDBRANCH   3  36
TORSDOF 12
ENDMDL
MODEL 3
REMARK VINA RESULT: -9.058983449      0.845      1.283
REMARK  12 active torsions:
REMARK  status: ('A' for Active; 'I' for Inactive)
REMARK    1  A    between atoms: C4_4  and  O1_5 
REMARK    2  A    between atoms: O1_5  and  C5_6 
REMARK    3  A    between atoms: C5_6  and  C6_7 
REMARK    4  A    between atoms: C6_7  and  C7_8 
REMARK    5  A    between atoms: C7_8  and  C8_9 
REMARK    6  A    between atoms: C8_9  and  C9_10 
REMARK    7  A    between atoms: C9_10  and  C10_11 
REMARK    8  A    between atoms: C10_11  and  N1_12 
REMARK    9  A    between atoms: C16_21  and  C17_22 
REMARK       I    between atoms: C17_22  and  N3_24 
REMARK   10  A    between atoms: N3_24  and  C18_26 
REMARK   11  A    between atoms: C22_33  and  N5_34 
REMARK   12  A    between atoms: N5_34  and  C23_36 
ROOT
HETATM    1  C6  UNL     1      -5.880   2.621   8.863  1.00  0.00     0.116 C 
HETATM    2  C15 UNL     1      -5.828   3.654   7.798  1.00  0.00     0.108 C 
HETATM    3  C16 UNL     1      -4.341   3.781   7.598  1.00  0.00     0.102 C 
HETATM    4  N4  UNL     1      -3.795   2.726   8.094  1.00  0.00    -0.264 N 
ATOM      5  H4  UNL     1      -2.789   2.554   8.093  1.00  0.00     0.194 HD
HETATM    6  O3  UNL     1      -4.713   1.859   8.624  1.00  0.00    -0.266 OA
ENDROOT
BRANCH   1   7
HETATM    7  C5  UNL     1      -5.756   3.193  10.244  1.00  0.00     0.216 C 
BRANCH   7   8
HETATM    8  O1  UNL     1      -5.471   2.252  11.230  1.00  0.00    -0.348 OA
BRANCH   8   9
HETATM    9  C4  UNL     1      -4.324   2.482  12.020  1.00  0.00     0.074 A 
HETATM   10  C3  UNL     1      -4.070   1.761  13.163  1.00  0.00     0.061 A 
HETATM   11  C2  UNL     1      -2.950   1.988  13.931  1.00  0.00     0.009 A 
HETATM   12  C1  UNL     1      -2.698   1.186  15.175  1.00  0.00     0.068 C 
HETATM   13  N6  UNL     1      -2.101   2.941  13.533  1.00  0.00    -0.346 N 
HETATM   14  C22 UNL     1      -2.303   3.692  12.402  1.00  0.00     0.104 A 
ATOM     15  H6  UNL     1      -1.267   3.118  14.094  1.00  0.00     0.167 HD
HETATM   16  C21 UNL     1      -3.422   3.468  11.632  1.00  0.00     0.085 A 
BRANCH  14  17
HETATM   17  N5  UNL     1      -1.420   4.580  12.101  1.00  0.00    -0.372 N 
ATOM     18  H5  UNL     1      -0.897   5.055  12.836  1.00  0.00     0.161 HD
BRANCH  17  19
HETATM   19  C23 UNL     1      -1.176   4.897  10.718  1.00  0.00     0.083 C 
HETATM   20  C24 UNL     1      -0.275   6.099  10.539  1.00  0.00     0.025 C 
HETATM   21  C25 UNL     1       1.153   5.568  10.627  1.00  0.00     0.002 C 
HETATM   22  C26 UNL     1       1.003   4.065  10.825  1.00  0.00     0.002 C 
HETATM   23  C27 UNL     1      -0.301   3.809  10.071  1.00  0.00     0.025 C 
ENDBRANCH  17  19
ENDBRANCH  14  17
ENDBRANCH   8   9
ENDBRANCH   7   8
ENDBRANCH   1   7
BRANCH   1  24
HETATM   24  C7  UNL     1      -7.050   1.694   8.787  1.00  0.00     0.043 C 
BRANCH  24  25
HETATM   25  C8  UNL     1      -8.352   2.341   8.487  1.00  0.00     0.005 C 
BRANCH  25  26
HETATM   26  C9  UNL     1      -8.737   1.973   7.048  1.00  0.00     0.030 C 
BRANCH  26  27
HETATM   27  C10 UNL     1      -9.313   3.161   6.325  1.00  0.00     0.272 C 
BRANCH  27  28
HETATM   28  N1  UNL     1      -9.005   3.242   4.952  1.00  0.00     0.091 N 
HETATM   29  C11 UNL     1      -7.734   3.745   4.592  1.00  0.00     0.300 C 
HETATM   30  C12 UNL     1      -7.664   5.208   4.334  1.00  0.00     0.262 C 
HETATM   31  N2  UNL     1      -8.764   5.971   4.859  1.00  0.00    -0.072 N 
HETATM   32  C13 UNL     1     -10.051   5.423   4.594  1.00  0.00     0.262 C 
ATOM     33  H22 UNL     1      -8.644   6.121   5.861  1.00  0.00     0.277 HD
ATOM     34  H21 UNL     1      -8.715   6.935   4.530  1.00  0.00     0.277 HD
HETATM   35  C14 UNL     1     -10.035   3.962   4.251  1.00  0.00     0.300 C 
ENDBRANCH  27  28
ENDBRANCH  26  27
ENDBRANCH  25  26
ENDBRANCH  24  25
ENDBRANCH   1  24
BRANCH   3  36
HETATM   36  C17 UNL     1      -3.663   4.895   6.958  1.00  0.00     0.266 C 
HETATM   37  O2  UNL     1      -2.745   5.501   7.566  1.00  0.00    -0.266 OA
HETATM   38  N3  UNL     1      -4.026   5.305   5.659  1.00  0.00    -0.351 N 
ATOM     39  H3  UNL     1      -4.769   4.811   5.164  1.00  0.00     0.163 HD
BRANCH  38  40
HETATM   40  C18 UNL     1      -3.364   6.406   5.022  1.00  0.00     0.084 A 
HETATM   41  C19 UNL     1      -4.039   7.301   4.061  1.00  0.00     0.027 A 
HETATM   42  C20 UNL     1      -3.785   7.747   5.509  1.00  0.00     0.027 A 
ENDBRANCH  38  40
ENDBRANCH   3  36
TORSDOF 12
ENDMDL
MODEL 4
REMARK VINA RESULT: -8.968508079      2.294      9.885
REMARK  12 active torsions:
REMARK  status: ('A' for Active; 'I' for Inactive)
REMARK    1  A    between atoms: C4_4  and  O1_5 
REMARK    2  A    between atoms: O1_5  and  C5_6 
REMARK    3  A    between atoms: C5_6  and  C6_7 
REMARK    4  A    between atoms: C6_7  and  C7_8 
REMARK    5  A    between atoms: C7_8  and  C8_9 
REMARK    6  A    between atoms: C8_9  and  C9_10 
REMARK    7  A    between atoms: C9_10  and  C10_11 
REMARK    8  A    between atoms: C10_11  and  N1_12 
REMARK    9  A    between atoms: C16_21  and  C17_22 
REMARK       I    between atoms: C17_22  and  N3_24 
REMARK   10  A    between atoms: N3_24  and  C18_26 
REMARK   11  A    between atoms: C22_33  and  N5_34 
REMARK   12  A    between atoms: N5_34  and  C23_36 
ROOT
HETATM    1  C6  UNL     1      -1.490   4.718  10.686  1.00  0.00     0.116 C 
HETATM    2  C15 UNL     1      -2.116   4.272  11.956  1.00  0.00     0.108 C 
HETATM    3  C16 UNL     1      -2.579   2.891  11.573  1.00  0.00     0.102 C 
HETATM    4  N4  UNL     1      -1.923   2.542  10.522  1.00  0.00    -0.264 N 
ATOM      5  H4  UNL     1      -2.043   1.645  10.051  1.00  0.00     0.194 HD
HETATM    6  O3  UNL     1      -1.044   3.507  10.108  1.00  0.00    -0.266 OA
ENDROOT
BRANCH   1   7
HETATM    7  C5  UNL     1      -2.471   5.327   9.728  1.00  0.00     0.216 C 
BRANCH   7   8
HETATM    8  O1  UNL     1      -2.390   4.828   8.430  1.00  0.00    -0.348 OA
BRANCH   8   9
HETATM    9  C4  UNL     1      -3.580   4.829   7.671  1.00  0.00     0.074 A 
HETATM   10  C3  UNL     1      -3.632   5.350   6.400  1.00  0.00     0.061 A 
HETATM   11  C2  UNL     1      -4.794   5.350   5.661  1.00  0.00     0.009 A 
HETATM   12  C1  UNL     1      -4.823   5.927   4.275  1.00  0.00     0.068 C 
HETATM   13  N6  UNL     1      -5.889   4.820   6.218  1.00  0.00    -0.346 N 
HETATM   14  C22 UNL     1      -5.895   4.285   7.482  1.00  0.00     0.104 A 
ATOM     15  H6  UNL     1      -6.755   4.813   5.680  1.00  0.00     0.167 HD
HETATM   16  C21 UNL     1      -4.736   4.285   8.223  1.00  0.00     0.085 A 
BRANCH  14  17
HETATM   17  N5  UNL     1      -7.001   3.791   7.923  1.00  0.00    -0.372 N 
ATOM     18  H5  UNL     1      -7.880   3.991   7.446  1.00  0.00     0.161 HD
BRANCH  17  19
HETATM   19  C23 UNL     1      -6.986   2.955   9.094  1.00  0.00     0.083 C 
HETATM   20  C24 UNL     1      -8.342   2.845   9.756  1.00  0.00     0.025 C 
HETATM   21  C25 UNL     1      -9.078   1.730   9.019  1.00  0.00     0.002 C 
HETATM   22  C26 UNL     1      -8.089   1.226   7.976  1.00  0.00     0.002 C 
HETATM   23  C27 UNL     1      -6.766   1.485   8.693  1.00  0.00     0.025 C 
ENDBRANCH  17  19
ENDBRANCH  14  17
ENDBRANCH   8   9
ENDBRANCH   7   8
ENDBRANCH   1   7
BRANCH   1  24
HETATM   24  C7  UNL     1      -0.300   5.608  10.846  1.00  0.00     0.043 C 
BRANCH  24  25
HETATM   25  C8  UNL     1       1.012   4.913  10.862  1.00  0.00     0.005 C 
BRANCH  25  26
HETATM   26  C9  UNL     1       1.488   4.844  12.319  1.00  0.00     0.030 C 
BRANCH  26  27
HETATM   27  C10 UNL     1       1.327   3.453  12.872  1.00  0.00     0.272 C 
BRANCH  27  28
HETATM   28  N1  UNL     1       0.837   3.379  14.192  1.00  0.00     0.091 N 
HETATM   29  C11 UNL     1       1.347   4.299  15.135  1.00  0.00     0.300 C 
HETATM   30  C12 UNL     1       2.523   3.840  15.921  1.00  0.00     0.262 C 
HETATM   31  N2  UNL     1       3.225   2.717  15.362  1.00  0.00    -0.072 N 
HETATM   32  C13 UNL     1       2.392   1.644  14.934  1.00  0.00     0.262 C 
ATOM     33  H22 UNL     1       3.829   3.022  14.598  1.00  0.00     0.277 HD
ATOM     34  H21 UNL     1       3.929   2.378  16.018  1.00  0.00     0.277 HD
HETATM   35  C14 UNL     1       0.964   2.038  14.696  1.00  0.00     0.300 C 
ENDBRANCH  27  28
ENDBRANCH  26  27
ENDBRANCH  25  26
ENDBRANCH  24  25
ENDBRANCH   1  24
BRANCH   3  36
HETATM   36  C17 UNL     1      -3.583   2.108  12.275  1.00  0.00     0.266 C 
HETATM   37  O2  UNL     1      -4.707   1.915  11.746  1.00  0.00    -0.266 OA
HETATM   38  N3  UNL     1      -3.309   1.564  13.546  1.00  0.00    -0.351 N 
ATOM     39  H3  UNL     1      -2.395   1.719  13.973  1.00  0.00     0.163 HD
BRANCH  38  40
HETATM   40  C18 UNL     1      -4.296   0.794  14.246  1.00  0.00     0.084 A 
HETATM   41  C19 UNL     1      -4.133   0.367  15.649  1.00  0.00     0.027 A 
HETATM   42  C20 UNL     1      -5.047   1.547  15.285  1.00  0.00     0.027 A 
ENDBRANCH  38  40
ENDBRANCH   3  36
TORSDOF 12
ENDMDL
MODEL 5
REMARK VINA RESULT: -8.890142870      1.412      3.575
REMARK  12 active torsions:
REMARK  status: ('A' for Active; 'I' for Inactive)
REMARK    1  A    between atoms: C4_4  and  O1_5 
REMARK    2  A    between atoms: O1_5  and  C5_6 
REMARK    3  A    between atoms: C5_6  and  C6_7 
REMARK    4  A    between atoms: C6_7  and  C7_8 
REMARK    5  A    between atoms: C7_8  and  C8_9 
REMARK    6  A    between atoms: C8_9  and  C9_10 
REMARK    7  A    between atoms: C9_10  and  C10_11 
REMARK    8  A    between atoms: C10_11  and  N1_12 
REMARK    9  A    between atoms: C16_21  and  C17_22 
REMARK       I    between atoms: C17_22  and  N3_24 
REMARK   10  A    between atoms: N3_24  and  C18_26 
REMARK   11  A    between atoms: C22_33  and  N5_34 
REMARK   12  A    between atoms: N5_34  and  C23_36 
ROOT
HETATM    1  C6  UNL     1      -5.354   3.006   8.909  1.00  0.00     0.116 C 
HETATM    2  C15 UNL     1      -5.738   4.078   7.957  1.00  0.00     0.108 C 
HETATM    3  C16 UNL     1      -4.505   4.146   7.096  1.00  0.00     0.102 C 
HETATM    4  N4  UNL     1      -3.854   3.049   7.268  1.00  0.00    -0.264 N 
ATOM      5  H4  UNL     1      -2.973   2.833   6.800  1.00  0.00     0.194 HD
HETATM    6  O3  UNL     1      -4.474   2.203   8.148  1.00  0.00    -0.266 OA
ENDROOT
BRANCH   1   7
HETATM    7  C5  UNL     1      -4.576   3.515  10.087  1.00  0.00     0.216 C 
BRANCH   7   8
HETATM    8  O1  UNL     1      -3.233   3.147  10.089  1.00  0.00    -0.348 OA
BRANCH   8   9
HETATM    9  C4  UNL     1      -2.564   3.182  11.331  1.00  0.00     0.074 A 
HETATM   10  C3  UNL     1      -1.320   3.751  11.472  1.00  0.00     0.061 A 
HETATM   11  C2  UNL     1      -0.669   3.786  12.684  1.00  0.00     0.009 A 
HETATM   12  C1  UNL     1       0.690   4.413  12.809  1.00  0.00     0.068 C 
HETATM   13  N6  UNL     1      -1.285   3.244  13.740  1.00  0.00    -0.346 N 
HETATM   14  C22 UNL     1      -2.526   2.663  13.659  1.00  0.00     0.104 A 
ATOM     15  H6  UNL     1      -0.813   3.263  14.644  1.00  0.00     0.167 HD
HETATM   16  C21 UNL     1      -3.179   2.627  12.448  1.00  0.00     0.085 A 
BRANCH  14  17
HETATM   17  N5  UNL     1      -3.037   2.177  14.738  1.00  0.00    -0.372 N 
ATOM     18  H5  UNL     1      -3.367   2.799  15.476  1.00  0.00     0.161 HD
BRANCH  17  19
HETATM   19  C23 UNL     1      -3.139   0.750  14.893  1.00  0.00     0.083 C 
HETATM   20  C24 UNL     1      -2.744   0.278  16.275  1.00  0.00     0.025 C 
HETATM   21  C25 UNL     1      -3.994   0.421  17.139  1.00  0.00     0.002 C 
HETATM   22  C26 UNL     1      -5.068   0.945  16.195  1.00  0.00     0.002 C 
HETATM   23  C27 UNL     1      -4.616   0.318  14.877  1.00  0.00     0.025 C 
ENDBRANCH  17  19
ENDBRANCH  14  17
ENDBRANCH   8   9
ENDBRANCH   7   8
ENDBRANCH   1   7
BRANCH   1  24
HETATM   24  C7  UNL     1      -6.479   2.135   9.368  1.00  0.00     0.043 C 
BRANCH  24  25
HETATM   25  C8  UNL     1      -7.145   1.348   8.300  1.00  0.00     0.005 C 
BRANCH  25  26
HETATM   26  C9  UNL     1      -8.561   1.911   8.116  1.00  0.00     0.030 C 
BRANCH  26  27
HETATM   27  C10 UNL     1      -8.866   2.134   6.659  1.00  0.00     0.272 C 
BRANCH  27  28
HETATM   28  N1  UNL     1      -8.981   3.482   6.263  1.00  0.00     0.091 N 
HETATM   29  C11 UNL     1     -10.255   3.942   5.861  1.00  0.00     0.300 C 
HETATM   30  C12 UNL     1     -10.547   3.858   4.406  1.00  0.00     0.262 C 
HETATM   31  N2  UNL     1      -9.689   2.972   3.665  1.00  0.00    -0.072 N 
HETATM   32  C13 UNL     1      -8.300   3.116   3.943  1.00  0.00     0.262 C 
ATOM     33  H22 UNL     1      -9.979   2.004   3.800  1.00  0.00     0.277 HD
ATOM     34  H21 UNL     1      -9.861   3.069   2.664  1.00  0.00     0.277 HD
HETATM   35  C14 UNL     1      -8.005   3.789   5.251  1.00  0.00     0.300 C 
ENDBRANCH  27  28
ENDBRANCH  26  27
ENDBRANCH  25  26
ENDBRANCH  24  25
ENDBRANCH   1  24
BRANCH   3  36
HETATM   36  C17 UNL     1      -4.133   5.255   6.232  1.00  0.00     0.266 C 
HETATM   37  O2  UNL     1      -3.314   6.117   6.639  1.00  0.00    -0.266 OA
HETATM   38  N3  UNL     1      -4.685   5.373   4.941  1.00  0.00    -0.351 N 
ATOM     39  H3  UNL     1      -5.347   4.671   4.610  1.00  0.00     0.163 HD
BRANCH  38  40
HETATM   40  C18 UNL     1      -4.327   6.466   4.085  1.00  0.00     0.084 A 
HETATM   41  C19 UNL     1      -4.984   6.718   2.787  1.00  0.00     0.027 A 
HETATM   42  C20 UNL     1      -5.331   7.561   4.024  1.00  0.00     0.027 A 
ENDBRANCH  38  40
ENDBRANCH   3  36
TORSDOF 12
ENDMDL
