MODEL 1
REMARK VINA RESULT: -9.849818775      0.000      0.000
REMARK  12 active torsions:
REMARK  status: ('A' for Active; 'I' for Inactive)
REMARK       I    between atoms: C2_2  and  N1_4 
REMARK    1  A    between atoms: N1_4  and  C3_6 
REMARK    2  A    between atoms: C3_6  and  C4_7 
REMARK    3  A    between atoms: C4_7  and  C5_8 
REMARK    4  A    between atoms: C5_8  and  C6_9 
REMARK    5  A    between atoms: C6_9  and  N2_10 
REMARK    6  A    between atoms: C7_12  and  C8_13 
REMARK    7  A    between atoms: C9_14  and  O2_15 
REMARK    8  A    between atoms: N3_21  and  C13_22 
REMARK    9  A    between atoms: C13_22  and  C14_23 
REMARK       I    between atoms: C14_23  and  N4_25 
REMARK   10  A    between atoms: N4_25  and  C15_27 
REMARK   11  A    between atoms: C15_27  and  C16_28 
REMARK   12  A    between atoms: C16_28  and  C17_29 
ROOT
HETATM    1  C8  UNL     1      -4.998   4.941   6.611  1.00  0.00     0.081 C 
HETATM    2  C9  UNL     1      -6.323   4.601   6.791  1.00  0.00     0.089 C 
HETATM    3  C10 UNL     1      -6.824   3.581   7.609  1.00  0.00    -0.012 C 
HETATM    4  C11 UNL     1      -6.180   3.048   8.696  1.00  0.00     0.019 C 
HETATM    5  C12 UNL     1      -4.844   3.104   9.072  1.00  0.00     0.257 C 
HETATM    6  O3  UNL     1      -4.562   2.364  10.049  1.00  0.00    -0.267 OA
HETATM    7  N3  UNL     1      -3.890   3.849   8.494  1.00  0.00    -0.271 N 
HETATM    8  C23 UNL     1      -3.962   4.800   7.511  1.00  0.00     0.265 C 
HETATM    9  O5  UNL     1      -3.014   5.621   7.405  1.00  0.00    -0.267 OA
HETATM   10  C24 UNL     1      -6.758   2.232   9.820  1.00  0.00     0.045 C 
HETATM   11  C25 UNL     1      -8.273   2.269   9.746  1.00  0.00     0.005 C 
HETATM   12  C26 UNL     1      -8.840   1.418   8.653  1.00  0.00     0.001 C 
HETATM   13  C27 UNL     1      -8.374   1.757   7.276  1.00  0.00     0.005 C 
HETATM   14  C28 UNL     1      -8.144   3.236   7.046  1.00  0.00     0.042 C 
ENDROOT
BRANCH   7  15
HETATM   15  C13 UNL     1      -2.554   3.582   8.976  1.00  0.00     0.238 C 
BRANCH  15  16
HETATM   16  C14 UNL     1      -2.371   3.973  10.391  1.00  0.00     0.236 C 
HETATM   17  O4  UNL     1      -2.473   5.169  10.764  1.00  0.00    -0.272 OA
HETATM   18  N4  UNL     1      -2.067   3.025  11.412  1.00  0.00    -0.359 N 
ATOM     19  H4  UNL     1      -1.980   2.052  11.122  1.00  0.00     0.162 HD
BRANCH  18  20
HETATM   20  C15 UNL     1      -1.874   3.302  12.795  1.00  0.00     0.127 C 
BRANCH  20  21
HETATM   21  C16 UNL     1      -3.176   3.347  13.523  1.00  0.00     0.053 C 
BRANCH  21  22
HETATM   22  C17 UNL     1      -3.380   2.081  14.328  1.00  0.00    -0.082 C 
HETATM   23  C18 UNL     1      -2.472   1.632  15.178  1.00  0.00    -0.024 C 
HETATM   24  C19 UNL     1      -2.755   0.368  15.936  1.00  0.00     0.027 C 
HETATM   25  C20 UNL     1      -4.173   0.438  16.489  1.00  0.00     0.004 C 
HETATM   26  C21 UNL     1      -5.171   0.912  15.489  1.00  0.00     0.005 C 
HETATM   27  C22 UNL     1      -4.633   1.309  14.160  1.00  0.00     0.034 C 
ENDBRANCH  21  22
ENDBRANCH  20  21
ENDBRANCH  18  20
ENDBRANCH  15  16
ENDBRANCH   7  15
BRANCH   1  28
HETATM   28  C7  UNL     1      -4.669   5.505   5.319  1.00  0.00     0.103 C 
HETATM   29  N2  UNL     1      -4.751   6.742   5.015  1.00  0.00    -0.398 N 
ATOM     30  H2  UNL     1      -5.074   7.375   5.746  1.00  0.00     0.158 HD
BRANCH  29  31
HETATM   31  C6  UNL     1      -4.434   7.328   3.747  1.00  0.00     0.119 C 
BRANCH  31  32
HETATM   32  C5  UNL     1      -5.457   7.114   2.675  1.00  0.00     0.021 C 
BRANCH  32  33
HETATM   33  C4  UNL     1      -6.790   7.645   3.116  1.00  0.00     0.021 C 
BRANCH  33  34
HETATM   34  C3  UNL     1      -7.964   7.076   2.390  1.00  0.00     0.122 C 
BRANCH  34  35
HETATM   35  N1  UNL     1      -8.618   6.037   3.171  1.00  0.00    -0.361 N 
HETATM   36  C2  UNL     1      -9.816   6.255   3.901  1.00  0.00     0.213 C 
HETATM   37  C1  UNL     1     -10.448   5.165   4.679  1.00  0.00     0.117 C 
HETATM   38  O1  UNL     1     -10.323   7.407   3.864  1.00  0.00    -0.274 OA
ATOM     39  H1  UNL     1      -8.197   5.108   3.195  1.00  0.00     0.162 HD
ENDBRANCH  34  35
ENDBRANCH  33  34
ENDBRANCH  32  33
ENDBRANCH  31  32
ENDBRANCH  29  31
ENDBRANCH   1  28
BRANCH   2  40
HETATM   40  O2  UNL     1      -7.283   5.299   6.127  1.00  0.00    -0.359 OA
ATOM     41  H2  UNL     1      -8.174   4.971   6.121  1.00  0.00     0.217 HD
ENDBRANCH   2  40
TORSDOF 12
ENDMDL
MODEL 2
REMARK VINA RESULT: -9.774472977      0.604      1.038
REMARK  12 active torsions:
REMARK  status: ('A' for Active; 'I' for Inactive)
REMARK       I    between atoms: C2_2  and  N1_4 
REMARK    1  A    between atoms: N1_4  and  C3_6 
REMARK    2  A    between atoms: C3_6  and  C4_7 
REMARK    3  A    between atoms: C4_7  and  C5_8 
REMARK    4  A    between atoms: C5_8  and  C6_9 
REMARK    5  A    between atoms: C6_9  and  N2_10 
REMARK    6  A    between atoms: C7_12  and  C8_13 
REMARK    7  A    between atoms: C9_14  and  O2_15 
REMARK    8  A    between atoms: N3_21  and  C13_22 
REMARK    9  A    between atoms: C13_22  and  C14_23 
REMARK       I    between atoms: C14_23  and  N4_25 
REMARK   10  A    between atoms: N4_25  and  C15_27 
REMARK   11  A    between atoms: C15_27  and  C16_28 
REMARK   12  A    between atoms: C16_28  and  C17_29 
ROOT
HETATM    1  C8  UNL     1      -4.753   4.787   6.983  1.00  0.00     0.081 C 
HETATM    2  C9  UNL     1      -6.101   4.513   7.091  1.00  0.00     0.089 C 
HETATM    3  C10 UNL     1      -6.696   3.522   7.881  1.00  0.00    -0.012 C 
HETATM    4  C11 UNL     1      -6.139   2.961   9.001  1.00  0.00     0.019 C 
HETATM    5  C12 UNL     1      -4.824   2.951   9.449  1.00  0.00     0.257 C 
HETATM    6  O3  UNL     1      -4.632   2.201  10.440  1.00  0.00    -0.267 OA
HETATM    7  N3  UNL     1      -3.804   3.647   8.923  1.00  0.00    -0.271 N 
HETATM    8  C23 UNL     1      -3.775   4.597   7.938  1.00  0.00     0.265 C 
HETATM    9  O5  UNL     1      -2.783   5.369   7.883  1.00  0.00    -0.267 OA
HETATM   10  C24 UNL     1      -6.817   2.178  10.092  1.00  0.00     0.045 C 
HETATM   11  C25 UNL     1      -8.322   2.291   9.937  1.00  0.00     0.005 C 
HETATM   12  C26 UNL     1      -8.871   1.466   8.815  1.00  0.00     0.001 C 
HETATM   13  C27 UNL     1      -8.314   1.777   7.465  1.00  0.00     0.005 C 
HETATM   14  C28 UNL     1      -7.999   3.242   7.247  1.00  0.00     0.042 C 
ENDROOT
BRANCH   7  15
HETATM   15  C13 UNL     1      -2.511   3.315   9.477  1.00  0.00     0.238 C 
BRANCH  15  16
HETATM   16  C14 UNL     1      -2.373   3.732  10.890  1.00  0.00     0.236 C 
HETATM   17  O4  UNL     1      -2.554   4.925  11.246  1.00  0.00    -0.272 OA
HETATM   18  N4  UNL     1      -2.026   2.818  11.926  1.00  0.00    -0.359 N 
ATOM     19  H4  UNL     1      -1.873   1.848  11.650  1.00  0.00     0.162 HD
BRANCH  18  20
HETATM   20  C15 UNL     1      -1.870   3.122  13.308  1.00  0.00     0.127 C 
BRANCH  20  21
HETATM   21  C16 UNL     1      -1.512   1.903  14.092  1.00  0.00     0.053 C 
BRANCH  21  22
HETATM   22  C17 UNL     1      -2.602   1.574  15.090  1.00  0.00    -0.082 C 
HETATM   23  C18 UNL     1      -3.816   1.209  14.714  1.00  0.00    -0.024 C 
HETATM   24  C19 UNL     1      -4.837   0.900  15.770  1.00  0.00     0.027 C 
HETATM   25  C20 UNL     1      -4.195   0.005  16.822  1.00  0.00     0.004 C 
HETATM   26  C21 UNL     1      -2.845   0.472  17.246  1.00  0.00     0.005 C 
HETATM   27  C22 UNL     1      -2.310   1.666  16.539  1.00  0.00     0.034 C 
ENDBRANCH  21  22
ENDBRANCH  20  21
ENDBRANCH  18  20
ENDBRANCH  15  16
ENDBRANCH   7  15
BRANCH   1  28
HETATM   28  C7  UNL     1      -4.326   5.330   5.711  1.00  0.00     0.103 C 
HETATM   29  N2  UNL     1      -4.422   6.555   5.366  1.00  0.00    -0.398 N 
ATOM     30  H2  UNL     1      -4.832   7.195   6.047  1.00  0.00     0.158 HD
BRANCH  29  31
HETATM   31  C6  UNL     1      -4.011   7.120   4.115  1.00  0.00     0.119 C 
BRANCH  31  32
HETATM   32  C5  UNL     1      -5.015   7.015   3.010  1.00  0.00     0.021 C 
BRANCH  32  33
HETATM   33  C4  UNL     1      -6.348   7.530   3.469  1.00  0.00     0.021 C 
BRANCH  33  34
HETATM   34  C3  UNL     1      -7.522   6.982   2.727  1.00  0.00     0.122 C 
BRANCH  34  35
HETATM   35  N1  UNL     1      -8.210   5.960   3.503  1.00  0.00    -0.361 N 
HETATM   36  C2  UNL     1      -9.499   6.153   4.065  1.00  0.00     0.213 C 
HETATM   37  C1  UNL     1     -10.162   5.083   4.845  1.00  0.00     0.117 C 
HETATM   38  O1  UNL     1     -10.061   7.264   3.877  1.00  0.00    -0.274 OA
ATOM     39  H1  UNL     1      -7.744   5.065   3.650  1.00  0.00     0.162 HD
ENDBRANCH  34  35
ENDBRANCH  33  34
ENDBRANCH  32  33
ENDBRANCH  31  32
ENDBRANCH  29  31
ENDBRANCH   1  28
BRANCH   2  40
HETATM   40  O2  UNL     1      -6.987   5.257   6.375  1.00  0.00    -0.359 OA
ATOM     41  H2  UNL     1      -7.192   6.138   6.666  1.00  0.00     0.217 HD
ENDBRANCH   2  40
TORSDOF 12
ENDMDL
MODEL 3
REMARK VINA RESULT: -9.582718880      2.639     10.646
REMARK  12 active torsions:
REMARK  status: ('A' for Active; 'I' for Inactive)
REMARK       I    between atoms: C2_2  and  N1_4 
REMARK    1  A    between atoms: N1_4  and  C3_6 
REMARK    2  A    between atoms: C3_6  and  C4_7 
REMARK    3  A    between atoms: C4_7  and  C5_8 
REMARK    4  A    between atoms: C5_8  and  C6_9 
REMARK    5  A    between atoms: C6_9  and  N2_10 
REMARK    6  A    between atoms: C7_12  and  C8_13 
REMARK    7  A    between atoms: C9_14  and  O2_15 
REMARK    8  A    between atoms: N3_21  and  C13_22 
REMARK    9  A    between atoms: C13_22  and  C14_23 
REMARK       I    between atoms: C14_23  and  N4_25 
REMARK   10  A    between atoms: N4_25  and  C15_27 
REMARK   11  A    between atoms: C15_27  and  C16_28 
REMARK   12  A    between atoms: C16_28  and  C17_29 
ROOT
HETATM    1  C8  UNL     1      -3.426   2.324  12.377  1.00  0.00     0.081 C 
HETATM    2  C9  UNL     1      -2.354   3.121  12.721  1.00  0.00     0.089 C 
HETATM    3  C10 UNL     1      -1.495   3.796  11.845  1.00  0.00    -0.012 C 
HETATM    4  C11 UNL     1      -1.803   4.166  10.561  1.00  0.00     0.019 C 
HETATM    5  C12 UNL     1      -2.815   3.732   9.713  1.00  0.00     0.257 C 
HETATM    6  O3  UNL     1      -2.710   4.165   8.537  1.00  0.00    -0.267 OA
HETATM    7  N3  UNL     1      -3.834   2.927  10.046  1.00  0.00    -0.271 N 
HETATM    8  C23 UNL     1      -4.226   2.423  11.258  1.00  0.00     0.265 C 
HETATM    9  O5  UNL     1      -5.410   2.013  11.379  1.00  0.00    -0.267 OA
HETATM   10  C24 UNL     1      -1.113   5.177   9.686  1.00  0.00     0.045 C 
HETATM   11  C25 UNL     1      -0.124   5.973  10.516  1.00  0.00     0.005 C 
HETATM   12  C26 UNL     1       1.121   5.213  10.855  1.00  0.00     0.001 C 
HETATM   13  C27 UNL     1       0.905   3.946  11.614  1.00  0.00     0.005 C 
HETATM   14  C28 UNL     1      -0.243   4.001  12.600  1.00  0.00     0.042 C 
ENDROOT
BRANCH   7  15
HETATM   15  C13 UNL     1      -4.642   2.496   8.927  1.00  0.00     0.238 C 
BRANCH  15  16
HETATM   16  C14 UNL     1      -5.458   3.593   8.360  1.00  0.00     0.236 C 
HETATM   17  O4  UNL     1      -6.188   4.316   9.086  1.00  0.00    -0.272 OA
HETATM   18  N4  UNL     1      -5.470   3.894   6.967  1.00  0.00    -0.359 N 
ATOM     19  H4  UNL     1      -4.885   3.313   6.367  1.00  0.00     0.162 HD
BRANCH  18  20
HETATM   20  C15 UNL     1      -6.219   4.923   6.329  1.00  0.00     0.127 C 
BRANCH  20  21
HETATM   21  C16 UNL     1      -5.850   5.044   4.888  1.00  0.00     0.053 C 
BRANCH  21  22
HETATM   22  C17 UNL     1      -4.829   6.144   4.690  1.00  0.00    -0.082 C 
HETATM   23  C18 UNL     1      -5.075   7.208   3.944  1.00  0.00    -0.024 C 
HETATM   24  C19 UNL     1      -4.006   8.252   3.801  1.00  0.00     0.027 C 
HETATM   25  C20 UNL     1      -3.431   8.553   5.179  1.00  0.00     0.004 C 
HETATM   26  C21 UNL     1      -3.132   7.327   5.972  1.00  0.00     0.005 C 
HETATM   27  C22 UNL     1      -3.505   6.032   5.343  1.00  0.00     0.034 C 
ENDBRANCH  21  22
ENDBRANCH  20  21
ENDBRANCH  18  20
ENDBRANCH  15  16
ENDBRANCH   7  15
BRANCH   1  28
HETATM   28  C7  UNL     1      -3.732   1.256  13.306  1.00  0.00     0.103 C 
HETATM   29  N2  UNL     1      -4.401   1.390  14.385  1.00  0.00    -0.398 N 
ATOM     30  H2  UNL     1      -4.744   2.326  14.601  1.00  0.00     0.158 HD
BRANCH  29  31
HETATM   31  C6  UNL     1      -4.718   0.354  15.322  1.00  0.00     0.119 C 
BRANCH  31  32
HETATM   32  C5  UNL     1      -4.175   0.559  16.703  1.00  0.00     0.021 C 
BRANCH  32  33
HETATM   33  C4  UNL     1      -2.687   0.368  16.709  1.00  0.00     0.021 C 
BRANCH  33  34
HETATM   34  C3  UNL     1      -1.918   1.448  17.396  1.00  0.00     0.122 C 
BRANCH  34  35
HETATM   35  N1  UNL     1      -0.809   1.914  16.577  1.00  0.00    -0.361 N 
HETATM   36  C2  UNL     1      -0.018   3.043  16.916  1.00  0.00     0.213 C 
HETATM   37  C1  UNL     1       1.103   3.479  16.052  1.00  0.00     0.117 C 
HETATM   38  O1  UNL     1      -0.302   3.661  17.976  1.00  0.00    -0.274 OA
ATOM     39  H1  UNL     1      -0.590   1.407  15.720  1.00  0.00     0.162 HD
ENDBRANCH  34  35
ENDBRANCH  33  34
ENDBRANCH  32  33
ENDBRANCH  31  32
ENDBRANCH  29  31
ENDBRANCH   1  28
BRANCH   2  40
HETATM   40  O2  UNL     1      -2.058   3.303  14.036  1.00  0.00    -0.359 OA
ATOM     41  H2  UNL     1      -1.272   3.781  14.271  1.00  0.00     0.217 HD
ENDBRANCH   2  40
TORSDOF 12
ENDMDL
MODEL 4
REMARK VINA RESULT: -9.554975748      1.589      3.017
REMARK  12 active torsions:
REMARK  status: ('A' for Active; 'I' for Inactive)
REMARK       I    between atoms: C2_2  and  N1_4 
REMARK    1  A    between atoms: N1_4  and  C3_6 
REMARK    2  A    between atoms: C3_6  and  C4_7 
REMARK    3  A    between atoms: C4_7  and  C5_8 
REMARK    4  A    between atoms: C5_8  and  C6_9 
REMARK    5  A    between atoms: C6_9  and  N2_10 
REMARK    6  A    between atoms: C7_12  and  C8_13 
REMARK    7  A    between atoms: C9_14  and  O2_15 
REMARK    8  A    between atoms: N3_21  and  C13_22 
REMARK    9  A    between atoms: C13_22  and  C14_23 
REMARK       I    between atoms: C14_23  and  N4_25 
REMARK   10  A    between atoms: N4_25  and  C15_27 
REMARK   11  A    between atoms: C15_27  and  C16_28 
REMARK   12  A    between atoms: C16_28  and  C17_29 
ROOT
HETATM    1  C8  UNL     1      -5.042   4.899   6.631  1.00  0.00     0.081 C 
HETATM    2  C9  UNL     1      -6.376   4.561   6.736  1.00  0.00     0.089 C 
HETATM    3  C10 UNL     1      -6.923   3.542   7.525  1.00  0.00    -0.012 C 
HETATM    4  C11 UNL     1      -6.342   3.007   8.645  1.00  0.00     0.019 C 
HETATM    5  C12 UNL     1      -5.028   3.060   9.095  1.00  0.00     0.257 C 
HETATM    6  O3  UNL     1      -4.802   2.319  10.086  1.00  0.00    -0.267 OA
HETATM    7  N3  UNL     1      -4.043   3.805   8.572  1.00  0.00    -0.271 N 
HETATM    8  C23 UNL     1      -4.058   4.756   7.587  1.00  0.00     0.265 C 
HETATM    9  O5  UNL     1      -3.104   5.575   7.534  1.00  0.00    -0.267 OA
HETATM   10  C24 UNL     1      -6.983   2.191   9.735  1.00  0.00     0.045 C 
HETATM   11  C25 UNL     1      -8.491   2.231   9.577  1.00  0.00     0.005 C 
HETATM   12  C26 UNL     1      -8.997   1.382   8.453  1.00  0.00     0.001 C 
HETATM   13  C27 UNL     1      -8.455   1.721   7.104  1.00  0.00     0.005 C 
HETATM   14  C28 UNL     1      -8.211   3.199   6.888  1.00  0.00     0.042 C 
ENDROOT
BRANCH   7  15
HETATM   15  C13 UNL     1      -2.735   3.535   9.127  1.00  0.00     0.238 C 
BRANCH  15  16
HETATM   16  C14 UNL     1      -2.641   3.893  10.560  1.00  0.00     0.236 C 
HETATM   17  O4  UNL     1      -3.013   5.017  10.985  1.00  0.00    -0.272 OA
HETATM   18  N4  UNL     1      -2.126   2.996  11.539  1.00  0.00    -0.359 N 
ATOM     19  H4  UNL     1      -1.819   2.082  11.207  1.00  0.00     0.162 HD
BRANCH  18  20
HETATM   20  C15 UNL     1      -1.996   3.247  12.935  1.00  0.00     0.127 C 
BRANCH  20  21
HETATM   21  C16 UNL     1      -0.561   3.293  13.343  1.00  0.00     0.053 C 
BRANCH  21  22
HETATM   22  C17 UNL     1       0.196   4.308  12.512  1.00  0.00    -0.082 C 
HETATM   23  C18 UNL     1       1.053   3.950  11.570  1.00  0.00    -0.024 C 
HETATM   24  C19 UNL     1       1.761   5.021  10.793  1.00  0.00     0.027 C 
HETATM   25  C20 UNL     1       0.742   6.071  10.369  1.00  0.00     0.004 C 
HETATM   26  C21 UNL     1      -0.179   6.475  11.470  1.00  0.00     0.005 C 
HETATM   27  C22 UNL     1      -0.017   5.752  12.760  1.00  0.00     0.034 C 
ENDBRANCH  21  22
ENDBRANCH  20  21
ENDBRANCH  18  20
ENDBRANCH  15  16
ENDBRANCH   7  15
BRANCH   1  28
HETATM   28  C7  UNL     1      -4.641   5.463   5.360  1.00  0.00     0.103 C 
HETATM   29  N2  UNL     1      -4.769   6.689   5.026  1.00  0.00    -0.398 N 
ATOM     30  H2  UNL     1      -5.187   7.313   5.717  1.00  0.00     0.158 HD
BRANCH  29  31
HETATM   31  C6  UNL     1      -4.382   7.275   3.777  1.00  0.00     0.119 C 
BRANCH  31  32
HETATM   32  C5  UNL     1      -5.393   7.152   2.679  1.00  0.00     0.021 C 
BRANCH  32  33
HETATM   33  C4  UNL     1      -6.723   7.673   3.136  1.00  0.00     0.021 C 
BRANCH  33  34
HETATM   34  C3  UNL     1      -7.898   7.142   2.383  1.00  0.00     0.122 C 
BRANCH  34  35
HETATM   35  N1  UNL     1      -8.583   6.100   3.133  1.00  0.00    -0.361 N 
HETATM   36  C2  UNL     1      -9.789   6.326   3.848  1.00  0.00     0.213 C 
HETATM   37  C1  UNL     1     -10.452   5.232   4.595  1.00  0.00     0.117 C 
HETATM   38  O1  UNL     1     -10.275   7.487   3.825  1.00  0.00    -0.274 OA
ATOM     39  H1  UNL     1      -8.178   5.163   3.146  1.00  0.00     0.162 HD
ENDBRANCH  34  35
ENDBRANCH  33  34
ENDBRANCH  32  33
ENDBRANCH  31  32
ENDBRANCH  29  31
ENDBRANCH   1  28
BRANCH   2  40
HETATM   40  O2  UNL     1      -7.296   5.262   6.020  1.00  0.00    -0.359 OA
ATOM     41  H2  UNL     1      -7.444   5.035   5.110  1.00  0.00     0.217 HD
ENDBRANCH   2  40
TORSDOF 12
ENDMDL
MODEL 5
REMARK VINA RESULT: -9.469757396      2.522     10.914
REMARK  12 active torsions:
REMARK  status: ('A' for Active; 'I' for Inactive)
REMARK       I    between atoms: C2_2  and  N1_4 
REMARK    1  A    between atoms: N1_4  and  C3_6 
REMARK    2  A    between atoms: C3_6  and  C4_7 
REMARK    3  A    between atoms: C4_7  and  C5_8 
REMARK    4  A    between atoms: C5_8  and  C6_9 
REMARK    5  A    between atoms: C6_9  and  N2_10 
REMARK    6  A    between atoms: C7_12  and  C8_13 
REMARK    7  A    between atoms: C9_14  and  O2_15 
REMARK    8  A    between atoms: N3_21  and  C13_22 
REMARK    9  A    between atoms: C13_22  and  C14_23 
REMARK       I    between atoms: C14_23  and  N4_25 
REMARK   10  A    between atoms: N4_25  and  C15_27 
REMARK   11  A    between atoms: C15_27  and  C16_28 
REMARK   12  A    between atoms: C16_28  and  C17_29 
ROOT
HETATM    1  C8  UNL     1      -3.464   2.394  12.244  1.00  0.00     0.081 C 
HETATM    2  C9  UNL     1      -2.401   3.169  12.659  1.00  0.00     0.089 C 
HETATM    3  C10 UNL     1      -1.491   3.852  11.844  1.00  0.00    -0.012 C 
HETATM    4  C11 UNL     1      -1.728   4.254  10.555  1.00  0.00     0.019 C 
HETATM    5  C12 UNL     1      -2.700   3.852   9.647  1.00  0.00     0.257 C 
HETATM    6  O3  UNL     1      -2.530   4.310   8.487  1.00  0.00    -0.267 OA
HETATM    7  N3  UNL     1      -3.745   3.054   9.909  1.00  0.00    -0.271 N 
HETATM    8  C23 UNL     1      -4.205   2.529  11.088  1.00  0.00     0.265 C 
HETATM    9  O5  UNL     1      -5.398   2.132  11.139  1.00  0.00    -0.267 OA
HETATM   10  C24 UNL     1      -0.981   5.275   9.739  1.00  0.00     0.045 C 
HETATM   11  C25 UNL     1      -0.026   6.039  10.636  1.00  0.00     0.005 C 
HETATM   12  C26 UNL     1       1.190   5.255  11.021  1.00  0.00     0.001 C 
HETATM   13  C27 UNL     1       0.920   3.975  11.739  1.00  0.00     0.005 C 
HETATM   14  C28 UNL     1      -0.277   4.024  12.666  1.00  0.00     0.042 C 
ENDROOT
BRANCH   7  15
HETATM   15  C13 UNL     1      -4.499   2.659   8.740  1.00  0.00     0.238 C 
BRANCH  15  16
HETATM   16  C14 UNL     1      -5.311   3.766   8.187  1.00  0.00     0.236 C 
HETATM   17  O4  UNL     1      -6.065   4.459   8.916  1.00  0.00    -0.272 OA
HETATM   18  N4  UNL     1      -5.291   4.109   6.804  1.00  0.00    -0.359 N 
ATOM     19  H4  UNL     1      -4.685   3.553   6.202  1.00  0.00     0.162 HD
BRANCH  18  20
HETATM   20  C15 UNL     1      -6.032   5.152   6.179  1.00  0.00     0.127 C 
BRANCH  20  21
HETATM   21  C16 UNL     1      -5.418   5.546   4.878  1.00  0.00     0.053 C 
BRANCH  21  22
HETATM   22  C17 UNL     1      -6.320   6.506   4.132  1.00  0.00    -0.082 C 
HETATM   23  C18 UNL     1      -5.911   7.175   3.067  1.00  0.00    -0.024 C 
HETATM   24  C19 UNL     1      -6.871   8.107   2.387  1.00  0.00     0.027 C 
HETATM   25  C20 UNL     1      -8.209   7.396   2.224  1.00  0.00     0.004 C 
HETATM   26  C21 UNL     1      -8.652   6.688   3.459  1.00  0.00     0.005 C 
HETATM   27  C22 UNL     1      -7.707   6.716   4.607  1.00  0.00     0.034 C 
ENDBRANCH  21  22
ENDBRANCH  20  21
ENDBRANCH  18  20
ENDBRANCH  15  16
ENDBRANCH   7  15
BRANCH   1  28
HETATM   28  C7  UNL     1      -3.830   1.310  13.131  1.00  0.00     0.103 C 
HETATM   29  N2  UNL     1      -4.460   1.444  14.233  1.00  0.00    -0.398 N 
ATOM     30  H2  UNL     1      -4.724   2.393  14.501  1.00  0.00     0.158 HD
BRANCH  29  31
HETATM   31  C6  UNL     1      -4.835   0.393  15.131  1.00  0.00     0.119 C 
BRANCH  31  32
HETATM   32  C5  UNL     1      -4.224   0.476  16.496  1.00  0.00     0.021 C 
BRANCH  32  33
HETATM   33  C4  UNL     1      -2.729   0.392  16.402  1.00  0.00     0.021 C 
BRANCH  33  34
HETATM   34  C3  UNL     1      -1.991   1.417  17.199  1.00  0.00     0.122 C 
BRANCH  34  35
HETATM   35  N1  UNL     1      -0.856   1.948  16.460  1.00  0.00    -0.361 N 
HETATM   36  C2  UNL     1      -0.093   3.059  16.907  1.00  0.00     0.213 C 
HETATM   37  C1  UNL     1       1.056   3.563  16.121  1.00  0.00     0.117 C 
HETATM   38  O1  UNL     1      -0.427   3.600  17.993  1.00  0.00    -0.274 OA
ATOM     39  H1  UNL     1      -0.597   1.503  15.579  1.00  0.00     0.162 HD
ENDBRANCH  34  35
ENDBRANCH  33  34
ENDBRANCH  32  33
ENDBRANCH  31  32
ENDBRANCH  29  31
ENDBRANCH   1  28
BRANCH   2  40
HETATM   40  O2  UNL     1      -2.171   3.319  13.992  1.00  0.00    -0.359 OA
ATOM     41  H2  UNL     1      -1.848   2.579  14.491  1.00  0.00     0.217 HD
ENDBRANCH   2  40
TORSDOF 12
ENDMDL
