MODEL 1
REMARK VINA RESULT: -8.860525644      0.000      0.000
REMARK  12 active torsions:
REMARK  status: ('A' for Active; 'I' for Inactive)
REMARK    1  A    between atoms: C2_2  and  C3_3 
REMARK    2  A    between atoms: C3_3  and  N1_4 
REMARK    3  A    between atoms: N3_11  and  C7_13 
REMARK    4  A    between atoms: C7_13  and  C8_14 
REMARK    5  A    between atoms: C8_14  and  C9_15 
REMARK    6  A    between atoms: C9_15  and  C10_16 
REMARK    7  A    between atoms: C16_22  and  N4_23 
REMARK    8  A    between atoms: N4_23  and  S1_25 
REMARK    9  A    between atoms: S1_25  and  C17_28 
REMARK   10  A    between atoms: C17_28  and  C18_29 
REMARK   11  A    between atoms: N6_34  and  C21_35 
REMARK   12  A    between atoms: C21_35  and  C22_36 
ROOT
HETATM    1  N1  UNL     1      -0.564   3.112  13.580  1.00  0.00    -0.264 N 
HETATM    2  C4  UNL     1      -0.626   3.623  12.344  1.00  0.00     0.282 A 
HETATM    3  O1  UNL     1       0.249   4.376  11.892  1.00  0.00    -0.265 OA
HETATM    4  C5  UNL     1      -1.719   3.284  11.551  1.00  0.00     0.148 A 
HETATM    5  N2  UNL     1      -1.832   3.742  10.305  1.00  0.00    -0.332 N 
ATOM      6  H2  UNL     1      -1.101   4.361   9.955  1.00  0.00     0.168 HD
HETATM    7  C6  UNL     1      -2.870   3.433   9.466  1.00  0.00     0.147 A 
HETATM    8  N3  UNL     1      -2.839   3.939   8.327  1.00  0.00    -0.373 N 
ATOM      9  H3  UNL     1      -2.013   4.524   8.199  1.00  0.00     0.161 HD
HETATM   10  C16 UNL     1      -3.837   2.584  10.001  1.00  0.00     0.161 A 
HETATM   11  N5  UNL     1      -3.750   2.102  11.265  1.00  0.00    -0.323 N 
ATOM     12  H5  UNL     1      -4.474   1.482  11.630  1.00  0.00     0.169 HD
HETATM   13  C20 UNL     1      -2.710   2.447  12.028  1.00  0.00     0.146 A 
HETATM   14  N6  UNL     1      -2.627   1.947  13.273  1.00  0.00    -0.283 N 
HETATM   15  C24 UNL     1      -1.531   2.317  13.998  1.00  0.00     0.333 A 
HETATM   16  O4  UNL     1      -1.412   1.863  15.189  1.00  0.00    -0.246 OA
ENDROOT
BRANCH   8  17
HETATM   17  C7  UNL     1      -3.637   3.916   7.179  1.00  0.00     0.121 C 
BRANCH  17  18
HETATM   18  C8  UNL     1      -4.260   5.286   6.856  1.00  0.00     0.020 C 
BRANCH  18  19
HETATM   19  C9  UNL     1      -3.600   5.855   5.618  1.00  0.00     0.006 C 
BRANCH  19  20
HETATM   20  C10 UNL     1      -4.550   5.998   4.476  1.00  0.00    -0.014 C 
HETATM   21  C11 UNL     1      -4.393   7.324   3.752  1.00  0.00     0.004 C 
HETATM   22  C12 UNL     1      -5.279   7.281   2.525  1.00  0.00     0.000 C 
HETATM   23  C13 UNL     1      -6.718   7.131   2.903  1.00  0.00     0.000 C 
HETATM   24  C14 UNL     1      -6.943   6.727   4.329  1.00  0.00     0.000 C 
HETATM   25  C15 UNL     1      -5.971   5.720   4.852  1.00  0.00     0.004 C 
ENDBRANCH  19  20
ENDBRANCH  18  19
ENDBRANCH  17  18
ENDBRANCH   8  17
BRANCH  10  26
HETATM   26  N4  UNL     1      -4.794   2.275   9.250  1.00  0.00    -0.267 N 
ATOM     27  H4  UNL     1      -4.522   1.754   8.417  1.00  0.00     0.180 HD
BRANCH  26  28
HETATM   28  S1  UNL     1      -6.461   2.573   9.376  1.00  0.00     0.232 S 
HETATM   29  O2  UNL     1      -6.842   2.452  10.838  1.00  0.00    -0.206 OA
HETATM   30  O3  UNL     1      -6.780   3.949   8.875  1.00  0.00    -0.206 OA
BRANCH  28  31
HETATM   31  C17 UNL     1      -7.336   1.370   8.406  1.00  0.00     0.163 C 
BRANCH  31  32
HETATM   32  C18 UNL     1      -8.726   1.796   8.053  1.00  0.00     0.012 C 
HETATM   33  C19 UNL     1      -8.851   2.302   6.642  1.00  0.00     0.006 C 
ENDBRANCH  31  32
ENDBRANCH  28  31
ENDBRANCH  26  28
ENDBRANCH  10  26
BRANCH   1  34
HETATM   34  C3  UNL     1       0.574   3.441  14.458  1.00  0.00     0.137 C 
BRANCH  34  35
HETATM   35  C2  UNL     1       1.596   2.323  14.209  1.00  0.00     0.016 C 
HETATM   36  C1  UNL     1       2.547   2.204  15.383  1.00  0.00     0.006 C 
ENDBRANCH  34  35
ENDBRANCH   1  34
BRANCH  14  37
HETATM   37  C21 UNL     1      -3.577   1.119  13.932  1.00  0.00     0.135 C 
BRANCH  37  38
HETATM   38  C22 UNL     1      -4.683   1.832  14.653  1.00  0.00     0.016 C 
HETATM   39  C23 UNL     1      -5.351   1.124  15.761  1.00  0.00     0.006 C 
ENDBRANCH  37  38
ENDBRANCH  14  37
TORSDOF 12
ENDMDL
MODEL 2
REMARK VINA RESULT: -8.820385256      2.473      9.964
REMARK  12 active torsions:
REMARK  status: ('A' for Active; 'I' for Inactive)
REMARK    1  A    between atoms: C2_2  and  C3_3 
REMARK    2  A    between atoms: C3_3  and  N1_4 
REMARK    3  A    between atoms: N3_11  and  C7_13 
REMARK    4  A    between atoms: C7_13  and  C8_14 
REMARK    5  A    between atoms: C8_14  and  C9_15 
REMARK    6  A    between atoms: C9_15  and  C10_16 
REMARK    7  A    between atoms: C16_22  and  N4_23 
REMARK    8  A    between atoms: N4_23  and  S1_25 
REMARK    9  A    between atoms: S1_25  and  C17_28 
REMARK   10  A    between atoms: C17_28  and  C18_29 
REMARK   11  A    between atoms: N6_34  and  C21_35 
REMARK   12  A    between atoms: C21_35  and  C22_36 
ROOT
HETATM    1  N1  UNL     1      -6.774   4.490   5.990  1.00  0.00    -0.264 N 
HETATM    2  C4  UNL     1      -6.757   3.754   7.109  1.00  0.00     0.282 A 
HETATM    3  O1  UNL     1      -7.770   3.194   7.551  1.00  0.00    -0.265 OA
HETATM    4  C5  UNL     1      -5.548   3.623   7.786  1.00  0.00     0.148 A 
HETATM    5  N2  UNL     1      -5.457   2.890   8.894  1.00  0.00    -0.332 N 
ATOM      6  H2  UNL     1      -6.304   2.439   9.240  1.00  0.00     0.168 HD
HETATM    7  C6  UNL     1      -4.296   2.705   9.598  1.00  0.00     0.147 A 
HETATM    8  N3  UNL     1      -4.367   1.992  10.618  1.00  0.00    -0.373 N 
ATOM      9  H3  UNL     1      -5.316   1.648  10.770  1.00  0.00     0.161 HD
HETATM   10  C16 UNL     1      -3.173   3.346   9.076  1.00  0.00     0.161 A 
HETATM   11  N5  UNL     1      -3.234   4.099   7.951  1.00  0.00    -0.323 N 
ATOM     12  H5  UNL     1      -2.396   4.556   7.593  1.00  0.00     0.169 HD
HETATM   13  C20 UNL     1      -4.401   4.237   7.317  1.00  0.00     0.146 A 
HETATM   14  N6  UNL     1      -4.443   4.972   6.192  1.00  0.00    -0.283 N 
HETATM   15  C24 UNL     1      -5.658   5.059   5.576  1.00  0.00     0.333 A 
HETATM   16  O4  UNL     1      -5.742   5.749   4.500  1.00  0.00    -0.246 OA
ENDROOT
BRANCH   8  17
HETATM   17  C7  UNL     1      -3.491   1.539  11.608  1.00  0.00     0.121 C 
BRANCH  17  18
HETATM   18  C8  UNL     1      -3.719   2.223  12.969  1.00  0.00     0.020 C 
BRANCH  18  19
HETATM   19  C9  UNL     1      -4.445   1.269  13.893  1.00  0.00     0.006 C 
BRANCH  19  20
HETATM   20  C10 UNL     1      -3.568   0.748  14.983  1.00  0.00    -0.014 C 
HETATM   21  C11 UNL     1      -4.300   0.625  16.308  1.00  0.00     0.004 C 
HETATM   22  C12 UNL     1      -3.369  -0.065  17.282  1.00  0.00     0.000 C 
HETATM   23  C13 UNL     1      -2.133   0.745  17.512  1.00  0.00     0.000 C 
HETATM   24  C14 UNL     1      -1.923   1.848  16.520  1.00  0.00     0.000 C 
HETATM   25  C15 UNL     1      -2.280   1.497  15.112  1.00  0.00     0.004 C 
ENDBRANCH  19  20
ENDBRANCH  18  19
ENDBRANCH  17  18
ENDBRANCH   8  17
BRANCH  10  26
HETATM   26  N4  UNL     1      -2.094   3.184   9.695  1.00  0.00    -0.267 N 
ATOM     27  H4  UNL     1      -1.853   2.208   9.871  1.00  0.00     0.180 HD
BRANCH  26  28
HETATM   28  S1  UNL     1      -0.964   4.301  10.293  1.00  0.00     0.232 S 
HETATM   29  O2  UNL     1       0.420   3.744  10.028  1.00  0.00    -0.206 OA
HETATM   30  O3  UNL     1      -1.126   5.621   9.602  1.00  0.00    -0.206 OA
BRANCH  28  31
HETATM   31  C17 UNL     1      -1.225   4.509  12.037  1.00  0.00     0.163 C 
BRANCH  31  32
HETATM   32  C18 UNL     1      -0.220   3.782  12.874  1.00  0.00     0.012 C 
HETATM   33  C19 UNL     1       0.830   4.687  13.458  1.00  0.00     0.006 C 
ENDBRANCH  31  32
ENDBRANCH  28  31
ENDBRANCH  26  28
ENDBRANCH  10  26
BRANCH   1  34
HETATM   34  C3  UNL     1      -8.030   4.657   5.236  1.00  0.00     0.137 C 
BRANCH  34  35
HETATM   35  C2  UNL     1      -8.065   3.471   4.265  1.00  0.00     0.016 C 
HETATM   36  C1  UNL     1      -9.488   3.186   3.826  1.00  0.00     0.006 C 
ENDBRANCH  34  35
ENDBRANCH   1  34
BRANCH  14  37
HETATM   37  C21 UNL     1      -3.376   5.705   5.604  1.00  0.00     0.135 C 
BRANCH  37  38
HETATM   38  C22 UNL     1      -3.125   7.071   6.172  1.00  0.00     0.016 C 
HETATM   39  C23 UNL     1      -3.406   8.236   5.312  1.00  0.00     0.006 C 
ENDBRANCH  37  38
ENDBRANCH  14  37
TORSDOF 12
ENDMDL
MODEL 3
REMARK VINA RESULT: -8.762017398      1.546      1.745
REMARK  12 active torsions:
REMARK  status: ('A' for Active; 'I' for Inactive)
REMARK    1  A    between atoms: C2_2  and  C3_3 
REMARK    2  A    between atoms: C3_3  and  N1_4 
REMARK    3  A    between atoms: N3_11  and  C7_13 
REMARK    4  A    between atoms: C7_13  and  C8_14 
REMARK    5  A    between atoms: C8_14  and  C9_15 
REMARK    6  A    between atoms: C9_15  and  C10_16 
REMARK    7  A    between atoms: C16_22  and  N4_23 
REMARK    8  A    between atoms: N4_23  and  S1_25 
REMARK    9  A    between atoms: S1_25  and  C17_28 
REMARK   10  A    between atoms: C17_28  and  C18_29 
REMARK   11  A    between atoms: N6_34  and  C21_35 
REMARK   12  A    between atoms: C21_35  and  C22_36 
ROOT
HETATM    1  N1  UNL     1      -0.522   3.773  12.083  1.00  0.00    -0.264 N 
HETATM    2  C4  UNL     1      -0.893   4.295  10.906  1.00  0.00     0.282 A 
HETATM    3  O1  UNL     1      -0.074   4.743  10.090  1.00  0.00    -0.265 OA
HETATM    4  C5  UNL     1      -2.252   4.324  10.605  1.00  0.00     0.148 A 
HETATM    5  N2  UNL     1      -2.687   4.811   9.444  1.00  0.00    -0.332 N 
ATOM      6  H2  UNL     1      -1.996   5.175   8.788  1.00  0.00     0.168 HD
HETATM    7  C6  UNL     1      -4.006   4.853   9.077  1.00  0.00     0.147 A 
HETATM    8  N3  UNL     1      -4.261   5.339   7.957  1.00  0.00    -0.373 N 
ATOM      9  H3  UNL     1      -3.413   5.639   7.476  1.00  0.00     0.161 HD
HETATM   10  C16 UNL     1      -4.903   4.341  10.013  1.00  0.00     0.161 A 
HETATM   11  N5  UNL     1      -4.491   3.839  11.203  1.00  0.00    -0.323 N 
ATOM     12  H5  UNL     1      -5.170   3.472  11.869  1.00  0.00     0.169 HD
HETATM   13  C20 UNL     1      -3.188   3.832  11.495  1.00  0.00     0.146 A 
HETATM   14  N6  UNL     1      -2.791   3.315  12.671  1.00  0.00    -0.283 N 
HETATM   15  C24 UNL     1      -1.446   3.314  12.905  1.00  0.00     0.333 A 
HETATM   16  O4  UNL     1      -1.025   2.829  14.012  1.00  0.00    -0.246 OA
ENDROOT
BRANCH   8  17
HETATM   17  C7  UNL     1      -5.402   5.581   7.187  1.00  0.00     0.121 C 
BRANCH  17  18
HETATM   18  C8  UNL     1      -5.434   4.756   5.887  1.00  0.00     0.020 C 
BRANCH  18  19
HETATM   19  C9  UNL     1      -4.945   5.612   4.739  1.00  0.00     0.006 C 
BRANCH  19  20
HETATM   20  C10 UNL     1      -6.043   5.997   3.803  1.00  0.00    -0.014 C 
HETATM   21  C11 UNL     1      -6.148   7.501   3.619  1.00  0.00     0.004 C 
HETATM   22  C12 UNL     1      -7.170   7.757   2.531  1.00  0.00     0.000 C 
HETATM   23  C13 UNL     1      -8.519   7.246   2.927  1.00  0.00     0.000 C 
HETATM   24  C14 UNL     1      -8.508   6.325   4.109  1.00  0.00     0.000 C 
HETATM   25  C15 UNL     1      -7.357   5.372   4.147  1.00  0.00     0.004 C 
ENDBRANCH  19  20
ENDBRANCH  18  19
ENDBRANCH  17  18
ENDBRANCH   8  17
BRANCH  10  26
HETATM   26  N4  UNL     1      -6.118   4.357   9.698  1.00  0.00    -0.267 N 
ATOM     27  H4  UNL     1      -6.453   5.262   9.367  1.00  0.00     0.180 HD
BRANCH  26  28
HETATM   28  S1  UNL     1      -7.301   3.140   9.726  1.00  0.00     0.232 S 
HETATM   29  O2  UNL     1      -7.026   2.256  10.925  1.00  0.00    -0.206 OA
HETATM   30  O3  UNL     1      -8.666   3.748   9.839  1.00  0.00    -0.206 OA
BRANCH  28  31
HETATM   31  C17 UNL     1      -7.194   2.197   8.224  1.00  0.00     0.163 C 
BRANCH  31  32
HETATM   32  C18 UNL     1      -8.531   1.862   7.642  1.00  0.00     0.012 C 
HETATM   33  C19 UNL     1      -8.876   2.691   6.436  1.00  0.00     0.006 C 
ENDBRANCH  31  32
ENDBRANCH  28  31
ENDBRANCH  26  28
ENDBRANCH  10  26
BRANCH   1  34
HETATM   34  C3  UNL     1       0.906   3.718  12.447  1.00  0.00     0.137 C 
BRANCH  34  35
HETATM   35  C2  UNL     1       1.147   4.984  13.279  1.00  0.00     0.016 C 
HETATM   36  C1  UNL     1       1.934   4.654  14.532  1.00  0.00     0.006 C 
ENDBRANCH  34  35
ENDBRANCH   1  34
BRANCH  14  37
HETATM   37  C21 UNL     1      -3.619   2.816  13.714  1.00  0.00     0.135 C 
BRANCH  37  38
HETATM   38  C22 UNL     1      -4.093   1.400  13.556  1.00  0.00     0.016 C 
HETATM   39  C23 UNL     1      -4.630   0.718  14.749  1.00  0.00     0.006 C 
ENDBRANCH  37  38
ENDBRANCH  14  37
TORSDOF 12
ENDMDL
MODEL 4
REMARK VINA RESULT: -8.759505814      2.452     10.015
REMARK  12 active torsions:
REMARK  status: ('A' for Active; 'I' for Inactive)
REMARK    1  A    between atoms: C2_2  and  C3_3 
REMARK    2  A    between atoms: C3_3  and  N1_4 
REMARK    3  A    between atoms: N3_11  and  C7_13 
REMARK    4  A    between atoms: C7_13  and  C8_14 
REMARK    5  A    between atoms: C8_14  and  C9_15 
REMARK    6  A    between atoms: C9_15  and  C10_16 
REMARK    7  A    between atoms: C16_22  and  N4_23 
REMARK    8  A    between atoms: N4_23  and  S1_25 
REMARK    9  A    between atoms: S1_25  and  C17_28 
REMARK   10  A    between atoms: C17_28  and  C18_29 
REMARK   11  A    between atoms: N6_34  and  C21_35 
REMARK   12  A    between atoms: C21_35  and  C22_36 
ROOT
HETATM    1  N1  UNL     1      -6.759   4.570   5.799  1.00  0.00    -0.264 N 
HETATM    2  C4  UNL     1      -6.715   3.828   6.914  1.00  0.00     0.282 A 
HETATM    3  O1  UNL     1      -7.702   3.211   7.340  1.00  0.00    -0.265 OA
HETATM    4  C5  UNL     1      -5.508   3.756   7.603  1.00  0.00     0.148 A 
HETATM    5  N2  UNL     1      -5.391   3.020   8.707  1.00  0.00    -0.332 N 
ATOM      6  H2  UNL     1      -6.216   2.523   9.041  1.00  0.00     0.168 HD
HETATM    7  C6  UNL     1      -4.230   2.891   9.423  1.00  0.00     0.147 A 
HETATM    8  N3  UNL     1      -4.274   2.168  10.437  1.00  0.00    -0.373 N 
ATOM      9  H3  UNL     1      -5.205   1.773  10.576  1.00  0.00     0.161 HD
HETATM   10  C16 UNL     1      -3.137   3.595   8.919  1.00  0.00     0.161 A 
HETATM   11  N5  UNL     1      -3.225   4.353   7.799  1.00  0.00    -0.323 N 
ATOM     12  H5  UNL     1      -2.408   4.856   7.453  1.00  0.00     0.169 HD
HETATM   13  C20 UNL     1      -4.390   4.433   7.152  1.00  0.00     0.146 A 
HETATM   14  N6  UNL     1      -4.459   5.174   6.032  1.00  0.00    -0.283 N 
HETATM   15  C24 UNL     1      -5.670   5.201   5.402  1.00  0.00     0.333 A 
HETATM   16  O4  UNL     1      -5.779   5.893   4.331  1.00  0.00    -0.246 OA
ENDROOT
BRANCH   8  17
HETATM   17  C7  UNL     1      -3.386   1.755  11.435  1.00  0.00     0.121 C 
BRANCH  17  18
HETATM   18  C8  UNL     1      -3.655   2.429  12.793  1.00  0.00     0.020 C 
BRANCH  18  19
HETATM   19  C9  UNL     1      -4.318   1.435  13.722  1.00  0.00     0.006 C 
BRANCH  19  20
HETATM   20  C10 UNL     1      -3.837   1.556  15.129  1.00  0.00    -0.014 C 
HETATM   21  C11 UNL     1      -2.334   1.372  15.247  1.00  0.00     0.004 C 
HETATM   22  C12 UNL     1      -1.946   1.683  16.677  1.00  0.00     0.000 C 
HETATM   23  C13 UNL     1      -2.602   0.737  17.632  1.00  0.00     0.000 C 
HETATM   24  C14 UNL     1      -3.721  -0.063  17.038  1.00  0.00     0.000 C 
HETATM   25  C15 UNL     1      -4.593   0.692  16.088  1.00  0.00     0.004 C 
ENDBRANCH  19  20
ENDBRANCH  18  19
ENDBRANCH  17  18
ENDBRANCH   8  17
BRANCH  10  26
HETATM   26  N4  UNL     1      -2.057   3.486   9.549  1.00  0.00    -0.267 N 
ATOM     27  H4  UNL     1      -1.674   2.541   9.563  1.00  0.00     0.180 HD
BRANCH  26  28
HETATM   28  S1  UNL     1      -1.123   4.633  10.383  1.00  0.00     0.232 S 
HETATM   29  O2  UNL     1      -0.928   5.823   9.466  1.00  0.00    -0.206 OA
HETATM   30  O3  UNL     1      -1.826   5.060  11.635  1.00  0.00    -0.206 OA
BRANCH  28  31
HETATM   31  C17 UNL     1       0.444   3.908  10.799  1.00  0.00     0.163 C 
BRANCH  31  32
HETATM   32  C18 UNL     1       1.305   4.804  11.632  1.00  0.00     0.012 C 
HETATM   33  C19 UNL     1       1.397   4.369  13.069  1.00  0.00     0.006 C 
ENDBRANCH  31  32
ENDBRANCH  28  31
ENDBRANCH  26  28
ENDBRANCH  10  26
BRANCH   1  34
HETATM   34  C3  UNL     1      -8.014   4.676   5.032  1.00  0.00     0.137 C 
BRANCH  34  35
HETATM   35  C2  UNL     1      -8.040   3.422   4.149  1.00  0.00     0.016 C 
HETATM   36  C1  UNL     1      -9.464   3.076   3.761  1.00  0.00     0.006 C 
ENDBRANCH  34  35
ENDBRANCH   1  34
BRANCH  14  37
HETATM   37  C21 UNL     1      -3.426   5.967   5.461  1.00  0.00     0.135 C 
BRANCH  37  38
HETATM   38  C22 UNL     1      -3.270   7.349   6.025  1.00  0.00     0.016 C 
HETATM   39  C23 UNL     1      -3.414   8.489   5.101  1.00  0.00     0.006 C 
ENDBRANCH  37  38
ENDBRANCH  14  37
TORSDOF 12
ENDMDL
MODEL 5
REMARK VINA RESULT: -8.663867075      1.708      2.181
REMARK  12 active torsions:
REMARK  status: ('A' for Active; 'I' for Inactive)
REMARK    1  A    between atoms: C2_2  and  C3_3 
REMARK    2  A    between atoms: C3_3  and  N1_4 
REMARK    3  A    between atoms: N3_11  and  C7_13 
REMARK    4  A    between atoms: C7_13  and  C8_14 
REMARK    5  A    between atoms: C8_14  and  C9_15 
REMARK    6  A    between atoms: C9_15  and  C10_16 
REMARK    7  A    between atoms: C16_22  and  N4_23 
REMARK    8  A    between atoms: N4_23  and  S1_25 
REMARK    9  A    between atoms: S1_25  and  C17_28 
REMARK   10  A    between atoms: C17_28  and  C18_29 
REMARK   11  A    between atoms: N6_34  and  C21_35 
REMARK   12  A    between atoms: C21_35  and  C22_36 
ROOT
HETATM    1  N1  UNL     1      -1.518   1.663  15.523  1.00  0.00    -0.264 N 
HETATM    2  C4  UNL     1      -1.219   2.218  14.341  1.00  0.00     0.282 A 
HETATM    3  O1  UNL     1      -0.127   2.761  14.121  1.00  0.00    -0.265 OA
HETATM    4  C5  UNL     1      -2.180   2.170  13.335  1.00  0.00     0.148 A 
HETATM    5  N2  UNL     1      -1.939   2.686  12.131  1.00  0.00    -0.332 N 
ATOM      6  H2  UNL     1      -1.035   3.129  11.972  1.00  0.00     0.168 HD
HETATM    7  C6  UNL     1      -2.832   2.657  11.092  1.00  0.00     0.147 A 
HETATM    8  N3  UNL     1      -2.465   3.181  10.023  1.00  0.00    -0.373 N 
ATOM      9  H3  UNL     1      -1.521   3.563  10.097  1.00  0.00     0.161 HD
HETATM   10  C16 UNL     1      -4.050   2.038  11.370  1.00  0.00     0.161 A 
HETATM   11  N5  UNL     1      -4.325   1.505  12.585  1.00  0.00    -0.323 N 
ATOM     12  H5  UNL     1      -5.225   1.059  12.759  1.00  0.00     0.169 HD
HETATM   13  C20 UNL     1      -3.407   1.571  13.552  1.00  0.00     0.146 A 
HETATM   14  N6  UNL     1      -3.685   1.022  14.748  1.00  0.00    -0.283 N 
HETATM   15  C24 UNL     1      -2.701   1.101  15.690  1.00  0.00     0.333 A 
HETATM   16  O4  UNL     1      -2.924   0.590  16.842  1.00  0.00    -0.246 OA
ENDROOT
BRANCH   8  17
HETATM   17  C7  UNL     1      -3.004   3.385   8.749  1.00  0.00     0.121 C 
BRANCH  17  18
HETATM   18  C8  UNL     1      -2.905   4.850   8.285  1.00  0.00     0.020 C 
BRANCH  18  19
HETATM   19  C9  UNL     1      -4.238   5.284   7.714  1.00  0.00     0.006 C 
BRANCH  19  20
HETATM   20  C10 UNL     1      -4.222   5.372   6.224  1.00  0.00    -0.014 C 
HETATM   21  C11 UNL     1      -3.900   6.770   5.727  1.00  0.00     0.004 C 
HETATM   22  C12 UNL     1      -3.745   6.696   4.223  1.00  0.00     0.000 C 
HETATM   23  C13 UNL     1      -5.018   6.258   3.571  1.00  0.00     0.000 C 
HETATM   24  C14 UNL     1      -6.028   5.680   4.515  1.00  0.00     0.000 C 
HETATM   25  C15 UNL     1      -5.454   4.812   5.587  1.00  0.00     0.004 C 
ENDBRANCH  19  20
ENDBRANCH  18  19
ENDBRANCH  17  18
ENDBRANCH   8  17
BRANCH  10  26
HETATM   26  N4  UNL     1      -4.883   1.988  10.433  1.00  0.00    -0.267 N 
ATOM     27  H4  UNL     1      -4.684   1.274   9.732  1.00  0.00     0.180 HD
BRANCH  26  28
HETATM   28  S1  UNL     1      -6.282   2.900  10.124  1.00  0.00     0.232 S 
HETATM   29  O2  UNL     1      -7.390   2.355  11.002  1.00  0.00    -0.206 OA
HETATM   30  O3  UNL     1      -6.039   4.344  10.441  1.00  0.00    -0.206 OA
BRANCH  28  31
HETATM   31  C17 UNL     1      -6.712   2.733   8.409  1.00  0.00     0.163 C 
BRANCH  31  32
HETATM   32  C18 UNL     1      -8.135   3.093   8.120  1.00  0.00     0.012 C 
HETATM   33  C19 UNL     1      -8.774   2.202   7.091  1.00  0.00     0.006 C 
ENDBRANCH  31  32
ENDBRANCH  28  31
ENDBRANCH  26  28
ENDBRANCH  10  26
BRANCH   1  34
HETATM   34  C3  UNL     1      -0.533   1.686  16.620  1.00  0.00     0.137 C 
BRANCH  34  35
HETATM   35  C2  UNL     1      -0.906   2.917  17.456  1.00  0.00     0.016 C 
HETATM   36  C1  UNL     1      -0.839   2.594  18.935  1.00  0.00     0.006 C 
ENDBRANCH  34  35
ENDBRANCH   1  34
BRANCH  14  37
HETATM   37  C21 UNL     1      -4.906   0.416  15.152  1.00  0.00     0.135 C 
BRANCH  37  38
HETATM   38  C22 UNL     1      -5.911   1.325  15.797  1.00  0.00     0.016 C 
HETATM   39  C23 UNL     1      -7.264   1.380  15.213  1.00  0.00     0.006 C 
ENDBRANCH  37  38
ENDBRANCH  14  37
TORSDOF 12
ENDMDL
