MODEL 1
REMARK VINA RESULT: -6.987673045      0.000      0.000
REMARK  15 active torsions:
REMARK  status: ('A' for Active; 'I' for Inactive)
REMARK    1  A    between atoms: C2_2  and  C5_5 
REMARK    2  A    between atoms: C6_6  and  C7_7 
REMARK    3  A    between atoms: C8_8  and  C9_9 
REMARK    4  A    between atoms: C10_10  and  C11_11 
REMARK    5  A    between atoms: C11_11  and  C12_12 
REMARK    6  A    between atoms: C12_12  and  N1_13 
REMARK    7  A    between atoms: C12_12  and  C18_23 
REMARK       I    between atoms: N1_13  and  C13_15 
REMARK    8  A    between atoms: C13_15  and  C14_17 
REMARK    9  A    between atoms: C14_17  and  C15_18 
REMARK   10  A    between atoms: C15_18  and  C16_19 
REMARK   11  A    between atoms: C16_19  and  C17_20 
REMARK       I    between atoms: C18_23  and  N2_25 
REMARK   12  A    between atoms: N2_25  and  C19_27 
REMARK   13  A    between atoms: C19_27  and  C20_28 
REMARK   14  A    between atoms: C19_27  and  C21_30 
REMARK       I    between atoms: C21_30  and  N3_32 
REMARK   15  A    between atoms: C25_36  and  C26_37 
ROOT
HETATM    1  C12 UNL     1      28.139  10.040 -21.158  1.00  0.00     0.187 C 
ENDROOT
BRANCH   1   2
HETATM    2  C11 UNL     1      29.642  10.010 -21.183  1.00  0.00     0.129 C 
BRANCH   2   3
HETATM    3  C10 UNL     1      30.177  11.093 -21.970  1.00  0.00    -0.099 C 
HETATM    4  C9  UNL     1      30.670  12.005 -22.630  1.00  0.00    -0.078 C 
BRANCH   4   5
HETATM    5  C8  UNL     1      31.221  13.070 -23.413  1.00  0.00     0.073 C 
HETATM    6  C7  UNL     1      32.286  12.924 -24.177  1.00  0.00     0.073 C 
BRANCH   6   7
HETATM    7  C6  UNL     1      32.839  13.984 -24.961  1.00  0.00    -0.077 C 
HETATM    8  C5  UNL     1      33.320  14.893 -25.609  1.00  0.00    -0.093 C 
BRANCH   8   9
HETATM    9  C2  UNL     1      33.916  16.000 -26.373  1.00  0.00     0.013 C 
HETATM   10  C1  UNL     1      35.371  15.705 -26.540  1.00  0.00     0.028 C 
HETATM   11  C3  UNL     1      33.693  17.258 -25.544  1.00  0.00     0.028 C 
HETATM   12  C4  UNL     1      33.238  16.128 -27.702  1.00  0.00     0.028 C 
ENDBRANCH   8   9
ENDBRANCH   6   7
ENDBRANCH   4   5
ENDBRANCH   2   3
ENDBRANCH   1   2
BRANCH   1  13
HETATM   13  N1  UNL     1      27.830  10.946 -20.025  1.00  0.00    -0.347 N 
HETATM   14  C13 UNL     1      26.739  11.839 -20.032  1.00  0.00     0.218 C 
HETATM   15  O1  UNL     1      26.016  11.847 -21.048  1.00  0.00    -0.274 OA
ATOM     16  H1  UNL     1      28.434  10.921 -19.204  1.00  0.00     0.163 HD
BRANCH  14  17
HETATM   17  C14 UNL     1      26.428  12.739 -18.913  1.00  0.00     0.103 C 
BRANCH  17  18
HETATM   18  C15 UNL     1      26.620  14.179 -19.263  1.00  0.00     0.020 C 
BRANCH  18  19
HETATM   19  C16 UNL     1      27.964  14.529 -19.821  1.00  0.00     0.113 C 
BRANCH  19  20
HETATM   20  C17 UNL     1      29.045  14.217 -18.815  1.00  0.00     0.172 C 
HETATM   21  O2  UNL     1      29.196  14.901 -17.775  1.00  0.00    -0.648 OA
HETATM   22  O3  UNL     1      29.901  13.146 -19.033  1.00  0.00    -0.648 OA
ENDBRANCH  19  20
ENDBRANCH  18  19
ENDBRANCH  17  18
ENDBRANCH  14  17
ENDBRANCH   1  13
BRANCH   1  23
HETATM   23  C18 UNL     1      27.488   8.764 -20.852  1.00  0.00     0.242 C 
HETATM   24  O4  UNL     1      28.233   7.711 -20.836  1.00  0.00    -0.271 OA
HETATM   25  N2  UNL     1      26.138   8.529 -20.566  1.00  0.00    -0.345 N 
ATOM     26  H2  UNL     1      25.500   9.325 -20.557  1.00  0.00     0.163 HD
BRANCH  25  27
HETATM   27  C19 UNL     1      25.587   7.187 -20.276  1.00  0.00     0.190 C 
BRANCH  27  28
HETATM   28  C20 UNL     1      24.954   6.675 -21.567  1.00  0.00     0.149 C 
HETATM   29 CL1  UNL     1      26.029   5.658 -22.482  1.00  0.00    -0.128 Cl
ENDBRANCH  27  28
BRANCH  27  30
HETATM   30  C21 UNL     1      24.513   7.305 -19.267  1.00  0.00     0.244 C 
HETATM   31  O5  UNL     1      23.795   8.377 -19.384  1.00  0.00    -0.271 OA
HETATM   32  N3  UNL     1      24.181   6.458 -18.237  1.00  0.00    -0.337 N 
HETATM   33  C22 UNL     1      23.089   6.652 -17.268  1.00  0.00     0.127 C 
HETATM   34  C25 UNL     1      24.846   5.228 -17.820  1.00  0.00     0.176 C 
HETATM   35  C23 UNL     1      23.504   5.956 -16.008  1.00  0.00     0.022 C 
HETATM   36  C24 UNL     1      24.890   5.423 -16.283  1.00  0.00     0.036 C 
BRANCH  34  37
HETATM   37  C26 UNL     1      24.026   4.015 -17.996  1.00  0.00     0.254 C 
HETATM   38  N4  UNL     1      24.207   2.923 -17.126  1.00  0.00    -0.060 NA
HETATM   39  O6  UNL     1      23.182   3.958 -18.905  1.00  0.00    -0.275 OA
ENDBRANCH  34  37
ENDBRANCH  27  30
ENDBRANCH  25  27
ENDBRANCH   1  23
TORSDOF 15
ENDMDL
MODEL 2
REMARK VINA RESULT: -6.894081868      4.811      8.819
REMARK  15 active torsions:
REMARK  status: ('A' for Active; 'I' for Inactive)
REMARK    1  A    between atoms: C2_2  and  C5_5 
REMARK    2  A    between atoms: C6_6  and  C7_7 
REMARK    3  A    between atoms: C8_8  and  C9_9 
REMARK    4  A    between atoms: C10_10  and  C11_11 
REMARK    5  A    between atoms: C11_11  and  C12_12 
REMARK    6  A    between atoms: C12_12  and  N1_13 
REMARK    7  A    between atoms: C12_12  and  C18_23 
REMARK       I    between atoms: N1_13  and  C13_15 
REMARK    8  A    between atoms: C13_15  and  C14_17 
REMARK    9  A    between atoms: C14_17  and  C15_18 
REMARK   10  A    between atoms: C15_18  and  C16_19 
REMARK   11  A    between atoms: C16_19  and  C17_20 
REMARK       I    between atoms: C18_23  and  N2_25 
REMARK   12  A    between atoms: N2_25  and  C19_27 
REMARK   13  A    between atoms: C19_27  and  C20_28 
REMARK   14  A    between atoms: C19_27  and  C21_30 
REMARK       I    between atoms: C21_30  and  N3_32 
REMARK   15  A    between atoms: C25_36  and  C26_37 
ROOT
HETATM    1  C12 UNL     1      30.374  13.144 -20.588  1.00  0.00     0.187 C 
ENDROOT
BRANCH   1   2
HETATM    2  C11 UNL     1      30.778  11.858 -19.920  1.00  0.00     0.129 C 
BRANCH   2   3
HETATM    3  C10 UNL     1      29.976  10.752 -20.380  1.00  0.00    -0.099 C 
HETATM    4  C9  UNL     1      29.281   9.831 -20.802  1.00  0.00    -0.078 C 
BRANCH   4   5
HETATM    5  C8  UNL     1      28.485   8.740 -21.279  1.00  0.00     0.073 C 
HETATM    6  C7  UNL     1      28.891   7.485 -21.245  1.00  0.00     0.073 C 
BRANCH   6   7
HETATM    7  C6  UNL     1      28.101   6.393 -21.718  1.00  0.00    -0.077 C 
HETATM    8  C5  UNL     1      27.446   5.455 -22.132  1.00  0.00    -0.093 C 
BRANCH   8   9
HETATM    9  C2  UNL     1      26.676   4.309 -22.641  1.00  0.00     0.013 C 
HETATM   10  C1  UNL     1      25.226   4.625 -22.467  1.00  0.00     0.028 C 
HETATM   11  C3  UNL     1      27.091   3.109 -21.801  1.00  0.00     0.028 C 
HETATM   12  C4  UNL     1      27.005   4.072 -24.082  1.00  0.00     0.028 C 
ENDBRANCH   8   9
ENDBRANCH   6   7
ENDBRANCH   4   5
ENDBRANCH   2   3
ENDBRANCH   1   2
BRANCH   1  13
HETATM   13  N1  UNL     1      29.043  13.435 -20.001  1.00  0.00    -0.347 N 
HETATM   14  C13 UNL     1      28.875  14.143 -18.793  1.00  0.00     0.218 C 
HETATM   15  O1  UNL     1      29.906  14.532 -18.212  1.00  0.00    -0.274 OA
ATOM     16  H1  UNL     1      28.212  13.107 -20.494  1.00  0.00     0.163 HD
BRANCH  14  17
HETATM   17  C14 UNL     1      27.558  14.433 -18.208  1.00  0.00     0.103 C 
BRANCH  17  18
HETATM   18  C15 UNL     1      26.447  13.730 -18.918  1.00  0.00     0.020 C 
BRANCH  18  19
HETATM   19  C16 UNL     1      26.548  12.238 -18.947  1.00  0.00     0.113 C 
BRANCH  19  20
HETATM   20  C17 UNL     1      26.073  11.707 -20.279  1.00  0.00     0.172 C 
HETATM   21  O2  UNL     1      26.575  12.095 -21.361  1.00  0.00    -0.648 OA
HETATM   22  O3  UNL     1      25.055  10.765 -20.322  1.00  0.00    -0.648 OA
ENDBRANCH  19  20
ENDBRANCH  18  19
ENDBRANCH  17  18
ENDBRANCH  14  17
ENDBRANCH   1  13
BRANCH   1  23
HETATM   23  C18 UNL     1      30.176  13.067 -22.036  1.00  0.00     0.242 C 
HETATM   24  O4  UNL     1      31.230  13.124 -22.779  1.00  0.00    -0.271 OA
HETATM   25  N2  UNL     1      28.973  12.934 -22.739  1.00  0.00    -0.345 N 
ATOM     26  H2  UNL     1      28.105  12.876 -22.205  1.00  0.00     0.163 HD
BRANCH  25  27
HETATM   27  C19 UNL     1      28.892  12.872 -24.216  1.00  0.00     0.190 C 
BRANCH  27  28
HETATM   28  C20 UNL     1      27.691  13.718 -24.633  1.00  0.00     0.149 C 
HETATM   29 CL1  UNL     1      27.777  14.227 -26.294  1.00  0.00    -0.128 Cl
ENDBRANCH  27  28
BRANCH  27  30
HETATM   30  C21 UNL     1      28.626  11.479 -24.635  1.00  0.00     0.244 C 
HETATM   31  O5  UNL     1      27.374  11.222 -24.845  1.00  0.00    -0.271 OA
HETATM   32  N3  UNL     1      29.502  10.438 -24.820  1.00  0.00    -0.337 N 
HETATM   33  C22 UNL     1      29.153   9.070 -25.241  1.00  0.00     0.127 C 
HETATM   34  C25 UNL     1      30.943  10.409 -24.592  1.00  0.00     0.176 C 
HETATM   35  C23 UNL     1      30.193   8.163 -24.659  1.00  0.00     0.022 C 
HETATM   36  C24 UNL     1      31.098   9.059 -23.847  1.00  0.00     0.036 C 
BRANCH  34  37
HETATM   37  C26 UNL     1      31.739  10.225 -25.820  1.00  0.00     0.254 C 
HETATM   38  N4  UNL     1      32.970   9.544 -25.753  1.00  0.00    -0.060 NA
HETATM   39  O6  UNL     1      31.327  10.668 -26.905  1.00  0.00    -0.275 OA
ENDBRANCH  34  37
ENDBRANCH  27  30
ENDBRANCH  25  27
ENDBRANCH   1  23
TORSDOF 15
ENDMDL
MODEL 3
REMARK VINA RESULT: -6.884351603      3.988     10.293
REMARK  15 active torsions:
REMARK  status: ('A' for Active; 'I' for Inactive)
REMARK    1  A    between atoms: C2_2  and  C5_5 
REMARK    2  A    between atoms: C6_6  and  C7_7 
REMARK    3  A    between atoms: C8_8  and  C9_9 
REMARK    4  A    between atoms: C10_10  and  C11_11 
REMARK    5  A    between atoms: C11_11  and  C12_12 
REMARK    6  A    between atoms: C12_12  and  N1_13 
REMARK    7  A    between atoms: C12_12  and  C18_23 
REMARK       I    between atoms: N1_13  and  C13_15 
REMARK    8  A    between atoms: C13_15  and  C14_17 
REMARK    9  A    between atoms: C14_17  and  C15_18 
REMARK   10  A    between atoms: C15_18  and  C16_19 
REMARK   11  A    between atoms: C16_19  and  C17_20 
REMARK       I    between atoms: C18_23  and  N2_25 
REMARK   12  A    between atoms: N2_25  and  C19_27 
REMARK   13  A    between atoms: C19_27  and  C20_28 
REMARK   14  A    between atoms: C19_27  and  C21_30 
REMARK       I    between atoms: C21_30  and  N3_32 
REMARK   15  A    between atoms: C25_36  and  C26_37 
ROOT
HETATM    1  C12 UNL     1      30.353  13.060 -20.767  1.00  0.00     0.187 C 
ENDROOT
BRANCH   1   2
HETATM    2  C11 UNL     1      30.758  11.788 -20.074  1.00  0.00     0.129 C 
BRANCH   2   3
HETATM    3  C10 UNL     1      29.955  10.673 -20.508  1.00  0.00    -0.099 C 
HETATM    4  C9  UNL     1      29.254   9.721 -20.843  1.00  0.00    -0.078 C 
BRANCH   4   5
HETATM    5  C8  UNL     1      28.442   8.617 -21.259  1.00  0.00     0.073 C 
HETATM    6  C7  UNL     1      28.862   7.367 -21.238  1.00  0.00     0.073 C 
BRANCH   6   7
HETATM    7  C6  UNL     1      28.055   6.262 -21.651  1.00  0.00    -0.077 C 
HETATM    8  C5  UNL     1      27.388   5.311 -22.011  1.00  0.00    -0.093 C 
BRANCH   8   9
HETATM    9  C2  UNL     1      26.601   4.148 -22.452  1.00  0.00     0.013 C 
HETATM   10  C1  UNL     1      25.159   4.464 -22.224  1.00  0.00     0.028 C 
HETATM   11  C3  UNL     1      27.059   2.975 -21.595  1.00  0.00     0.028 C 
HETATM   12  C4  UNL     1      26.868   3.868 -23.898  1.00  0.00     0.028 C 
ENDBRANCH   8   9
ENDBRANCH   6   7
ENDBRANCH   4   5
ENDBRANCH   2   3
ENDBRANCH   1   2
BRANCH   1  13
HETATM   13  N1  UNL     1      29.028  13.368 -20.178  1.00  0.00    -0.347 N 
HETATM   14  C13 UNL     1      28.872  14.052 -18.954  1.00  0.00     0.218 C 
HETATM   15  O1  UNL     1      29.911  14.402 -18.361  1.00  0.00    -0.274 OA
ATOM     16  H1  UNL     1      28.191  13.073 -20.681  1.00  0.00     0.163 HD
BRANCH  14  17
HETATM   17  C14 UNL     1      27.561  14.360 -18.366  1.00  0.00     0.103 C 
BRANCH  17  18
HETATM   18  C15 UNL     1      26.441  13.654 -19.059  1.00  0.00     0.020 C 
BRANCH  18  19
HETATM   19  C16 UNL     1      26.500  12.159 -19.014  1.00  0.00     0.113 C 
BRANCH  19  20
HETATM   20  C17 UNL     1      25.974  11.577 -20.304  1.00  0.00     0.172 C 
HETATM   21  O2  UNL     1      25.013  10.771 -20.320  1.00  0.00    -0.648 OA
HETATM   22  O3  UNL     1      26.557  11.934 -21.511  1.00  0.00    -0.648 OA
ENDBRANCH  19  20
ENDBRANCH  18  19
ENDBRANCH  17  18
ENDBRANCH  14  17
ENDBRANCH   1  13
BRANCH   1  23
HETATM   23  C18 UNL     1      30.144  12.951 -22.212  1.00  0.00     0.242 C 
HETATM   24  O4  UNL     1      29.258  13.726 -22.740  1.00  0.00    -0.271 OA
HETATM   25  N2  UNL     1      30.792  12.103 -23.119  1.00  0.00    -0.345 N 
ATOM     26  H2  UNL     1      31.509  11.471 -22.761  1.00  0.00     0.163 HD
BRANCH  25  27
HETATM   27  C19 UNL     1      30.493  12.074 -24.568  1.00  0.00     0.190 C 
BRANCH  27  28
HETATM   28  C20 UNL     1      29.797  10.746 -24.854  1.00  0.00     0.149 C 
HETATM   29 CL1  UNL     1      28.163  10.706 -24.256  1.00  0.00    -0.128 Cl
ENDBRANCH  27  28
BRANCH  27  30
HETATM   30  C21 UNL     1      31.759  12.090 -25.330  1.00  0.00     0.244 C 
HETATM   31  O5  UNL     1      32.089  10.940 -25.828  1.00  0.00    -0.271 OA
HETATM   32  N3  UNL     1      32.623  13.130 -25.574  1.00  0.00    -0.337 N 
HETATM   33  C22 UNL     1      33.874  13.060 -26.349  1.00  0.00     0.127 C 
HETATM   34  C25 UNL     1      32.553  14.504 -25.088  1.00  0.00     0.176 C 
HETATM   35  C23 UNL     1      34.780  14.118 -25.797  1.00  0.00     0.022 C 
HETATM   36  C24 UNL     1      34.020  14.737 -24.648  1.00  0.00     0.036 C 
BRANCH  34  37
HETATM   37  C26 UNL     1      32.342  15.504 -26.150  1.00  0.00     0.254 C 
HETATM   38  N4  UNL     1      31.482  15.204 -27.224  1.00  0.00    -0.060 NA
HETATM   39  O6  UNL     1      32.919  16.603 -26.099  1.00  0.00    -0.275 OA
ENDBRANCH  34  37
ENDBRANCH  27  30
ENDBRANCH  25  27
ENDBRANCH   1  23
TORSDOF 15
ENDMDL
MODEL 4
REMARK VINA RESULT: -6.864990055      1.782      2.411
REMARK  15 active torsions:
REMARK  status: ('A' for Active; 'I' for Inactive)
REMARK    1  A    between atoms: C2_2  and  C5_5 
REMARK    2  A    between atoms: C6_6  and  C7_7 
REMARK    3  A    between atoms: C8_8  and  C9_9 
REMARK    4  A    between atoms: C10_10  and  C11_11 
REMARK    5  A    between atoms: C11_11  and  C12_12 
REMARK    6  A    between atoms: C12_12  and  N1_13 
REMARK    7  A    between atoms: C12_12  and  C18_23 
REMARK       I    between atoms: N1_13  and  C13_15 
REMARK    8  A    between atoms: C13_15  and  C14_17 
REMARK    9  A    between atoms: C14_17  and  C15_18 
REMARK   10  A    between atoms: C15_18  and  C16_19 
REMARK   11  A    between atoms: C16_19  and  C17_20 
REMARK       I    between atoms: C18_23  and  N2_25 
REMARK   12  A    between atoms: N2_25  and  C19_27 
REMARK   13  A    between atoms: C19_27  and  C20_28 
REMARK   14  A    between atoms: C19_27  and  C21_30 
REMARK       I    between atoms: C21_30  and  N3_32 
REMARK   15  A    between atoms: C25_36  and  C26_37 
ROOT
HETATM    1  C12 UNL     1      25.823  11.475 -20.481  1.00  0.00     0.187 C 
ENDROOT
BRANCH   1   2
HETATM    2  C11 UNL     1      25.662  11.628 -21.968  1.00  0.00     0.129 C 
BRANCH   2   3
HETATM    3  C10 UNL     1      26.882  12.082 -22.586  1.00  0.00    -0.099 C 
HETATM    4  C9  UNL     1      27.929  12.432 -23.127  1.00  0.00    -0.078 C 
BRANCH   4   5
HETATM    5  C8  UNL     1      29.140  12.866 -23.755  1.00  0.00     0.073 C 
HETATM    6  C7  UNL     1      29.429  14.137 -23.959  1.00  0.00     0.073 C 
BRANCH   6   7
HETATM    7  C6  UNL     1      30.636  14.575 -24.584  1.00  0.00    -0.077 C 
HETATM    8  C5  UNL     1      31.675  14.930 -25.109  1.00  0.00    -0.093 C 
BRANCH   8   9
HETATM    9  C2  UNL     1      32.942  15.337 -25.738  1.00  0.00     0.013 C 
HETATM   10  C1  UNL     1      32.783  15.190 -27.216  1.00  0.00     0.028 C 
HETATM   11  C3  UNL     1      34.008  14.395 -25.194  1.00  0.00     0.028 C 
HETATM   12  C4  UNL     1      33.264  16.752 -25.370  1.00  0.00     0.028 C 
ENDBRANCH   8   9
ENDBRANCH   6   7
ENDBRANCH   4   5
ENDBRANCH   2   3
ENDBRANCH   1   2
BRANCH   1  13
HETATM   13  N1  UNL     1      27.071  12.221 -20.189  1.00  0.00    -0.347 N 
HETATM   14  C13 UNL     1      27.106  13.364 -19.363  1.00  0.00     0.218 C 
HETATM   15  O1  UNL     1      26.027  13.742 -18.867  1.00  0.00    -0.274 OA
ATOM     16  H1  UNL     1      27.943  11.894 -20.605  1.00  0.00     0.163 HD
BRANCH  14  17
HETATM   17  C14 UNL     1      28.340  14.107 -19.072  1.00  0.00     0.103 C 
BRANCH  17  18
HETATM   18  C15 UNL     1      29.457  13.752 -19.998  1.00  0.00     0.020 C 
BRANCH  18  19
HETATM   19  C16 UNL     1      30.620  13.058 -19.363  1.00  0.00     0.113 C 
BRANCH  19  20
HETATM   20  C17 UNL     1      30.642  11.602 -19.762  1.00  0.00     0.172 C 
HETATM   21  O2  UNL     1      29.829  11.134 -20.594  1.00  0.00    -0.648 OA
HETATM   22  O3  UNL     1      31.580  10.747 -19.201  1.00  0.00    -0.648 OA
ENDBRANCH  19  20
ENDBRANCH  18  19
ENDBRANCH  17  18
ENDBRANCH  14  17
ENDBRANCH   1  13
BRANCH   1  23
HETATM   23  C18 UNL     1      26.044  10.107 -20.008  1.00  0.00     0.242 C 
HETATM   24  O4  UNL     1      27.057   9.907 -19.234  1.00  0.00    -0.271 OA
HETATM   25  N2  UNL     1      25.287   8.963 -20.286  1.00  0.00    -0.345 N 
ATOM     26  H2  UNL     1      24.468   9.059 -20.887  1.00  0.00     0.163 HD
BRANCH  25  27
HETATM   27  C19 UNL     1      25.610   7.620 -19.754  1.00  0.00     0.190 C 
BRANCH  27  28
HETATM   28  C20 UNL     1      26.244   6.828 -20.895  1.00  0.00     0.149 C 
HETATM   29 CL1  UNL     1      27.976   6.984 -20.935  1.00  0.00    -0.128 Cl
ENDBRANCH  27  28
BRANCH  27  30
HETATM   30  C21 UNL     1      24.360   6.930 -19.371  1.00  0.00     0.244 C 
HETATM   31  O5  UNL     1      23.351   7.200 -20.138  1.00  0.00    -0.271 OA
HETATM   32  N3  UNL     1      24.119   6.066 -18.330  1.00  0.00    -0.337 N 
HETATM   33  C22 UNL     1      22.835   5.418 -18.014  1.00  0.00     0.127 C 
HETATM   34  C25 UNL     1      25.031   5.638 -17.273  1.00  0.00     0.176 C 
HETATM   35  C23 UNL     1      22.827   5.178 -16.536  1.00  0.00     0.022 C 
HETATM   36  C24 UNL     1      24.120   5.770 -16.027  1.00  0.00     0.036 C 
BRANCH  34  37
HETATM   37  C26 UNL     1      25.363   4.202 -17.316  1.00  0.00     0.254 C 
HETATM   38  N4  UNL     1      25.521   3.491 -16.110  1.00  0.00    -0.060 NA
HETATM   39  O6  UNL     1      25.502   3.624 -18.406  1.00  0.00    -0.275 OA
ENDBRANCH  34  37
ENDBRANCH  27  30
ENDBRANCH  25  27
ENDBRANCH   1  23
TORSDOF 15
ENDMDL
MODEL 5
REMARK VINA RESULT: -6.863151184      1.701      2.511
REMARK  15 active torsions:
REMARK  status: ('A' for Active; 'I' for Inactive)
REMARK    1  A    between atoms: C2_2  and  C5_5 
REMARK    2  A    between atoms: C6_6  and  C7_7 
REMARK    3  A    between atoms: C8_8  and  C9_9 
REMARK    4  A    between atoms: C10_10  and  C11_11 
REMARK    5  A    between atoms: C11_11  and  C12_12 
REMARK    6  A    between atoms: C12_12  and  N1_13 
REMARK    7  A    between atoms: C12_12  and  C18_23 
REMARK       I    between atoms: N1_13  and  C13_15 
REMARK    8  A    between atoms: C13_15  and  C14_17 
REMARK    9  A    between atoms: C14_17  and  C15_18 
REMARK   10  A    between atoms: C15_18  and  C16_19 
REMARK   11  A    between atoms: C16_19  and  C17_20 
REMARK       I    between atoms: C18_23  and  N2_25 
REMARK   12  A    between atoms: N2_25  and  C19_27 
REMARK   13  A    between atoms: C19_27  and  C20_28 
REMARK   14  A    between atoms: C19_27  and  C21_30 
REMARK       I    between atoms: C21_30  and  N3_32 
REMARK   15  A    between atoms: C25_36  and  C26_37 
ROOT
HETATM    1  C12 UNL     1      28.802  11.122 -21.726  1.00  0.00     0.187 C 
ENDROOT
BRANCH   1   2
HETATM    2  C11 UNL     1      30.303  11.204 -21.675  1.00  0.00     0.129 C 
BRANCH   2   3
HETATM    3  C10 UNL     1      30.808  12.186 -22.602  1.00  0.00    -0.099 C 
HETATM    4  C9  UNL     1      31.264  13.036 -23.364  1.00  0.00    -0.078 C 
BRANCH   4   5
HETATM    5  C8  UNL     1      31.784  14.012 -24.272  1.00  0.00     0.073 C 
HETATM    6  C7  UNL     1      33.074  14.255 -24.406  1.00  0.00     0.073 C 
BRANCH   6   7
HETATM    7  C6  UNL     1      33.599  15.228 -25.312  1.00  0.00    -0.077 C 
HETATM    8  C5  UNL     1      34.028  16.052 -26.097  1.00  0.00    -0.093 C 
BRANCH   8   9
HETATM    9  C2  UNL     1      34.526  17.045 -27.062  1.00  0.00     0.013 C 
HETATM   10  C1  UNL     1      35.979  16.773 -27.283  1.00  0.00     0.028 C 
HETATM   11  C3  UNL     1      34.305  18.409 -26.422  1.00  0.00     0.028 C 
HETATM   12  C4  UNL     1      33.759  16.943 -28.344  1.00  0.00     0.028 C 
ENDBRANCH   8   9
ENDBRANCH   6   7
ENDBRANCH   4   5
ENDBRANCH   2   3
ENDBRANCH   1   2
BRANCH   1  13
HETATM   13  N1  UNL     1      28.365  12.261 -20.882  1.00  0.00    -0.347 N 
HETATM   14  C13 UNL     1      27.753  13.417 -21.410  1.00  0.00     0.218 C 
HETATM   15  O1  UNL     1      27.584  13.459 -22.644  1.00  0.00    -0.274 OA
ATOM     16  H1  UNL     1      28.512  12.205 -19.874  1.00  0.00     0.163 HD
BRANCH  14  17
HETATM   17  C14 UNL     1      27.318  14.548 -20.579  1.00  0.00     0.103 C 
BRANCH  17  18
HETATM   18  C15 UNL     1      26.551  14.112 -19.373  1.00  0.00     0.020 C 
BRANCH  18  19
HETATM   19  C16 UNL     1      27.149  14.502 -18.058  1.00  0.00     0.113 C 
BRANCH  19  20
HETATM   20  C17 UNL     1      28.613  14.135 -18.020  1.00  0.00     0.172 C 
HETATM   21  O2  UNL     1      29.505  14.998 -17.843  1.00  0.00    -0.648 OA
HETATM   22  O3  UNL     1      28.997  12.811 -18.183  1.00  0.00    -0.648 OA
ENDBRANCH  19  20
ENDBRANCH  18  19
ENDBRANCH  17  18
ENDBRANCH  14  17
ENDBRANCH   1  13
BRANCH   1  23
HETATM   23  C18 UNL     1      28.216   9.921 -21.129  1.00  0.00     0.242 C 
HETATM   24  O4  UNL     1      27.544  10.072 -20.038  1.00  0.00    -0.271 OA
HETATM   25  N2  UNL     1      28.284   8.602 -21.595  1.00  0.00    -0.345 N 
ATOM     26  H2  UNL     1      28.796   8.421 -22.458  1.00  0.00     0.163 HD
BRANCH  25  27
HETATM   27  C19 UNL     1      27.653   7.457 -20.901  1.00  0.00     0.190 C 
BRANCH  27  28
HETATM   28  C20 UNL     1      28.494   6.224 -21.219  1.00  0.00     0.149 C 
HETATM   29 CL1  UNL     1      27.868   4.778 -20.480  1.00  0.00    -0.128 Cl
ENDBRANCH  27  28
BRANCH  27  30
HETATM   30  C21 UNL     1      26.301   7.232 -21.455  1.00  0.00     0.244 C 
HETATM   31  O5  UNL     1      26.292   6.912 -22.710  1.00  0.00    -0.271 OA
HETATM   32  N3  UNL     1      25.076   7.323 -20.839  1.00  0.00    -0.337 N 
HETATM   33  C22 UNL     1      23.766   7.082 -21.467  1.00  0.00     0.127 C 
HETATM   34  C25 UNL     1      24.773   7.728 -19.470  1.00  0.00     0.176 C 
HETATM   35  C23 UNL     1      22.773   7.923 -20.725  1.00  0.00     0.022 C 
HETATM   36  C24 UNL     1      23.581   8.689 -19.705  1.00  0.00     0.036 C 
BRANCH  34  37
HETATM   37  C26 UNL     1      24.199   6.652 -18.641  1.00  0.00     0.254 C 
HETATM   38  N4  UNL     1      24.704   5.343 -18.757  1.00  0.00    -0.060 NA
HETATM   39  O6  UNL     1      23.277   6.900 -17.847  1.00  0.00    -0.275 OA
ENDBRANCH  34  37
ENDBRANCH  27  30
ENDBRANCH  25  27
ENDBRANCH   1  23
TORSDOF 15
ENDMDL
