MODEL 1
REMARK VINA RESULT: -7.537268483      0.000      0.000
REMARK  11 active torsions:
REMARK  status: ('A' for Active; 'I' for Inactive)
REMARK    1  A    between atoms: C2_2  and  C4_4 
REMARK    2  A    between atoms: C4_4  and  C5_5 
REMARK    3  A    between atoms: C5_5  and  C6_6 
REMARK    4  A    between atoms: C6_6  and  N1_7 
REMARK    5  A    between atoms: C6_6  and  C15_26 
REMARK       I    between atoms: N1_7  and  C7_9 
REMARK    6  A    between atoms: C7_9  and  C8_11 
REMARK    7  A    between atoms: C8_11  and  C9_12 
REMARK    8  A    between atoms: C8_11  and  N5_24 
REMARK    9  A    between atoms: C9_12  and  C10_13 
REMARK   10  A    between atoms: C12_15  and  C13_16 
REMARK       I    between atoms: C15_26  and  N6_28 
REMARK   11  A    between atoms: C21_34  and  C22_35 
ROOT
HETATM    1  N1  UNL     1      27.402   9.868 -20.069  1.00  0.00    -0.346 N 
ATOM      2  H1  UNL     1      28.207   9.246 -19.995  1.00  0.00     0.163 HD
HETATM    3  C7  UNL     1      26.164   9.239 -19.971  1.00  0.00     0.238 C 
HETATM    4  O1  UNL     1      25.094   9.870 -20.025  1.00  0.00    -0.272 OA
ENDROOT
BRANCH   1   5
HETATM    5  C6  UNL     1      27.728  11.259 -20.258  1.00  0.00     0.176 C 
BRANCH   5   6
HETATM    6  C5  UNL     1      27.955  12.017 -18.959  1.00  0.00     0.035 C 
BRANCH   6   7
HETATM    7  C4  UNL     1      27.070  13.215 -18.817  1.00  0.00     0.006 C 
BRANCH   7   8
HETATM    8  C2  UNL     1      27.911  14.369 -18.313  1.00  0.00    -0.023 C 
HETATM    9  C1  UNL     1      29.363  14.146 -18.611  1.00  0.00     0.009 C 
HETATM   10  C3  UNL     1      27.759  14.532 -16.818  1.00  0.00     0.009 C 
ENDBRANCH   7   8
ENDBRANCH   6   7
ENDBRANCH   5   6
BRANCH   5  11
HETATM   11  C15 UNL     1      28.814  11.494 -21.185  1.00  0.00     0.243 C 
HETATM   12  O2  UNL     1      29.875  10.775 -21.058  1.00  0.00    -0.271 OA
HETATM   13  N6  UNL     1      28.798  12.434 -22.208  1.00  0.00    -0.333 N 
HETATM   14  C16 UNL     1      27.701  13.327 -22.426  1.00  0.00     0.084 C 
HETATM   15  C21 UNL     1      29.927  12.523 -23.130  1.00  0.00     0.176 C 
HETATM   16  C17 UNL     1      28.054  14.778 -22.096  1.00  0.00     0.032 C 
HETATM   17  C18 UNL     1      27.337  13.233 -23.910  1.00  0.00     0.025 C 
HETATM   18  C19 UNL     1      28.469  13.742 -24.767  1.00  0.00     0.004 C 
HETATM   19  C20 UNL     1      29.798  13.665 -24.108  1.00  0.00     0.035 C 
BRANCH  15  20
HETATM   20  C22 UNL     1      30.163  11.293 -23.905  1.00  0.00     0.254 C 
HETATM   21  N7  UNL     1      31.422  10.954 -24.443  1.00  0.00    -0.060 NA
HETATM   22  O3  UNL     1      29.217  10.461 -24.130  1.00  0.00    -0.275 OA
ENDBRANCH  15  20
ENDBRANCH   5  11
ENDBRANCH   1   5
BRANCH   3  23
HETATM   23  C8  UNL     1      26.112   7.739 -19.794  1.00  0.00     0.185 C 
BRANCH  23  24
HETATM   24  C9  UNL     1      24.736   7.422 -19.260  1.00  0.00     0.088 C 
BRANCH  24  25
HETATM   25  C10 UNL     1      24.722   6.200 -18.433  1.00  0.00     0.011 A 
HETATM   26  C11 UNL     1      24.287   5.978 -17.151  1.00  0.00     0.041 A 
HETATM   27  C12 UNL     1      24.485   4.661 -16.821  1.00  0.00     0.022 A 
HETATM   28  C14 UNL     1      25.061   4.081 -17.954  1.00  0.00     0.102 A 
HETATM   29  N4  UNL     1      25.184   5.018 -18.877  1.00  0.00    -0.368 N 
ATOM     30  H4  UNL     1      25.578   4.864 -19.806  1.00  0.00     0.165 HD
BRANCH  27  31
HETATM   31  C13 UNL     1      24.170   3.993 -15.566  1.00  0.00     0.121 C 
HETATM   32  N2  UNL     1      23.462   4.568 -14.657  1.00  0.00    -0.387 N 
ATOM     33  H22 UNL     1      23.108   5.513 -14.807  1.00  0.00     0.157 HD
ATOM     34  H21 UNL     1      23.242   4.100 -13.778  1.00  0.00     0.157 HD
HETATM   35  N3  UNL     1      24.662   2.678 -15.356  1.00  0.00    -0.082 NA
ENDBRANCH  27  31
ENDBRANCH  24  25
ENDBRANCH  23  24
BRANCH  23  36
HETATM   36  N5  UNL     1      26.365   7.136 -21.065  1.00  0.00    -0.155 NA
HETATM   37 BR1  UNL     1      28.016   6.256 -21.153  1.00  0.00     0.030 Br
ENDBRANCH  23  36
ENDBRANCH   3  23
TORSDOF 11
ENDMDL
MODEL 2
REMARK VINA RESULT: -7.490256715      3.456      5.793
REMARK  11 active torsions:
REMARK  status: ('A' for Active; 'I' for Inactive)
REMARK    1  A    between atoms: C2_2  and  C4_4 
REMARK    2  A    between atoms: C4_4  and  C5_5 
REMARK    3  A    between atoms: C5_5  and  C6_6 
REMARK    4  A    between atoms: C6_6  and  N1_7 
REMARK    5  A    between atoms: C6_6  and  C15_26 
REMARK       I    between atoms: N1_7  and  C7_9 
REMARK    6  A    between atoms: C7_9  and  C8_11 
REMARK    7  A    between atoms: C8_11  and  C9_12 
REMARK    8  A    between atoms: C8_11  and  N5_24 
REMARK    9  A    between atoms: C9_12  and  C10_13 
REMARK   10  A    between atoms: C12_15  and  C13_16 
REMARK       I    between atoms: C15_26  and  N6_28 
REMARK   11  A    between atoms: C21_34  and  C22_35 
ROOT
HETATM    1  N1  UNL     1      28.559  10.256 -20.749  1.00  0.00    -0.346 N 
ATOM      2  H1  UNL     1      29.154   9.625 -20.211  1.00  0.00     0.163 HD
HETATM    3  C7  UNL     1      27.628   9.626 -21.571  1.00  0.00     0.238 C 
HETATM    4  O1  UNL     1      26.824  10.265 -22.273  1.00  0.00    -0.272 OA
ENDROOT
BRANCH   1   5
HETATM    5  C6  UNL     1      28.817  11.658 -20.537  1.00  0.00     0.176 C 
BRANCH   5   6
HETATM    6  C5  UNL     1      29.247  11.994 -19.118  1.00  0.00     0.035 C 
BRANCH   6   7
HETATM    7  C4  UNL     1      28.101  12.369 -18.232  1.00  0.00     0.006 C 
BRANCH   7   8
HETATM    8  C2  UNL     1      27.855  13.856 -18.380  1.00  0.00    -0.023 C 
HETATM    9  C1  UNL     1      27.969  14.553 -17.058  1.00  0.00     0.009 C 
HETATM   10  C3  UNL     1      26.473  14.121 -18.931  1.00  0.00     0.009 C 
ENDBRANCH   7   8
ENDBRANCH   6   7
ENDBRANCH   5   6
BRANCH   5  11
HETATM   11  C15 UNL     1      29.723  12.247 -21.500  1.00  0.00     0.243 C 
HETATM   12  O2  UNL     1      30.962  11.906 -21.442  1.00  0.00    -0.271 OA
HETATM   13  N6  UNL     1      29.354  13.151 -22.490  1.00  0.00    -0.333 N 
HETATM   14  C16 UNL     1      28.019  13.647 -22.631  1.00  0.00     0.084 C 
HETATM   15  C21 UNL     1      30.347  13.615 -23.455  1.00  0.00     0.176 C 
HETATM   16  C17 UNL     1      27.904  15.127 -22.268  1.00  0.00     0.032 C 
HETATM   17  C18 UNL     1      27.630  13.468 -24.101  1.00  0.00     0.025 C 
HETATM   18  C19 UNL     1      28.494  14.330 -24.987  1.00  0.00     0.004 C 
HETATM   19  C20 UNL     1      29.809  14.673 -24.387  1.00  0.00     0.035 C 
BRANCH  15  20
HETATM   20  C22 UNL     1      30.925  12.542 -24.280  1.00  0.00     0.254 C 
HETATM   21  N7  UNL     1      32.237  12.593 -24.797  1.00  0.00    -0.060 NA
HETATM   22  O3  UNL     1      30.251  11.494 -24.569  1.00  0.00    -0.275 OA
ENDBRANCH  15  20
ENDBRANCH   5  11
ENDBRANCH   1   5
BRANCH   3  23
HETATM   23  C8  UNL     1      27.590   8.116 -21.617  1.00  0.00     0.185 C 
BRANCH  23  24
HETATM   24  C9  UNL     1      29.027   7.657 -21.679  1.00  0.00     0.088 C 
BRANCH  24  25
HETATM   25  C10 UNL     1      29.621   7.850 -23.015  1.00  0.00     0.011 A 
HETATM   26  C11 UNL     1      30.884   8.221 -23.400  1.00  0.00     0.041 A 
HETATM   27  C12 UNL     1      30.953   8.261 -24.770  1.00  0.00     0.022 A 
HETATM   28  C14 UNL     1      29.678   7.899 -25.213  1.00  0.00     0.102 A 
HETATM   29  N4  UNL     1      28.926   7.666 -24.152  1.00  0.00    -0.368 N 
ATOM     30  H4  UNL     1      27.946   7.384 -24.190  1.00  0.00     0.165 HD
BRANCH  27  31
HETATM   31  C13 UNL     1      32.097   8.605 -25.602  1.00  0.00     0.121 C 
HETATM   32  N2  UNL     1      32.826   9.637 -25.350  1.00  0.00    -0.387 N 
ATOM     33  H22 UNL     1      32.607  10.234 -24.553  1.00  0.00     0.157 HD
ATOM     34  H21 UNL     1      33.628   9.878 -25.933  1.00  0.00     0.157 HD
HETATM   35  N3  UNL     1      32.403   7.774 -26.712  1.00  0.00    -0.082 NA
ENDBRANCH  27  31
ENDBRANCH  24  25
ENDBRANCH  23  24
BRANCH  23  36
HETATM   36  N5  UNL     1      26.912   7.656 -20.446  1.00  0.00    -0.155 NA
HETATM   37 BR1  UNL     1      25.064   7.466 -20.684  1.00  0.00     0.030 Br
ENDBRANCH  23  36
ENDBRANCH   3  23
TORSDOF 11
ENDMDL
MODEL 3
REMARK VINA RESULT: -7.470358305      1.616      2.444
REMARK  11 active torsions:
REMARK  status: ('A' for Active; 'I' for Inactive)
REMARK    1  A    between atoms: C2_2  and  C4_4 
REMARK    2  A    between atoms: C4_4  and  C5_5 
REMARK    3  A    between atoms: C5_5  and  C6_6 
REMARK    4  A    between atoms: C6_6  and  N1_7 
REMARK    5  A    between atoms: C6_6  and  C15_26 
REMARK       I    between atoms: N1_7  and  C7_9 
REMARK    6  A    between atoms: C7_9  and  C8_11 
REMARK    7  A    between atoms: C8_11  and  C9_12 
REMARK    8  A    between atoms: C8_11  and  N5_24 
REMARK    9  A    between atoms: C9_12  and  C10_13 
REMARK   10  A    between atoms: C12_15  and  C13_16 
REMARK       I    between atoms: C15_26  and  N6_28 
REMARK   11  A    between atoms: C21_34  and  C22_35 
ROOT
HETATM    1  N1  UNL     1      26.587   9.445 -19.960  1.00  0.00    -0.346 N 
ATOM      2  H1  UNL     1      27.516   9.024 -19.968  1.00  0.00     0.163 HD
HETATM    3  C7  UNL     1      25.532   8.536 -19.923  1.00  0.00     0.238 C 
HETATM    4  O1  UNL     1      24.343   8.902 -19.891  1.00  0.00    -0.272 OA
ENDROOT
BRANCH   1   5
HETATM    5  C6  UNL     1      26.575  10.886 -19.988  1.00  0.00     0.176 C 
BRANCH   5   6
HETATM    6  C5  UNL     1      27.376  11.527 -18.866  1.00  0.00     0.035 C 
BRANCH   6   7
HETATM    7  C4  UNL     1      27.198  13.011 -18.793  1.00  0.00     0.006 C 
BRANCH   7   8
HETATM    8  C2  UNL     1      28.214  13.563 -17.815  1.00  0.00    -0.023 C 
HETATM    9  C1  UNL     1      27.575  14.531 -16.866  1.00  0.00     0.009 C 
HETATM   10  C3  UNL     1      29.325  14.283 -18.543  1.00  0.00     0.009 C 
ENDBRANCH   7   8
ENDBRANCH   6   7
ENDBRANCH   5   6
BRANCH   5  11
HETATM   11  C15 UNL     1      26.936  11.457 -21.268  1.00  0.00     0.243 C 
HETATM   12  O2  UNL     1      25.991  11.952 -21.990  1.00  0.00    -0.271 OA
HETATM   13  N6  UNL     1      28.228  11.519 -21.775  1.00  0.00    -0.333 N 
HETATM   14  C16 UNL     1      29.358  10.963 -21.095  1.00  0.00     0.084 C 
HETATM   15  C21 UNL     1      28.476  12.192 -23.048  1.00  0.00     0.176 C 
HETATM   16  C17 UNL     1      29.925   9.737 -21.810  1.00  0.00     0.032 C 
HETATM   17  C18 UNL     1      30.433  12.052 -21.055  1.00  0.00     0.025 C 
HETATM   18  C19 UNL     1      30.905  12.384 -22.448  1.00  0.00     0.004 C 
HETATM   19  C20 UNL     1      29.909  12.071 -23.505  1.00  0.00     0.035 C 
BRANCH  15  20
HETATM   20  C22 UNL     1      28.126  13.622 -23.044  1.00  0.00     0.254 C 
HETATM   21  N7  UNL     1      27.688  14.308 -24.196  1.00  0.00    -0.060 NA
HETATM   22  O3  UNL     1      28.204  14.320 -21.974  1.00  0.00    -0.275 OA
ENDBRANCH  15  20
ENDBRANCH   5  11
ENDBRANCH   1   5
BRANCH   3  23
HETATM   23  C8  UNL     1      25.835   7.056 -19.922  1.00  0.00     0.185 C 
BRANCH  23  24
HETATM   24  C9  UNL     1      24.502   6.350 -19.856  1.00  0.00     0.088 C 
BRANCH  24  25
HETATM   25  C10 UNL     1      24.140   5.962 -18.479  1.00  0.00     0.011 A 
HETATM   26  C11 UNL     1      24.449   4.848 -17.741  1.00  0.00     0.041 A 
HETATM   27  C12 UNL     1      23.874   4.947 -16.499  1.00  0.00     0.022 A 
HETATM   28  C14 UNL     1      23.199   6.170 -16.503  1.00  0.00     0.102 A 
HETATM   29  N4  UNL     1      23.379   6.735 -17.684  1.00  0.00    -0.368 N 
ATOM     30  H4  UNL     1      22.992   7.639 -17.956  1.00  0.00     0.165 HD
BRANCH  27  31
HETATM   31  C13 UNL     1      23.942   3.995 -15.400  1.00  0.00     0.121 C 
HETATM   32  N2  UNL     1      23.168   4.095 -14.374  1.00  0.00    -0.387 N 
ATOM     33  H22 UNL     1      22.490   4.855 -14.320  1.00  0.00     0.157 HD
ATOM     34  H21 UNL     1      23.215   3.428 -13.605  1.00  0.00     0.157 HD
HETATM   35  N3  UNL     1      24.886   2.937 -15.475  1.00  0.00    -0.082 NA
ENDBRANCH  27  31
ENDBRANCH  24  25
ENDBRANCH  23  24
BRANCH  23  36
HETATM   36  N5  UNL     1      26.562   6.755 -21.116  1.00  0.00    -0.155 NA
HETATM   37 BR1  UNL     1      27.796   5.362 -20.901  1.00  0.00     0.030 Br
ENDBRANCH  23  36
ENDBRANCH   3  23
TORSDOF 11
ENDMDL
MODEL 4
REMARK VINA RESULT: -7.383353503      1.992      2.149
REMARK  11 active torsions:
REMARK  status: ('A' for Active; 'I' for Inactive)
REMARK    1  A    between atoms: C2_2  and  C4_4 
REMARK    2  A    between atoms: C4_4  and  C5_5 
REMARK    3  A    between atoms: C5_5  and  C6_6 
REMARK    4  A    between atoms: C6_6  and  N1_7 
REMARK    5  A    between atoms: C6_6  and  C15_26 
REMARK       I    between atoms: N1_7  and  C7_9 
REMARK    6  A    between atoms: C7_9  and  C8_11 
REMARK    7  A    between atoms: C8_11  and  C9_12 
REMARK    8  A    between atoms: C8_11  and  N5_24 
REMARK    9  A    between atoms: C9_12  and  C10_13 
REMARK   10  A    between atoms: C12_15  and  C13_16 
REMARK       I    between atoms: C15_26  and  N6_28 
REMARK   11  A    between atoms: C21_34  and  C22_35 
ROOT
HETATM    1  N1  UNL     1      25.686  10.611 -19.979  1.00  0.00    -0.346 N 
ATOM      2  H1  UNL     1      25.349  10.487 -19.024  1.00  0.00     0.163 HD
HETATM    3  C7  UNL     1      25.264   9.638 -20.882  1.00  0.00     0.238 C 
HETATM    4  O1  UNL     1      25.580   9.667 -22.084  1.00  0.00    -0.272 OA
ENDROOT
BRANCH   1   5
HETATM    5  C6  UNL     1      26.525  11.766 -20.180  1.00  0.00     0.176 C 
BRANCH   5   6
HETATM    6  C5  UNL     1      26.480  12.762 -19.031  1.00  0.00     0.035 C 
BRANCH   6   7
HETATM    7  C4  UNL     1      26.871  14.147 -19.441  1.00  0.00     0.006 C 
BRANCH   7   8
HETATM    8  C2  UNL     1      27.910  14.655 -18.464  1.00  0.00    -0.023 C 
HETATM    9  C1  UNL     1      29.264  14.097 -18.781  1.00  0.00     0.009 C 
HETATM   10  C3  UNL     1      27.559  14.257 -17.049  1.00  0.00     0.009 C 
ENDBRANCH   7   8
ENDBRANCH   6   7
ENDBRANCH   5   6
BRANCH   5  11
HETATM   11  C15 UNL     1      27.892  11.452 -20.534  1.00  0.00     0.243 C 
HETATM   12  O2  UNL     1      28.584  10.761 -19.697  1.00  0.00    -0.271 OA
HETATM   13  N6  UNL     1      28.516  11.837 -21.715  1.00  0.00    -0.333 N 
HETATM   14  C16 UNL     1      27.876  12.648 -22.705  1.00  0.00     0.084 C 
HETATM   15  C21 UNL     1      29.880  11.391 -21.993  1.00  0.00     0.176 C 
HETATM   16  C17 UNL     1      28.480  14.049 -22.794  1.00  0.00     0.032 C 
HETATM   17  C18 UNL     1      28.066  11.942 -24.050  1.00  0.00     0.025 C 
HETATM   18  C19 UNL     1      29.526  11.900 -24.424  1.00  0.00     0.004 C 
HETATM   19  C20 UNL     1      30.444  11.988 -23.259  1.00  0.00     0.035 C 
BRANCH  15  20
HETATM   20  C22 UNL     1      30.022   9.929 -22.083  1.00  0.00     0.254 C 
HETATM   21  N7  UNL     1      29.063   9.101 -22.704  1.00  0.00    -0.060 NA
HETATM   22  O3  UNL     1      31.043   9.332 -21.594  1.00  0.00    -0.275 OA
ENDBRANCH  15  20
ENDBRANCH   5  11
ENDBRANCH   1   5
BRANCH   3  23
HETATM   23  C8  UNL     1      24.393   8.506 -20.389  1.00  0.00     0.185 C 
BRANCH  23  24
HETATM   24  C9  UNL     1      25.192   7.787 -19.328  1.00  0.00     0.088 C 
BRANCH  24  25
HETATM   25  C10 UNL     1      24.422   6.709 -18.679  1.00  0.00     0.011 A 
HETATM   26  C11 UNL     1      24.368   6.294 -17.372  1.00  0.00     0.041 A 
HETATM   27  C12 UNL     1      23.494   5.242 -17.261  1.00  0.00     0.022 A 
HETATM   28  C14 UNL     1      23.013   5.025 -18.555  1.00  0.00     0.102 A 
HETATM   29  N4  UNL     1      23.582   5.907 -19.358  1.00  0.00    -0.368 N 
ATOM     30  H4  UNL     1      23.408   5.970 -20.361  1.00  0.00     0.165 HD
BRANCH  27  31
HETATM   31  C13 UNL     1      23.134   4.497 -16.063  1.00  0.00     0.121 C 
HETATM   32  N2  UNL     1      22.169   3.644 -16.066  1.00  0.00    -0.387 N 
ATOM     33  H22 UNL     1      21.638   3.477 -16.921  1.00  0.00     0.157 HD
ATOM     34  H21 UNL     1      21.917   3.122 -15.227  1.00  0.00     0.157 HD
HETATM   35  N3  UNL     1      23.873   4.728 -14.873  1.00  0.00    -0.082 NA
ENDBRANCH  27  31
ENDBRANCH  24  25
ENDBRANCH  23  24
BRANCH  23  36
HETATM   36  N5  UNL     1      23.181   9.070 -19.881  1.00  0.00    -0.155 NA
HETATM   37 BR1  UNL     1      21.663   8.569 -20.857  1.00  0.00     0.030 Br
ENDBRANCH  23  36
ENDBRANCH   3  23
TORSDOF 11
ENDMDL
MODEL 5
REMARK VINA RESULT: -7.347888578      3.730      9.402
REMARK  11 active torsions:
REMARK  status: ('A' for Active; 'I' for Inactive)
REMARK    1  A    between atoms: C2_2  and  C4_4 
REMARK    2  A    between atoms: C4_4  and  C5_5 
REMARK    3  A    between atoms: C5_5  and  C6_6 
REMARK    4  A    between atoms: C6_6  and  N1_7 
REMARK    5  A    between atoms: C6_6  and  C15_26 
REMARK       I    between atoms: N1_7  and  C7_9 
REMARK    6  A    between atoms: C7_9  and  C8_11 
REMARK    7  A    between atoms: C8_11  and  C9_12 
REMARK    8  A    between atoms: C8_11  and  N5_24 
REMARK    9  A    between atoms: C9_12  and  C10_13 
REMARK   10  A    between atoms: C12_15  and  C13_16 
REMARK       I    between atoms: C15_26  and  N6_28 
REMARK   11  A    between atoms: C21_34  and  C22_35 
ROOT
HETATM    1  N1  UNL     1      28.867  12.399 -21.319  1.00  0.00    -0.346 N 
ATOM      2  H1  UNL     1      27.950  12.813 -21.486  1.00  0.00     0.163 HD
HETATM    3  C7  UNL     1      29.847  12.750 -22.244  1.00  0.00     0.238 C 
HETATM    4  O1  UNL     1      31.017  12.336 -22.160  1.00  0.00    -0.272 OA
ENDROOT
BRANCH   1   5
HETATM    5  C6  UNL     1      28.943  11.542 -20.162  1.00  0.00     0.176 C 
BRANCH   5   6
HETATM    6  C5  UNL     1      28.745  12.275 -18.844  1.00  0.00     0.035 C 
BRANCH   6   7
HETATM    7  C4  UNL     1      29.009  13.744 -18.945  1.00  0.00     0.006 C 
BRANCH   7   8
HETATM    8  C2  UNL     1      27.812  14.481 -18.382  1.00  0.00    -0.023 C 
HETATM    9  C1  UNL     1      27.824  14.461 -16.884  1.00  0.00     0.009 C 
HETATM   10  C3  UNL     1      26.522  13.847 -18.849  1.00  0.00     0.009 C 
ENDBRANCH   7   8
ENDBRANCH   6   7
ENDBRANCH   5   6
BRANCH   5  11
HETATM   11  C15 UNL     1      28.093  10.373 -20.232  1.00  0.00     0.243 C 
HETATM   12  O2  UNL     1      27.079  10.323 -19.441  1.00  0.00    -0.271 OA
HETATM   13  N6  UNL     1      28.285   9.301 -21.095  1.00  0.00    -0.333 N 
HETATM   14  C16 UNL     1      29.398   9.211 -21.989  1.00  0.00     0.084 C 
HETATM   15  C21 UNL     1      27.311   8.212 -21.127  1.00  0.00     0.176 C 
HETATM   16  C17 UNL     1      30.383   8.113 -21.588  1.00  0.00     0.032 C 
HETATM   17  C18 UNL     1      28.833   8.886 -23.374  1.00  0.00     0.025 C 
HETATM   18  C19 UNL     1      28.185   7.525 -23.375  1.00  0.00     0.004 C 
HETATM   19  C20 UNL     1      27.727   7.081 -22.034  1.00  0.00     0.035 C 
BRANCH  15  20
HETATM   20  C22 UNL     1      25.958   8.634 -21.526  1.00  0.00     0.254 C 
HETATM   21  N7  UNL     1      24.786   8.034 -21.019  1.00  0.00    -0.060 NA
HETATM   22  O3  UNL     1      25.781   9.582 -22.367  1.00  0.00    -0.275 OA
ENDBRANCH  15  20
ENDBRANCH   5  11
ENDBRANCH   1   5
BRANCH   3  23
HETATM   23  C8  UNL     1      29.481  13.663 -23.392  1.00  0.00     0.185 C 
BRANCH  23  24
HETATM   24  C9  UNL     1      30.309  13.213 -24.571  1.00  0.00     0.088 C 
BRANCH  24  25
HETATM   25  C10 UNL     1      31.528  14.027 -24.744  1.00  0.00     0.011 A 
HETATM   26  C11 UNL     1      31.715  15.277 -25.277  1.00  0.00     0.041 A 
HETATM   27  C12 UNL     1      33.045  15.608 -25.214  1.00  0.00     0.022 A 
HETATM   28  C14 UNL     1      33.670  14.508 -24.620  1.00  0.00     0.102 A 
HETATM   29  N4  UNL     1      32.744  13.601 -24.360  1.00  0.00    -0.368 N 
ATOM     30  H4  UNL     1      32.929  12.697 -23.926  1.00  0.00     0.165 HD
BRANCH  27  31
HETATM   31  C13 UNL     1      33.687  16.835 -25.664  1.00  0.00     0.121 C 
HETATM   32  N2  UNL     1      34.344  17.588 -24.851  1.00  0.00    -0.387 N 
ATOM     33  H22 UNL     1      34.422  17.330 -23.867  1.00  0.00     0.157 HD
ATOM     34  H21 UNL     1      34.794  18.447 -25.166  1.00  0.00     0.157 HD
HETATM   35  N3  UNL     1      33.578  17.195 -27.033  1.00  0.00    -0.082 NA
ENDBRANCH  27  31
ENDBRANCH  24  25
ENDBRANCH  23  24
BRANCH  23  36
HETATM   36  N5  UNL     1      28.075  13.539 -23.623  1.00  0.00    -0.155 NA
HETATM   37 BR1  UNL     1      27.562  14.037 -25.354  1.00  0.00     0.030 Br
ENDBRANCH  23  36
ENDBRANCH   3  23
TORSDOF 11
ENDMDL
