MODEL 1
REMARK VINA RESULT: -6.759655143      0.000      0.000
REMARK  13 active torsions:
REMARK  status: ('A' for Active; 'I' for Inactive)
REMARK    1  A    between atoms: C2_2  and  C4_4 
REMARK    2  A    between atoms: C4_4  and  C5_5 
REMARK    3  A    between atoms: C5_5  and  N1_6 
REMARK    4  A    between atoms: C5_5  and  C14_24 
REMARK       I    between atoms: N1_6  and  C6_8 
REMARK    5  A    between atoms: C6_8  and  C7_10 
REMARK    6  A    between atoms: C7_10  and  N2_11 
REMARK       I    between atoms: N2_11  and  C8_13 
REMARK    7  A    between atoms: C8_13  and  C9_15 
REMARK    8  A    between atoms: C9_15  and  N3_16 
REMARK    9  A    between atoms: C9_15  and  C11_21 
REMARK       I    between atoms: N3_16  and  C10_18 
REMARK   10  A    between atoms: C14_24  and  N7_30 
REMARK   11  A    between atoms: N5_25  and  N6_27 
REMARK   12  A    between atoms: N7_30  and  C15_32 
REMARK   13  A    between atoms: C15_32  and  C16_33 
ROOT
HETATM    1  C5  UNL     1      26.834   9.722 -20.656  1.00  0.00     0.153 C 
ENDROOT
BRANCH   1   2
HETATM    2  C4  UNL     1      26.699   8.540 -19.805  1.00  0.00     0.037 C 
BRANCH   2   3
HETATM    3  C2  UNL     1      25.830   7.417 -20.115  1.00  0.00    -0.020 C 
HETATM    4  C1  UNL     1      24.816   7.110 -19.057  1.00  0.00     0.009 C 
HETATM    5  C3  UNL     1      25.153   7.487 -21.468  1.00  0.00     0.009 C 
ENDBRANCH   2   3
ENDBRANCH   1   2
BRANCH   1   6
HETATM    6  N1  UNL     1      28.307   9.853 -20.894  1.00  0.00    -0.348 N 
HETATM    7  C6  UNL     1      28.834   9.927 -22.206  1.00  0.00     0.235 C 
HETATM    8  O1  UNL     1      28.044   9.881 -23.179  1.00  0.00    -0.272 OA
ATOM      9  H1  UNL     1      28.942   9.890 -20.096  1.00  0.00     0.163 HD
BRANCH   7  10
HETATM   10  C7  UNL     1      30.278  10.056 -22.452  1.00  0.00     0.225 C 
BRANCH  10  11
HETATM   11  N2  UNL     1      30.659  11.194 -23.227  1.00  0.00    -0.351 N 
HETATM   12  C8  UNL     1      31.038  11.177 -24.585  1.00  0.00     0.241 C 
HETATM   13  O2  UNL     1      31.052  10.064 -25.205  1.00  0.00    -0.271 OA
ATOM     14  H2  UNL     1      30.656  12.099 -22.757  1.00  0.00     0.163 HD
BRANCH  12  15
HETATM   15  C9  UNL     1      31.426  12.387 -25.340  1.00  0.00     0.181 C 
BRANCH  15  16
HETATM   16  N3  UNL     1      32.796  12.292 -25.795  1.00  0.00    -0.332 N 
HETATM   17  C10 UNL     1      33.128  12.052 -27.150  1.00  0.00     0.329 C 
HETATM   18  N4  UNL     1      34.486  11.966 -27.553  1.00  0.00    -0.040 NA
HETATM   19  O3  UNL     1      32.197  11.918 -27.973  1.00  0.00    -0.251 OA
ATOM     20  H3  UNL     1      33.550  12.401 -25.116  1.00  0.00     0.164 HD
ENDBRANCH  15  16
BRANCH  15  21
HETATM   21  C11 UNL     1      31.350  13.617 -24.431  1.00  0.00     0.009 C 
HETATM   22  C12 UNL     1      30.398  14.621 -25.034  1.00  0.00     0.012 C 
HETATM   23  C13 UNL     1      32.705  14.247 -24.287  1.00  0.00     0.012 C 
ENDBRANCH  15  21
ENDBRANCH  12  15
ENDBRANCH  10  11
ENDBRANCH   7  10
ENDBRANCH   1   6
BRANCH   1  24
HETATM   24  C14 UNL     1      26.490  11.046 -20.077  1.00  0.00     0.121 C 
HETATM   25  N5  UNL     1      25.352  11.543 -20.323  1.00  0.00    -0.228 N 
ATOM     26  H5  UNL     1      25.186  12.453 -19.892  1.00  0.00     0.194 HD
BRANCH  25  27
HETATM   27  N6  UNL     1      24.312  11.073 -21.066  1.00  0.00    -0.037 N 
HETATM   28  O4  UNL     1      24.125  11.210 -22.289  1.00  0.00    -0.516 OA
HETATM   29  O5  UNL     1      23.313  10.348 -20.414  1.00  0.00    -0.516 OA
ENDBRANCH  25  27
BRANCH  24  30
HETATM   30  N7  UNL     1      27.430  11.729 -19.277  1.00  0.00    -0.366 N 
ATOM     31  H7  UNL     1      28.020  11.153 -18.677  1.00  0.00     0.161 HD
BRANCH  30  32
HETATM   32  C15 UNL     1      27.650  13.166 -19.216  1.00  0.00     0.048 A 
HETATM   33  C18 UNL     1      26.549  14.124 -19.006  1.00  0.00     0.039 A 
HETATM   34  C19 UNL     1      27.474  13.798 -17.887  1.00  0.00     0.013 A 
HETATM   35  C20 UNL     1      28.407  14.835 -17.333  1.00  0.00     0.012 C 
BRANCH  32  36
HETATM   36  C16 UNL     1      28.780  13.606 -20.120  1.00  0.00     0.082 C 
HETATM   37  C17 UNL     1      30.054  12.860 -20.024  1.00  0.00     0.024 C 
HETATM   38 BR1  UNL     1      28.206  13.685 -21.970  1.00  0.00    -0.089 Br
ENDBRANCH  32  36
ENDBRANCH  30  32
ENDBRANCH  24  30
ENDBRANCH   1  24
TORSDOF 13
ENDMDL
MODEL 2
REMARK VINA RESULT: -6.717918071      1.956      2.634
REMARK  13 active torsions:
REMARK  status: ('A' for Active; 'I' for Inactive)
REMARK    1  A    between atoms: C2_2  and  C4_4 
REMARK    2  A    between atoms: C4_4  and  C5_5 
REMARK    3  A    between atoms: C5_5  and  N1_6 
REMARK    4  A    between atoms: C5_5  and  C14_24 
REMARK       I    between atoms: N1_6  and  C6_8 
REMARK    5  A    between atoms: C6_8  and  C7_10 
REMARK    6  A    between atoms: C7_10  and  N2_11 
REMARK       I    between atoms: N2_11  and  C8_13 
REMARK    7  A    between atoms: C8_13  and  C9_15 
REMARK    8  A    between atoms: C9_15  and  N3_16 
REMARK    9  A    between atoms: C9_15  and  C11_21 
REMARK       I    between atoms: N3_16  and  C10_18 
REMARK   10  A    between atoms: C14_24  and  N7_30 
REMARK   11  A    between atoms: N5_25  and  N6_27 
REMARK   12  A    between atoms: N7_30  and  C15_32 
REMARK   13  A    between atoms: C15_32  and  C16_33 
ROOT
HETATM    1  C5  UNL     1      26.736   9.583 -21.615  1.00  0.00     0.153 C 
ENDROOT
BRANCH   1   2
HETATM    2  C4  UNL     1      27.753   8.763 -20.955  1.00  0.00     0.037 C 
BRANCH   2   3
HETATM    3  C2  UNL     1      28.572   7.783 -21.646  1.00  0.00    -0.020 C 
HETATM    4  C1  UNL     1      30.033   8.114 -21.682  1.00  0.00     0.009 C 
HETATM    5  C3  UNL     1      28.383   6.352 -21.185  1.00  0.00     0.009 C 
ENDBRANCH   2   3
ENDBRANCH   1   2
BRANCH   1   6
HETATM    6  N1  UNL     1      27.307   9.882 -22.967  1.00  0.00    -0.348 N 
HETATM    7  C6  UNL     1      26.509   9.801 -24.134  1.00  0.00     0.235 C 
HETATM    8  O1  UNL     1      25.304   9.473 -24.022  1.00  0.00    -0.272 OA
ATOM      9  H1  UNL     1      28.289  10.148 -23.049  1.00  0.00     0.163 HD
BRANCH   7  10
HETATM   10  C7  UNL     1      27.058  10.091 -25.467  1.00  0.00     0.225 C 
BRANCH  10  11
HETATM   11  N2  UNL     1      27.886  11.254 -25.537  1.00  0.00    -0.351 N 
HETATM   12  C8  UNL     1      29.267  11.300 -25.261  1.00  0.00     0.241 C 
HETATM   13  O2  UNL     1      29.861  10.227 -24.916  1.00  0.00    -0.271 OA
ATOM     14  H2  UNL     1      27.437  12.128 -25.812  1.00  0.00     0.163 HD
BRANCH  12  15
HETATM   15  C9  UNL     1      30.077  12.533 -25.348  1.00  0.00     0.181 C 
BRANCH  15  16
HETATM   16  N3  UNL     1      31.487  12.232 -25.222  1.00  0.00    -0.332 N 
HETATM   17  C10 UNL     1      32.428  12.591 -26.217  1.00  0.00     0.329 C 
HETATM   18  N4  UNL     1      33.802  12.276 -26.053  1.00  0.00    -0.040 NA
HETATM   19  O3  UNL     1      32.016  13.187 -27.235  1.00  0.00    -0.251 OA
ATOM     20  H3  UNL     1      31.815  11.744 -24.389  1.00  0.00     0.164 HD
ENDBRANCH  15  16
BRANCH  15  21
HETATM   21  C11 UNL     1      29.725  13.473 -24.191  1.00  0.00     0.009 C 
HETATM   22  C12 UNL     1      29.951  14.900 -24.625  1.00  0.00     0.012 C 
HETATM   23  C13 UNL     1      30.585  13.178 -22.996  1.00  0.00     0.012 C 
ENDBRANCH  15  21
ENDBRANCH  12  15
ENDBRANCH  10  11
ENDBRANCH   7  10
ENDBRANCH   1   6
BRANCH   1  24
HETATM   24  C14 UNL     1      26.474  10.943 -21.078  1.00  0.00     0.121 C 
HETATM   25  N5  UNL     1      25.324  11.207 -20.620  1.00  0.00    -0.228 N 
ATOM     26  H5  UNL     1      25.218  12.158 -20.267  1.00  0.00     0.194 HD
BRANCH  25  27
HETATM   27  N6  UNL     1      24.204  10.439 -20.517  1.00  0.00    -0.037 N 
HETATM   28  O4  UNL     1      23.972   9.535 -19.693  1.00  0.00    -0.516 OA
HETATM   29  O5  UNL     1      23.170  10.658 -21.428  1.00  0.00    -0.516 OA
ENDBRANCH  25  27
BRANCH  24  30
HETATM   30  N7  UNL     1      27.497  11.914 -21.094  1.00  0.00    -0.366 N 
ATOM     31  H7  UNL     1      27.635  12.415 -21.971  1.00  0.00     0.161 HD
BRANCH  30  32
HETATM   32  C15 UNL     1      28.377  12.279 -19.994  1.00  0.00     0.048 A 
HETATM   33  C18 UNL     1      28.480  11.471 -18.765  1.00  0.00     0.039 A 
HETATM   34  C19 UNL     1      29.560  11.410 -19.787  1.00  0.00     0.013 A 
HETATM   35  C20 UNL     1      30.932  11.938 -19.489  1.00  0.00     0.012 C 
BRANCH  32  36
HETATM   36  C16 UNL     1      28.503  13.778 -19.842  1.00  0.00     0.082 C 
HETATM   37  C17 UNL     1      27.727  14.622 -20.778  1.00  0.00     0.024 C 
HETATM   38 BR1  UNL     1      28.150  14.330 -18.018  1.00  0.00    -0.089 Br
ENDBRANCH  32  36
ENDBRANCH  30  32
ENDBRANCH  24  30
ENDBRANCH   1  24
TORSDOF 13
ENDMDL
MODEL 3
REMARK VINA RESULT: -6.681939903      3.527      7.742
REMARK  13 active torsions:
REMARK  status: ('A' for Active; 'I' for Inactive)
REMARK    1  A    between atoms: C2_2  and  C4_4 
REMARK    2  A    between atoms: C4_4  and  C5_5 
REMARK    3  A    between atoms: C5_5  and  N1_6 
REMARK    4  A    between atoms: C5_5  and  C14_24 
REMARK       I    between atoms: N1_6  and  C6_8 
REMARK    5  A    between atoms: C6_8  and  C7_10 
REMARK    6  A    between atoms: C7_10  and  N2_11 
REMARK       I    between atoms: N2_11  and  C8_13 
REMARK    7  A    between atoms: C8_13  and  C9_15 
REMARK    8  A    between atoms: C9_15  and  N3_16 
REMARK    9  A    between atoms: C9_15  and  C11_21 
REMARK       I    between atoms: N3_16  and  C10_18 
REMARK   10  A    between atoms: C14_24  and  N7_30 
REMARK   11  A    between atoms: N5_25  and  N6_27 
REMARK   12  A    between atoms: N7_30  and  C15_32 
REMARK   13  A    between atoms: C15_32  and  C16_33 
ROOT
HETATM    1  C5  UNL     1      26.185  11.458 -20.819  1.00  0.00     0.153 C 
ENDROOT
BRANCH   1   2
HETATM    2  C4  UNL     1      26.633  12.237 -19.664  1.00  0.00     0.037 C 
BRANCH   2   3
HETATM    3  C2  UNL     1      26.596  13.688 -19.605  1.00  0.00    -0.020 C 
HETATM    4  C1  UNL     1      26.651  14.252 -18.218  1.00  0.00     0.009 C 
HETATM    5  C3  UNL     1      27.611  14.389 -20.484  1.00  0.00     0.009 C 
ENDBRANCH   2   3
ENDBRANCH   1   2
BRANCH   1   6
HETATM    6  N1  UNL     1      25.515  10.254 -20.230  1.00  0.00    -0.348 N 
HETATM    7  C6  UNL     1      24.144   9.990 -20.467  1.00  0.00     0.235 C 
HETATM    8  O1  UNL     1      23.489  10.782 -21.184  1.00  0.00    -0.272 OA
ATOM      9  H1  UNL     1      26.056   9.615 -19.647  1.00  0.00     0.163 HD
BRANCH   7  10
HETATM   10  C7  UNL     1      23.476   8.811 -19.894  1.00  0.00     0.225 C 
BRANCH  10  11
HETATM   11  N2  UNL     1      23.987   7.553 -20.338  1.00  0.00    -0.351 N 
HETATM   12  C8  UNL     1      25.169   6.936 -19.881  1.00  0.00     0.241 C 
HETATM   13  O2  UNL     1      25.867   7.526 -18.993  1.00  0.00    -0.271 OA
ATOM     14  H2  UNL     1      23.448   7.057 -21.048  1.00  0.00     0.163 HD
BRANCH  12  15
HETATM   15  C9  UNL     1      25.654   5.631 -20.377  1.00  0.00     0.181 C 
BRANCH  15  16
HETATM   16  N3  UNL     1      25.614   4.636 -19.328  1.00  0.00    -0.332 N 
HETATM   17  C10 UNL     1      24.404   4.043 -18.893  1.00  0.00     0.329 C 
HETATM   18  N4  UNL     1      24.411   3.070 -17.860  1.00  0.00    -0.040 NA
HETATM   19  O3  UNL     1      23.339   4.400 -19.441  1.00  0.00    -0.251 OA
ATOM     20  H3  UNL     1      26.488   4.351 -18.885  1.00  0.00     0.164 HD
ENDBRANCH  15  16
BRANCH  15  21
HETATM   21  C11 UNL     1      27.116   5.748 -20.816  1.00  0.00     0.009 C 
HETATM   22  C12 UNL     1      27.171   5.982 -22.305  1.00  0.00     0.012 C 
HETATM   23  C13 UNL     1      27.865   4.489 -20.485  1.00  0.00     0.012 C 
ENDBRANCH  15  21
ENDBRANCH  12  15
ENDBRANCH  10  11
ENDBRANCH   7  10
ENDBRANCH   1   6
BRANCH   1  24
HETATM   24  C14 UNL     1      27.216  10.846 -21.695  1.00  0.00     0.121 C 
HETATM   25  N5  UNL     1      27.083  10.937 -22.950  1.00  0.00    -0.228 N 
ATOM     26  H5  UNL     1      27.829  10.495 -23.488  1.00  0.00     0.194 HD
BRANCH  25  27
HETATM   27  N6  UNL     1      26.113  11.522 -23.707  1.00  0.00    -0.037 N 
HETATM   28  O4  UNL     1      24.971  11.091 -23.950  1.00  0.00    -0.516 OA
HETATM   29  O5  UNL     1      26.396  12.753 -24.302  1.00  0.00    -0.516 OA
ENDBRANCH  25  27
BRANCH  24  30
HETATM   30  N7  UNL     1      28.314  10.171 -21.122  1.00  0.00    -0.366 N 
ATOM     31  H7  UNL     1      28.107   9.307 -20.623  1.00  0.00     0.161 HD
BRANCH  30  32
HETATM   32  C15 UNL     1      29.712  10.575 -21.166  1.00  0.00     0.048 A 
HETATM   33  C18 UNL     1      30.122  11.978 -21.362  1.00  0.00     0.039 A 
HETATM   34  C19 UNL     1      30.202  11.362 -20.010  1.00  0.00     0.013 A 
HETATM   35  C20 UNL     1      31.528  11.124 -19.350  1.00  0.00     0.012 C 
BRANCH  32  36
HETATM   36  C16 UNL     1      30.590   9.511 -21.784  1.00  0.00     0.082 C 
HETATM   37  C17 UNL     1      30.202   8.100 -21.565  1.00  0.00     0.024 C 
HETATM   38 BR1  UNL     1      30.850   9.830 -23.678  1.00  0.00    -0.089 Br
ENDBRANCH  32  36
ENDBRANCH  30  32
ENDBRANCH  24  30
ENDBRANCH   1  24
TORSDOF 13
ENDMDL
MODEL 4
REMARK VINA RESULT: -6.666762670      1.619      1.993
REMARK  13 active torsions:
REMARK  status: ('A' for Active; 'I' for Inactive)
REMARK    1  A    between atoms: C2_2  and  C4_4 
REMARK    2  A    between atoms: C4_4  and  C5_5 
REMARK    3  A    between atoms: C5_5  and  N1_6 
REMARK    4  A    between atoms: C5_5  and  C14_24 
REMARK       I    between atoms: N1_6  and  C6_8 
REMARK    5  A    between atoms: C6_8  and  C7_10 
REMARK    6  A    between atoms: C7_10  and  N2_11 
REMARK       I    between atoms: N2_11  and  C8_13 
REMARK    7  A    between atoms: C8_13  and  C9_15 
REMARK    8  A    between atoms: C9_15  and  N3_16 
REMARK    9  A    between atoms: C9_15  and  C11_21 
REMARK       I    between atoms: N3_16  and  C10_18 
REMARK   10  A    between atoms: C14_24  and  N7_30 
REMARK   11  A    between atoms: N5_25  and  N6_27 
REMARK   12  A    between atoms: N7_30  and  C15_32 
REMARK   13  A    between atoms: C15_32  and  C16_33 
ROOT
HETATM    1  C5  UNL     1      26.833   9.911 -21.109  1.00  0.00     0.153 C 
ENDROOT
BRANCH   1   2
HETATM    2  C4  UNL     1      27.954   9.073 -20.682  1.00  0.00     0.037 C 
BRANCH   2   3
HETATM    3  C2  UNL     1      28.563   8.053 -21.518  1.00  0.00    -0.020 C 
HETATM    4  C1  UNL     1      30.035   8.231 -21.735  1.00  0.00     0.009 C 
HETATM    5  C3  UNL     1      28.276   6.626 -21.098  1.00  0.00     0.009 C 
ENDBRANCH   2   3
ENDBRANCH   1   2
BRANCH   1   6
HETATM    6  N1  UNL     1      27.345  10.649 -22.308  1.00  0.00    -0.348 N 
HETATM    7  C6  UNL     1      26.850  10.372 -23.605  1.00  0.00     0.235 C 
HETATM    8  O1  UNL     1      25.968   9.492 -23.742  1.00  0.00    -0.272 OA
ATOM      9  H1  UNL     1      28.063  11.364 -22.187  1.00  0.00     0.163 HD
BRANCH   7  10
HETATM   10  C7  UNL     1      27.345  11.090 -24.789  1.00  0.00     0.225 C 
BRANCH  10  11
HETATM   11  N2  UNL     1      28.696  11.548 -24.696  1.00  0.00    -0.351 N 
HETATM   12  C8  UNL     1      29.468  12.058 -25.759  1.00  0.00     0.241 C 
HETATM   13  O2  UNL     1      28.945  12.133 -26.919  1.00  0.00    -0.271 OA
ATOM     14  H2  UNL     1      29.140  11.501 -23.779  1.00  0.00     0.163 HD
BRANCH  12  15
HETATM   15  C9  UNL     1      30.864  12.517 -25.608  1.00  0.00     0.181 C 
BRANCH  15  16
HETATM   16  N3  UNL     1      31.718  11.431 -25.177  1.00  0.00    -0.332 N 
HETATM   17  C10 UNL     1      32.493  10.672 -26.086  1.00  0.00     0.329 C 
HETATM   18  N4  UNL     1      33.317   9.615 -25.620  1.00  0.00    -0.040 NA
HETATM   19  O3  UNL     1      32.428  10.956 -27.301  1.00  0.00    -0.251 OA
ATOM     20  H3  UNL     1      31.764  11.205 -24.183  1.00  0.00     0.164 HD
ENDBRANCH  15  16
BRANCH  15  21
HETATM   21  C11 UNL     1      30.946  13.596 -24.524  1.00  0.00     0.009 C 
HETATM   22  C12 UNL     1      30.244  14.840 -25.008  1.00  0.00     0.012 C 
HETATM   23  C13 UNL     1      32.378  13.924 -24.217  1.00  0.00     0.012 C 
ENDBRANCH  15  21
ENDBRANCH  12  15
ENDBRANCH  10  11
ENDBRANCH   7  10
ENDBRANCH   1   6
BRANCH   1  24
HETATM   24  C14 UNL     1      26.406  11.019 -20.217  1.00  0.00     0.121 C 
HETATM   25  N5  UNL     1      25.188  11.363 -20.210  1.00  0.00    -0.228 N 
ATOM     26  H5  UNL     1      24.968  12.129 -19.573  1.00  0.00     0.194 HD
BRANCH  25  27
HETATM   27  N6  UNL     1      24.120  10.886 -20.908  1.00  0.00    -0.037 N 
HETATM   28  O4  UNL     1      23.775  11.178 -22.069  1.00  0.00    -0.516 OA
HETATM   29  O5  UNL     1      23.284   9.960 -20.282  1.00  0.00    -0.516 OA
ENDBRANCH  25  27
BRANCH  24  30
HETATM   30  N7  UNL     1      27.356  11.673 -19.404  1.00  0.00    -0.366 N 
ATOM     31  H7  UNL     1      27.896  11.084 -18.772  1.00  0.00     0.161 HD
BRANCH  30  32
HETATM   32  C15 UNL     1      27.648  13.099 -19.371  1.00  0.00     0.048 A 
HETATM   33  C18 UNL     1      26.599  14.114 -19.166  1.00  0.00     0.039 A 
HETATM   34  C19 UNL     1      27.521  13.761 -18.052  1.00  0.00     0.013 A 
HETATM   35  C20 UNL     1      28.512  14.759 -17.528  1.00  0.00     0.012 C 
BRANCH  32  36
HETATM   36  C16 UNL     1      28.787  13.465 -20.296  1.00  0.00     0.082 C 
HETATM   37  C17 UNL     1      29.820  12.435 -20.540  1.00  0.00     0.024 C 
HETATM   38 BR1  UNL     1      28.126  14.141 -21.988  1.00  0.00    -0.089 Br
ENDBRANCH  32  36
ENDBRANCH  30  32
ENDBRANCH  24  30
ENDBRANCH   1  24
TORSDOF 13
ENDMDL
MODEL 5
REMARK VINA RESULT: -6.656163044      3.520      5.160
REMARK  13 active torsions:
REMARK  status: ('A' for Active; 'I' for Inactive)
REMARK    1  A    between atoms: C2_2  and  C4_4 
REMARK    2  A    between atoms: C4_4  and  C5_5 
REMARK    3  A    between atoms: C5_5  and  N1_6 
REMARK    4  A    between atoms: C5_5  and  C14_24 
REMARK       I    between atoms: N1_6  and  C6_8 
REMARK    5  A    between atoms: C6_8  and  C7_10 
REMARK    6  A    between atoms: C7_10  and  N2_11 
REMARK       I    between atoms: N2_11  and  C8_13 
REMARK    7  A    between atoms: C8_13  and  C9_15 
REMARK    8  A    between atoms: C9_15  and  N3_16 
REMARK    9  A    between atoms: C9_15  and  C11_21 
REMARK       I    between atoms: N3_16  and  C10_18 
REMARK   10  A    between atoms: C14_24  and  N7_30 
REMARK   11  A    between atoms: N5_25  and  N6_27 
REMARK   12  A    between atoms: N7_30  and  C15_32 
REMARK   13  A    between atoms: C15_32  and  C16_33 
ROOT
HETATM    1  C5  UNL     1      29.594  12.632 -22.630  1.00  0.00     0.153 C 
ENDROOT
BRANCH   1   2
HETATM    2  C4  UNL     1      30.700  12.522 -21.679  1.00  0.00     0.037 C 
BRANCH   2   3
HETATM    3  C2  UNL     1      31.087  11.281 -21.031  1.00  0.00    -0.020 C 
HETATM    4  C1  UNL     1      31.202  11.373 -19.540  1.00  0.00     0.009 C 
HETATM    5  C3  UNL     1      30.249  10.076 -21.406  1.00  0.00     0.009 C 
ENDBRANCH   2   3
ENDBRANCH   1   2
BRANCH   1   6
HETATM    6  N1  UNL     1      29.919  13.841 -23.453  1.00  0.00    -0.348 N 
HETATM    7  C6  UNL     1      30.653  13.731 -24.659  1.00  0.00     0.235 C 
HETATM    8  O1  UNL     1      31.033  12.597 -25.035  1.00  0.00    -0.272 OA
ATOM      9  H1  UNL     1      29.605  14.760 -23.140  1.00  0.00     0.163 HD
BRANCH   7  10
HETATM   10  C7  UNL     1      30.978  14.910 -25.475  1.00  0.00     0.225 C 
BRANCH  10  11
HETATM   11  N2  UNL     1      32.343  15.330 -25.412  1.00  0.00    -0.351 N 
HETATM   12  C8  UNL     1      33.089  15.869 -26.479  1.00  0.00     0.241 C 
HETATM   13  O2  UNL     1      32.527  16.009 -27.614  1.00  0.00    -0.271 OA
ATOM     14  H2  UNL     1      32.819  15.230 -24.515  1.00  0.00     0.163 HD
BRANCH  12  15
HETATM   15  C9  UNL     1      34.502  16.286 -26.360  1.00  0.00     0.181 C 
BRANCH  15  16
HETATM   16  N3  UNL     1      34.650  17.692 -26.668  1.00  0.00    -0.332 N 
HETATM   17  C10 UNL     1      34.616  18.693 -25.668  1.00  0.00     0.329 C 
HETATM   18  N4  UNL     1      34.766  20.061 -26.016  1.00  0.00    -0.040 NA
HETATM   19  O3  UNL     1      34.450  18.340 -24.481  1.00  0.00    -0.251 OA
ATOM     20  H3  UNL     1      34.784  17.972 -27.640  1.00  0.00     0.164 HD
ENDBRANCH  15  16
BRANCH  15  21
HETATM   21  C11 UNL     1      35.361  15.522 -27.371  1.00  0.00     0.009 C 
HETATM   22  C12 UNL     1      35.572  14.112 -26.878  1.00  0.00     0.012 C 
HETATM   23  C13 UNL     1      36.694  16.192 -27.539  1.00  0.00     0.012 C 
ENDBRANCH  15  21
ENDBRANCH  12  15
ENDBRANCH  10  11
ENDBRANCH   7  10
ENDBRANCH   1   6
BRANCH   1  24
HETATM   24  C14 UNL     1      28.246  12.965 -22.103  1.00  0.00     0.121 C 
HETATM   25  N5  UNL     1      27.229  12.672 -22.798  1.00  0.00    -0.228 N 
ATOM     26  H5  UNL     1      26.338  12.929 -22.372  1.00  0.00     0.194 HD
BRANCH  25  27
HETATM   27  N6  UNL     1      27.120  12.074 -24.017  1.00  0.00    -0.037 N 
HETATM   28  O4  UNL     1      26.899  10.874 -24.260  1.00  0.00    -0.516 OA
HETATM   29  O5  UNL     1      27.273  12.868 -25.155  1.00  0.00    -0.516 OA
ENDBRANCH  25  27
BRANCH  24  30
HETATM   30  N7  UNL     1      28.119  13.604 -20.852  1.00  0.00    -0.366 N 
ATOM     31  H7  UNL     1      28.350  14.596 -20.822  1.00  0.00     0.161 HD
BRANCH  30  32
HETATM   32  C15 UNL     1      27.693  13.000 -19.598  1.00  0.00     0.048 A 
HETATM   33  C18 UNL     1      26.290  12.629 -19.337  1.00  0.00     0.039 A 
HETATM   34  C19 UNL     1      27.289  11.575 -19.662  1.00  0.00     0.013 A 
HETATM   35  C20 UNL     1      27.691  10.554 -18.639  1.00  0.00     0.012 C 
BRANCH  32  36
HETATM   36  C16 UNL     1      28.498  13.506 -18.422  1.00  0.00     0.082 C 
HETATM   37  C17 UNL     1      29.645  14.393 -18.718  1.00  0.00     0.024 C 
HETATM   38 BR1  UNL     1      27.356  14.337 -17.096  1.00  0.00    -0.089 Br
ENDBRANCH  32  36
ENDBRANCH  30  32
ENDBRANCH  24  30
ENDBRANCH   1  24
TORSDOF 13
ENDMDL
