MODEL 1
REMARK VINA RESULT: -9.533956653      0.000      0.000
REMARK  13 active torsions:
REMARK  status: ('A' for Active; 'I' for Inactive)
REMARK    1  A    between atoms: C2_2  and  N1_4 
REMARK    2  A    between atoms: N1_4  and  C4_6 
REMARK    3  A    between atoms: C5_9  and  O1_10 
REMARK    4  A    between atoms: O1_10  and  C6_11 
REMARK    5  A    between atoms: C6_11  and  C7_12 
REMARK    6  A    between atoms: C7_12  and  C8_13 
REMARK    7  A    between atoms: C7_12  and  N4_20 
REMARK    8  A    between atoms: C8_13  and  N3_14 
REMARK    9  A    between atoms: C8_13  and  O2_18 
REMARK   10  A    between atoms: N4_20  and  C10_22 
REMARK   11  A    between atoms: C10_22  and  O3_23 
REMARK   12  A    between atoms: C11_27  and  N6_28 
REMARK   13  A    between atoms: N6_28  and  C12_30 
ROOT
HETATM    1  C12 UNL     1      45.227  48.582   8.851  1.00  0.00     0.049 A 
HETATM    2  C13 UNL     1      44.233  47.929   8.162  1.00  0.00     0.031 A 
HETATM    3  C14 UNL     1      44.098  46.555   8.195  1.00  0.00     0.025 A 
HETATM    4  C15 UNL     1      44.976  45.771   8.938  1.00  0.00     0.044 A 
HETATM    5  C16 UNL     1      44.841  44.343   8.977  1.00  0.00     0.099 C 
HETATM    6  N7  UNL     1      44.715  43.189   9.004  1.00  0.00    -0.191 NA
HETATM    7  C17 UNL     1      45.969  46.436   9.625  1.00  0.00     0.025 A 
HETATM    8  C18 UNL     1      46.107  47.806   9.594  1.00  0.00     0.031 A 
ENDROOT
BRANCH   1   9
HETATM    9  N6  UNL     1      45.397  49.986   8.845  1.00  0.00    -0.191 N 
ATOM     10  H6  UNL     1      46.328  50.392   8.944  1.00  0.00     0.184 HD
BRANCH   9  11
HETATM   11  C11 UNL     1      44.372  50.741   8.714  1.00  0.00     0.700 A 
HETATM   12  N5  UNL     1      43.888  51.041   7.501  1.00  0.00    -0.154 N 
HETATM   13  C5  UNL     1      42.817  51.830   7.358  1.00  0.00     0.252 A 
ATOM     14  H5  UNL     1      44.344  50.661   6.672  1.00  0.00     0.188 HD
HETATM   15  N2  UNL     1      42.218  52.330   8.479  1.00  0.00    -0.154 N 
HETATM   16  C4  UNL     1      42.675  52.051   9.700  1.00  0.00     0.696 A 
ATOM     17  H2  UNL     1      41.402  52.934   8.379  1.00  0.00     0.188 HD
HETATM   18  N8  UNL     1      43.750  51.258   9.812  1.00  0.00    -0.022 N 
ATOM     19  H8  UNL     1      44.110  51.035  10.740  1.00  0.00     0.203 HD
BRANCH  13  20
HETATM   20  O1  UNL     1      42.261  52.184   6.160  1.00  0.00    -0.319 OA
BRANCH  20  21
HETATM   21  C6  UNL     1      42.815  52.995   5.175  1.00  0.00     0.208 C 
BRANCH  21  22
HETATM   22  C7  UNL     1      43.191  52.293   3.914  1.00  0.00     0.165 C 
BRANCH  22  23
HETATM   23  C8  UNL     1      44.693  52.438   3.755  1.00  0.00     0.341 C 
BRANCH  23  24
HETATM   24  N3  UNL     1      45.286  51.154   4.112  1.00  0.00    -0.051 N 
ATOM     25  H33 UNL     1      46.270  51.082   3.852  1.00  0.00     0.277 HD
ATOM     26  H32 UNL     1      45.408  51.036   5.117  1.00  0.00     0.277 HD
ATOM     27  H31 UNL     1      44.707  50.429   3.690  1.00  0.00     0.277 HD
ENDBRANCH  23  24
BRANCH  23  28
HETATM   28  O2  UNL     1      45.228  53.429   4.551  1.00  0.00    -0.368 OA
ATOM     29  H2  UNL     1      46.162  53.546   4.422  1.00  0.00     0.212 HD
ENDBRANCH  23  28
ENDBRANCH  22  23
BRANCH  22  30
HETATM   30  N4  UNL     1      42.455  52.743   2.789  1.00  0.00    -0.365 N 
HETATM   31  C9  UNL     1      41.284  53.492   3.010  1.00  0.00     0.151 C 
BRANCH  30  32
HETATM   32  C10 UNL     1      43.158  52.961   1.592  1.00  0.00     0.221 C 
BRANCH  32  33
HETATM   33  O3  UNL     1      43.451  54.287   1.306  1.00  0.00    -0.357 OA
ATOM     34  H3  UNL     1      44.151  54.424   0.679  1.00  0.00     0.218 HD
ENDBRANCH  32  33
ENDBRANCH  30  32
ENDBRANCH  22  30
ENDBRANCH  21  22
ENDBRANCH  20  21
ENDBRANCH  13  20
BRANCH  16  35
HETATM   35  N1  UNL     1      42.115  52.517  10.740  1.00  0.00    -0.222 N 
ATOM     36  H1  UNL     1      41.388  51.935  11.156  1.00  0.00     0.178 HD
BRANCH  35  37
HETATM   37  C2  UNL     1      42.376  53.749  11.393  1.00  0.00     0.091 C 
HETATM   38  C1  UNL     1      42.481  53.471  12.894  1.00  0.00     0.032 C 
HETATM   39  C3  UNL     1      41.284  54.778  11.214  1.00  0.00     0.032 C 
ENDBRANCH  35  37
ENDBRANCH  16  35
ENDBRANCH   9  11
ENDBRANCH   1   9
TORSDOF 13
ENDMDL
MODEL 2
REMARK VINA RESULT: -9.236798634      1.571      1.919
REMARK  13 active torsions:
REMARK  status: ('A' for Active; 'I' for Inactive)
REMARK    1  A    between atoms: C2_2  and  N1_4 
REMARK    2  A    between atoms: N1_4  and  C4_6 
REMARK    3  A    between atoms: C5_9  and  O1_10 
REMARK    4  A    between atoms: O1_10  and  C6_11 
REMARK    5  A    between atoms: C6_11  and  C7_12 
REMARK    6  A    between atoms: C7_12  and  C8_13 
REMARK    7  A    between atoms: C7_12  and  N4_20 
REMARK    8  A    between atoms: C8_13  and  N3_14 
REMARK    9  A    between atoms: C8_13  and  O2_18 
REMARK   10  A    between atoms: N4_20  and  C10_22 
REMARK   11  A    between atoms: C10_22  and  O3_23 
REMARK   12  A    between atoms: C11_27  and  N6_28 
REMARK   13  A    between atoms: N6_28  and  C12_30 
ROOT
HETATM    1  C12 UNL     1      44.720  47.909  10.322  1.00  0.00     0.049 A 
HETATM    2  C13 UNL     1      44.581  47.089   9.227  1.00  0.00     0.031 A 
HETATM    3  C14 UNL     1      45.538  46.153   8.886  1.00  0.00     0.025 A 
HETATM    4  C15 UNL     1      46.693  46.004   9.649  1.00  0.00     0.044 A 
HETATM    5  C16 UNL     1      47.690  45.034   9.300  1.00  0.00     0.099 C 
HETATM    6  N7  UNL     1      48.485  44.240   9.008  1.00  0.00    -0.191 NA
HETATM    7  C17 UNL     1      46.821  46.831  10.744  1.00  0.00     0.025 A 
HETATM    8  C18 UNL     1      45.869  47.766  11.088  1.00  0.00     0.031 A 
ENDROOT
BRANCH   1   9
HETATM    9  N6  UNL     1      43.763  48.876  10.707  1.00  0.00    -0.191 N 
ATOM     10  H6  UNL     1      43.117  48.687  11.473  1.00  0.00     0.184 HD
BRANCH   9  11
HETATM   11  C11 UNL     1      43.716  49.994  10.084  1.00  0.00     0.700 A 
HETATM   12  N5  UNL     1      43.963  50.060   8.768  1.00  0.00    -0.154 N 
HETATM   13  C5  UNL     1      43.915  51.224   8.111  1.00  0.00     0.252 A 
ATOM     14  H5  UNL     1      44.192  49.207   8.258  1.00  0.00     0.188 HD
HETATM   15  N2  UNL     1      43.608  52.357   8.810  1.00  0.00    -0.154 N 
HETATM   16  C4  UNL     1      43.356  52.325  10.119  1.00  0.00     0.696 A 
ATOM     17  H2  UNL     1      43.570  53.250   8.317  1.00  0.00     0.188 HD
HETATM   18  N8  UNL     1      43.412  51.144  10.750  1.00  0.00    -0.022 N 
ATOM     19  H8  UNL     1      43.222  51.104  11.752  1.00  0.00     0.203 HD
BRANCH  13  20
HETATM   20  O1  UNL     1      44.153  51.378   6.774  1.00  0.00    -0.319 OA
BRANCH  20  21
HETATM   21  C6  UNL     1      43.459  52.182   5.876  1.00  0.00     0.208 C 
BRANCH  21  22
HETATM   22  C7  UNL     1      43.975  52.161   4.477  1.00  0.00     0.165 C 
BRANCH  22  23
HETATM   23  C8  UNL     1      45.334  52.835   4.493  1.00  0.00     0.341 C 
BRANCH  23  24
HETATM   24  N3  UNL     1      46.324  51.796   4.749  1.00  0.00    -0.051 N 
ATOM     25  H33 UNL     1      45.932  50.854   4.722  1.00  0.00     0.277 HD
ATOM     26  H32 UNL     1      46.990  51.682   3.985  1.00  0.00     0.277 HD
ATOM     27  H31 UNL     1      46.769  52.019   5.640  1.00  0.00     0.277 HD
ENDBRANCH  23  24
BRANCH  23  28
HETATM   28  O2  UNL     1      45.439  53.818   5.456  1.00  0.00    -0.368 OA
ATOM     29  H2  UNL     1      45.052  54.643   5.189  1.00  0.00     0.212 HD
ENDBRANCH  23  28
ENDBRANCH  22  23
BRANCH  22  30
HETATM   30  N4  UNL     1      43.070  52.729   3.545  1.00  0.00    -0.365 N 
HETATM   31  C9  UNL     1      43.192  52.371   2.189  1.00  0.00     0.151 C 
BRANCH  30  32
HETATM   32  C10 UNL     1      41.799  53.105   4.013  1.00  0.00     0.221 C 
BRANCH  32  33
HETATM   33  O3  UNL     1      41.276  54.261   3.453  1.00  0.00    -0.357 OA
ATOM     34  H3  UNL     1      40.328  54.310   3.429  1.00  0.00     0.218 HD
ENDBRANCH  32  33
ENDBRANCH  30  32
ENDBRANCH  22  30
ENDBRANCH  21  22
ENDBRANCH  20  21
ENDBRANCH  13  20
BRANCH  16  35
HETATM   35  N1  UNL     1      43.070  53.381  10.764  1.00  0.00    -0.222 N 
ATOM     36  H1  UNL     1      43.696  54.175  10.624  1.00  0.00     0.178 HD
BRANCH  35  37
HETATM   37  C2  UNL     1      41.987  53.592  11.656  1.00  0.00     0.091 C 
HETATM   38  C1  UNL     1      41.302  54.901  11.261  1.00  0.00     0.032 C 
HETATM   39  C3  UNL     1      42.406  53.735  13.101  1.00  0.00     0.032 C 
ENDBRANCH  35  37
ENDBRANCH  16  35
ENDBRANCH   9  11
ENDBRANCH   1   9
TORSDOF 13
ENDMDL
MODEL 3
REMARK VINA RESULT: -9.227192147      1.868      2.847
REMARK  13 active torsions:
REMARK  status: ('A' for Active; 'I' for Inactive)
REMARK    1  A    between atoms: C2_2  and  N1_4 
REMARK    2  A    between atoms: N1_4  and  C4_6 
REMARK    3  A    between atoms: C5_9  and  O1_10 
REMARK    4  A    between atoms: O1_10  and  C6_11 
REMARK    5  A    between atoms: C6_11  and  C7_12 
REMARK    6  A    between atoms: C7_12  and  C8_13 
REMARK    7  A    between atoms: C7_12  and  N4_20 
REMARK    8  A    between atoms: C8_13  and  N3_14 
REMARK    9  A    between atoms: C8_13  and  O2_18 
REMARK   10  A    between atoms: N4_20  and  C10_22 
REMARK   11  A    between atoms: C10_22  and  O3_23 
REMARK   12  A    between atoms: C11_27  and  N6_28 
REMARK   13  A    between atoms: N6_28  and  C12_30 
ROOT
HETATM    1  C12 UNL     1      45.029  46.475   8.627  1.00  0.00     0.049 A 
HETATM    2  C13 UNL     1      46.330  46.846   8.868  1.00  0.00     0.031 A 
HETATM    3  C14 UNL     1      47.273  45.953   9.338  1.00  0.00     0.025 A 
HETATM    4  C15 UNL     1      46.935  44.626   9.588  1.00  0.00     0.044 A 
HETATM    5  C16 UNL     1      47.910  43.693  10.075  1.00  0.00     0.099 C 
HETATM    6  N7  UNL     1      48.712  42.949  10.464  1.00  0.00    -0.191 NA
HETATM    7  C17 UNL     1      45.627  44.265   9.343  1.00  0.00     0.025 A 
HETATM    8  C18 UNL     1      44.684  45.152   8.874  1.00  0.00     0.031 A 
ENDROOT
BRANCH   1   9
HETATM    9  N6  UNL     1      44.035  47.357   8.144  1.00  0.00    -0.191 N 
ATOM     10  H6  UNL     1      43.146  46.993   7.800  1.00  0.00     0.184 HD
BRANCH   9  11
HETATM   11  C11 UNL     1      44.262  48.617   8.143  1.00  0.00     0.700 A 
HETATM   12  N5  UNL     1      44.869  49.206   7.104  1.00  0.00    -0.154 N 
HETATM   13  C5  UNL     1      45.108  50.522   7.097  1.00  0.00     0.252 A 
ATOM     14  H5  UNL     1      45.155  48.641   6.304  1.00  0.00     0.188 HD
HETATM   15  N2  UNL     1      44.720  51.264   8.176  1.00  0.00    -0.154 N 
HETATM   16  C4  UNL     1      44.113  50.708   9.224  1.00  0.00     0.696 A 
ATOM     17  H2  UNL     1      44.899  52.268   8.179  1.00  0.00     0.188 HD
HETATM   18  N8  UNL     1      43.886  49.387   9.204  1.00  0.00    -0.022 N 
ATOM     19  H8  UNL     1      43.423  48.948  10.000  1.00  0.00     0.203 HD
BRANCH  13  20
HETATM   20  O1  UNL     1      45.721  51.200   6.080  1.00  0.00    -0.319 OA
BRANCH  20  21
HETATM   21  C6  UNL     1      45.504  51.057   4.714  1.00  0.00     0.208 C 
BRANCH  21  22
HETATM   22  C7  UNL     1      45.350  52.334   3.959  1.00  0.00     0.165 C 
BRANCH  22  23
HETATM   23  C8  UNL     1      46.282  53.345   4.601  1.00  0.00     0.341 C 
BRANCH  23  24
HETATM   24  N3  UNL     1      46.446  54.439   3.651  1.00  0.00    -0.051 N 
ATOM     25  H33 UNL     1      45.762  54.418   2.894  1.00  0.00     0.277 HD
ATOM     26  H32 UNL     1      46.187  55.346   4.037  1.00  0.00     0.277 HD
ATOM     27  H31 UNL     1      47.411  54.405   3.319  1.00  0.00     0.277 HD
ENDBRANCH  23  24
BRANCH  23  28
HETATM   28  O2  UNL     1      47.517  52.818   4.915  1.00  0.00    -0.368 OA
ATOM     29  H2  UNL     1      48.178  53.003   4.258  1.00  0.00     0.212 HD
ENDBRANCH  23  28
ENDBRANCH  22  23
BRANCH  22  30
HETATM   30  N4  UNL     1      44.005  52.772   3.878  1.00  0.00    -0.365 N 
HETATM   31  C9  UNL     1      43.288  52.524   2.693  1.00  0.00     0.151 C 
BRANCH  30  32
HETATM   32  C10 UNL     1      43.277  52.871   5.077  1.00  0.00     0.221 C 
BRANCH  32  33
HETATM   33  O3  UNL     1      42.327  51.880   5.280  1.00  0.00    -0.357 OA
ATOM     34  H3  UNL     1      41.764  52.003   6.035  1.00  0.00     0.218 HD
ENDBRANCH  32  33
ENDBRANCH  30  32
ENDBRANCH  22  30
ENDBRANCH  21  22
ENDBRANCH  20  21
ENDBRANCH  13  20
BRANCH  16  35
HETATM   35  N1  UNL     1      43.752  51.402  10.226  1.00  0.00    -0.222 N 
ATOM     36  H1  UNL     1      44.437  51.495  10.976  1.00  0.00     0.178 HD
BRANCH  35  37
HETATM   37  C2  UNL     1      42.514  52.062  10.429  1.00  0.00     0.091 C 
HETATM   38  C1  UNL     1      41.989  52.509   9.063  1.00  0.00     0.032 C 
HETATM   39  C3  UNL     1      42.617  53.303  11.285  1.00  0.00     0.032 C 
ENDBRANCH  35  37
ENDBRANCH  16  35
ENDBRANCH   9  11
ENDBRANCH   1   9
TORSDOF 13
ENDMDL
MODEL 4
REMARK VINA RESULT: -9.094999237      2.062      2.987
REMARK  13 active torsions:
REMARK  status: ('A' for Active; 'I' for Inactive)
REMARK    1  A    between atoms: C2_2  and  N1_4 
REMARK    2  A    between atoms: N1_4  and  C4_6 
REMARK    3  A    between atoms: C5_9  and  O1_10 
REMARK    4  A    between atoms: O1_10  and  C6_11 
REMARK    5  A    between atoms: C6_11  and  C7_12 
REMARK    6  A    between atoms: C7_12  and  C8_13 
REMARK    7  A    between atoms: C7_12  and  N4_20 
REMARK    8  A    between atoms: C8_13  and  N3_14 
REMARK    9  A    between atoms: C8_13  and  O2_18 
REMARK   10  A    between atoms: N4_20  and  C10_22 
REMARK   11  A    between atoms: C10_22  and  O3_23 
REMARK   12  A    between atoms: C11_27  and  N6_28 
REMARK   13  A    between atoms: N6_28  and  C12_30 
ROOT
HETATM    1  C12 UNL     1      44.732  47.797  10.319  1.00  0.00     0.049 A 
HETATM    2  C13 UNL     1      44.569  46.965   9.237  1.00  0.00     0.031 A 
HETATM    3  C14 UNL     1      45.498  45.998   8.908  1.00  0.00     0.025 A 
HETATM    4  C15 UNL     1      46.651  45.829   9.671  1.00  0.00     0.044 A 
HETATM    5  C16 UNL     1      47.620  44.826   9.335  1.00  0.00     0.099 C 
HETATM    6  N7  UNL     1      48.392  44.006   9.054  1.00  0.00    -0.191 NA
HETATM    7  C17 UNL     1      46.804  46.669  10.753  1.00  0.00     0.025 A 
HETATM    8  C18 UNL     1      45.879  47.635  11.084  1.00  0.00     0.031 A 
ENDROOT
BRANCH   1   9
HETATM    9  N6  UNL     1      43.804  48.797  10.690  1.00  0.00    -0.191 N 
ATOM     10  H6  UNL     1      43.160  48.640  11.466  1.00  0.00     0.184 HD
BRANCH   9  11
HETATM   11  C11 UNL     1      43.780  49.902  10.044  1.00  0.00     0.700 A 
HETATM   12  N5  UNL     1      44.093  49.945   8.742  1.00  0.00    -0.154 N 
HETATM   13  C5  UNL     1      44.069  51.096   8.061  1.00  0.00     0.252 A 
ATOM     14  H5  UNL     1      44.356  49.084   8.261  1.00  0.00     0.188 HD
HETATM   15  N2  UNL     1      43.717  52.239   8.720  1.00  0.00    -0.154 N 
HETATM   16  C4  UNL     1      43.398  52.230  10.014  1.00  0.00     0.696 A 
ATOM     17  H2  UNL     1      43.697  53.122   8.209  1.00  0.00     0.188 HD
HETATM   18  N8  UNL     1      43.431  51.062  10.671  1.00  0.00    -0.022 N 
ATOM     19  H8  UNL     1      43.190  51.039  11.662  1.00  0.00     0.203 HD
BRANCH  13  20
HETATM   20  O1  UNL     1      44.375  51.226   6.735  1.00  0.00    -0.319 OA
BRANCH  20  21
HETATM   21  C6  UNL     1      45.626  51.454   6.171  1.00  0.00     0.208 C 
BRANCH  21  22
HETATM   22  C7  UNL     1      45.657  52.481   5.091  1.00  0.00     0.165 C 
BRANCH  22  23
HETATM   23  C8  UNL     1      44.946  51.887   3.890  1.00  0.00     0.341 C 
BRANCH  23  24
HETATM   24  N3  UNL     1      43.525  52.170   4.051  1.00  0.00    -0.051 N 
ATOM     25  H33 UNL     1      43.345  53.061   4.514  1.00  0.00     0.277 HD
ATOM     26  H32 UNL     1      43.058  52.384   3.170  1.00  0.00     0.277 HD
ATOM     27  H31 UNL     1      43.114  51.375   4.540  1.00  0.00     0.277 HD
ENDBRANCH  23  24
BRANCH  23  28
HETATM   28  O2  UNL     1      45.133  50.525   3.771  1.00  0.00    -0.368 OA
ATOM     29  H2  UNL     1      44.717  50.158   3.000  1.00  0.00     0.212 HD
ENDBRANCH  23  28
ENDBRANCH  22  23
BRANCH  22  30
HETATM   30  N4  UNL     1      46.966  52.945   4.804  1.00  0.00    -0.365 N 
HETATM   31  C9  UNL     1      47.128  54.276   4.377  1.00  0.00     0.151 C 
BRANCH  30  32
HETATM   32  C10 UNL     1      48.037  52.338   5.483  1.00  0.00     0.221 C 
BRANCH  32  33
HETATM   33  O3  UNL     1      49.195  52.170   4.738  1.00  0.00    -0.357 OA
ATOM     34  H3  UNL     1      49.556  51.291   4.737  1.00  0.00     0.218 HD
ENDBRANCH  32  33
ENDBRANCH  30  32
ENDBRANCH  22  30
ENDBRANCH  21  22
ENDBRANCH  20  21
ENDBRANCH  13  20
BRANCH  16  35
HETATM   35  N1  UNL     1      43.069  53.295  10.624  1.00  0.00    -0.222 N 
ATOM     36  H1  UNL     1      43.631  54.121  10.416  1.00  0.00     0.178 HD
BRANCH  35  37
HETATM   37  C2  UNL     1      42.017  53.477  11.557  1.00  0.00     0.091 C 
HETATM   38  C1  UNL     1      41.309  54.789  11.217  1.00  0.00     0.032 C 
HETATM   39  C3  UNL     1      42.485  53.591  12.990  1.00  0.00     0.032 C 
ENDBRANCH  35  37
ENDBRANCH  16  35
ENDBRANCH   9  11
ENDBRANCH   1   9
TORSDOF 13
ENDMDL
MODEL 5
REMARK VINA RESULT: -9.050306338      2.460      4.059
REMARK  13 active torsions:
REMARK  status: ('A' for Active; 'I' for Inactive)
REMARK    1  A    between atoms: C2_2  and  N1_4 
REMARK    2  A    between atoms: N1_4  and  C4_6 
REMARK    3  A    between atoms: C5_9  and  O1_10 
REMARK    4  A    between atoms: O1_10  and  C6_11 
REMARK    5  A    between atoms: C6_11  and  C7_12 
REMARK    6  A    between atoms: C7_12  and  C8_13 
REMARK    7  A    between atoms: C7_12  and  N4_20 
REMARK    8  A    between atoms: C8_13  and  N3_14 
REMARK    9  A    between atoms: C8_13  and  O2_18 
REMARK   10  A    between atoms: N4_20  and  C10_22 
REMARK   11  A    between atoms: C10_22  and  O3_23 
REMARK   12  A    between atoms: C11_27  and  N6_28 
REMARK   13  A    between atoms: N6_28  and  C12_30 
ROOT
HETATM    1  C12 UNL     1      44.919  48.733   9.082  1.00  0.00     0.049 A 
HETATM    2  C13 UNL     1      45.692  48.018   9.965  1.00  0.00     0.031 A 
HETATM    3  C14 UNL     1      45.732  46.637   9.955  1.00  0.00     0.025 A 
HETATM    4  C15 UNL     1      44.979  45.910   9.036  1.00  0.00     0.044 A 
HETATM    5  C16 UNL     1      45.017  44.476   9.020  1.00  0.00     0.099 C 
HETATM    6  N7  UNL     1      45.062  43.316   9.015  1.00  0.00    -0.191 NA
HETATM    7  C17 UNL     1      44.208  46.637   8.156  1.00  0.00     0.025 A 
HETATM    8  C18 UNL     1      44.166  48.014   8.163  1.00  0.00     0.031 A 
ENDROOT
BRANCH   1   9
HETATM    9  N6  UNL     1      44.852  50.145   9.058  1.00  0.00    -0.191 N 
ATOM     10  H6  UNL     1      44.835  50.675   9.930  1.00  0.00     0.184 HD
BRANCH   9  11
HETATM   11  C11 UNL     1      44.815  50.752   7.931  1.00  0.00     0.700 A 
HETATM   12  N5  UNL     1      43.646  51.073   7.360  1.00  0.00    -0.154 N 
HETATM   13  C5  UNL     1      43.600  51.707   6.184  1.00  0.00     0.252 A 
ATOM     14  H5  UNL     1      42.774  50.828   7.832  1.00  0.00     0.188 HD
HETATM   15  N2  UNL     1      44.776  52.026   5.566  1.00  0.00    -0.154 N 
HETATM   16  C4  UNL     1      45.955  51.722   6.108  1.00  0.00     0.696 A 
ATOM     17  H2  UNL     1      44.750  52.509   4.668  1.00  0.00     0.188 HD
HETATM   18  N8  UNL     1      45.970  51.086   7.288  1.00  0.00    -0.022 N 
ATOM     19  H8  UNL     1      46.865  50.846   7.714  1.00  0.00     0.203 HD
BRANCH  13  20
HETATM   20  O1  UNL     1      42.452  52.069   5.535  1.00  0.00    -0.319 OA
BRANCH  20  21
HETATM   21  C6  UNL     1      42.301  53.054   4.565  1.00  0.00     0.208 C 
BRANCH  21  22
HETATM   22  C7  UNL     1      41.913  52.559   3.213  1.00  0.00     0.165 C 
BRANCH  22  23
HETATM   23  C8  UNL     1      43.189  52.430   2.403  1.00  0.00     0.341 C 
BRANCH  23  24
HETATM   24  N3  UNL     1      43.356  53.678   1.666  1.00  0.00    -0.051 N 
ATOM     25  H33 UNL     1      44.282  54.090   1.783  1.00  0.00     0.277 HD
ATOM     26  H32 UNL     1      43.399  53.543   0.656  1.00  0.00     0.277 HD
ATOM     27  H31 UNL     1      42.601  54.300   1.956  1.00  0.00     0.277 HD
ENDBRANCH  23  24
BRANCH  23  28
HETATM   28  O2  UNL     1      43.162  51.373   1.517  1.00  0.00    -0.368 OA
ATOM     29  H2  UNL     1      42.297  51.210   1.159  1.00  0.00     0.212 HD
ENDBRANCH  23  28
ENDBRANCH  22  23
BRANCH  22  30
HETATM   30  N4  UNL     1      40.924  53.362   2.592  1.00  0.00    -0.365 N 
HETATM   31  C9  UNL     1      40.122  52.784   1.590  1.00  0.00     0.151 C 
BRANCH  30  32
HETATM   32  C10 UNL     1      40.380  54.422   3.338  1.00  0.00     0.221 C 
BRANCH  32  33
HETATM   33  O3  UNL     1      39.074  54.238   3.769  1.00  0.00    -0.357 OA
ATOM     34  H3  UNL     1      38.745  54.899   4.367  1.00  0.00     0.218 HD
ENDBRANCH  32  33
ENDBRANCH  30  32
ENDBRANCH  22  30
ENDBRANCH  21  22
ENDBRANCH  20  21
ENDBRANCH  13  20
BRANCH  16  35
HETATM   35  N1  UNL     1      47.046  52.021   5.531  1.00  0.00    -0.222 N 
ATOM     36  H1  UNL     1      47.667  51.240   5.315  1.00  0.00     0.178 HD
BRANCH  35  37
HETATM   37  C2  UNL     1      47.507  53.307   5.149  1.00  0.00     0.091 C 
HETATM   38  C1  UNL     1      46.532  53.867   4.113  1.00  0.00     0.032 C 
HETATM   39  C3  UNL     1      48.874  53.298   4.504  1.00  0.00     0.032 C 
ENDBRANCH  35  37
ENDBRANCH  16  35
ENDBRANCH   9  11
ENDBRANCH   1   9
TORSDOF 13
ENDMDL
