MODEL 1
REMARK VINA RESULT: -9.965866820      0.000      0.000
REMARK  12 active torsions:
REMARK  status: ('A' for Active; 'I' for Inactive)
REMARK    1  A    between atoms: N3_6  and  C3_8 
REMARK    2  A    between atoms: C6_11  and  C7_12 
REMARK    3  A    between atoms: C7_12  and  O1_13 
REMARK    4  A    between atoms: C10_17  and  C11_18 
REMARK    5  A    between atoms: C11_18  and  N4_19 
REMARK    6  A    between atoms: N4_19  and  O2_21 
REMARK    7  A    between atoms: O2_21  and  C12_22 
REMARK    8  A    between atoms: C12_22  and  C13_23 
REMARK    9  A    between atoms: C13_23  and  O3_24 
REMARK   10  A    between atoms: O3_24  and  S1_25 
REMARK   11  A    between atoms: S1_25  and  N5_26 
REMARK   12  A    between atoms: C14_31  and  O6_32 
ROOT
HETATM    1  N1  UNL     1      44.064  48.643  12.495  1.00  0.00    -0.063 NA
HETATM    2  C1  UNL     1      44.219  49.052  11.139  1.00  0.00     0.195 A 
HETATM    3  N2  UNL     1      44.813  48.311  10.207  1.00  0.00    -0.316 N 
ATOM      4  H2  UNL     1      45.176  47.399  10.484  1.00  0.00     0.170 HD
HETATM    5  C2  UNL     1      44.967  48.685   8.920  1.00  0.00     0.119 A 
HETATM    6  N3  UNL     1      45.532  47.984   8.025  1.00  0.00    -0.371 N 
ATOM      7  H3  UNL     1      45.582  48.387   7.090  1.00  0.00     0.161 HD
HETATM    8  C10 UNL     1      44.467  49.923   8.575  1.00  0.00     0.076 A 
HETATM    9  C14 UNL     1      43.845  50.720   9.511  1.00  0.00     0.158 A 
HETATM   10  N6  UNL     1      43.730  50.267  10.789  1.00  0.00    -0.310 N 
ATOM     11  H6  UNL     1      43.272  50.848  11.492  1.00  0.00     0.170 HD
ENDROOT
BRANCH   8  12
HETATM   12  C11 UNL     1      44.589  50.415   7.193  1.00  0.00     0.133 C 
BRANCH  12  13
HETATM   13  N4  UNL     1      43.532  50.611   6.480  1.00  0.00    -0.277 N 
ATOM     14  H4  UNL     1      43.071  49.816   6.038  1.00  0.00     0.193 HD
BRANCH  13  15
HETATM   15  O2  UNL     1      43.021  51.867   6.307  1.00  0.00    -0.279 OA
BRANCH  15  16
HETATM   16  C12 UNL     1      43.421  52.690   5.216  1.00  0.00     0.229 C 
BRANCH  16  17
HETATM   17  C13 UNL     1      42.240  52.936   4.314  1.00  0.00     0.220 C 
BRANCH  17  18
HETATM   18  O3  UNL     1      42.609  52.728   2.995  1.00  0.00    -0.258 OA
BRANCH  18  19
HETATM   19  S1  UNL     1      41.397  53.396   2.033  1.00  0.00     0.355 S 
HETATM   20  O4  UNL     1      40.588  54.316   2.931  1.00  0.00    -0.176 OA
HETATM   21  O5  UNL     1      41.976  54.211   0.910  1.00  0.00    -0.176 OA
BRANCH  19  22
HETATM   22  N5  UNL     1      40.359  52.215   1.371  1.00  0.00    -0.306 N 
ATOM     23  H52 UNL     1      40.663  51.546   0.664  1.00  0.00     0.171 HD
ATOM     24  H51 UNL     1      39.417  52.258   1.761  1.00  0.00     0.171 HD
ENDBRANCH  19  22
ENDBRANCH  18  19
ENDBRANCH  17  18
ENDBRANCH  16  17
ENDBRANCH  15  16
ENDBRANCH  13  15
ENDBRANCH  12  13
ENDBRANCH   8  12
BRANCH   9  25
HETATM   25  O6  UNL     1      43.323  51.968   9.231  1.00  0.00    -0.345 OA
ATOM     26  H6  UNL     1      42.428  52.220   9.423  1.00  0.00     0.219 HD
ENDBRANCH   9  25
BRANCH   6  27
HETATM   27  C3  UNL     1      46.106  46.689   8.196  1.00  0.00     0.083 C 
HETATM   28  C4  UNL     1      47.443  46.689   8.870  1.00  0.00     0.025 C 
HETATM   29  C5  UNL     1      47.994  45.295   8.840  1.00  0.00     0.009 C 
HETATM   30  C6  UNL     1      47.079  44.240   9.330  1.00  0.00     0.009 C 
HETATM   31  C8  UNL     1      45.633  44.475   9.165  1.00  0.00     0.009 C 
HETATM   32  C9  UNL     1      45.187  45.886   9.115  1.00  0.00     0.025 C 
BRANCH  30  33
HETATM   33  C7  UNL     1      47.439  43.898  10.783  1.00  0.00     0.168 C 
BRANCH  33  34
HETATM   34  O1  UNL     1      47.263  42.499  10.879  1.00  0.00    -0.400 OA
ATOM     35  H1  UNL     1      47.766  42.243  11.642  1.00  0.00     0.209 HD
ENDBRANCH  33  34
ENDBRANCH  30  33
ENDBRANCH   6  27
TORSDOF 12
ENDMDL
MODEL 2
REMARK VINA RESULT: -9.627205008      1.827      2.442
REMARK  12 active torsions:
REMARK  status: ('A' for Active; 'I' for Inactive)
REMARK    1  A    between atoms: N3_6  and  C3_8 
REMARK    2  A    between atoms: C6_11  and  C7_12 
REMARK    3  A    between atoms: C7_12  and  O1_13 
REMARK    4  A    between atoms: C10_17  and  C11_18 
REMARK    5  A    between atoms: C11_18  and  N4_19 
REMARK    6  A    between atoms: N4_19  and  O2_21 
REMARK    7  A    between atoms: O2_21  and  C12_22 
REMARK    8  A    between atoms: C12_22  and  C13_23 
REMARK    9  A    between atoms: C13_23  and  O3_24 
REMARK   10  A    between atoms: O3_24  and  S1_25 
REMARK   11  A    between atoms: S1_25  and  N5_26 
REMARK   12  A    between atoms: C14_31  and  O6_32 
ROOT
HETATM    1  N1  UNL     1      42.760  51.842  10.408  1.00  0.00    -0.063 NA
HETATM    2  C1  UNL     1      43.363  51.469   9.172  1.00  0.00     0.195 A 
HETATM    3  N2  UNL     1      43.912  50.279   8.946  1.00  0.00    -0.316 N 
ATOM      4  H2  UNL     1      43.898  49.598   9.705  1.00  0.00     0.170 HD
HETATM    5  C2  UNL     1      44.486  49.913   7.782  1.00  0.00     0.119 A 
HETATM    6  N3  UNL     1      45.012  48.779   7.558  1.00  0.00    -0.371 N 
ATOM      7  H3  UNL     1      45.411  48.633   6.632  1.00  0.00     0.161 HD
HETATM    8  C10 UNL     1      44.490  50.855   6.774  1.00  0.00     0.076 A 
HETATM    9  C14 UNL     1      43.931  52.100   6.968  1.00  0.00     0.158 A 
HETATM   10  N6  UNL     1      43.371  52.389   8.175  1.00  0.00    -0.310 N 
ATOM     11  H6  UNL     1      42.954  53.307   8.332  1.00  0.00     0.170 HD
ENDROOT
BRANCH   8  12
HETATM   12  C11 UNL     1      45.094  50.545   5.469  1.00  0.00     0.133 C 
BRANCH  12  13
HETATM   13  N4  UNL     1      45.838  51.417   4.877  1.00  0.00    -0.277 N 
ATOM     14  H4  UNL     1      46.780  51.593   5.227  1.00  0.00     0.193 HD
BRANCH  13  15
HETATM   15  O2  UNL     1      45.385  52.108   3.788  1.00  0.00    -0.279 OA
BRANCH  15  16
HETATM   16  C12 UNL     1      44.348  51.595   2.959  1.00  0.00     0.229 C 
BRANCH  16  17
HETATM   17  C13 UNL     1      43.512  52.735   2.438  1.00  0.00     0.220 C 
BRANCH  17  18
HETATM   18  O3  UNL     1      42.394  52.897   3.240  1.00  0.00    -0.258 OA
BRANCH  18  19
HETATM   19  S1  UNL     1      41.159  53.482   2.252  1.00  0.00     0.355 S 
HETATM   20  O4  UNL     1      40.216  54.262   3.153  1.00  0.00    -0.176 OA
HETATM   21  O5  UNL     1      41.696  54.414   1.200  1.00  0.00    -0.176 OA
BRANCH  19  22
HETATM   22  N5  UNL     1      40.286  52.234   1.484  1.00  0.00    -0.306 N 
ATOM     23  H52 UNL     1      40.687  51.316   1.293  1.00  0.00     0.171 HD
ATOM     24  H51 UNL     1      39.335  52.512   1.243  1.00  0.00     0.171 HD
ENDBRANCH  19  22
ENDBRANCH  18  19
ENDBRANCH  17  18
ENDBRANCH  16  17
ENDBRANCH  15  16
ENDBRANCH  13  15
ENDBRANCH  12  13
ENDBRANCH   8  12
BRANCH   9  25
HETATM   25  O6  UNL     1      43.902  53.087   6.003  1.00  0.00    -0.345 OA
ATOM     26  H6  UNL     1      43.187  53.703   5.901  1.00  0.00     0.219 HD
ENDBRANCH   9  25
BRANCH   6  27
HETATM   27  C3  UNL     1      45.101  47.689   8.474  1.00  0.00     0.083 C 
HETATM   28  C4  UNL     1      44.307  46.483   8.079  1.00  0.00     0.025 C 
HETATM   29  C5  UNL     1      44.361  45.486   9.198  1.00  0.00     0.009 C 
HETATM   30  C6  UNL     1      45.717  45.170   9.700  1.00  0.00     0.009 C 
HETATM   31  C8  UNL     1      46.738  46.228   9.592  1.00  0.00     0.009 C 
HETATM   32  C9  UNL     1      46.555  47.224   8.512  1.00  0.00     0.025 C 
BRANCH  30  33
HETATM   33  C7  UNL     1      46.192  43.853   9.068  1.00  0.00     0.168 C 
BRANCH  33  34
HETATM   34  O1  UNL     1      45.014  43.090   8.897  1.00  0.00    -0.400 OA
ATOM     35  H1  UNL     1      45.295  42.187   8.985  1.00  0.00     0.209 HD
ENDBRANCH  33  34
ENDBRANCH  30  33
ENDBRANCH   6  27
TORSDOF 12
ENDMDL
MODEL 3
REMARK VINA RESULT: -9.507672043      2.221      2.486
REMARK  12 active torsions:
REMARK  status: ('A' for Active; 'I' for Inactive)
REMARK    1  A    between atoms: N3_6  and  C3_8 
REMARK    2  A    between atoms: C6_11  and  C7_12 
REMARK    3  A    between atoms: C7_12  and  O1_13 
REMARK    4  A    between atoms: C10_17  and  C11_18 
REMARK    5  A    between atoms: C11_18  and  N4_19 
REMARK    6  A    between atoms: N4_19  and  O2_21 
REMARK    7  A    between atoms: O2_21  and  C12_22 
REMARK    8  A    between atoms: C12_22  and  C13_23 
REMARK    9  A    between atoms: C13_23  and  O3_24 
REMARK   10  A    between atoms: O3_24  and  S1_25 
REMARK   11  A    between atoms: S1_25  and  N5_26 
REMARK   12  A    between atoms: C14_31  and  O6_32 
ROOT
HETATM    1  N1  UNL     1      44.068  48.307  12.620  1.00  0.00    -0.063 NA
HETATM    2  C1  UNL     1      44.280  48.729  11.276  1.00  0.00     0.195 A 
HETATM    3  N2  UNL     1      44.885  47.985  10.354  1.00  0.00    -0.316 N 
ATOM      4  H2  UNL     1      45.214  47.060  10.631  1.00  0.00     0.170 HD
HETATM    5  C2  UNL     1      45.093  48.371   9.079  1.00  0.00     0.119 A 
HETATM    6  N3  UNL     1      45.669  47.667   8.193  1.00  0.00    -0.371 N 
ATOM      7  H3  UNL     1      45.761  48.081   7.266  1.00  0.00     0.161 HD
HETATM    8  C10 UNL     1      44.638  49.627   8.734  1.00  0.00     0.076 A 
HETATM    9  C14 UNL     1      44.006  50.429   9.660  1.00  0.00     0.158 A 
HETATM   10  N6  UNL     1      43.836  49.962  10.927  1.00  0.00    -0.310 N 
ATOM     11  H6  UNL     1      43.370  50.546  11.622  1.00  0.00     0.170 HD
ENDROOT
BRANCH   8  12
HETATM   12  C11 UNL     1      44.821  50.134   7.365  1.00  0.00     0.133 C 
BRANCH  12  13
HETATM   13  N4  UNL     1      43.794  50.379   6.623  1.00  0.00    -0.277 N 
ATOM     14  H4  UNL     1      43.444  49.655   5.996  1.00  0.00     0.193 HD
BRANCH  13  15
HETATM   15  O2  UNL     1      43.168  51.593   6.664  1.00  0.00    -0.279 OA
BRANCH  15  16
HETATM   16  C12 UNL     1      42.618  52.188   5.493  1.00  0.00     0.229 C 
BRANCH  16  17
HETATM   17  C13 UNL     1      43.482  53.346   5.066  1.00  0.00     0.220 C 
BRANCH  17  18
HETATM   18  O3  UNL     1      44.669  53.331   5.781  1.00  0.00    -0.258 OA
BRANCH  18  19
HETATM   19  S1  UNL     1      45.902  52.997   4.681  1.00  0.00     0.355 S 
HETATM   20  O4  UNL     1      45.309  52.070   3.633  1.00  0.00    -0.176 OA
HETATM   21  O5  UNL     1      46.379  54.249   3.997  1.00  0.00    -0.176 OA
BRANCH  19  22
HETATM   22  N5  UNL     1      47.240  52.228   5.408  1.00  0.00    -0.306 N 
ATOM     23  H52 UNL     1      47.920  52.727   5.982  1.00  0.00     0.171 HD
ATOM     24  H51 UNL     1      47.277  51.230   5.203  1.00  0.00     0.171 HD
ENDBRANCH  19  22
ENDBRANCH  18  19
ENDBRANCH  17  18
ENDBRANCH  16  17
ENDBRANCH  15  16
ENDBRANCH  13  15
ENDBRANCH  12  13
ENDBRANCH   8  12
BRANCH   9  25
HETATM   25  O6  UNL     1      43.528  51.694   9.381  1.00  0.00    -0.345 OA
ATOM     26  H6  UNL     1      43.855  52.484   9.792  1.00  0.00     0.219 HD
ENDBRANCH   9  25
BRANCH   6  27
HETATM   27  C3  UNL     1      46.202  46.355   8.365  1.00  0.00     0.083 C 
HETATM   28  C4  UNL     1      47.465  46.300   9.166  1.00  0.00     0.025 C 
HETATM   29  C5  UNL     1      47.994  44.898   9.132  1.00  0.00     0.009 C 
HETATM   30  C6  UNL     1      47.017  43.843   9.486  1.00  0.00     0.009 C 
HETATM   31  C8  UNL     1      45.599  44.114   9.189  1.00  0.00     0.009 C 
HETATM   32  C9  UNL     1      45.184  45.535   9.155  1.00  0.00     0.025 C 
BRANCH  30  33
HETATM   33  C7  UNL     1      47.227  43.436  10.951  1.00  0.00     0.168 C 
BRANCH  33  34
HETATM   34  O1  UNL     1      47.581  42.068  10.898  1.00  0.00    -0.400 OA
ATOM     35  H1  UNL     1      47.132  41.673  11.636  1.00  0.00     0.209 HD
ENDBRANCH  33  34
ENDBRANCH  30  33
ENDBRANCH   6  27
TORSDOF 12
ENDMDL
MODEL 4
REMARK VINA RESULT: -9.410999439      2.748      3.203
REMARK  12 active torsions:
REMARK  status: ('A' for Active; 'I' for Inactive)
REMARK    1  A    between atoms: N3_6  and  C3_8 
REMARK    2  A    between atoms: C6_11  and  C7_12 
REMARK    3  A    between atoms: C7_12  and  O1_13 
REMARK    4  A    between atoms: C10_17  and  C11_18 
REMARK    5  A    between atoms: C11_18  and  N4_19 
REMARK    6  A    between atoms: N4_19  and  O2_21 
REMARK    7  A    between atoms: O2_21  and  C12_22 
REMARK    8  A    between atoms: C12_22  and  C13_23 
REMARK    9  A    between atoms: C13_23  and  O3_24 
REMARK   10  A    between atoms: O3_24  and  S1_25 
REMARK   11  A    between atoms: S1_25  and  N5_26 
REMARK   12  A    between atoms: C14_31  and  O6_32 
ROOT
HETATM    1  N1  UNL     1      44.006  48.469  12.447  1.00  0.00    -0.063 NA
HETATM    2  C1  UNL     1      44.264  48.869  11.104  1.00  0.00     0.195 A 
HETATM    3  N2  UNL     1      44.886  48.103  10.212  1.00  0.00    -0.316 N 
ATOM      4  H2  UNL     1      45.194  47.178  10.511  1.00  0.00     0.170 HD
HETATM    5  C2  UNL     1      45.137  48.468   8.938  1.00  0.00     0.119 A 
HETATM    6  N3  UNL     1      45.731  47.743   8.080  1.00  0.00    -0.371 N 
ATOM      7  H3  UNL     1      45.855  48.142   7.150  1.00  0.00     0.161 HD
HETATM    8  C10 UNL     1      44.710  49.724   8.562  1.00  0.00     0.076 A 
HETATM    9  C14 UNL     1      44.061  50.547   9.456  1.00  0.00     0.158 A 
HETATM   10  N6  UNL     1      43.847  50.102  10.725  1.00  0.00    -0.310 N 
ATOM     11  H6  UNL     1      43.369  50.702  11.397  1.00  0.00     0.170 HD
ENDROOT
BRANCH   8  12
HETATM   12  C11 UNL     1      44.940  50.208   7.191  1.00  0.00     0.133 C 
BRANCH  12  13
HETATM   13  N4  UNL     1      45.406  51.394   6.993  1.00  0.00    -0.277 N 
ATOM     14  H4  UNL     1      46.328  51.638   7.355  1.00  0.00     0.193 HD
BRANCH  13  15
HETATM   15  O2  UNL     1      44.684  52.331   6.308  1.00  0.00    -0.279 OA
BRANCH  15  16
HETATM   16  C12 UNL     1      44.604  52.316   4.887  1.00  0.00     0.229 C 
BRANCH  16  17
HETATM   17  C13 UNL     1      45.819  52.993   4.308  1.00  0.00     0.220 C 
BRANCH  17  18
HETATM   18  O3  UNL     1      46.159  54.087   5.088  1.00  0.00    -0.258 OA
BRANCH  18  19
HETATM   19  S1  UNL     1      47.632  54.666   4.509  1.00  0.00     0.355 S 
HETATM   20  O4  UNL     1      47.311  55.556   3.320  1.00  0.00    -0.176 OA
HETATM   21  O5  UNL     1      48.342  55.491   5.547  1.00  0.00    -0.176 OA
BRANCH  19  22
HETATM   22  N5  UNL     1      48.674  53.415   3.999  1.00  0.00    -0.306 N 
ATOM     23  H52 UNL     1      49.451  53.570   3.357  1.00  0.00     0.171 HD
ATOM     24  H51 UNL     1      48.431  52.512   4.406  1.00  0.00     0.171 HD
ENDBRANCH  19  22
ENDBRANCH  18  19
ENDBRANCH  17  18
ENDBRANCH  16  17
ENDBRANCH  15  16
ENDBRANCH  13  15
ENDBRANCH  12  13
ENDBRANCH   8  12
BRANCH   9  25
HETATM   25  O6  UNL     1      43.609  51.814   9.144  1.00  0.00    -0.345 OA
ATOM     26  H6  UNL     1      44.179  52.564   9.027  1.00  0.00     0.219 HD
ENDBRANCH   9  25
BRANCH   6  27
HETATM   27  C3  UNL     1      46.240  46.427   8.287  1.00  0.00     0.083 C 
HETATM   28  C4  UNL     1      47.535  46.376   9.038  1.00  0.00     0.025 C 
HETATM   29  C5  UNL     1      48.030  44.960   9.043  1.00  0.00     0.009 C 
HETATM   30  C6  UNL     1      47.045  43.946   9.482  1.00  0.00     0.009 C 
HETATM   31  C8  UNL     1      45.622  44.238   9.232  1.00  0.00     0.009 C 
HETATM   32  C9  UNL     1      45.238  45.666   9.153  1.00  0.00     0.025 C 
BRANCH  30  33
HETATM   33  C7  UNL     1      47.307  43.596  10.954  1.00  0.00     0.168 C 
BRANCH  33  34
HETATM   34  O1  UNL     1      47.513  42.198  10.961  1.00  0.00    -0.400 OA
ATOM     35  H1  UNL     1      48.393  42.084  11.302  1.00  0.00     0.209 HD
ENDBRANCH  33  34
ENDBRANCH  30  33
ENDBRANCH   6  27
TORSDOF 12
ENDMDL
MODEL 5
REMARK VINA RESULT: -8.836740119      3.579      4.220
REMARK  12 active torsions:
REMARK  status: ('A' for Active; 'I' for Inactive)
REMARK    1  A    between atoms: N3_6  and  C3_8 
REMARK    2  A    between atoms: C6_11  and  C7_12 
REMARK    3  A    between atoms: C7_12  and  O1_13 
REMARK    4  A    between atoms: C10_17  and  C11_18 
REMARK    5  A    between atoms: C11_18  and  N4_19 
REMARK    6  A    between atoms: N4_19  and  O2_21 
REMARK    7  A    between atoms: O2_21  and  C12_22 
REMARK    8  A    between atoms: C12_22  and  C13_23 
REMARK    9  A    between atoms: C13_23  and  O3_24 
REMARK   10  A    between atoms: O3_24  and  S1_25 
REMARK   11  A    between atoms: S1_25  and  N5_26 
REMARK   12  A    between atoms: C14_31  and  O6_32 
ROOT
HETATM    1  N1  UNL     1      42.946  51.667  10.861  1.00  0.00    -0.063 NA
HETATM    2  C1  UNL     1      43.537  51.343   9.605  1.00  0.00     0.195 A 
HETATM    3  N2  UNL     1      44.030  50.145   9.308  1.00  0.00    -0.316 N 
ATOM      4  H2  UNL     1      43.981  49.419  10.023  1.00  0.00     0.170 HD
HETATM    5  C2  UNL     1      44.592  49.824   8.124  1.00  0.00     0.119 A 
HETATM    6  N3  UNL     1      45.065  48.682   7.832  1.00  0.00    -0.371 N 
ATOM      7  H3  UNL     1      45.462  48.575   6.899  1.00  0.00     0.161 HD
HETATM    8  C10 UNL     1      44.646  50.825   7.177  1.00  0.00     0.076 A 
HETATM    9  C14 UNL     1      44.145  52.080   7.446  1.00  0.00     0.158 A 
HETATM   10  N6  UNL     1      43.593  52.321   8.667  1.00  0.00    -0.310 N 
ATOM     11  H6  UNL     1      43.219  53.246   8.879  1.00  0.00     0.170 HD
ENDROOT
BRANCH   8  12
HETATM   12  C11 UNL     1      45.241  50.567   5.856  1.00  0.00     0.133 C 
BRANCH  12  13
HETATM   13  N4  UNL     1      44.695  51.055   4.794  1.00  0.00    -0.277 N 
ATOM     14  H4  UNL     1      43.787  50.704   4.490  1.00  0.00     0.193 HD
BRANCH  13  15
HETATM   15  O2  UNL     1      45.314  52.035   4.069  1.00  0.00    -0.279 OA
BRANCH  15  16
HETATM   16  C12 UNL     1      46.490  52.683   4.544  1.00  0.00     0.229 C 
BRANCH  16  17
HETATM   17  C13 UNL     1      46.521  54.100   4.036  1.00  0.00     0.220 C 
BRANCH  17  18
HETATM   18  O3  UNL     1      47.196  54.905   4.940  1.00  0.00    -0.258 OA
BRANCH  18  19
HETATM   19  S1  UNL     1      48.723  55.202   4.291  1.00  0.00     0.355 S 
HETATM   20  O4  UNL     1      49.440  56.117   5.270  1.00  0.00    -0.176 OA
HETATM   21  O5  UNL     1      49.517  53.932   4.155  1.00  0.00    -0.176 OA
BRANCH  19  22
HETATM   22  N5  UNL     1      48.652  55.967   2.768  1.00  0.00    -0.306 N 
ATOM     23  H52 UNL     1      47.857  56.533   2.471  1.00  0.00     0.171 HD
ATOM     24  H51 UNL     1      49.482  55.793   2.203  1.00  0.00     0.171 HD
ENDBRANCH  19  22
ENDBRANCH  18  19
ENDBRANCH  17  18
ENDBRANCH  16  17
ENDBRANCH  15  16
ENDBRANCH  13  15
ENDBRANCH  12  13
ENDBRANCH   8  12
BRANCH   9  25
HETATM   25  O6  UNL     1      44.167  53.125   6.543  1.00  0.00    -0.345 OA
ATOM     26  H6  UNL     1      44.955  53.597   6.302  1.00  0.00     0.219 HD
ENDBRANCH   9  25
BRANCH   6  27
HETATM   27  C3  UNL     1      45.098  47.535   8.680  1.00  0.00     0.083 C 
HETATM   28  C4  UNL     1      44.426  46.325   8.109  1.00  0.00     0.025 C 
HETATM   29  C5  UNL     1      44.394  45.255   9.159  1.00  0.00     0.009 C 
HETATM   30  C6  UNL     1      45.692  44.965   9.808  1.00  0.00     0.009 C 
HETATM   31  C8  UNL     1      46.659  46.074   9.901  1.00  0.00     0.009 C 
HETATM   32  C9  UNL     1      46.559  47.135   8.873  1.00  0.00     0.025 C 
BRANCH  30  33
HETATM   33  C7  UNL     1      46.312  43.719   9.159  1.00  0.00     0.168 C 
BRANCH  33  34
HETATM   34  O1  UNL     1      45.211  42.889   8.847  1.00  0.00    -0.400 OA
ATOM     35  H1  UNL     1      45.598  42.085   8.523  1.00  0.00     0.209 HD
ENDBRANCH  33  34
ENDBRANCH  30  33
ENDBRANCH   6  27
TORSDOF 12
ENDMDL
