MODEL 1
REMARK VINA RESULT: -8.725597956      0.000      0.000
REMARK  10 active torsions:
REMARK  status: ('A' for Active; 'I' for Inactive)
REMARK    1  A    between atoms: C4_5  and  C5_6 
REMARK    2  A    between atoms: C5_6  and  C6_8 
REMARK    3  A    between atoms: C6_8  and  O3_9 
REMARK    4  A    between atoms: O3_9  and  C7_10 
REMARK    5  A    between atoms: C7_10  and  N1_11 
REMARK    6  A    between atoms: C7_10  and  C8_15 
REMARK    7  A    between atoms: C8_15  and  C9_19 
REMARK    8  A    between atoms: C10_20  and  O4_21 
REMARK    9  A    between atoms: C14_32  and  O7_33 
REMARK   10  A    between atoms: C16_35  and  O8_36 
ROOT
HETATM    1  C1  UNL     1      51.689  58.775   7.023  1.00  0.00     0.210 C 
HETATM    2  O1  UNL     1      51.115  58.224   6.016  1.00  0.00    -0.353 OA
HETATM    3  C2  UNL     1      50.510  57.585   5.051  1.00  0.00     0.105 A 
HETATM    4  C3  UNL     1      49.935  56.315   5.175  1.00  0.00     0.055 A 
HETATM    5  C4  UNL     1      49.316  55.691   4.139  1.00  0.00     0.017 A 
HETATM    6  C13 UNL     1      49.252  56.328   2.925  1.00  0.00     0.055 A 
HETATM    7  C14 UNL     1      49.806  57.575   2.766  1.00  0.00     0.105 A 
HETATM    8  C16 UNL     1      50.433  58.221   3.798  1.00  0.00     0.135 A 
ENDROOT
BRANCH   8   9
HETATM    9  O8  UNL     1      50.997  59.492   3.629  1.00  0.00    -0.351 OA
HETATM   10  C17 UNL     1      50.250  60.668   3.960  1.00  0.00     0.210 C 
ENDBRANCH   8   9
BRANCH   5  11
HETATM   11  C5  UNL     1      48.712  54.353   4.276  1.00  0.00     0.183 C 
HETATM   12  O2  UNL     1      49.446  53.365   4.055  1.00  0.00    -0.290 OA
BRANCH  11  13
HETATM   13  C6  UNL     1      47.316  54.159   4.651  1.00  0.00     0.254 C 
BRANCH  13  14
HETATM   14  O3  UNL     1      46.595  53.217   3.996  1.00  0.00    -0.347 OA
BRANCH  14  15
HETATM   15  C7  UNL     1      45.231  53.144   4.361  1.00  0.00     0.370 C 
BRANCH  15  16
HETATM   16  N1  UNL     1      44.434  53.110   3.157  1.00  0.00    -0.047 N 
ATOM     17  H13 UNL     1      43.646  53.757   3.192  1.00  0.00     0.277 HD
ATOM     18  H12 UNL     1      44.916  53.519   2.357  1.00  0.00     0.277 HD
ATOM     19  H11 UNL     1      44.142  52.147   2.987  1.00  0.00     0.277 HD
ENDBRANCH  15  16
BRANCH  15  20
HETATM   20  C8  UNL     1      44.984  51.818   5.026  1.00  0.00     0.079 C 
HETATM   21  N2  UNL     1      45.178  50.736   4.333  1.00  0.00    -0.398 N 
ATOM     22  H22 UNL     1      45.506  50.803   3.369  1.00  0.00     0.156 HD
ATOM     23  H21 UNL     1      45.010  49.837   4.783  1.00  0.00     0.156 HD
BRANCH  20  24
HETATM   24  C9  UNL     1      44.527  51.724   6.368  1.00  0.00     0.109 A 
HETATM   25  C10 UNL     1      45.241  51.461   7.491  1.00  0.00     0.162 A 
HETATM   26  N3  UNL     1      44.676  51.411   8.748  1.00  0.00    -0.288 N 
HETATM   27  C11 UNL     1      43.359  51.631   8.893  1.00  0.00     0.329 A 
ATOM     28  H3  UNL     1      45.255  51.209   9.563  1.00  0.00     0.172 HD
HETATM   29  O5  UNL     1      42.858  51.584  10.036  1.00  0.00    -0.247 OA
HETATM   30  N4  UNL     1      42.619  51.896   7.794  1.00  0.00    -0.275 N 
HETATM   31  C12 UNL     1      43.147  51.949   6.569  1.00  0.00     0.266 A 
ATOM     32  H4  UNL     1      41.618  52.062   7.905  1.00  0.00     0.173 HD
HETATM   33  O6  UNL     1      42.377  52.203   5.609  1.00  0.00    -0.267 OA
BRANCH  25  34
HETATM   34  O4  UNL     1      46.594  51.224   7.407  1.00  0.00    -0.345 OA
ATOM     35  H4  UNL     1      47.108  51.114   8.198  1.00  0.00     0.219 HD
ENDBRANCH  25  34
ENDBRANCH  20  24
ENDBRANCH  15  20
ENDBRANCH  14  15
ENDBRANCH  13  14
ENDBRANCH  11  13
ENDBRANCH   5  11
BRANCH   7  36
HETATM   36  O7  UNL     1      49.739  58.227   1.517  1.00  0.00    -0.353 OA
HETATM   37  C15 UNL     1      50.642  57.821   0.511  1.00  0.00     0.210 C 
ENDBRANCH   7  36
TORSDOF 10
ENDMDL
MODEL 2
REMARK VINA RESULT: -8.652556872      5.756     10.314
REMARK  10 active torsions:
REMARK  status: ('A' for Active; 'I' for Inactive)
REMARK    1  A    between atoms: C4_5  and  C5_6 
REMARK    2  A    between atoms: C5_6  and  C6_8 
REMARK    3  A    between atoms: C6_8  and  O3_9 
REMARK    4  A    between atoms: O3_9  and  C7_10 
REMARK    5  A    between atoms: C7_10  and  N1_11 
REMARK    6  A    between atoms: C7_10  and  C8_15 
REMARK    7  A    between atoms: C8_15  and  C9_19 
REMARK    8  A    between atoms: C10_20  and  O4_21 
REMARK    9  A    between atoms: C14_32  and  O7_33 
REMARK   10  A    between atoms: C16_35  and  O8_36 
ROOT
HETATM    1  C1  UNL     1      42.445  44.673   7.421  1.00  0.00     0.210 C 
HETATM    2  O1  UNL     1      43.289  45.426   8.029  1.00  0.00    -0.353 OA
HETATM    3  C2  UNL     1      44.080  46.266   8.639  1.00  0.00     0.105 A 
HETATM    4  C3  UNL     1      43.770  47.605   8.902  1.00  0.00     0.055 A 
HETATM    5  C4  UNL     1      44.630  48.440   9.542  1.00  0.00     0.017 A 
HETATM    6  C13 UNL     1      45.849  47.955   9.946  1.00  0.00     0.055 A 
HETATM    7  C14 UNL     1      46.188  46.646   9.704  1.00  0.00     0.105 A 
HETATM    8  C16 UNL     1      45.335  45.788   9.061  1.00  0.00     0.135 A 
ENDROOT
BRANCH   8   9
HETATM    9  O8  UNL     1      45.688  44.454   8.818  1.00  0.00    -0.351 OA
HETATM   10  C17 UNL     1      45.259  43.415   9.706  1.00  0.00     0.210 C 
ENDBRANCH   8   9
BRANCH   5  11
HETATM   11  C5  UNL     1      44.298  49.850   9.815  1.00  0.00     0.183 C 
HETATM   12  O2  UNL     1      43.896  50.136  10.965  1.00  0.00    -0.290 OA
BRANCH  11  13
HETATM   13  C6  UNL     1      44.422  50.894   8.803  1.00  0.00     0.254 C 
BRANCH  13  14
HETATM   14  O3  UNL     1      45.375  50.762   7.851  1.00  0.00    -0.347 OA
BRANCH  14  15
HETATM   15  C7  UNL     1      44.906  50.342   6.585  1.00  0.00     0.370 C 
BRANCH  15  16
HETATM   16  N1  UNL     1      43.469  50.488   6.556  1.00  0.00    -0.047 N 
ATOM     17  H13 UNL     1      43.001  49.887   7.234  1.00  0.00     0.277 HD
ATOM     18  H12 UNL     1      43.160  51.386   6.927  1.00  0.00     0.277 HD
ATOM     19  H11 UNL     1      43.146  50.328   5.601  1.00  0.00     0.277 HD
ENDBRANCH  15  16
BRANCH  15  20
HETATM   20  C8  UNL     1      45.413  51.302   5.545  1.00  0.00     0.079 C 
HETATM   21  N2  UNL     1      46.556  51.887   5.751  1.00  0.00    -0.398 N 
ATOM     22  H22 UNL     1      47.089  51.674   6.593  1.00  0.00     0.156 HD
ATOM     23  H21 UNL     1      46.900  52.538   5.045  1.00  0.00     0.156 HD
BRANCH  20  24
HETATM   24  C9  UNL     1      44.670  51.600   4.370  1.00  0.00     0.109 A 
HETATM   25  C10 UNL     1      44.579  50.885   3.221  1.00  0.00     0.162 A 
HETATM   26  N3  UNL     1      43.804  51.278   2.150  1.00  0.00    -0.288 N 
HETATM   27  C11 UNL     1      43.098  52.418   2.225  1.00  0.00     0.329 A 
ATOM     28  H3  UNL     1      43.768  50.706   1.306  1.00  0.00     0.172 HD
HETATM   29  O5  UNL     1      42.399  52.764   1.249  1.00  0.00    -0.247 OA
HETATM   30  N4  UNL     1      43.167  53.154   3.355  1.00  0.00    -0.275 N 
HETATM   31  C12 UNL     1      43.911  52.790   4.403  1.00  0.00     0.266 A 
ATOM     32  H4  UNL     1      42.631  54.020   3.410  1.00  0.00     0.173 HD
HETATM   33  O6  UNL     1      43.910  53.541   5.411  1.00  0.00    -0.267 OA
BRANCH  25  34
HETATM   34  O4  UNL     1      45.281  49.709   3.083  1.00  0.00    -0.345 OA
ATOM     35  H4  UNL     1      45.170  49.012   3.718  1.00  0.00     0.219 HD
ENDBRANCH  25  34
ENDBRANCH  20  24
ENDBRANCH  15  20
ENDBRANCH  14  15
ENDBRANCH  13  14
ENDBRANCH  11  13
ENDBRANCH   5  11
BRANCH   7  36
HETATM   36  O7  UNL     1      47.441  46.149  10.120  1.00  0.00    -0.353 OA
HETATM   37  C15 UNL     1      47.599  45.817  11.483  1.00  0.00     0.210 C 
ENDBRANCH   7  36
TORSDOF 10
ENDMDL
MODEL 3
REMARK VINA RESULT: -8.645547239      0.443      2.302
REMARK  10 active torsions:
REMARK  status: ('A' for Active; 'I' for Inactive)
REMARK    1  A    between atoms: C4_5  and  C5_6 
REMARK    2  A    between atoms: C5_6  and  C6_8 
REMARK    3  A    between atoms: C6_8  and  O3_9 
REMARK    4  A    between atoms: O3_9  and  C7_10 
REMARK    5  A    between atoms: C7_10  and  N1_11 
REMARK    6  A    between atoms: C7_10  and  C8_15 
REMARK    7  A    between atoms: C8_15  and  C9_19 
REMARK    8  A    between atoms: C10_20  and  O4_21 
REMARK    9  A    between atoms: C14_32  and  O7_33 
REMARK   10  A    between atoms: C16_35  and  O8_36 
ROOT
HETATM    1  C1  UNL     1      49.406  58.801   0.337  1.00  0.00     0.210 C 
HETATM    2  O1  UNL     1      49.562  58.224   1.473  1.00  0.00    -0.353 OA
HETATM    3  C2  UNL     1      49.667  57.560   2.593  1.00  0.00     0.105 A 
HETATM    4  C3  UNL     1      49.111  56.297   2.825  1.00  0.00     0.055 A 
HETATM    5  C4  UNL     1      49.250  55.646   4.009  1.00  0.00     0.017 A 
HETATM    6  C13 UNL     1      49.960  56.249   5.018  1.00  0.00     0.055 A 
HETATM    7  C14 UNL     1      50.520  57.489   4.826  1.00  0.00     0.105 A 
HETATM    8  C16 UNL     1      50.393  58.161   3.639  1.00  0.00     0.135 A 
ENDROOT
BRANCH   8   9
HETATM    9  O8  UNL     1      50.965  59.425   3.451  1.00  0.00    -0.351 OA
HETATM   10  C17 UNL     1      50.300  60.602   3.922  1.00  0.00     0.210 C 
ENDBRANCH   8   9
BRANCH   5  11
HETATM   11  C5  UNL     1      48.661  54.316   4.248  1.00  0.00     0.183 C 
HETATM   12  O2  UNL     1      49.410  53.323   4.121  1.00  0.00    -0.290 OA
BRANCH  11  13
HETATM   13  C6  UNL     1      47.261  54.135   4.619  1.00  0.00     0.254 C 
BRANCH  13  14
HETATM   14  O3  UNL     1      46.535  53.197   3.965  1.00  0.00    -0.347 OA
BRANCH  14  15
HETATM   15  C7  UNL     1      45.174  53.122   4.340  1.00  0.00     0.370 C 
BRANCH  15  16
HETATM   16  N1  UNL     1      44.368  53.069   3.143  1.00  0.00    -0.047 N 
ATOM     17  H13 UNL     1      44.746  53.648   2.392  1.00  0.00     0.277 HD
ATOM     18  H12 UNL     1      44.429  52.168   2.670  1.00  0.00     0.277 HD
ATOM     19  H11 UNL     1      43.409  53.320   3.385  1.00  0.00     0.277 HD
ENDBRANCH  15  16
BRANCH  15  20
HETATM   20  C8  UNL     1      44.939  51.802   5.023  1.00  0.00     0.079 C 
HETATM   21  N2  UNL     1      45.121  50.713   4.337  1.00  0.00    -0.398 N 
ATOM     22  H22 UNL     1      45.433  50.771   3.368  1.00  0.00     0.156 HD
ATOM     23  H21 UNL     1      44.961  49.818   4.800  1.00  0.00     0.156 HD
BRANCH  20  24
HETATM   24  C9  UNL     1      44.505  51.721   6.374  1.00  0.00     0.109 A 
HETATM   25  C10 UNL     1      45.239  51.469   7.486  1.00  0.00     0.162 A 
HETATM   26  N3  UNL     1      44.696  51.432   8.753  1.00  0.00    -0.288 N 
HETATM   27  C11 UNL     1      43.381  51.654   8.919  1.00  0.00     0.329 A 
ATOM     28  H3  UNL     1      45.289  51.238   9.560  1.00  0.00     0.172 HD
HETATM   29  O5  UNL     1      42.900  51.619  10.071  1.00  0.00    -0.247 OA
HETATM   30  N4  UNL     1      42.622  51.908   7.831  1.00  0.00    -0.275 N 
HETATM   31  C12 UNL     1      43.129  51.949   6.596  1.00  0.00     0.266 A 
ATOM     32  H4  UNL     1      41.624  52.076   7.958  1.00  0.00     0.173 HD
HETATM   33  O6  UNL     1      42.342  52.193   5.647  1.00  0.00    -0.267 OA
BRANCH  25  34
HETATM   34  O4  UNL     1      46.590  51.231   7.381  1.00  0.00    -0.345 OA
ATOM     35  H4  UNL     1      47.171  51.467   8.095  1.00  0.00     0.219 HD
ENDBRANCH  25  34
ENDBRANCH  20  24
ENDBRANCH  15  20
ENDBRANCH  14  15
ENDBRANCH  13  14
ENDBRANCH  11  13
ENDBRANCH   5  11
BRANCH   7  36
HETATM   36  O7  UNL     1      51.250  58.106   5.863  1.00  0.00    -0.353 OA
HETATM   37  C15 UNL     1      52.439  57.480   6.296  1.00  0.00     0.210 C 
ENDBRANCH   7  36
TORSDOF 10
ENDMDL
MODEL 4
REMARK VINA RESULT: -8.581330666      5.735     10.132
REMARK  10 active torsions:
REMARK  status: ('A' for Active; 'I' for Inactive)
REMARK    1  A    between atoms: C4_5  and  C5_6 
REMARK    2  A    between atoms: C5_6  and  C6_8 
REMARK    3  A    between atoms: C6_8  and  O3_9 
REMARK    4  A    between atoms: O3_9  and  C7_10 
REMARK    5  A    between atoms: C7_10  and  N1_11 
REMARK    6  A    between atoms: C7_10  and  C8_15 
REMARK    7  A    between atoms: C8_15  and  C9_19 
REMARK    8  A    between atoms: C10_20  and  O4_21 
REMARK    9  A    between atoms: C14_32  and  O7_33 
REMARK   10  A    between atoms: C16_35  and  O8_36 
ROOT
HETATM    1  C1  UNL     1      42.346  44.400   7.512  1.00  0.00     0.210 C 
HETATM    2  O1  UNL     1      43.175  45.259   7.985  1.00  0.00    -0.353 OA
HETATM    3  C2  UNL     1      43.968  46.203   8.415  1.00  0.00     0.105 A 
HETATM    4  C3  UNL     1      43.854  47.555   8.074  1.00  0.00     0.055 A 
HETATM    5  C4  UNL     1      44.705  48.501   8.549  1.00  0.00     0.017 A 
HETATM    6  C13 UNL     1      45.717  48.118   9.394  1.00  0.00     0.055 A 
HETATM    7  C14 UNL     1      45.860  46.798   9.750  1.00  0.00     0.105 A 
HETATM    8  C16 UNL     1      45.011  45.830   9.283  1.00  0.00     0.135 A 
ENDROOT
BRANCH   8   9
HETATM    9  O8  UNL     1      45.164  44.487   9.649  1.00  0.00    -0.351 OA
HETATM   10  C17 UNL     1      46.326  43.752   9.251  1.00  0.00     0.210 C 
ENDBRANCH   8   9
BRANCH   5  11
HETATM   11  C5  UNL     1      44.581  49.924   8.186  1.00  0.00     0.183 C 
HETATM   12  O2  UNL     1      43.861  50.644   8.913  1.00  0.00    -0.290 OA
BRANCH  11  13
HETATM   13  C6  UNL     1      45.258  50.499   7.029  1.00  0.00     0.254 C 
BRANCH  13  14
HETATM   14  O3  UNL     1      44.671  50.386   5.813  1.00  0.00    -0.347 OA
BRANCH  14  15
HETATM   15  C7  UNL     1      45.522  50.631   4.711  1.00  0.00     0.370 C 
BRANCH  15  16
HETATM   16  N1  UNL     1      45.171  49.720   3.647  1.00  0.00    -0.047 N 
ATOM     17  H13 UNL     1      44.765  48.851   3.995  1.00  0.00     0.277 HD
ATOM     18  H12 UNL     1      44.369  50.042   3.105  1.00  0.00     0.277 HD
ATOM     19  H11 UNL     1      45.996  49.562   3.068  1.00  0.00     0.277 HD
ENDBRANCH  15  16
BRANCH  15  20
HETATM   20  C8  UNL     1      45.216  51.998   4.166  1.00  0.00     0.079 C 
HETATM   21  N2  UNL     1      46.196  52.841   4.028  1.00  0.00    -0.398 N 
ATOM     22  H22 UNL     1      47.145  52.558   4.272  1.00  0.00     0.156 HD
ATOM     23  H21 UNL     1      45.988  53.768   3.659  1.00  0.00     0.156 HD
BRANCH  20  24
HETATM   24  C9  UNL     1      43.893  52.393   3.826  1.00  0.00     0.109 A 
HETATM   25  C10 UNL     1      43.172  52.077   2.721  1.00  0.00     0.162 A 
HETATM   26  N3  UNL     1      41.881  52.516   2.515  1.00  0.00    -0.288 N 
HETATM   27  C11 UNL     1      41.289  53.293   3.437  1.00  0.00     0.329 A 
ATOM     28  H3  UNL     1      41.378  52.251   1.668  1.00  0.00     0.172 HD
HETATM   29  O5  UNL     1      40.119  53.685   3.240  1.00  0.00    -0.247 OA
HETATM   30  N4  UNL     1      41.980  53.627   4.548  1.00  0.00    -0.275 N 
HETATM   31  C12 UNL     1      43.231  53.212   4.767  1.00  0.00     0.266 A 
ATOM     32  H4  UNL     1      41.530  54.218   5.247  1.00  0.00     0.173 HD
HETATM   33  O6  UNL     1      43.792  53.575   5.831  1.00  0.00    -0.267 OA
BRANCH  25  34
HETATM   34  O4  UNL     1      43.724  51.286   1.740  1.00  0.00    -0.345 OA
ATOM     35  H4  UNL     1      43.169  50.722   1.215  1.00  0.00     0.219 HD
ENDBRANCH  25  34
ENDBRANCH  20  24
ENDBRANCH  15  20
ENDBRANCH  14  15
ENDBRANCH  13  14
ENDBRANCH  11  13
ENDBRANCH   5  11
BRANCH   7  36
HETATM   36  O7  UNL     1      46.900  46.406  10.619  1.00  0.00    -0.353 OA
HETATM   37  C15 UNL     1      46.943  46.993  11.902  1.00  0.00     0.210 C 
ENDBRANCH   7  36
TORSDOF 10
ENDMDL
MODEL 5
REMARK VINA RESULT: -8.580346617      4.076     10.151
REMARK  10 active torsions:
REMARK  status: ('A' for Active; 'I' for Inactive)
REMARK    1  A    between atoms: C4_5  and  C5_6 
REMARK    2  A    between atoms: C5_6  and  C6_8 
REMARK    3  A    between atoms: C6_8  and  O3_9 
REMARK    4  A    between atoms: O3_9  and  C7_10 
REMARK    5  A    between atoms: C7_10  and  N1_11 
REMARK    6  A    between atoms: C7_10  and  C8_15 
REMARK    7  A    between atoms: C8_15  and  C9_19 
REMARK    8  A    between atoms: C10_20  and  O4_21 
REMARK    9  A    between atoms: C14_32  and  O7_33 
REMARK   10  A    between atoms: C16_35  and  O8_36 
ROOT
HETATM    1  C1  UNL     1      42.382  44.740   7.403  1.00  0.00     0.210 C 
HETATM    2  O1  UNL     1      43.242  45.502   7.976  1.00  0.00    -0.353 OA
HETATM    3  C2  UNL     1      44.051  46.354   8.547  1.00  0.00     0.105 A 
HETATM    4  C3  UNL     1      43.773  47.712   8.737  1.00  0.00     0.055 A 
HETATM    5  C4  UNL     1      44.650  48.558   9.337  1.00  0.00     0.017 A 
HETATM    6  C13 UNL     1      45.854  48.065   9.775  1.00  0.00     0.055 A 
HETATM    7  C14 UNL     1      46.161  46.736   9.605  1.00  0.00     0.105 A 
HETATM    8  C16 UNL     1      45.290  45.867   9.003  1.00  0.00     0.135 A 
ENDROOT
BRANCH   8   9
HETATM    9  O8  UNL     1      45.611  44.514   8.833  1.00  0.00    -0.351 OA
HETATM   10  C17 UNL     1      45.261  43.553   9.834  1.00  0.00     0.210 C 
ENDBRANCH   8   9
BRANCH   5  11
HETATM   11  C5  UNL     1      44.352  49.988   9.534  1.00  0.00     0.183 C 
HETATM   12  O2  UNL     1      43.882  50.333  10.640  1.00  0.00    -0.290 OA
BRANCH  11  13
HETATM   13  C6  UNL     1      44.585  50.986   8.495  1.00  0.00     0.254 C 
BRANCH  13  14
HETATM   14  O3  UNL     1      45.240  50.610   7.371  1.00  0.00    -0.347 OA
BRANCH  14  15
HETATM   15  C7  UNL     1      44.414  50.342   6.256  1.00  0.00     0.370 C 
BRANCH  15  16
HETATM   16  N1  UNL     1      43.299  51.260   6.277  1.00  0.00    -0.047 N 
ATOM     17  H13 UNL     1      43.175  51.746   5.389  1.00  0.00     0.277 HD
ATOM     18  H12 UNL     1      42.399  50.782   6.303  1.00  0.00     0.277 HD
ATOM     19  H11 UNL     1      43.422  51.903   7.061  1.00  0.00     0.277 HD
ENDBRANCH  15  16
BRANCH  15  20
HETATM   20  C8  UNL     1      45.174  50.686   5.004  1.00  0.00     0.079 C 
HETATM   21  N2  UNL     1      45.211  49.811   4.045  1.00  0.00    -0.398 N 
ATOM     22  H22 UNL     1      44.715  48.925   4.148  1.00  0.00     0.156 HD
ATOM     23  H21 UNL     1      45.726  50.044   3.196  1.00  0.00     0.156 HD
BRANCH  20  24
HETATM   24  C9  UNL     1      45.863  51.921   4.860  1.00  0.00     0.109 A 
HETATM   25  C10 UNL     1      47.004  52.331   5.468  1.00  0.00     0.162 A 
HETATM   26  N3  UNL     1      47.586  53.558   5.228  1.00  0.00    -0.288 N 
HETATM   27  C11 UNL     1      47.014  54.404   4.354  1.00  0.00     0.329 A 
ATOM     28  H3  UNL     1      48.445  53.822   5.711  1.00  0.00     0.172 HD
HETATM   29  O5  UNL     1      47.550  55.513   4.145  1.00  0.00    -0.247 OA
HETATM   30  N4  UNL     1      45.877  54.026   3.732  1.00  0.00    -0.275 N 
HETATM   31  C12 UNL     1      45.299  52.842   3.950  1.00  0.00     0.266 A 
ATOM     32  H4  UNL     1      45.443  54.670   3.069  1.00  0.00     0.173 HD
HETATM   33  O6  UNL     1      44.242  52.581   3.322  1.00  0.00    -0.267 OA
BRANCH  25  34
HETATM   34  O4  UNL     1      47.635  51.510   6.374  1.00  0.00    -0.345 OA
ATOM     35  H4  UNL     1      48.399  51.010   6.112  1.00  0.00     0.219 HD
ENDBRANCH  25  34
ENDBRANCH  20  24
ENDBRANCH  15  20
ENDBRANCH  14  15
ENDBRANCH  13  14
ENDBRANCH  11  13
ENDBRANCH   5  11
BRANCH   7  36
HETATM   36  O7  UNL     1      47.399  46.231  10.055  1.00  0.00    -0.353 OA
HETATM   37  C15 UNL     1      47.529  45.934  11.429  1.00  0.00     0.210 C 
ENDBRANCH   7  36
TORSDOF 10
ENDMDL
