MODEL 1
REMARK VINA RESULT: -8.704369953      0.000      0.000
REMARK  12 active torsions:
REMARK  status: ('A' for Active; 'I' for Inactive)
REMARK    1  A    between atoms: N1_2  and  C2_4 
REMARK    2  A    between atoms: C3_7  and  C4_8 
REMARK    3  A    between atoms: C7_13  and  C8_14 
REMARK    4  A    between atoms: C8_14  and  N3_16 
REMARK    5  A    between atoms: N3_16  and  O3_17 
REMARK    6  A    between atoms: N3_16  and  C11_19 
REMARK    7  A    between atoms: C11_19  and  O4_20 
REMARK    8  A    between atoms: C11_19  and  C12_22 
REMARK    9  A    between atoms: C12_22  and  C14_24 
REMARK   10  A    between atoms: C14_24  and  O5_25 
REMARK   11  A    between atoms: C14_24  and  N4_27 
REMARK   12  A    between atoms: N4_27  and  O6_29 
ROOT
HETATM    1  C4  UNL     1      44.332  50.663   7.901  1.00  0.00     0.086 A 
HETATM    2  C5  UNL     1      43.744  51.609   8.719  1.00  0.00     0.116 A 
HETATM    3  C6  UNL     1      43.460  51.264  10.005  1.00  0.00     0.291 A 
HETATM    4  O1  UNL     1      42.928  52.085  10.778  1.00  0.00    -0.260 OA
HETATM    5  O2  UNL     1      43.748  50.065  10.430  1.00  0.00    -0.260 OA
HETATM    6  C7  UNL     1      44.299  49.144   9.704  1.00  0.00     0.153 A 
HETATM    7  N5  UNL     1      44.588  49.456   8.429  1.00  0.00    -0.335 N 
ATOM      8  H5  UNL     1      45.021  48.747   7.839  1.00  0.00     0.168 HD
ENDROOT
BRANCH   6   9
HETATM    9  C8  UNL     1      44.622  47.764  10.270  1.00  0.00     0.182 C 
HETATM   10  C9  UNL     1      46.001  47.924  10.873  1.00  0.00     0.043 C 
BRANCH   9  11
HETATM   11  N3  UNL     1      44.518  46.852   9.237  1.00  0.00    -0.253 N 
BRANCH  11  12
HETATM   12  O3  UNL     1      43.320  46.870   8.589  1.00  0.00    -0.284 OA
HETATM   13  C10 UNL     1      43.057  45.702   7.890  1.00  0.00     0.237 C 
ENDBRANCH  11  12
BRANCH  11  14
HETATM   14  C11 UNL     1      45.557  46.294   8.501  1.00  0.00     0.254 C 
BRANCH  14  15
HETATM   15  O4  UNL     1      46.055  47.187   7.510  1.00  0.00    -0.374 OA
ATOM     16  H4  UNL     1      46.196  46.755   6.676  1.00  0.00     0.212 HD
ENDBRANCH  14  15
BRANCH  14  17
HETATM   17  C12 UNL     1      46.744  45.692   9.161  1.00  0.00     0.108 C 
HETATM   18  C13 UNL     1      48.079  45.899   8.510  1.00  0.00     0.023 C 
BRANCH  17  19
HETATM   19  C14 UNL     1      46.640  44.218   9.484  1.00  0.00     0.145 C 
BRANCH  19  20
HETATM   20  O5  UNL     1      45.470  43.655   8.945  1.00  0.00    -0.348 OA
ATOM     21  H5  UNL     1      45.629  42.783   8.604  1.00  0.00     0.219 HD
ENDBRANCH  19  20
BRANCH  19  22
HETATM   22  N4  UNL     1      47.023  43.788  10.745  1.00  0.00    -0.246 N 
HETATM   23  C15 UNL     1      47.691  44.589  11.677  1.00  0.00     0.187 C 
BRANCH  22  24
HETATM   24  O6  UNL     1      47.355  42.469  10.813  1.00  0.00    -0.286 OA
ATOM     25  H6  UNL     1      48.119  42.284  11.345  1.00  0.00     0.244 HD
ENDBRANCH  22  24
ENDBRANCH  19  22
ENDBRANCH  17  19
ENDBRANCH  14  17
ENDBRANCH  11  14
ENDBRANCH   9  11
ENDBRANCH   6   9
BRANCH   1  26
HETATM   26  C3  UNL     1      44.670  51.015   6.527  1.00  0.00     0.163 A 
HETATM   27  N2  UNL     1      44.949  52.251   6.099  1.00  0.00    -0.172 N 
HETATM   28  C2  UNL     1      45.282  52.274   4.799  1.00  0.00     0.694 A 
ATOM     29  H2  UNL     1      44.913  53.080   6.693  1.00  0.00     0.186 HD
HETATM   30  N7  UNL     1      45.198  50.977   4.420  1.00  0.00    -0.131 N 
HETATM   31  N6  UNL     1      44.828  50.220   5.465  1.00  0.00    -0.269 N 
ATOM     32  H7  UNL     1      45.387  50.627   3.480  1.00  0.00     0.205 HD
ATOM     33  H6  UNL     1      44.691  49.209   5.451  1.00  0.00     0.189 HD
BRANCH  28  34
HETATM   34  N1  UNL     1      45.623  53.291   4.077  1.00  0.00    -0.229 N 
HETATM   35  C1  UNL     1      46.895  53.941   4.392  1.00  0.00     0.165 C 
ATOM     36  H1  UNL     1      45.029  53.626   3.318  1.00  0.00     0.177 HD
ENDBRANCH  28  34
ENDBRANCH   1  26
TORSDOF 12
ENDMDL
MODEL 2
REMARK VINA RESULT: -8.648596518      2.202      3.376
REMARK  12 active torsions:
REMARK  status: ('A' for Active; 'I' for Inactive)
REMARK    1  A    between atoms: N1_2  and  C2_4 
REMARK    2  A    between atoms: C3_7  and  C4_8 
REMARK    3  A    between atoms: C7_13  and  C8_14 
REMARK    4  A    between atoms: C8_14  and  N3_16 
REMARK    5  A    between atoms: N3_16  and  O3_17 
REMARK    6  A    between atoms: N3_16  and  C11_19 
REMARK    7  A    between atoms: C11_19  and  O4_20 
REMARK    8  A    between atoms: C11_19  and  C12_22 
REMARK    9  A    between atoms: C12_22  and  C14_24 
REMARK   10  A    between atoms: C14_24  and  O5_25 
REMARK   11  A    between atoms: C14_24  and  N4_27 
REMARK   12  A    between atoms: N4_27  and  O6_29 
ROOT
HETATM    1  C4  UNL     1      44.929  49.241   9.367  1.00  0.00     0.086 A 
HETATM    2  C5  UNL     1      44.237  49.192  10.562  1.00  0.00     0.116 A 
HETATM    3  C6  UNL     1      44.532  48.193  11.438  1.00  0.00     0.291 A 
HETATM    4  O1  UNL     1      43.932  48.109  12.528  1.00  0.00    -0.260 OA
HETATM    5  O2  UNL     1      45.451  47.319  11.136  1.00  0.00    -0.260 OA
HETATM    6  C7  UNL     1      46.128  47.322  10.030  1.00  0.00     0.153 A 
HETATM    7  N5  UNL     1      45.855  48.296   9.145  1.00  0.00    -0.335 N 
ATOM      8  H5  UNL     1      46.374  48.317   8.267  1.00  0.00     0.168 HD
ENDROOT
BRANCH   6   9
HETATM    9  C8  UNL     1      47.201  46.275   9.745  1.00  0.00     0.182 C 
HETATM   10  C9  UNL     1      47.699  46.624   8.359  1.00  0.00     0.043 C 
BRANCH   9  11
HETATM   11  N3  UNL     1      46.618  45.029   9.880  1.00  0.00    -0.253 N 
BRANCH  11  12
HETATM   12  O3  UNL     1      45.588  44.793   9.021  1.00  0.00    -0.284 OA
HETATM   13  C10 UNL     1      44.911  43.613   9.287  1.00  0.00     0.237 C 
ENDBRANCH  11  12
BRANCH  11  14
HETATM   14  C11 UNL     1      47.204  43.880  10.399  1.00  0.00     0.254 C 
BRANCH  14  15
HETATM   15  O4  UNL     1      48.328  43.456   9.633  1.00  0.00    -0.374 OA
ATOM     16  H4  UNL     1      49.096  43.992   9.797  1.00  0.00     0.212 HD
ENDBRANCH  14  15
BRANCH  14  17
HETATM   17  C12 UNL     1      47.605  43.785  11.826  1.00  0.00     0.108 C 
HETATM   18  C13 UNL     1      48.441  44.895  12.387  1.00  0.00     0.023 C 
BRANCH  17  19
HETATM   19  C14 UNL     1      48.267  42.488  12.238  1.00  0.00     0.145 C 
BRANCH  19  20
HETATM   20  O5  UNL     1      47.870  41.423  11.410  1.00  0.00    -0.348 OA
ATOM     21  H5  UNL     1      47.960  41.645  10.491  1.00  0.00     0.219 HD
ENDBRANCH  19  20
BRANCH  19  22
HETATM   22  N4  UNL     1      48.407  42.217  13.591  1.00  0.00    -0.246 N 
HETATM   23  C15 UNL     1      49.593  41.768  14.181  1.00  0.00     0.187 C 
BRANCH  22  24
HETATM   24  O6  UNL     1      47.279  41.747  14.190  1.00  0.00    -0.286 OA
ATOM     25  H6  UNL     1      47.437  41.116  14.882  1.00  0.00     0.244 HD
ENDBRANCH  22  24
ENDBRANCH  19  22
ENDBRANCH  17  19
ENDBRANCH  14  17
ENDBRANCH  11  14
ENDBRANCH   9  11
ENDBRANCH   6   9
BRANCH   1  26
HETATM   26  C3  UNL     1      44.650  50.315   8.421  1.00  0.00     0.163 A 
HETATM   27  N2  UNL     1      43.651  50.314   7.533  1.00  0.00    -0.172 N 
HETATM   28  C2  UNL     1      43.597  51.456   6.829  1.00  0.00     0.694 A 
ATOM     29  H2  UNL     1      43.005  49.535   7.404  1.00  0.00     0.186 HD
HETATM   30  N7  UNL     1      44.624  52.189   7.321  1.00  0.00    -0.131 N 
HETATM   31  N6  UNL     1      45.257  51.497   8.282  1.00  0.00    -0.269 N 
ATOM     32  H7  UNL     1      44.878  53.126   7.009  1.00  0.00     0.205 HD
ATOM     33  H6  UNL     1      46.066  51.819   8.814  1.00  0.00     0.189 HD
BRANCH  28  34
HETATM   34  N1  UNL     1      42.753  51.791   5.910  1.00  0.00    -0.229 N 
HETATM   35  C1  UNL     1      43.236  52.666   4.841  1.00  0.00     0.165 C 
ATOM     36  H1  UNL     1      41.788  51.459   5.929  1.00  0.00     0.177 HD
ENDBRANCH  28  34
ENDBRANCH   1  26
TORSDOF 12
ENDMDL
MODEL 3
REMARK VINA RESULT: -8.558778827      1.659      2.985
REMARK  12 active torsions:
REMARK  status: ('A' for Active; 'I' for Inactive)
REMARK    1  A    between atoms: N1_2  and  C2_4 
REMARK    2  A    between atoms: C3_7  and  C4_8 
REMARK    3  A    between atoms: C7_13  and  C8_14 
REMARK    4  A    between atoms: C8_14  and  N3_16 
REMARK    5  A    between atoms: N3_16  and  O3_17 
REMARK    6  A    between atoms: N3_16  and  C11_19 
REMARK    7  A    between atoms: C11_19  and  O4_20 
REMARK    8  A    between atoms: C11_19  and  C12_22 
REMARK    9  A    between atoms: C12_22  and  C14_24 
REMARK   10  A    between atoms: C14_24  and  O5_25 
REMARK   11  A    between atoms: C14_24  and  N4_27 
REMARK   12  A    between atoms: N4_27  and  O6_29 
ROOT
HETATM    1  C4  UNL     1      44.363  50.526   8.493  1.00  0.00     0.086 A 
HETATM    2  C5  UNL     1      43.687  51.551   9.124  1.00  0.00     0.116 A 
HETATM    3  C6  UNL     1      43.348  51.392  10.433  1.00  0.00     0.291 A 
HETATM    4  O1  UNL     1      42.736  52.291  11.042  1.00  0.00    -0.260 OA
HETATM    5  O2  UNL     1      43.668  50.290  11.053  1.00  0.00    -0.260 OA
HETATM    6  C7  UNL     1      44.302  49.301  10.506  1.00  0.00     0.153 A 
HETATM    7  N5  UNL     1      44.647  49.430   9.214  1.00  0.00    -0.335 N 
ATOM      8  H5  UNL     1      45.145  48.663   8.762  1.00  0.00     0.168 HD
ENDROOT
BRANCH   6   9
HETATM    9  C8  UNL     1      44.658  48.044  11.295  1.00  0.00     0.182 C 
HETATM   10  C9  UNL     1      44.397  48.424  12.737  1.00  0.00     0.043 C 
BRANCH   9  11
HETATM   11  N3  UNL     1      45.963  47.710  10.986  1.00  0.00    -0.253 N 
BRANCH  11  12
HETATM   12  O3  UNL     1      46.836  47.832  12.025  1.00  0.00    -0.284 OA
HETATM   13  C10 UNL     1      46.948  46.679  12.786  1.00  0.00     0.237 C 
ENDBRANCH  11  12
BRANCH  11  14
HETATM   14  C11 UNL     1      46.396  46.862   9.973  1.00  0.00     0.254 C 
BRANCH  14  15
HETATM   15  O4  UNL     1      47.664  46.282  10.262  1.00  0.00    -0.374 OA
ATOM     16  H4  UNL     1      48.147  46.063   9.474  1.00  0.00     0.212 HD
ENDBRANCH  14  15
BRANCH  14  17
HETATM   17  C12 UNL     1      45.539  45.766   9.454  1.00  0.00     0.108 C 
HETATM   18  C13 UNL     1      46.174  44.423   9.256  1.00  0.00     0.023 C 
BRANCH  17  19
HETATM   19  C14 UNL     1      44.770  46.076   8.188  1.00  0.00     0.145 C 
BRANCH  19  20
HETATM   20  O5  UNL     1      45.322  47.176   7.508  1.00  0.00    -0.348 OA
ATOM     21  H5  UNL     1      45.116  47.150   6.581  1.00  0.00     0.219 HD
ENDBRANCH  19  20
BRANCH  19  22
HETATM   22  N4  UNL     1      43.387  45.979   8.213  1.00  0.00    -0.246 N 
HETATM   23  C15 UNL     1      42.666  44.915   7.662  1.00  0.00     0.187 C 
BRANCH  22  24
HETATM   24  O6  UNL     1      42.739  47.174   8.155  1.00  0.00    -0.286 OA
ATOM     25  H6  UNL     1      42.994  47.792   8.831  1.00  0.00     0.244 HD
ENDBRANCH  22  24
ENDBRANCH  19  22
ENDBRANCH  17  19
ENDBRANCH  14  17
ENDBRANCH  11  14
ENDBRANCH   9  11
ENDBRANCH   6   9
BRANCH   1  26
HETATM   26  C3  UNL     1      44.761  50.681   7.098  1.00  0.00     0.163 A 
HETATM   27  N2  UNL     1      45.599  51.618   6.641  1.00  0.00    -0.172 N 
HETATM   28  C2  UNL     1      45.831  51.490   5.324  1.00  0.00     0.694 A 
ATOM     29  H2  UNL     1      46.014  52.345   7.224  1.00  0.00     0.186 HD
HETATM   30  N7  UNL     1      45.089  50.415   4.966  1.00  0.00    -0.131 N 
HETATM   31  N6  UNL     1      44.445  49.930   6.040  1.00  0.00    -0.269 N 
ATOM     32  H7  UNL     1      45.029  50.032   4.023  1.00  0.00     0.205 HD
ATOM     33  H6  UNL     1      43.819  49.124   6.046  1.00  0.00     0.189 HD
BRANCH  28  34
HETATM   34  N1  UNL     1      46.598  52.210   4.573  1.00  0.00    -0.229 N 
HETATM   35  C1  UNL     1      46.258  53.626   4.428  1.00  0.00     0.165 C 
ATOM     36  H1  UNL     1      47.407  51.807   4.100  1.00  0.00     0.177 HD
ENDBRANCH  28  34
ENDBRANCH   1  26
TORSDOF 12
ENDMDL
MODEL 4
REMARK VINA RESULT: -8.474517479      1.061      1.562
REMARK  12 active torsions:
REMARK  status: ('A' for Active; 'I' for Inactive)
REMARK    1  A    between atoms: N1_2  and  C2_4 
REMARK    2  A    between atoms: C3_7  and  C4_8 
REMARK    3  A    between atoms: C7_13  and  C8_14 
REMARK    4  A    between atoms: C8_14  and  N3_16 
REMARK    5  A    between atoms: N3_16  and  O3_17 
REMARK    6  A    between atoms: N3_16  and  C11_19 
REMARK    7  A    between atoms: C11_19  and  O4_20 
REMARK    8  A    between atoms: C11_19  and  C12_22 
REMARK    9  A    between atoms: C12_22  and  C14_24 
REMARK   10  A    between atoms: C14_24  and  O5_25 
REMARK   11  A    between atoms: C14_24  and  N4_27 
REMARK   12  A    between atoms: N4_27  and  O6_29 
ROOT
HETATM    1  C4  UNL     1      44.129  50.822   8.209  1.00  0.00     0.086 A 
HETATM    2  C5  UNL     1      43.563  51.842   8.948  1.00  0.00     0.116 A 
HETATM    3  C6  UNL     1      43.270  51.606  10.256  1.00  0.00     0.291 A 
HETATM    4  O1  UNL     1      42.757  52.497  10.961  1.00  0.00    -0.260 OA
HETATM    5  O2  UNL     1      43.530  50.438  10.775  1.00  0.00    -0.260 OA
HETATM    6  C7  UNL     1      44.061  49.451  10.126  1.00  0.00     0.153 A 
HETATM    7  N5  UNL     1      44.359  49.655   8.831  1.00  0.00    -0.335 N 
ATOM      8  H5  UNL     1      44.776  48.891   8.299  1.00  0.00     0.168 HD
ENDROOT
BRANCH   6   9
HETATM    9  C8  UNL     1      44.353  48.113  10.800  1.00  0.00     0.182 C 
HETATM   10  C9  UNL     1      44.306  48.425  12.280  1.00  0.00     0.043 C 
BRANCH   9  11
HETATM   11  N3  UNL     1      45.565  47.656  10.319  1.00  0.00    -0.253 N 
BRANCH  11  12
HETATM   12  O3  UNL     1      46.633  47.952  11.111  1.00  0.00    -0.284 OA
HETATM   13  C10 UNL     1      46.823  47.041  12.139  1.00  0.00     0.237 C 
ENDBRANCH  11  12
BRANCH  11  14
HETATM   14  C11 UNL     1      45.777  46.591   9.450  1.00  0.00     0.254 C 
BRANCH  14  15
HETATM   15  O4  UNL     1      45.442  46.920   8.105  1.00  0.00    -0.374 OA
ATOM     16  H4  UNL     1      45.726  46.253   7.491  1.00  0.00     0.212 HD
ENDBRANCH  14  15
BRANCH  14  17
HETATM   17  C12 UNL     1      47.076  45.874   9.398  1.00  0.00     0.108 C 
HETATM   18  C13 UNL     1      48.002  46.195   8.263  1.00  0.00     0.023 C 
BRANCH  17  19
HETATM   19  C14 UNL     1      46.999  44.365   9.484  1.00  0.00     0.145 C 
BRANCH  19  20
HETATM   20  O5  UNL     1      45.731  43.893   9.099  1.00  0.00    -0.348 OA
ATOM     21  H5  UNL     1      45.733  42.951   8.977  1.00  0.00     0.219 HD
ENDBRANCH  19  20
BRANCH  19  22
HETATM   22  N4  UNL     1      47.609  43.731  10.555  1.00  0.00    -0.246 N 
HETATM   23  C15 UNL     1      48.856  44.093  11.073  1.00  0.00     0.187 C 
BRANCH  22  24
HETATM   24  O6  UNL     1      47.336  42.401  10.650  1.00  0.00    -0.286 OA
ATOM     25  H6  UNL     1      47.888  41.930  11.264  1.00  0.00     0.244 HD
ENDBRANCH  22  24
ENDBRANCH  19  22
ENDBRANCH  17  19
ENDBRANCH  14  17
ENDBRANCH  11  14
ENDBRANCH   9  11
ENDBRANCH   6   9
BRANCH   1  26
HETATM   26  C3  UNL     1      44.477  51.056   6.812  1.00  0.00     0.163 A 
HETATM   27  N2  UNL     1      44.731  52.255   6.276  1.00  0.00    -0.172 N 
HETATM   28  C2  UNL     1      45.080  52.169   4.982  1.00  0.00     0.694 A 
ATOM     29  H2  UNL     1      44.667  53.133   6.792  1.00  0.00     0.186 HD
HETATM   30  N7  UNL     1      45.033  50.840   4.722  1.00  0.00    -0.131 N 
HETATM   31  N6  UNL     1      44.668  50.172   5.828  1.00  0.00    -0.269 N 
ATOM     32  H7  UNL     1      45.243  50.412   3.820  1.00  0.00     0.205 HD
ATOM     33  H6  UNL     1      44.556  49.161   5.904  1.00  0.00     0.189 HD
BRANCH  28  34
HETATM   34  N1  UNL     1      45.405  53.124   4.175  1.00  0.00    -0.229 N 
HETATM   35  C1  UNL     1      46.700  53.770   4.387  1.00  0.00     0.165 C 
ATOM     36  H1  UNL     1      44.783  53.415   3.421  1.00  0.00     0.177 HD
ENDBRANCH  28  34
ENDBRANCH   1  26
TORSDOF 12
ENDMDL
MODEL 5
REMARK VINA RESULT: -8.426985256      2.318      3.811
REMARK  12 active torsions:
REMARK  status: ('A' for Active; 'I' for Inactive)
REMARK    1  A    between atoms: N1_2  and  C2_4 
REMARK    2  A    between atoms: C3_7  and  C4_8 
REMARK    3  A    between atoms: C7_13  and  C8_14 
REMARK    4  A    between atoms: C8_14  and  N3_16 
REMARK    5  A    between atoms: N3_16  and  O3_17 
REMARK    6  A    between atoms: N3_16  and  C11_19 
REMARK    7  A    between atoms: C11_19  and  O4_20 
REMARK    8  A    between atoms: C11_19  and  C12_22 
REMARK    9  A    between atoms: C12_22  and  C14_24 
REMARK   10  A    between atoms: C14_24  and  O5_25 
REMARK   11  A    between atoms: C14_24  and  N4_27 
REMARK   12  A    between atoms: N4_27  and  O6_29 
ROOT
HETATM    1  C4  UNL     1      44.981  49.224   9.364  1.00  0.00     0.086 A 
HETATM    2  C5  UNL     1      44.268  49.146  10.543  1.00  0.00     0.116 A 
HETATM    3  C6  UNL     1      44.574  48.149  11.418  1.00  0.00     0.291 A 
HETATM    4  O1  UNL     1      43.955  48.039  12.495  1.00  0.00    -0.260 OA
HETATM    5  O2  UNL     1      45.525  47.305  11.129  1.00  0.00    -0.260 OA
HETATM    6  C7  UNL     1      46.223  47.337  10.038  1.00  0.00     0.153 A 
HETATM    7  N5  UNL     1      45.940  48.308   9.153  1.00  0.00    -0.335 N 
ATOM      8  H5  UNL     1      46.476  48.352   8.287  1.00  0.00     0.168 HD
ENDROOT
BRANCH   6   9
HETATM    9  C8  UNL     1      47.332  46.324   9.767  1.00  0.00     0.182 C 
HETATM   10  C9  UNL     1      47.482  46.332   8.261  1.00  0.00     0.043 C 
BRANCH   9  11
HETATM   11  N3  UNL     1      46.949  45.121  10.328  1.00  0.00    -0.253 N 
BRANCH  11  12
HETATM   12  O3  UNL     1      46.567  44.175   9.425  1.00  0.00    -0.284 OA
HETATM   13  C10 UNL     1      45.192  44.050   9.309  1.00  0.00     0.237 C 
ENDBRANCH  11  12
BRANCH  11  14
HETATM   14  C11 UNL     1      47.331  44.610  11.563  1.00  0.00     0.254 C 
BRANCH  14  15
HETATM   15  O4  UNL     1      47.361  43.186  11.571  1.00  0.00    -0.374 OA
ATOM     16  H4  UNL     1      48.231  42.846  11.740  1.00  0.00     0.212 HD
ENDBRANCH  14  15
BRANCH  14  17
HETATM   17  C12 UNL     1      48.572  45.061  12.243  1.00  0.00     0.108 C 
HETATM   18  C13 UNL     1      49.755  44.140  12.211  1.00  0.00     0.023 C 
BRANCH  17  19
HETATM   19  C14 UNL     1      48.409  45.513  13.678  1.00  0.00     0.145 C 
BRANCH  19  20
HETATM   20  O5  UNL     1      48.016  44.449  14.510  1.00  0.00    -0.348 OA
ATOM     21  H5  UNL     1      47.222  44.656  14.987  1.00  0.00     0.219 HD
ENDBRANCH  19  20
BRANCH  19  22
HETATM   22  N4  UNL     1      47.832  46.750  13.921  1.00  0.00    -0.246 N 
HETATM   23  C15 UNL     1      46.619  46.930  14.593  1.00  0.00     0.187 C 
BRANCH  22  24
HETATM   24  O6  UNL     1      48.076  47.682  12.959  1.00  0.00    -0.286 OA
ATOM     25  H6  UNL     1      48.349  48.528  13.294  1.00  0.00     0.244 HD
ENDBRANCH  22  24
ENDBRANCH  19  22
ENDBRANCH  17  19
ENDBRANCH  14  17
ENDBRANCH  11  14
ENDBRANCH   9  11
ENDBRANCH   6   9
BRANCH   1  26
HETATM   26  C3  UNL     1      44.690  50.297   8.420  1.00  0.00     0.163 A 
HETATM   27  N2  UNL     1      43.694  50.284   7.528  1.00  0.00    -0.172 N 
HETATM   28  C2  UNL     1      43.625  51.427   6.827  1.00  0.00     0.694 A 
ATOM     29  H2  UNL     1      43.059  49.496   7.396  1.00  0.00     0.186 HD
HETATM   30  N7  UNL     1      44.641  52.173   7.324  1.00  0.00    -0.131 N 
HETATM   31  N6  UNL     1      45.281  51.488   8.284  1.00  0.00    -0.269 N 
ATOM     32  H7  UNL     1      44.882  53.114   7.014  1.00  0.00     0.205 HD
ATOM     33  H6  UNL     1      46.084  51.820   8.820  1.00  0.00     0.189 HD
BRANCH  28  34
HETATM   34  N1  UNL     1      42.779  51.753   5.906  1.00  0.00    -0.229 N 
HETATM   35  C1  UNL     1      43.262  52.607   4.822  1.00  0.00     0.165 C 
ATOM     36  H1  UNL     1      41.812  51.427   5.935  1.00  0.00     0.177 HD
ENDBRANCH  28  34
ENDBRANCH   1  26
TORSDOF 12
ENDMDL
