MODEL 1
REMARK VINA RESULT: -8.751941580      0.000      0.000
REMARK  11 active torsions:
REMARK  status: ('A' for Active; 'I' for Inactive)
REMARK    1  A    between atoms: C3_4  and  O1_5 
REMARK    2  A    between atoms: O1_5  and  C4_6 
REMARK    3  A    between atoms: C4_6  and  C5_7 
REMARK    4  A    between atoms: C5_7  and  N2_8 
REMARK    5  A    between atoms: C5_7  and  C6_12 
REMARK    6  A    between atoms: C6_12  and  O2_13 
REMARK    7  A    between atoms: O2_13  and  C7_14 
REMARK    8  A    between atoms: C10_17  and  S1_18 
REMARK    9  A    between atoms: S1_18  and  N3_21 
REMARK   10  A    between atoms: N3_21  and  C11_23 
REMARK   11  A    between atoms: C13_30  and  N6_31 
ROOT
HETATM    1  N1  UNL     1      43.047  46.189   7.900  1.00  0.00    -0.191 NA
HETATM    2  C1  UNL     1      44.028  45.960   8.493  1.00  0.00     0.107 C 
HETATM    3  C2  UNL     1      45.244  45.679   9.196  1.00  0.00     0.137 A 
HETATM    4  C3  UNL     1      45.972  46.760   9.699  1.00  0.00     0.181 A 
HETATM    5  N5  UNL     1      47.092  46.474  10.345  1.00  0.00    -0.169 N 
ATOM      6  H5  UNL     1      47.650  47.237  10.728  1.00  0.00     0.186 HD
HETATM    7  C13 UNL     1      47.511  45.223  10.511  1.00  0.00     0.679 A 
HETATM    8  N7  UNL     1      46.803  44.178  10.022  1.00  0.00    -0.177 N 
ATOM      9  H7  UNL     1      47.144  43.227  10.163  1.00  0.00     0.185 HD
HETATM   10  C14 UNL     1      45.648  44.384   9.351  1.00  0.00     0.157 A 
HETATM   11  N8  UNL     1      44.934  43.257   8.857  1.00  0.00    -0.080 NA
ENDROOT
BRANCH   4  12
HETATM   12  O1  UNL     1      45.512  47.977   9.511  1.00  0.00    -0.332 OA
BRANCH  12  13
HETATM   13  C4  UNL     1      44.917  49.076   9.922  1.00  0.00     0.212 C 
BRANCH  13  14
HETATM   14  C5  UNL     1      44.181  49.878   8.878  1.00  0.00     0.231 C 
BRANCH  14  15
HETATM   15  N2  UNL     1      44.189  51.264   9.263  1.00  0.00    -0.071 N 
ATOM     16  H23 UNL     1      44.958  51.781   8.838  1.00  0.00     0.274 HD
ATOM     17  H22 UNL     1      43.419  51.787   8.847  1.00  0.00     0.274 HD
ATOM     18  H21 UNL     1      44.196  51.325  10.281  1.00  0.00     0.274 HD
ENDBRANCH  14  15
BRANCH  14  19
HETATM   19  C6  UNL     1      44.916  49.712   7.547  1.00  0.00     0.212 C 
BRANCH  19  20
HETATM   20  O2  UNL     1      45.113  51.005   7.041  1.00  0.00    -0.334 OA
BRANCH  20  21
HETATM   21  C7  UNL     1      44.552  51.470   5.894  1.00  0.00     0.141 A 
HETATM   22  C8  UNL     1      43.341  52.153   6.021  1.00  0.00     0.057 A 
HETATM   23  C9  UNL     1      42.722  52.651   4.912  1.00  0.00     0.031 A 
HETATM   24  C10 UNL     1      43.292  52.479   3.681  1.00  0.00     0.095 A 
HETATM   25  C12 UNL     1      44.503  51.791   3.603  1.00  0.00     0.115 A 
HETATM   26  N4  UNL     1      45.113  51.302   4.683  1.00  0.00    -0.345 N 
ATOM     27  H4  UNL     1      45.998  50.804   4.591  1.00  0.00     0.167 HD
BRANCH  24  28
HETATM   28  S1  UNL     1      42.556  53.041   2.182  1.00  0.00     0.266 S 
HETATM   29  O3  UNL     1      43.636  53.654   1.333  1.00  0.00    -0.200 OA
HETATM   30  O4  UNL     1      41.945  51.857   1.504  1.00  0.00    -0.200 OA
BRANCH  28  31
HETATM   31  N3  UNL     1      41.369  54.236   2.614  1.00  0.00    -0.258 N 
ATOM     32  H3  UNL     1      41.565  55.228   2.484  1.00  0.00     0.181 HD
BRANCH  31  33
HETATM   33  C11 UNL     1      40.131  53.819   3.144  1.00  0.00     0.363 C 
HETATM   34  O5  UNL     1      39.462  54.581   3.878  1.00  0.00    -0.283 OA
ENDBRANCH  31  33
ENDBRANCH  28  31
ENDBRANCH  24  28
ENDBRANCH  20  21
ENDBRANCH  19  20
ENDBRANCH  14  19
ENDBRANCH  13  14
ENDBRANCH  12  13
ENDBRANCH   4  12
BRANCH   7  35
HETATM   35  N6  UNL     1      48.627  44.977  11.159  1.00  0.00    -0.234 N 
ATOM     36  H62 UNL     1      49.314  44.360  10.728  1.00  0.00     0.174 HD
ATOM     37  H61 UNL     1      48.795  45.397  12.073  1.00  0.00     0.174 HD
ENDBRANCH   7  35
TORSDOF 11
ENDMDL
MODEL 2
REMARK VINA RESULT: -8.556607789      4.985      7.098
REMARK  11 active torsions:
REMARK  status: ('A' for Active; 'I' for Inactive)
REMARK    1  A    between atoms: C3_4  and  O1_5 
REMARK    2  A    between atoms: O1_5  and  C4_6 
REMARK    3  A    between atoms: C4_6  and  C5_7 
REMARK    4  A    between atoms: C5_7  and  N2_8 
REMARK    5  A    between atoms: C5_7  and  C6_12 
REMARK    6  A    between atoms: C6_12  and  O2_13 
REMARK    7  A    between atoms: O2_13  and  C7_14 
REMARK    8  A    between atoms: C10_17  and  S1_18 
REMARK    9  A    between atoms: S1_18  and  N3_21 
REMARK   10  A    between atoms: N3_21  and  C11_23 
REMARK   11  A    between atoms: C13_30  and  N6_31 
ROOT
HETATM    1  N1  UNL     1      45.353  48.351   7.757  1.00  0.00    -0.191 NA
HETATM    2  C1  UNL     1      44.841  49.221   8.346  1.00  0.00     0.107 C 
HETATM    3  C2  UNL     1      44.238  50.295   9.077  1.00  0.00     0.137 A 
HETATM    4  C3  UNL     1      44.020  51.501   8.406  1.00  0.00     0.181 A 
HETATM    5  N5  UNL     1      43.461  52.478   9.103  1.00  0.00    -0.169 N 
ATOM      6  H5  UNL     1      43.286  53.373   8.647  1.00  0.00     0.186 HD
HETATM    7  C13 UNL     1      43.121  52.328  10.380  1.00  0.00     0.679 A 
HETATM    8  N7  UNL     1      43.333  51.159  11.028  1.00  0.00    -0.177 N 
ATOM      9  H7  UNL     1      43.063  51.067  12.008  1.00  0.00     0.185 HD
HETATM   10  C14 UNL     1      43.899  50.111  10.388  1.00  0.00     0.157 A 
HETATM   11  N8  UNL     1      44.101  48.899  11.104  1.00  0.00    -0.080 NA
ENDROOT
BRANCH   4  12
HETATM   12  O1  UNL     1      44.372  51.596   7.143  1.00  0.00    -0.332 OA
BRANCH  12  13
HETATM   13  C4  UNL     1      44.394  52.214   5.982  1.00  0.00     0.212 C 
BRANCH  13  14
HETATM   14  C5  UNL     1      45.605  51.978   5.113  1.00  0.00     0.231 C 
BRANCH  14  15
HETATM   15  N2  UNL     1      45.362  50.836   4.273  1.00  0.00    -0.071 N 
ATOM     16  H23 UNL     1      46.196  50.543   3.766  1.00  0.00     0.274 HD
ATOM     17  H22 UNL     1      45.214  49.982   4.811  1.00  0.00     0.274 HD
ATOM     18  H21 UNL     1      44.581  51.043   3.651  1.00  0.00     0.274 HD
ENDBRANCH  14  15
BRANCH  14  19
HETATM   19  C6  UNL     1      45.815  53.219   4.244  1.00  0.00     0.212 C 
BRANCH  19  20
HETATM   20  O2  UNL     1      46.965  53.854   4.735  1.00  0.00    -0.334 OA
BRANCH  20  21
HETATM   21  C7  UNL     1      47.640  54.830   4.074  1.00  0.00     0.141 A 
HETATM   22  C8  UNL     1      48.989  54.987   4.398  1.00  0.00     0.057 A 
HETATM   23  C9  UNL     1      49.732  55.944   3.771  1.00  0.00     0.031 A 
HETATM   24  C10 UNL     1      49.150  56.745   2.827  1.00  0.00     0.095 A 
HETATM   25  C12 UNL     1      47.800  56.551   2.536  1.00  0.00     0.115 A 
HETATM   26  N4  UNL     1      47.068  55.618   3.145  1.00  0.00    -0.345 N 
ATOM     27  H4  UNL     1      46.084  55.502   2.909  1.00  0.00     0.167 HD
BRANCH  24  28
HETATM   28  S1  UNL     1      50.004  58.040   1.992  1.00  0.00     0.266 S 
HETATM   29  O3  UNL     1      49.036  59.169   1.768  1.00  0.00    -0.200 OA
HETATM   30  O4  UNL     1      51.140  58.472   2.863  1.00  0.00    -0.200 OA
BRANCH  28  31
HETATM   31  N3  UNL     1      50.551  57.395   0.473  1.00  0.00    -0.258 N 
ATOM     32  H3  UNL     1      51.538  57.186   0.327  1.00  0.00     0.181 HD
BRANCH  31  33
HETATM   33  C11 UNL     1      49.615  57.163  -0.556  1.00  0.00     0.363 C 
HETATM   34  O5  UNL     1      49.158  56.015  -0.755  1.00  0.00    -0.283 OA
ENDBRANCH  31  33
ENDBRANCH  28  31
ENDBRANCH  24  28
ENDBRANCH  20  21
ENDBRANCH  19  20
ENDBRANCH  14  19
ENDBRANCH  13  14
ENDBRANCH  12  13
ENDBRANCH   4  12
BRANCH   7  35
HETATM   35  N6  UNL     1      42.568  53.319  11.040  1.00  0.00    -0.234 N 
ATOM     36  H62 UNL     1      41.664  53.671  10.724  1.00  0.00     0.174 HD
ATOM     37  H61 UNL     1      43.037  53.726  11.849  1.00  0.00     0.174 HD
ENDBRANCH   7  35
TORSDOF 11
ENDMDL
MODEL 3
REMARK VINA RESULT: -8.516497493      0.893      2.384
REMARK  11 active torsions:
REMARK  status: ('A' for Active; 'I' for Inactive)
REMARK    1  A    between atoms: C3_4  and  O1_5 
REMARK    2  A    between atoms: O1_5  and  C4_6 
REMARK    3  A    between atoms: C4_6  and  C5_7 
REMARK    4  A    between atoms: C5_7  and  N2_8 
REMARK    5  A    between atoms: C5_7  and  C6_12 
REMARK    6  A    between atoms: C6_12  and  O2_13 
REMARK    7  A    between atoms: O2_13  and  C7_14 
REMARK    8  A    between atoms: C10_17  and  S1_18 
REMARK    9  A    between atoms: S1_18  and  N3_21 
REMARK   10  A    between atoms: N3_21  and  C11_23 
REMARK   11  A    between atoms: C13_30  and  N6_31 
ROOT
HETATM    1  N1  UNL     1      47.380  46.941  10.336  1.00  0.00    -0.191 NA
HETATM    2  C1  UNL     1      46.459  46.436   9.825  1.00  0.00     0.107 C 
HETATM    3  C2  UNL     1      45.317  45.817   9.222  1.00  0.00     0.137 A 
HETATM    4  C3  UNL     1      44.361  46.646   8.627  1.00  0.00     0.181 A 
HETATM    5  N5  UNL     1      43.315  46.049   8.077  1.00  0.00    -0.169 N 
ATOM      6  H5  UNL     1      42.597  46.621   7.633  1.00  0.00     0.186 HD
HETATM    7  C13 UNL     1      43.172  44.727   8.086  1.00  0.00     0.679 A 
HETATM    8  N7  UNL     1      44.099  43.927   8.662  1.00  0.00    -0.177 N 
ATOM      9  H7  UNL     1      43.968  42.915   8.656  1.00  0.00     0.185 HD
HETATM   10  C14 UNL     1      45.197  44.456   9.246  1.00  0.00     0.157 A 
HETATM   11  N8  UNL     1      46.148  43.579   9.837  1.00  0.00    -0.080 NA
ENDROOT
BRANCH   4  12
HETATM   12  O1  UNL     1      44.553  47.946   8.644  1.00  0.00    -0.332 OA
BRANCH  12  13
HETATM   13  C4  UNL     1      44.444  49.134   9.199  1.00  0.00     0.212 C 
BRANCH  13  14
HETATM   14  C5  UNL     1      44.258  50.303   8.263  1.00  0.00     0.231 C 
BRANCH  14  15
HETATM   15  N2  UNL     1      44.427  51.524   9.003  1.00  0.00    -0.071 N 
ATOM     16  H23 UNL     1      44.502  52.339   8.395  1.00  0.00     0.274 HD
ATOM     17  H22 UNL     1      43.580  51.797   9.502  1.00  0.00     0.274 HD
ATOM     18  H21 UNL     1      45.230  51.427   9.624  1.00  0.00     0.274 HD
ENDBRANCH  14  15
BRANCH  14  19
HETATM   19  C6  UNL     1      45.326  50.212   7.172  1.00  0.00     0.212 C 
BRANCH  19  20
HETATM   20  O2  UNL     1      45.356  51.467   6.545  1.00  0.00    -0.334 OA
BRANCH  20  21
HETATM   21  C7  UNL     1      44.637  51.784   5.436  1.00  0.00     0.141 A 
HETATM   22  C8  UNL     1      43.408  52.413   5.646  1.00  0.00     0.057 A 
HETATM   23  C9  UNL     1      42.634  52.765   4.579  1.00  0.00     0.031 A 
HETATM   24  C10 UNL     1      43.068  52.499   3.308  1.00  0.00     0.095 A 
HETATM   25  C12 UNL     1      44.302  51.870   3.149  1.00  0.00     0.115 A 
HETATM   26  N4  UNL     1      45.063  51.524   4.187  1.00  0.00    -0.345 N 
ATOM     27  H4  UNL     1      45.961  51.066   4.035  1.00  0.00     0.167 HD
BRANCH  24  28
HETATM   28  S1  UNL     1      42.128  52.869   1.865  1.00  0.00     0.266 S 
HETATM   29  O3  UNL     1      42.742  54.073   1.205  1.00  0.00    -0.200 OA
HETATM   30  O4  UNL     1      42.185  51.675   0.966  1.00  0.00    -0.200 OA
BRANCH  28  31
HETATM   31  N3  UNL     1      40.507  53.221   2.387  1.00  0.00    -0.258 N 
ATOM     32  H3  UNL     1      39.727  52.645   2.069  1.00  0.00     0.181 HD
BRANCH  31  33
HETATM   33  C11 UNL     1      40.281  54.310   3.253  1.00  0.00     0.363 C 
HETATM   34  O5  UNL     1      39.262  54.348   3.978  1.00  0.00    -0.283 OA
ENDBRANCH  31  33
ENDBRANCH  28  31
ENDBRANCH  24  28
ENDBRANCH  20  21
ENDBRANCH  19  20
ENDBRANCH  14  19
ENDBRANCH  13  14
ENDBRANCH  12  13
ENDBRANCH   4  12
BRANCH   7  35
HETATM   35  N6  UNL     1      42.121  44.170   7.529  1.00  0.00    -0.234 N 
ATOM     36  H62 UNL     1      41.639  44.674   6.785  1.00  0.00     0.174 HD
ATOM     37  H61 UNL     1      41.798  43.254   7.840  1.00  0.00     0.174 HD
ENDBRANCH   7  35
TORSDOF 11
ENDMDL
MODEL 4
REMARK VINA RESULT: -8.512227806      1.332      2.111
REMARK  11 active torsions:
REMARK  status: ('A' for Active; 'I' for Inactive)
REMARK    1  A    between atoms: C3_4  and  O1_5 
REMARK    2  A    between atoms: O1_5  and  C4_6 
REMARK    3  A    between atoms: C4_6  and  C5_7 
REMARK    4  A    between atoms: C5_7  and  N2_8 
REMARK    5  A    between atoms: C5_7  and  C6_12 
REMARK    6  A    between atoms: C6_12  and  O2_13 
REMARK    7  A    between atoms: O2_13  and  C7_14 
REMARK    8  A    between atoms: C10_17  and  S1_18 
REMARK    9  A    between atoms: S1_18  and  N3_21 
REMARK   10  A    between atoms: N3_21  and  C11_23 
REMARK   11  A    between atoms: C13_30  and  N6_31 
ROOT
HETATM    1  N1  UNL     1      42.880  46.297   7.772  1.00  0.00    -0.191 NA
HETATM    2  C1  UNL     1      43.860  46.095   8.377  1.00  0.00     0.107 C 
HETATM    3  C2  UNL     1      45.074  45.845   9.094  1.00  0.00     0.137 A 
HETATM    4  C3  UNL     1      45.808  46.948   9.541  1.00  0.00     0.181 A 
HETATM    5  N5  UNL     1      46.926  46.691  10.202  1.00  0.00    -0.169 N 
ATOM      6  H5  UNL     1      47.488  47.470  10.543  1.00  0.00     0.186 HD
HETATM    7  C13 UNL     1      47.339  45.448  10.434  1.00  0.00     0.679 A 
HETATM    8  N7  UNL     1      46.625  44.382  10.000  1.00  0.00    -0.177 N 
ATOM      9  H7  UNL     1      46.962  43.437  10.191  1.00  0.00     0.185 HD
HETATM   10  C14 UNL     1      45.472  44.558   9.318  1.00  0.00     0.157 A 
HETATM   11  N8  UNL     1      44.752  43.410   8.883  1.00  0.00    -0.080 NA
ENDROOT
BRANCH   4  12
HETATM   12  O1  UNL     1      45.354  48.155   9.288  1.00  0.00    -0.332 OA
BRANCH  12  13
HETATM   13  C4  UNL     1      44.873  49.322   9.660  1.00  0.00     0.212 C 
BRANCH  13  14
HETATM   14  C5  UNL     1      44.103  50.099   8.621  1.00  0.00     0.231 C 
BRANCH  14  15
HETATM   15  N2  UNL     1      43.297  51.089   9.281  1.00  0.00    -0.071 N 
ATOM     16  H23 UNL     1      42.985  51.823   8.646  1.00  0.00     0.274 HD
ATOM     17  H22 UNL     1      42.378  50.730   9.544  1.00  0.00     0.274 HD
ATOM     18  H21 UNL     1      43.812  51.459  10.079  1.00  0.00     0.274 HD
ENDBRANCH  14  15
BRANCH  14  19
HETATM   19  C6  UNL     1      45.112  50.789   7.701  1.00  0.00     0.212 C 
BRANCH  19  20
HETATM   20  O2  UNL     1      44.521  51.999   7.307  1.00  0.00    -0.334 OA
BRANCH  20  21
HETATM   21  C7  UNL     1      44.007  52.232   6.071  1.00  0.00     0.141 A 
HETATM   22  C8  UNL     1      44.917  52.273   5.013  1.00  0.00     0.057 A 
HETATM   23  C9  UNL     1      44.472  52.499   3.743  1.00  0.00     0.031 A 
HETATM   24  C10 UNL     1      43.135  52.683   3.514  1.00  0.00     0.095 A 
HETATM   25  C12 UNL     1      42.265  52.632   4.603  1.00  0.00     0.115 A 
HETATM   26  N4  UNL     1      42.693  52.412   5.846  1.00  0.00    -0.345 N 
ATOM     27  H4  UNL     1      42.030  52.381   6.619  1.00  0.00     0.167 HD
BRANCH  24  28
HETATM   28  S1  UNL     1      42.461  53.025   1.923  1.00  0.00     0.266 S 
HETATM   29  O3  UNL     1      41.164  53.761   2.115  1.00  0.00    -0.200 OA
HETATM   30  O4  UNL     1      43.451  53.865   1.181  1.00  0.00    -0.200 OA
BRANCH  28  31
HETATM   31  N3  UNL     1      42.184  51.495   1.145  1.00  0.00    -0.258 N 
ATOM     32  H3  UNL     1      41.236  51.132   1.045  1.00  0.00     0.181 HD
BRANCH  31  33
HETATM   33  C11 UNL     1      43.283  50.761   0.654  1.00  0.00     0.363 C 
HETATM   34  O5  UNL     1      43.916  49.984   1.402  1.00  0.00    -0.283 OA
ENDBRANCH  31  33
ENDBRANCH  28  31
ENDBRANCH  24  28
ENDBRANCH  20  21
ENDBRANCH  19  20
ENDBRANCH  14  19
ENDBRANCH  13  14
ENDBRANCH  12  13
ENDBRANCH   4  12
BRANCH   7  35
HETATM   35  N6  UNL     1      48.453  45.231  11.094  1.00  0.00    -0.234 N 
ATOM     36  H62 UNL     1      49.300  45.023  10.565  1.00  0.00     0.174 HD
ATOM     37  H61 UNL     1      48.464  45.269  12.113  1.00  0.00     0.174 HD
ENDBRANCH   7  35
TORSDOF 11
ENDMDL
MODEL 5
REMARK VINA RESULT: -8.368760828      4.765      6.337
REMARK  11 active torsions:
REMARK  status: ('A' for Active; 'I' for Inactive)
REMARK    1  A    between atoms: C3_4  and  O1_5 
REMARK    2  A    between atoms: O1_5  and  C4_6 
REMARK    3  A    between atoms: C4_6  and  C5_7 
REMARK    4  A    between atoms: C5_7  and  N2_8 
REMARK    5  A    between atoms: C5_7  and  C6_12 
REMARK    6  A    between atoms: C6_12  and  O2_13 
REMARK    7  A    between atoms: O2_13  and  C7_14 
REMARK    8  A    between atoms: C10_17  and  S1_18 
REMARK    9  A    between atoms: S1_18  and  N3_21 
REMARK   10  A    between atoms: N3_21  and  C11_23 
REMARK   11  A    between atoms: C13_30  and  N6_31 
ROOT
HETATM    1  N1  UNL     1      42.848  52.003  10.010  1.00  0.00    -0.191 NA
HETATM    2  C1  UNL     1      43.510  51.082   9.729  1.00  0.00     0.107 C 
HETATM    3  C2  UNL     1      44.300  49.941   9.376  1.00  0.00     0.137 A 
HETATM    4  C3  UNL     1      44.875  49.913   8.102  1.00  0.00     0.181 A 
HETATM    5  N5  UNL     1      45.601  48.847   7.800  1.00  0.00    -0.169 N 
ATOM      6  H5  UNL     1      46.037  48.791   6.880  1.00  0.00     0.186 HD
HETATM    7  C13 UNL     1      45.779  47.848   8.660  1.00  0.00     0.679 A 
HETATM    8  N7  UNL     1      45.220  47.878   9.893  1.00  0.00    -0.177 N 
ATOM      9  H7  UNL     1      45.371  47.100  10.535  1.00  0.00     0.185 HD
HETATM   10  C14 UNL     1      44.465  48.930  10.280  1.00  0.00     0.157 A 
HETATM   11  N8  UNL     1      43.900  48.924  11.585  1.00  0.00    -0.080 NA
ENDROOT
BRANCH   4  12
HETATM   12  O1  UNL     1      44.671  50.928   7.293  1.00  0.00    -0.332 OA
BRANCH  12  13
HETATM   13  C4  UNL     1      44.421  51.443   6.108  1.00  0.00     0.212 C 
BRANCH  13  14
HETATM   14  C5  UNL     1      45.576  51.502   5.139  1.00  0.00     0.231 C 
BRANCH  14  15
HETATM   15  N2  UNL     1      45.295  50.639   4.025  1.00  0.00    -0.071 N 
ATOM     16  H23 UNL     1      45.106  49.680   4.314  1.00  0.00     0.274 HD
ATOM     17  H22 UNL     1      44.392  50.839   3.596  1.00  0.00     0.274 HD
ATOM     18  H21 UNL     1      46.064  50.699   3.357  1.00  0.00     0.274 HD
ENDBRANCH  14  15
BRANCH  14  19
HETATM   19  C6  UNL     1      45.710  52.945   4.649  1.00  0.00     0.212 C 
BRANCH  19  20
HETATM   20  O2  UNL     1      47.055  53.300   4.835  1.00  0.00    -0.334 OA
BRANCH  20  21
HETATM   21  C7  UNL     1      47.650  54.371   4.247  1.00  0.00     0.141 A 
HETATM   22  C8  UNL     1      49.001  54.572   4.535  1.00  0.00     0.057 A 
HETATM   23  C9  UNL     1      49.666  55.625   3.977  1.00  0.00     0.031 A 
HETATM   24  C10 UNL     1      49.004  56.478   3.138  1.00  0.00     0.095 A 
HETATM   25  C12 UNL     1      47.655  56.237   2.879  1.00  0.00     0.115 A 
HETATM   26  N4  UNL     1      46.999  55.210   3.421  1.00  0.00    -0.345 N 
ATOM     27  H4  UNL     1      46.013  55.062   3.210  1.00  0.00     0.167 HD
BRANCH  24  28
HETATM   28  S1  UNL     1      49.754  57.892   2.401  1.00  0.00     0.266 S 
HETATM   29  O3  UNL     1      48.702  58.959   2.265  1.00  0.00    -0.200 OA
HETATM   30  O4  UNL     1      50.861  58.340   3.301  1.00  0.00    -0.200 OA
BRANCH  28  31
HETATM   31  N3  UNL     1      50.335  57.406   0.837  1.00  0.00    -0.258 N 
ATOM     32  H3  UNL     1      51.313  57.145   0.709  1.00  0.00     0.181 HD
BRANCH  31  33
HETATM   33  C11 UNL     1      49.442  57.376  -0.253  1.00  0.00     0.363 C 
HETATM   34  O5  UNL     1      48.753  56.357  -0.486  1.00  0.00    -0.283 OA
ENDBRANCH  31  33
ENDBRANCH  28  31
ENDBRANCH  24  28
ENDBRANCH  20  21
ENDBRANCH  19  20
ENDBRANCH  14  19
ENDBRANCH  13  14
ENDBRANCH  12  13
ENDBRANCH   4  12
BRANCH   7  35
HETATM   35  N6  UNL     1      46.506  46.807   8.325  1.00  0.00    -0.234 N 
ATOM     36  H62 UNL     1      46.584  46.564   7.338  1.00  0.00     0.174 HD
ATOM     37  H61 UNL     1      46.978  46.256   9.042  1.00  0.00     0.174 HD
ENDBRANCH   7  35
TORSDOF 11
ENDMDL
