MODEL 1
REMARK VINA RESULT: -8.509339188      0.000      0.000
REMARK  13 active torsions:
REMARK  status: ('A' for Active; 'I' for Inactive)
REMARK    1  A    between atoms: C2_2  and  C3_3 
REMARK    2  A    between atoms: C3_3  and  N1_4 
REMARK    3  A    between atoms: N1_4  and  C4_5 
REMARK    4  A    between atoms: N1_4  and  C7_8 
REMARK    5  A    between atoms: C4_5  and  C5_6 
REMARK    6  A    between atoms: C7_8  and  C8_9 
REMARK    7  A    between atoms: C8_9  and  N2_10 
REMARK       I    between atoms: N2_10  and  C9_12 
REMARK    8  A    between atoms: C9_12  and  C10_14 
REMARK    9  A    between atoms: C15_23  and  N5_24 
REMARK   10  A    between atoms: N5_24  and  C16_25 
REMARK       I    between atoms: N8_35  and  C22_36 
REMARK       I    between atoms: C22_36  and  N9_38 
REMARK   11  A    between atoms: N9_38  and  C23_40 
REMARK   12  A    between atoms: C23_40  and  C24_41 
REMARK   13  A    between atoms: C24_41  and  N10_42 
ROOT
HETATM    1  C10 UNL     1      21.146  27.505  16.628  1.00  0.00     0.059 A 
HETATM    2  C11 UNL     1      21.693  28.543  15.857  1.00  0.00     0.105 A 
HETATM    3  N3  UNL     1      21.237  28.727  14.636  1.00  0.00    -0.372 N 
ATOM      4  H3  UNL     1      21.630  29.479  14.069  1.00  0.00     0.164 HD
HETATM    5  C12 UNL     1      20.270  27.952  14.115  1.00  0.00     0.117 A 
HETATM    6  C13 UNL     1      19.722  26.927  14.863  1.00  0.00     0.059 A 
HETATM    7  N4  UNL     1      18.784  26.154  14.330  1.00  0.00    -0.361 N 
ATOM      8  H4  UNL     1      18.475  26.347  13.378  1.00  0.00     0.165 HD
HETATM    9  C14 UNL     1      18.234  25.143  14.980  1.00  0.00     0.133 A 
HETATM   10  C15 UNL     1      18.627  24.807  16.335  1.00  0.00     0.127 A 
HETATM   11  C29 UNL     1      19.596  25.627  16.858  1.00  0.00     0.061 A 
HETATM   12  C30 UNL     1      20.165  26.683  16.166  1.00  0.00     0.012 A 
ENDROOT
BRANCH  10  13
HETATM   13  N5  UNL     1      18.022  23.751  16.829  1.00  0.00    -0.370 NA
BRANCH  13  14
HETATM   14  C16 UNL     1      17.492  22.778  17.273  1.00  0.00     0.261 A 
HETATM   15  N6  UNL     1      16.334  22.365  16.624  1.00  0.00    -0.301 N 
HETATM   16  C17 UNL     1      15.596  21.358  17.011  1.00  0.00     0.122 A 
ATOM     17  H6  UNL     1      16.041  22.880  15.794  1.00  0.00     0.171 HD
HETATM   18  C18 UNL     1      16.008  20.665  18.161  1.00  0.00     0.003 A 
HETATM   19  N8  UNL     1      14.432  20.707  16.478  1.00  0.00    -0.285 N 
HETATM   20  C19 UNL     1      17.148  21.055  18.818  1.00  0.00     0.103 A 
HETATM   21  C20 UNL     1      14.995  19.604  18.446  1.00  0.00     0.064 C 
HETATM   22  N7  UNL     1      17.882  22.101  18.376  1.00  0.00    -0.326 N 
ATOM     23  H7  UNL     1      18.728  22.379  18.873  1.00  0.00     0.169 HD
HETATM   24  C21 UNL     1      13.785  20.123  17.621  1.00  0.00     0.140 C 
HETATM   25  C22 UNL     1      14.101  20.596  15.135  1.00  0.00     0.324 C 
HETATM   26  O2  UNL     1      14.920  21.078  14.258  1.00  0.00    -0.247 OA
HETATM   27  N9  UNL     1      12.919  19.970  14.610  1.00  0.00    -0.341 N 
ATOM     28  H9  UNL     1      12.229  19.602  15.264  1.00  0.00     0.164 HD
BRANCH  27  29
HETATM   29  C23 UNL     1      12.671  19.843  13.216  1.00  0.00     0.154 C 
BRANCH  29  30
HETATM   30  C24 UNL     1      12.431  18.524  12.615  1.00  0.00     0.292 C 
BRANCH  30  31
HETATM   31  N10 UNL     1      11.064  18.145  12.344  1.00  0.00     0.090 N 
HETATM   32  C25 UNL     1      11.070  17.505  10.999  1.00  0.00     0.272 C 
HETATM   33  C26 UNL     1      11.720  16.164  11.253  1.00  0.00     0.032 C 
HETATM   34  C27 UNL     1      11.531  15.880  12.734  1.00  0.00     0.032 C 
HETATM   35  C28 UNL     1      10.671  17.026  13.207  1.00  0.00     0.272 C 
ENDBRANCH  30  31
ENDBRANCH  29  30
ENDBRANCH  27  29
ENDBRANCH  13  14
ENDBRANCH  10  13
BRANCH   1  36
HETATM   36  C9  UNL     1      21.617  27.410  18.018  1.00  0.00     0.253 C 
HETATM   37  N2  UNL     1      22.800  26.660  18.162  1.00  0.00    -0.355 N 
ATOM     38  H2  UNL     1      23.202  26.317  17.289  1.00  0.00     0.162 HD
HETATM   39  O1  UNL     1      21.041  27.916  18.978  1.00  0.00    -0.268 OA
BRANCH  37  40
HETATM   40  C8  UNL     1      23.526  26.303  19.343  1.00  0.00     0.153 C 
BRANCH  40  41
HETATM   41  C7  UNL     1      22.950  24.988  19.904  1.00  0.00     0.292 C 
BRANCH  41  42
HETATM   42  N1  UNL     1      22.180  25.239  21.062  1.00  0.00     0.089 N 
BRANCH  42  43
HETATM   43  C3  UNL     1      22.686  26.491  21.727  1.00  0.00     0.272 C 
BRANCH  43  44
HETATM   44  C2  UNL     1      21.502  27.148  22.383  1.00  0.00     0.026 C 
HETATM   45  C1  UNL     1      21.678  27.272  23.878  1.00  0.00     0.007 C 
ENDBRANCH  43  44
ENDBRANCH  42  43
BRANCH  42  46
HETATM   46  C4  UNL     1      20.789  25.338  21.009  1.00  0.00     0.272 C 
BRANCH  46  47
HETATM   47  C5  UNL     1      19.960  24.307  20.329  1.00  0.00     0.026 C 
HETATM   48  C6  UNL     1      18.540  24.469  20.950  1.00  0.00     0.007 C 
ENDBRANCH  46  47
ENDBRANCH  42  46
ENDBRANCH  41  42
ENDBRANCH  40  41
ENDBRANCH  37  40
ENDBRANCH   1  36
TORSDOF 13
ENDMDL
MODEL 2
REMARK VINA RESULT: -8.377596090      0.921      1.822
REMARK  13 active torsions:
REMARK  status: ('A' for Active; 'I' for Inactive)
REMARK    1  A    between atoms: C2_2  and  C3_3 
REMARK    2  A    between atoms: C3_3  and  N1_4 
REMARK    3  A    between atoms: N1_4  and  C4_5 
REMARK    4  A    between atoms: N1_4  and  C7_8 
REMARK    5  A    between atoms: C4_5  and  C5_6 
REMARK    6  A    between atoms: C7_8  and  C8_9 
REMARK    7  A    between atoms: C8_9  and  N2_10 
REMARK       I    between atoms: N2_10  and  C9_12 
REMARK    8  A    between atoms: C9_12  and  C10_14 
REMARK    9  A    between atoms: C15_23  and  N5_24 
REMARK   10  A    between atoms: N5_24  and  C16_25 
REMARK       I    between atoms: N8_35  and  C22_36 
REMARK       I    between atoms: C22_36  and  N9_38 
REMARK   11  A    between atoms: N9_38  and  C23_40 
REMARK   12  A    between atoms: C23_40  and  C24_41 
REMARK   13  A    between atoms: C24_41  and  N10_42 
ROOT
HETATM    1  C10 UNL     1      21.446  27.385  16.504  1.00  0.00     0.059 A 
HETATM    2  C11 UNL     1      21.912  28.498  15.787  1.00  0.00     0.105 A 
HETATM    3  N3  UNL     1      21.242  28.886  14.723  1.00  0.00    -0.372 N 
ATOM      4  H3  UNL     1      21.574  29.694  14.196  1.00  0.00     0.164 HD
HETATM    5  C12 UNL     1      20.133  28.248  14.311  1.00  0.00     0.117 A 
HETATM    6  C13 UNL     1      19.662  27.151  15.008  1.00  0.00     0.059 A 
HETATM    7  N4  UNL     1      18.579  26.515  14.578  1.00  0.00    -0.361 N 
ATOM      8  H4  UNL     1      18.105  26.865  13.746  1.00  0.00     0.165 HD
HETATM    9  C14 UNL     1      18.089  25.448  15.183  1.00  0.00     0.133 A 
HETATM   10  C15 UNL     1      18.712  24.891  16.369  1.00  0.00     0.127 A 
HETATM   11  C29 UNL     1      19.827  25.573  16.788  1.00  0.00     0.061 A 
HETATM   12  C30 UNL     1      20.331  26.692  16.146  1.00  0.00     0.012 A 
ENDROOT
BRANCH  10  13
HETATM   13  N5  UNL     1      18.133  23.805  16.827  1.00  0.00    -0.370 NA
BRANCH  13  14
HETATM   14  C16 UNL     1      17.629  22.806  17.242  1.00  0.00     0.261 A 
HETATM   15  N6  UNL     1      16.464  22.400  16.601  1.00  0.00    -0.301 N 
HETATM   16  C17 UNL     1      15.751  21.365  16.961  1.00  0.00     0.122 A 
ATOM     17  H6  UNL     1      16.146  22.942  15.798  1.00  0.00     0.171 HD
HETATM   18  C18 UNL     1      16.199  20.634  18.074  1.00  0.00     0.003 A 
HETATM   19  N8  UNL     1      14.586  20.716  16.426  1.00  0.00    -0.285 N 
HETATM   20  C19 UNL     1      17.346  21.016  18.723  1.00  0.00     0.103 A 
HETATM   21  C20 UNL     1      15.209  19.545  18.336  1.00  0.00     0.064 C 
HETATM   22  N7  UNL     1      18.053  22.092  18.308  1.00  0.00    -0.326 N 
ATOM     23  H7  UNL     1      18.905  22.364  18.799  1.00  0.00     0.169 HD
HETATM   24  C21 UNL     1      13.974  20.076  17.558  1.00  0.00     0.140 C 
HETATM   25  C22 UNL     1      14.230  20.654  15.088  1.00  0.00     0.324 C 
HETATM   26  O2  UNL     1      15.022  21.185  14.214  1.00  0.00    -0.247 OA
HETATM   27  N9  UNL     1      13.047  20.029  14.562  1.00  0.00    -0.341 N 
ATOM     28  H9  UNL     1      12.377  19.623  15.214  1.00  0.00     0.164 HD
BRANCH  27  29
HETATM   29  C23 UNL     1      12.772  19.954  13.169  1.00  0.00     0.154 C 
BRANCH  29  30
HETATM   30  C24 UNL     1      12.509  18.659  12.527  1.00  0.00     0.292 C 
BRANCH  30  31
HETATM   31  N10 UNL     1      11.140  18.200  12.470  1.00  0.00     0.090 N 
HETATM   32  C25 UNL     1      10.902  17.783  11.059  1.00  0.00     0.272 C 
HETATM   33  C26 UNL     1      11.671  16.487  10.943  1.00  0.00     0.032 C 
HETATM   34  C27 UNL     1      11.816  15.956  12.359  1.00  0.00     0.032 C 
HETATM   35  C28 UNL     1      11.008  16.926  13.185  1.00  0.00     0.272 C 
ENDBRANCH  30  31
ENDBRANCH  29  30
ENDBRANCH  27  29
ENDBRANCH  13  14
ENDBRANCH  10  13
BRANCH   1  36
HETATM   36  C9  UNL     1      22.172  27.058  17.741  1.00  0.00     0.253 C 
HETATM   37  N2  UNL     1      21.561  27.569  18.904  1.00  0.00    -0.355 N 
ATOM     38  H2  UNL     1      20.680  28.059  18.748  1.00  0.00     0.162 HD
HETATM   39  O1  UNL     1      23.218  26.416  17.779  1.00  0.00    -0.268 OA
BRANCH  37  40
HETATM   40  C8  UNL     1      21.987  27.508  20.270  1.00  0.00     0.153 C 
BRANCH  40  41
HETATM   41  C7  UNL     1      20.959  26.690  21.075  1.00  0.00     0.292 C 
BRANCH  41  42
HETATM   42  N1  UNL     1      21.401  25.356  21.231  1.00  0.00     0.089 N 
BRANCH  42  43
HETATM   43  C3  UNL     1      20.670  24.478  20.250  1.00  0.00     0.272 C 
BRANCH  43  44
HETATM   44  C2  UNL     1      19.534  23.835  20.999  1.00  0.00     0.026 C 
HETATM   45  C1  UNL     1      18.210  24.497  20.700  1.00  0.00     0.007 C 
ENDBRANCH  43  44
ENDBRANCH  42  43
BRANCH  42  46
HETATM   46  C4  UNL     1      22.753  25.020  21.152  1.00  0.00     0.272 C 
BRANCH  46  47
HETATM   47  C5  UNL     1      23.269  24.109  20.095  1.00  0.00     0.026 C 
HETATM   48  C6  UNL     1      24.809  24.339  20.091  1.00  0.00     0.007 C 
ENDBRANCH  46  47
ENDBRANCH  42  46
ENDBRANCH  41  42
ENDBRANCH  40  41
ENDBRANCH  37  40
ENDBRANCH   1  36
TORSDOF 13
ENDMDL
MODEL 3
REMARK VINA RESULT: -8.202486546      2.816     11.602
REMARK  13 active torsions:
REMARK  status: ('A' for Active; 'I' for Inactive)
REMARK    1  A    between atoms: C2_2  and  C3_3 
REMARK    2  A    between atoms: C3_3  and  N1_4 
REMARK    3  A    between atoms: N1_4  and  C4_5 
REMARK    4  A    between atoms: N1_4  and  C7_8 
REMARK    5  A    between atoms: C4_5  and  C5_6 
REMARK    6  A    between atoms: C7_8  and  C8_9 
REMARK    7  A    between atoms: C8_9  and  N2_10 
REMARK       I    between atoms: N2_10  and  C9_12 
REMARK    8  A    between atoms: C9_12  and  C10_14 
REMARK    9  A    between atoms: C15_23  and  N5_24 
REMARK   10  A    between atoms: N5_24  and  C16_25 
REMARK       I    between atoms: N8_35  and  C22_36 
REMARK       I    between atoms: C22_36  and  N9_38 
REMARK   11  A    between atoms: N9_38  and  C23_40 
REMARK   12  A    between atoms: C23_40  and  C24_41 
REMARK   13  A    between atoms: C24_41  and  N10_42 
ROOT
HETATM    1  C10 UNL     1      13.986  20.920  15.238  1.00  0.00     0.059 A 
HETATM    2  C11 UNL     1      13.420  20.585  13.997  1.00  0.00     0.105 A 
HETATM    3  N3  UNL     1      13.960  21.082  12.905  1.00  0.00    -0.372 N 
ATOM      4  H3  UNL     1      13.555  20.844  12.000  1.00  0.00     0.164 HD
HETATM    5  C12 UNL     1      15.030  21.894  12.949  1.00  0.00     0.117 A 
HETATM    6  C13 UNL     1      15.598  22.232  14.163  1.00  0.00     0.059 A 
HETATM    7  N4  UNL     1      16.640  23.054  14.195  1.00  0.00    -0.361 N 
ATOM      8  H4  UNL     1      17.012  23.406  13.313  1.00  0.00     0.165 HD
HETATM    9  C14 UNL     1      17.216  23.435  15.321  1.00  0.00     0.133 A 
HETATM   10  C15 UNL     1      16.740  22.978  16.613  1.00  0.00     0.127 A 
HETATM   11  C29 UNL     1      15.664  22.128  16.544  1.00  0.00     0.061 A 
HETATM   12  C30 UNL     1      15.068  21.736  15.357  1.00  0.00     0.012 A 
ENDROOT
BRANCH  10  13
HETATM   13  N5  UNL     1      17.388  23.480  17.639  1.00  0.00    -0.370 NA
BRANCH  13  14
HETATM   14  C16 UNL     1      17.995  23.940  18.558  1.00  0.00     0.261 A 
HETATM   15  N6  UNL     1      19.263  24.429  18.266  1.00  0.00    -0.301 N 
HETATM   16  C17 UNL     1      20.086  24.912  19.160  1.00  0.00     0.122 A 
ATOM     17  H6  UNL     1      19.572  24.409  17.294  1.00  0.00     0.171 HD
HETATM   18  C18 UNL     1      19.649  24.924  20.494  1.00  0.00     0.003 A 
HETATM   19  N8  UNL     1      21.381  25.531  19.097  1.00  0.00    -0.285 N 
HETATM   20  C19 UNL     1      18.400  24.447  20.806  1.00  0.00     0.103 A 
HETATM   21  C20 UNL     1      20.761  25.459  21.337  1.00  0.00     0.064 C 
HETATM   22  N7  UNL     1      17.583  23.961  19.844  1.00  0.00    -0.326 N 
ATOM     23  H7  UNL     1      16.657  23.611  20.090  1.00  0.00     0.169 HD
HETATM   24  C21 UNL     1      21.971  25.271  20.381  1.00  0.00     0.140 C 
HETATM   25  C22 UNL     1      21.870  26.296  18.049  1.00  0.00     0.324 C 
HETATM   26  O2  UNL     1      21.094  26.525  17.039  1.00  0.00    -0.247 OA
HETATM   27  N9  UNL     1      23.178  26.888  17.979  1.00  0.00    -0.341 N 
ATOM     28  H9  UNL     1      23.836  26.711  18.738  1.00  0.00     0.164 HD
BRANCH  27  29
HETATM   29  C23 UNL     1      23.594  27.709  16.896  1.00  0.00     0.154 C 
BRANCH  29  30
HETATM   30  C24 UNL     1      24.714  27.304  16.036  1.00  0.00     0.292 C 
BRANCH  30  31
HETATM   31  N10 UNL     1      25.940  28.063  16.125  1.00  0.00     0.090 N 
HETATM   32  C25 UNL     1      26.552  27.711  17.437  1.00  0.00     0.272 C 
HETATM   33  C26 UNL     1      27.069  26.308  17.216  1.00  0.00     0.032 C 
HETATM   34  C27 UNL     1      27.243  26.155  15.714  1.00  0.00     0.032 C 
HETATM   35  C28 UNL     1      26.929  27.532  15.180  1.00  0.00     0.272 C 
ENDBRANCH  30  31
ENDBRANCH  29  30
ENDBRANCH  27  29
ENDBRANCH  13  14
ENDBRANCH  10  13
BRANCH   1  36
HETATM   36  C9  UNL     1      13.408  20.256  16.416  1.00  0.00     0.253 C 
HETATM   37  N2  UNL     1      12.031  20.502  16.583  1.00  0.00    -0.355 N 
ATOM     38  H2  UNL     1      11.602  21.067  15.849  1.00  0.00     0.162 HD
HETATM   39  O1  UNL     1      14.049  19.561  17.201  1.00  0.00    -0.268 OA
BRANCH  37  40
HETATM   40  C8  UNL     1      11.140  20.081  17.622  1.00  0.00     0.153 C 
BRANCH  40  41
HETATM   41  C7  UNL     1      10.603  18.677  17.278  1.00  0.00     0.292 C 
BRANCH  41  42
HETATM   42  N1  UNL     1      10.870  17.774  18.333  1.00  0.00     0.089 N 
BRANCH  42  43
HETATM   43  C3  UNL     1      11.729  16.652  17.813  1.00  0.00     0.272 C 
BRANCH  43  44
HETATM   44  C2  UNL     1      10.868  15.831  16.892  1.00  0.00     0.026 C 
HETATM   45  C1  UNL     1       9.832  15.031  17.646  1.00  0.00     0.007 C 
ENDBRANCH  43  44
ENDBRANCH  42  43
BRANCH  42  46
HETATM   46  C4  UNL     1      11.436  18.200  19.535  1.00  0.00     0.272 C 
BRANCH  46  47
HETATM   47  C5  UNL     1      12.608  17.507  20.133  1.00  0.00     0.026 C 
HETATM   48  C6  UNL     1      13.603  18.651  20.491  1.00  0.00     0.007 C 
ENDBRANCH  46  47
ENDBRANCH  42  46
ENDBRANCH  41  42
ENDBRANCH  40  41
ENDBRANCH  37  40
ENDBRANCH   1  36
TORSDOF 13
ENDMDL
MODEL 4
REMARK VINA RESULT: -8.166213154      2.484     11.722
REMARK  13 active torsions:
REMARK  status: ('A' for Active; 'I' for Inactive)
REMARK    1  A    between atoms: C2_2  and  C3_3 
REMARK    2  A    between atoms: C3_3  and  N1_4 
REMARK    3  A    between atoms: N1_4  and  C4_5 
REMARK    4  A    between atoms: N1_4  and  C7_8 
REMARK    5  A    between atoms: C4_5  and  C5_6 
REMARK    6  A    between atoms: C7_8  and  C8_9 
REMARK    7  A    between atoms: C8_9  and  N2_10 
REMARK       I    between atoms: N2_10  and  C9_12 
REMARK    8  A    between atoms: C9_12  and  C10_14 
REMARK    9  A    between atoms: C15_23  and  N5_24 
REMARK   10  A    between atoms: N5_24  and  C16_25 
REMARK       I    between atoms: N8_35  and  C22_36 
REMARK       I    between atoms: C22_36  and  N9_38 
REMARK   11  A    between atoms: N9_38  and  C23_40 
REMARK   12  A    between atoms: C23_40  and  C24_41 
REMARK   13  A    between atoms: C24_41  and  N10_42 
ROOT
HETATM    1  C10 UNL     1      11.418  19.043  17.803  1.00  0.00     0.059 A 
HETATM    2  C11 UNL     1      10.694  18.138  18.595  1.00  0.00     0.105 A 
HETATM    3  N3  UNL     1      11.178  17.805  19.773  1.00  0.00    -0.372 N 
ATOM      4  H3  UNL     1      10.658  17.148  20.354  1.00  0.00     0.164 HD
HETATM    5  C12 UNL     1      12.339  18.306  20.230  1.00  0.00     0.117 A 
HETATM    6  C13 UNL     1      13.062  19.198  19.461  1.00  0.00     0.059 A 
HETATM    7  N4  UNL     1      14.218  19.668  19.913  1.00  0.00    -0.361 N 
ATOM      8  H4  UNL     1      14.540  19.371  20.834  1.00  0.00     0.165 HD
HETATM    9  C14 UNL     1      14.971  20.506  19.221  1.00  0.00     0.133 A 
HETATM   10  C15 UNL     1      14.579  20.969  17.904  1.00  0.00     0.127 A 
HETATM   11  C29 UNL     1      13.378  20.467  17.467  1.00  0.00     0.061 A 
HETATM   12  C30 UNL     1      12.599  19.590  18.202  1.00  0.00     0.012 A 
ENDROOT
BRANCH  10  13
HETATM   13  N5  UNL     1      15.452  21.762  17.326  1.00  0.00    -0.370 NA
BRANCH  13  14
HETATM   14  C16 UNL     1      16.260  22.464  16.798  1.00  0.00     0.261 A 
HETATM   15  N6  UNL     1      16.994  23.290  17.641  1.00  0.00    -0.301 N 
HETATM   16  C17 UNL     1      17.876  24.162  17.228  1.00  0.00     0.122 A 
ATOM     17  H6  UNL     1      16.835  23.211  18.646  1.00  0.00     0.171 HD
HETATM   18  C18 UNL     1      18.077  24.264  15.842  1.00  0.00     0.003 A 
HETATM   19  N8  UNL     1      18.792  25.049  17.890  1.00  0.00    -0.285 N 
HETATM   20  C19 UNL     1      17.364  23.459  14.990  1.00  0.00     0.103 A 
HETATM   21  C20 UNL     1      19.074  25.351  15.602  1.00  0.00     0.064 C 
HETATM   22  N7  UNL     1      16.465  22.568  15.466  1.00  0.00    -0.326 N 
ATOM     23  H7  UNL     1      15.943  21.974  14.821  1.00  0.00     0.169 HD
HETATM   24  C21 UNL     1      19.007  26.117  16.952  1.00  0.00     0.140 C 
HETATM   25  C22 UNL     1      19.397  24.830  19.118  1.00  0.00     0.324 C 
HETATM   26  O2  UNL     1      19.167  23.713  19.728  1.00  0.00    -0.247 OA
HETATM   27  N9  UNL     1      20.290  25.735  19.789  1.00  0.00    -0.341 N 
ATOM     28  H9  UNL     1      20.479  26.641  19.361  1.00  0.00     0.164 HD
BRANCH  27  29
HETATM   29  C23 UNL     1      20.920  25.420  21.024  1.00  0.00     0.154 C 
BRANCH  29  30
HETATM   30  C24 UNL     1      22.206  24.711  21.048  1.00  0.00     0.292 C 
BRANCH  30  31
HETATM   31  N10 UNL     1      23.209  25.102  20.085  1.00  0.00     0.090 N 
HETATM   32  C25 UNL     1      23.755  26.404  20.560  1.00  0.00     0.272 C 
HETATM   33  C26 UNL     1      24.601  26.015  21.751  1.00  0.00     0.032 C 
HETATM   34  C27 UNL     1      24.950  24.549  21.557  1.00  0.00     0.032 C 
HETATM   35  C28 UNL     1      24.381  24.226  20.197  1.00  0.00     0.272 C 
ENDBRANCH  30  31
ENDBRANCH  29  30
ENDBRANCH  27  29
ENDBRANCH  13  14
ENDBRANCH  10  13
BRANCH   1  36
HETATM   36  C9  UNL     1      10.781  19.460  16.545  1.00  0.00     0.253 C 
HETATM   37  N2  UNL     1      11.231  18.741  15.420  1.00  0.00    -0.355 N 
ATOM     38  H2  UNL     1      11.903  17.999  15.623  1.00  0.00     0.162 HD
HETATM   39  O1  UNL     1       9.946  20.357  16.457  1.00  0.00    -0.268 OA
BRANCH  37  40
HETATM   40  C8  UNL     1      10.893  18.889  14.037  1.00  0.00     0.153 C 
BRANCH  40  41
HETATM   41  C7  UNL     1      12.145  19.353  13.265  1.00  0.00     0.292 C 
BRANCH  41  42
HETATM   42  N1  UNL     1      12.762  20.436  13.931  1.00  0.00     0.089 N 
BRANCH  42  43
HETATM   43  C3  UNL     1      14.193  20.544  13.474  1.00  0.00     0.272 C 
BRANCH  43  44
HETATM   44  C2  UNL     1      14.217  21.534  12.341  1.00  0.00     0.026 C 
HETATM   45  C1  UNL     1      15.524  22.288  12.275  1.00  0.00     0.007 C 
ENDBRANCH  43  44
ENDBRANCH  42  43
BRANCH  42  46
HETATM   46  C4  UNL     1      12.223  21.723  13.892  1.00  0.00     0.272 C 
BRANCH  46  47
HETATM   47  C5  UNL     1      12.144  22.573  15.110  1.00  0.00     0.026 C 
HETATM   48  C6  UNL     1      13.194  23.699  14.875  1.00  0.00     0.007 C 
ENDBRANCH  46  47
ENDBRANCH  42  46
ENDBRANCH  41  42
ENDBRANCH  40  41
ENDBRANCH  37  40
ENDBRANCH   1  36
TORSDOF 13
ENDMDL
MODEL 5
REMARK VINA RESULT: -8.141326010      2.614      5.542
REMARK  13 active torsions:
REMARK  status: ('A' for Active; 'I' for Inactive)
REMARK    1  A    between atoms: C2_2  and  C3_3 
REMARK    2  A    between atoms: C3_3  and  N1_4 
REMARK    3  A    between atoms: N1_4  and  C4_5 
REMARK    4  A    between atoms: N1_4  and  C7_8 
REMARK    5  A    between atoms: C4_5  and  C5_6 
REMARK    6  A    between atoms: C7_8  and  C8_9 
REMARK    7  A    between atoms: C8_9  and  N2_10 
REMARK       I    between atoms: N2_10  and  C9_12 
REMARK    8  A    between atoms: C9_12  and  C10_14 
REMARK    9  A    between atoms: C15_23  and  N5_24 
REMARK   10  A    between atoms: N5_24  and  C16_25 
REMARK       I    between atoms: N8_35  and  C22_36 
REMARK       I    between atoms: C22_36  and  N9_38 
REMARK   11  A    between atoms: N9_38  and  C23_40 
REMARK   12  A    between atoms: C23_40  and  C24_41 
REMARK   13  A    between atoms: C24_41  and  N10_42 
ROOT
HETATM    1  C10 UNL     1      20.024  24.965  18.979  1.00  0.00     0.059 A 
HETATM    2  C11 UNL     1      20.985  24.996  20.002  1.00  0.00     0.105 A 
HETATM    3  N3  UNL     1      20.833  24.194  21.033  1.00  0.00    -0.372 N 
ATOM      4  H3  UNL     1      21.527  24.211  21.781  1.00  0.00     0.164 HD
HETATM    5  C12 UNL     1      19.789  23.352  21.130  1.00  0.00     0.117 A 
HETATM    6  C13 UNL     1      18.836  23.310  20.130  1.00  0.00     0.059 A 
HETATM    7  N4  UNL     1      17.797  22.491  20.247  1.00  0.00    -0.361 N 
ATOM      8  H4  UNL     1      17.736  21.894  21.072  1.00  0.00     0.165 HD
HETATM    9  C14 UNL     1      16.839  22.417  19.341  1.00  0.00     0.133 A 
HETATM   10  C15 UNL     1      16.857  23.237  18.145  1.00  0.00     0.127 A 
HETATM   11  C29 UNL     1      17.945  24.070  18.053  1.00  0.00     0.061 A 
HETATM   12  C30 UNL     1      18.943  24.139  19.010  1.00  0.00     0.012 A 
ENDROOT
BRANCH  10  13
HETATM   13  N5  UNL     1      15.813  23.081  17.363  1.00  0.00    -0.370 NA
BRANCH  13  14
HETATM   14  C16 UNL     1      14.879  22.931  16.635  1.00  0.00     0.261 A 
HETATM   15  N6  UNL     1      14.277  21.679  16.665  1.00  0.00    -0.301 N 
HETATM   16  C17 UNL     1      13.283  21.324  15.894  1.00  0.00     0.122 A 
ATOM     17  H6  UNL     1      14.633  20.993  17.331  1.00  0.00     0.171 HD
HETATM   18  C18 UNL     1      12.811  22.277  14.977  1.00  0.00     0.003 A 
HETATM   19  N8  UNL     1      12.464  20.148  15.793  1.00  0.00    -0.285 N 
HETATM   20  C19 UNL     1      13.390  23.521  14.930  1.00  0.00     0.103 A 
HETATM   21  C20 UNL     1      11.726  21.641  14.171  1.00  0.00     0.064 C 
HETATM   22  N7  UNL     1      14.413  23.843  15.753  1.00  0.00    -0.326 N 
ATOM     23  H7  UNL     1      14.833  24.771  15.707  1.00  0.00     0.169 HD
HETATM   24  C21 UNL     1      12.010  20.136  14.430  1.00  0.00     0.140 C 
HETATM   25  C22 UNL     1      12.123  19.300  16.836  1.00  0.00     0.324 C 
HETATM   26  O2  UNL     1      12.531  19.593  18.028  1.00  0.00    -0.247 OA
HETATM   27  N9  UNL     1      11.328  18.108  16.723  1.00  0.00    -0.341 N 
ATOM     28  H9  UNL     1      11.008  17.819  15.799  1.00  0.00     0.164 HD
BRANCH  27  29
HETATM   29  C23 UNL     1      10.969  17.314  17.847  1.00  0.00     0.154 C 
BRANCH  29  30
HETATM   30  C24 UNL     1      10.560  15.913  17.673  1.00  0.00     0.292 C 
BRANCH  30  31
HETATM   31  N10 UNL     1       9.409  15.645  16.843  1.00  0.00     0.090 N 
HETATM   32  C25 UNL     1       9.917  14.900  15.657  1.00  0.00     0.272 C 
HETATM   33  C26 UNL     1      10.227  13.529  16.213  1.00  0.00     0.032 C 
HETATM   34  C27 UNL     1       9.386  13.384  17.470  1.00  0.00     0.032 C 
HETATM   35  C28 UNL     1       8.551  14.642  17.483  1.00  0.00     0.272 C 
ENDBRANCH  30  31
ENDBRANCH  29  30
ENDBRANCH  27  29
ENDBRANCH  13  14
ENDBRANCH  10  13
BRANCH   1  36
HETATM   36  C9  UNL     1      20.297  25.806  17.804  1.00  0.00     0.253 C 
HETATM   37  N2  UNL     1      21.193  25.219  16.888  1.00  0.00    -0.355 N 
ATOM     38  H2  UNL     1      21.502  24.278  17.130  1.00  0.00     0.162 HD
HETATM   39  O1  UNL     1      19.814  26.921  17.625  1.00  0.00    -0.268 OA
BRANCH  37  40
HETATM   40  C8  UNL     1      21.736  25.741  15.670  1.00  0.00     0.153 C 
BRANCH  40  41
HETATM   41  C7  UNL     1      20.666  25.640  14.565  1.00  0.00     0.292 C 
BRANCH  41  42
HETATM   42  N1  UNL     1      20.330  26.926  14.084  1.00  0.00     0.089 N 
BRANCH  42  43
HETATM   43  C3  UNL     1      18.850  27.144  14.255  1.00  0.00     0.272 C 
BRANCH  43  44
HETATM   44  C2  UNL     1      18.258  25.824  14.671  1.00  0.00     0.026 C 
HETATM   45  C1  UNL     1      17.094  25.997  15.617  1.00  0.00     0.007 C 
ENDBRANCH  43  44
ENDBRANCH  42  43
BRANCH  42  46
HETATM   46  C4  UNL     1      20.969  28.074  14.556  1.00  0.00     0.272 C 
BRANCH  46  47
HETATM   47  C5  UNL     1      22.177  28.625  13.884  1.00  0.00     0.026 C 
HETATM   48  C6  UNL     1      23.143  28.994  15.049  1.00  0.00     0.007 C 
ENDBRANCH  46  47
ENDBRANCH  42  46
ENDBRANCH  41  42
ENDBRANCH  40  41
ENDBRANCH  37  40
ENDBRANCH   1  36
TORSDOF 13
ENDMDL
