MODEL 1
REMARK VINA RESULT: -9.012600798      0.000      0.000
REMARK  12 active torsions:
REMARK  status: ('A' for Active; 'I' for Inactive)
REMARK    1  A    between atoms: C2_2  and  C3_3 
REMARK    2  A    between atoms: C3_3  and  C4_4 
REMARK    3  A    between atoms: C4_4  and  C5_5 
REMARK       I    between atoms: N3_11  and  C7_13 
REMARK    4  A    between atoms: C7_13  and  C8_15 
REMARK    5  A    between atoms: C10_17  and  S1_18 
REMARK    6  A    between atoms: S1_18  and  N4_21 
REMARK    7  A    between atoms: N4_21  and  C11_23 
REMARK    8  A    between atoms: C11_23  and  C12_24 
REMARK    9  A    between atoms: C12_24  and  C13_25 
REMARK   10  A    between atoms: C13_25  and  N5_26 
REMARK   11  A    between atoms: N6_29  and  C16_30 
REMARK   12  A    between atoms: C22_36  and  N7_37 
REMARK       I    between atoms: N7_37  and  C23_39 
ROOT
HETATM    1  C8  UNL     1      20.485  25.481  19.155  1.00  0.00     0.042 A 
HETATM    2  C9  UNL     1      20.043  25.869  17.883  1.00  0.00     0.043 A 
HETATM    3  C10 UNL     1      20.753  26.726  17.042  1.00  0.00     0.088 A 
HETATM    4  C20 UNL     1      21.943  27.196  17.513  1.00  0.00    -0.011 A 
HETATM    5  C21 UNL     1      22.817  28.053  16.732  1.00  0.00     0.052 C 
HETATM    6  C22 UNL     1      22.391  26.820  18.775  1.00  0.00     0.049 A 
HETATM    7  C25 UNL     1      21.668  25.962  19.605  1.00  0.00    -0.019 A 
HETATM    8  C26 UNL     1      22.228  25.620  20.942  1.00  0.00     0.052 C 
ENDROOT
BRANCH   3   9
HETATM    9  S1  UNL     1      20.105  27.186  15.514  1.00  0.00     0.259 S 
HETATM   10  O2  UNL     1      20.201  28.696  15.298  1.00  0.00    -0.201 OA
HETATM   11  O3  UNL     1      21.128  26.720  14.455  1.00  0.00    -0.201 OA
BRANCH   9  12
HETATM   12  N4  UNL     1      18.657  26.574  15.010  1.00  0.00    -0.315 N 
ATOM     13  H4  UNL     1      17.902  27.242  14.853  1.00  0.00     0.172 HD
BRANCH  12  14
HETATM   14  C11 UNL     1      18.372  25.243  14.784  1.00  0.00     0.134 C 
BRANCH  14  15
HETATM   15  C12 UNL     1      17.327  24.657  15.743  1.00  0.00     0.050 C 
BRANCH  15  16
HETATM   16  C13 UNL     1      17.373  23.167  15.615  1.00  0.00     0.274 C 
BRANCH  16  17
HETATM   17  N5  UNL     1      16.096  22.547  15.453  1.00  0.00     0.091 N 
HETATM   18  C14 UNL     1      15.860  22.374  14.010  1.00  0.00     0.302 C 
HETATM   19  C15 UNL     1      14.497  21.842  13.714  1.00  0.00     0.302 C 
HETATM   20  N6  UNL     1      13.442  22.608  14.351  1.00  0.00     0.091 N 
HETATM   21  C18 UNL     1      13.736  22.852  15.739  1.00  0.00     0.302 C 
HETATM   22  C19 UNL     1      15.080  23.531  15.858  1.00  0.00     0.302 C 
BRANCH  20  23
HETATM   23  C16 UNL     1      12.213  21.846  14.278  1.00  0.00     0.268 C 
HETATM   24  C17 UNL     1      12.172  20.781  15.363  1.00  0.00     0.037 C 
ENDBRANCH  20  23
ENDBRANCH  16  17
ENDBRANCH  15  16
ENDBRANCH  14  15
ENDBRANCH  12  14
ENDBRANCH   9  12
ENDBRANCH   3   9
BRANCH   1  25
HETATM   25  C7  UNL     1      19.653  24.559  19.934  1.00  0.00     0.258 C 
HETATM   26  N3  UNL     1      19.373  23.244  19.542  1.00  0.00    -0.302 N 
HETATM   27  C6  UNL     1      18.140  22.808  19.381  1.00  0.00     0.168 A 
ATOM     28  H3  UNL     1      20.149  22.603  19.376  1.00  0.00     0.171 HD
HETATM   29  N2  UNL     1      17.003  23.493  19.550  1.00  0.00    -0.279 N 
HETATM   30  S2  UNL     1      17.559  21.276  18.910  1.00  0.00    -0.038 SA
HETATM   31  N1  UNL     1      15.903  22.902  19.343  1.00  0.00    -0.296 N 
ATOM     32  H2  UNL     1      17.022  24.470  19.840  1.00  0.00     0.189 HD
HETATM   33  C5  UNL     1      15.870  21.638  18.968  1.00  0.00     0.069 A 
ATOM     34  H1  UNL     1      15.029  23.412  19.469  1.00  0.00     0.187 HD
HETATM   35  O1  UNL     1      19.154  24.968  21.022  1.00  0.00    -0.267 OA
BRANCH  33  36
HETATM   36  C4  UNL     1      14.695  20.754  18.671  1.00  0.00     0.066 C 
BRANCH  36  37
HETATM   37  C3  UNL     1      15.078  19.474  18.001  1.00  0.00     0.006 C 
BRANCH  37  38
HETATM   38  C2  UNL     1      14.400  18.277  18.619  1.00  0.00    -0.004 C 
HETATM   39  C1  UNL     1      13.763  18.667  19.924  1.00  0.00     0.005 C 
ENDBRANCH  37  38
ENDBRANCH  36  37
ENDBRANCH  33  36
ENDBRANCH   1  25
BRANCH   6  40
HETATM   40  N7  UNL     1      23.641  27.332  19.232  1.00  0.00    -0.326 N 
HETATM   41  C23 UNL     1      24.835  26.600  19.004  1.00  0.00     0.218 C 
HETATM   42  C24 UNL     1      26.159  27.092  19.461  1.00  0.00     0.117 C 
HETATM   43  O4  UNL     1      24.751  25.503  18.397  1.00  0.00    -0.274 OA
ATOM     44  H7  UNL     1      23.677  28.225  19.722  1.00  0.00     0.169 HD
ENDBRANCH   6  40
TORSDOF 12
ENDMDL
MODEL 2
REMARK VINA RESULT: -8.660659026      4.595     11.055
REMARK  12 active torsions:
REMARK  status: ('A' for Active; 'I' for Inactive)
REMARK    1  A    between atoms: C2_2  and  C3_3 
REMARK    2  A    between atoms: C3_3  and  C4_4 
REMARK    3  A    between atoms: C4_4  and  C5_5 
REMARK       I    between atoms: N3_11  and  C7_13 
REMARK    4  A    between atoms: C7_13  and  C8_15 
REMARK    5  A    between atoms: C10_17  and  S1_18 
REMARK    6  A    between atoms: S1_18  and  N4_21 
REMARK    7  A    between atoms: N4_21  and  C11_23 
REMARK    8  A    between atoms: C11_23  and  C12_24 
REMARK    9  A    between atoms: C12_24  and  C13_25 
REMARK   10  A    between atoms: C13_25  and  N5_26 
REMARK   11  A    between atoms: N6_29  and  C16_30 
REMARK   12  A    between atoms: C22_36  and  N7_37 
REMARK       I    between atoms: N7_37  and  C23_39 
ROOT
HETATM    1  C8  UNL     1      11.823  19.926  15.546  1.00  0.00     0.042 A 
HETATM    2  C9  UNL     1      12.181  19.744  16.889  1.00  0.00     0.043 A 
HETATM    3  C10 UNL     1      11.704  18.704  17.686  1.00  0.00     0.088 A 
HETATM    4  C20 UNL     1      10.842  17.828  17.095  1.00  0.00    -0.011 A 
HETATM    5  C21 UNL     1      10.305  16.666  17.781  1.00  0.00     0.052 C 
HETATM    6  C22 UNL     1      10.478  17.999  15.764  1.00  0.00     0.049 A 
HETATM    7  C25 UNL     1      10.964  19.046  14.979  1.00  0.00    -0.019 A 
HETATM    8  C26 UNL     1      10.513  19.149  13.564  1.00  0.00     0.052 C 
ENDROOT
BRANCH   3   9
HETATM    9  S1  UNL     1      12.161  18.591  19.343  1.00  0.00     0.259 S 
HETATM   10  O2  UNL     1      10.944  18.658  20.264  1.00  0.00    -0.201 OA
HETATM   11  O3  UNL     1      12.568  17.120  19.577  1.00  0.00    -0.201 OA
BRANCH   9  12
HETATM   12  N4  UNL     1      13.428  19.483  19.914  1.00  0.00    -0.315 N 
ATOM     13  H4  UNL     1      13.275  19.999  20.781  1.00  0.00     0.172 HD
BRANCH  12  14
HETATM   14  C11 UNL     1      14.672  19.596  19.329  1.00  0.00     0.134 C 
BRANCH  14  15
HETATM   15  C12 UNL     1      15.020  21.020  18.873  1.00  0.00     0.050 C 
BRANCH  15  16
HETATM   16  C13 UNL     1      16.261  20.944  18.041  1.00  0.00     0.274 C 
BRANCH  16  17
HETATM   17  N5  UNL     1      17.259  21.909  18.374  1.00  0.00     0.091 N 
HETATM   18  C14 UNL     1      18.045  21.374  19.497  1.00  0.00     0.302 C 
HETATM   19  C15 UNL     1      19.046  22.354  20.013  1.00  0.00     0.302 C 
HETATM   20  N6  UNL     1      18.462  23.645  20.323  1.00  0.00     0.091 N 
HETATM   21  C18 UNL     1      17.618  24.110  19.255  1.00  0.00     0.302 C 
HETATM   22  C19 UNL     1      16.564  23.070  18.956  1.00  0.00     0.302 C 
BRANCH  20  23
HETATM   23  C16 UNL     1      19.534  24.603  20.500  1.00  0.00     0.268 C 
HETATM   24  C17 UNL     1      20.712  24.268  19.597  1.00  0.00     0.037 C 
ENDBRANCH  20  23
ENDBRANCH  16  17
ENDBRANCH  15  16
ENDBRANCH  14  15
ENDBRANCH  12  14
ENDBRANCH   9  12
ENDBRANCH   3   9
BRANCH   1  25
HETATM   25  C7  UNL     1      12.410  21.051  14.811  1.00  0.00     0.258 C 
HETATM   26  N3  UNL     1      13.764  21.131  14.464  1.00  0.00    -0.302 N 
HETATM   27  C6  UNL     1      14.525  22.138  14.841  1.00  0.00     0.168 A 
ATOM     28  H3  UNL     1      14.174  20.387  13.901  1.00  0.00     0.171 HD
HETATM   29  N2  UNL     1      14.172  23.199  15.576  1.00  0.00    -0.279 N 
HETATM   30  S2  UNL     1      16.177  22.448  14.552  1.00  0.00    -0.038 SA
HETATM   31  N1  UNL     1      15.049  24.071  15.844  1.00  0.00    -0.296 N 
ATOM     32  H2  UNL     1      13.215  23.304  15.913  1.00  0.00     0.189 HD
HETATM   33  C5  UNL     1      16.289  23.944  15.411  1.00  0.00     0.069 A 
ATOM     34  H1  UNL     1      14.793  24.885  16.402  1.00  0.00     0.187 HD
HETATM   35  O1  UNL     1      11.656  22.008  14.470  1.00  0.00    -0.267 OA
BRANCH  33  36
HETATM   36  C4  UNL     1      17.473  24.843  15.609  1.00  0.00     0.066 C 
BRANCH  36  37
HETATM   37  C3  UNL     1      18.771  24.103  15.649  1.00  0.00     0.006 C 
BRANCH  37  38
HETATM   38  C2  UNL     1      19.936  25.004  15.979  1.00  0.00    -0.004 C 
HETATM   39  C1  UNL     1      20.902  25.034  14.827  1.00  0.00     0.005 C 
ENDBRANCH  37  38
ENDBRANCH  36  37
ENDBRANCH  33  36
ENDBRANCH   1  25
BRANCH   6  40
HETATM   40  N7  UNL     1       9.575  17.061  15.181  1.00  0.00    -0.326 N 
HETATM   41  C23 UNL     1      10.072  15.882  14.569  1.00  0.00     0.218 C 
HETATM   42  C24 UNL     1       9.171  14.877  13.950  1.00  0.00     0.117 C 
HETATM   43  O4  UNL     1      11.315  15.698  14.558  1.00  0.00    -0.274 OA
ATOM     44  H7  UNL     1       8.571  17.238  15.205  1.00  0.00     0.169 HD
ENDBRANCH   6  40
TORSDOF 12
ENDMDL
MODEL 3
REMARK VINA RESULT: -8.483274478      4.779      9.627
REMARK  12 active torsions:
REMARK  status: ('A' for Active; 'I' for Inactive)
REMARK    1  A    between atoms: C2_2  and  C3_3 
REMARK    2  A    between atoms: C3_3  and  C4_4 
REMARK    3  A    between atoms: C4_4  and  C5_5 
REMARK       I    between atoms: N3_11  and  C7_13 
REMARK    4  A    between atoms: C7_13  and  C8_15 
REMARK    5  A    between atoms: C10_17  and  S1_18 
REMARK    6  A    between atoms: S1_18  and  N4_21 
REMARK    7  A    between atoms: N4_21  and  C11_23 
REMARK    8  A    between atoms: C11_23  and  C12_24 
REMARK    9  A    between atoms: C12_24  and  C13_25 
REMARK   10  A    between atoms: C13_25  and  N5_26 
REMARK   11  A    between atoms: N6_29  and  C16_30 
REMARK   12  A    between atoms: C22_36  and  N7_37 
REMARK       I    between atoms: N7_37  and  C23_39 
ROOT
HETATM    1  C8  UNL     1      15.891  21.197  16.911  1.00  0.00     0.042 A 
HETATM    2  C9  UNL     1      15.223  21.168  15.680  1.00  0.00     0.043 A 
HETATM    3  C10 UNL     1      13.921  20.695  15.514  1.00  0.00     0.088 A 
HETATM    4  C20 UNL     1      13.288  20.245  16.634  1.00  0.00    -0.011 A 
HETATM    5  C21 UNL     1      11.914  19.774  16.628  1.00  0.00     0.052 C 
HETATM    6  C22 UNL     1      13.941  20.268  17.862  1.00  0.00     0.049 A 
HETATM    7  C25 UNL     1      15.245  20.742  18.011  1.00  0.00    -0.019 A 
HETATM    8  C26 UNL     1      15.864  20.722  19.365  1.00  0.00     0.052 C 
ENDROOT
BRANCH   3   9
HETATM    9  S1  UNL     1      13.199  20.652  13.951  1.00  0.00     0.259 S 
HETATM   10  O2  UNL     1      11.948  21.528  13.888  1.00  0.00    -0.201 OA
HETATM   11  O3  UNL     1      14.123  21.474  13.027  1.00  0.00    -0.201 OA
BRANCH   9  12
HETATM   12  N4  UNL     1      12.990  19.209  13.176  1.00  0.00    -0.315 N 
ATOM     13  H4  UNL     1      13.812  18.613  13.080  1.00  0.00     0.172 HD
BRANCH  12  14
HETATM   14  C11 UNL     1      11.808  18.734  12.645  1.00  0.00     0.134 C 
BRANCH  14  15
HETATM   15  C12 UNL     1      10.849  18.144  13.689  1.00  0.00     0.050 C 
BRANCH  15  16
HETATM   16  C13 UNL     1      10.503  16.754  13.258  1.00  0.00     0.274 C 
BRANCH  16  17
HETATM   17  N5  UNL     1       9.940  15.938  14.286  1.00  0.00     0.091 N 
HETATM   18  C14 UNL     1      10.182  16.607  15.575  1.00  0.00     0.302 C 
HETATM   19  C15 UNL     1       9.740  15.783  16.738  1.00  0.00     0.302 C 
HETATM   20  N6  UNL     1      10.280  14.437  16.713  1.00  0.00     0.091 N 
HETATM   21  C18 UNL     1      10.122  13.832  15.416  1.00  0.00     0.302 C 
HETATM   22  C19 UNL     1      10.755  14.716  14.368  1.00  0.00     0.302 C 
BRANCH  20  23
HETATM   23  C16 UNL     1       9.556  13.633  17.677  1.00  0.00     0.268 C 
HETATM   24  C17 UNL     1       8.296  14.350  18.138  1.00  0.00     0.037 C 
ENDBRANCH  20  23
ENDBRANCH  16  17
ENDBRANCH  15  16
ENDBRANCH  14  15
ENDBRANCH  12  14
ENDBRANCH   9  12
ENDBRANCH   3   9
BRANCH   1  25
HETATM   25  C7  UNL     1      17.254  21.736  16.955  1.00  0.00     0.258 C 
HETATM   26  N3  UNL     1      17.584  22.971  17.525  1.00  0.00    -0.302 N 
HETATM   27  C6  UNL     1      18.186  23.921  16.838  1.00  0.00     0.168 A 
ATOM     28  H3  UNL     1      17.351  23.141  18.503  1.00  0.00     0.171 HD
HETATM   29  N2  UNL     1      18.569  23.886  15.557  1.00  0.00    -0.279 N 
HETATM   30  S2  UNL     1      18.675  25.486  17.306  1.00  0.00    -0.038 SA
HETATM   31  N1  UNL     1      19.135  24.905  15.064  1.00  0.00    -0.296 N 
ATOM     32  H2  UNL     1      18.408  23.054  14.988  1.00  0.00     0.189 HD
HETATM   33  C5  UNL     1      19.346  25.984  15.792  1.00  0.00     0.069 A 
ATOM     34  H1  UNL     1      19.432  24.891  14.088  1.00  0.00     0.187 HD
HETATM   35  O1  UNL     1      18.190  21.051  16.449  1.00  0.00    -0.267 OA
BRANCH  33  36
HETATM   36  C4  UNL     1      19.989  27.287  15.417  1.00  0.00     0.066 C 
BRANCH  36  37
HETATM   37  C3  UNL     1      20.965  27.157  14.293  1.00  0.00     0.006 C 
BRANCH  37  38
HETATM   38  C2  UNL     1      21.641  28.465  13.965  1.00  0.00    -0.004 C 
HETATM   39  C1  UNL     1      22.641  28.807  15.035  1.00  0.00     0.005 C 
ENDBRANCH  37  38
ENDBRANCH  36  37
ENDBRANCH  33  36
ENDBRANCH   1  25
BRANCH   6  40
HETATM   40  N7  UNL     1      13.245  19.788  19.010  1.00  0.00    -0.326 N 
HETATM   41  C23 UNL     1      13.350  18.424  19.386  1.00  0.00     0.218 C 
HETATM   42  C24 UNL     1      12.644  17.878  20.573  1.00  0.00     0.117 C 
HETATM   43  O4  UNL     1      14.065  17.667  18.681  1.00  0.00    -0.274 OA
ATOM     44  H7  UNL     1      12.672  20.426  19.562  1.00  0.00     0.169 HD
ENDBRANCH   6  40
TORSDOF 12
ENDMDL
MODEL 4
REMARK VINA RESULT: -8.435173730      2.050      4.765
REMARK  12 active torsions:
REMARK  status: ('A' for Active; 'I' for Inactive)
REMARK    1  A    between atoms: C2_2  and  C3_3 
REMARK    2  A    between atoms: C3_3  and  C4_4 
REMARK    3  A    between atoms: C4_4  and  C5_5 
REMARK       I    between atoms: N3_11  and  C7_13 
REMARK    4  A    between atoms: C7_13  and  C8_15 
REMARK    5  A    between atoms: C10_17  and  S1_18 
REMARK    6  A    between atoms: S1_18  and  N4_21 
REMARK    7  A    between atoms: N4_21  and  C11_23 
REMARK    8  A    between atoms: C11_23  and  C12_24 
REMARK    9  A    between atoms: C12_24  and  C13_25 
REMARK   10  A    between atoms: C13_25  and  N5_26 
REMARK   11  A    between atoms: N6_29  and  C16_30 
REMARK   12  A    between atoms: C22_36  and  N7_37 
REMARK       I    between atoms: N7_37  and  C23_39 
ROOT
HETATM    1  C8  UNL     1      19.212  26.017  16.423  1.00  0.00     0.042 A 
HETATM    2  C9  UNL     1      19.433  25.185  17.529  1.00  0.00     0.043 A 
HETATM    3  C10 UNL     1      20.487  25.352  18.428  1.00  0.00     0.088 A 
HETATM    4  C20 UNL     1      21.332  26.395  18.190  1.00  0.00    -0.011 A 
HETATM    5  C21 UNL     1      22.442  26.726  19.067  1.00  0.00     0.052 C 
HETATM    6  C22 UNL     1      21.124  27.226  17.095  1.00  0.00     0.049 A 
HETATM    7  C25 UNL     1      20.065  27.046  16.204  1.00  0.00    -0.019 A 
HETATM    8  C26 UNL     1      19.926  27.985  15.057  1.00  0.00     0.052 C 
ENDROOT
BRANCH   3   9
HETATM    9  S1  UNL     1      20.708  24.247  19.731  1.00  0.00     0.259 S 
HETATM   10  O2  UNL     1      22.185  24.106  20.099  1.00  0.00    -0.201 OA
HETATM   11  O3  UNL     1      20.205  24.972  20.998  1.00  0.00    -0.201 OA
BRANCH   9  12
HETATM   12  N4  UNL     1      19.923  22.795  19.726  1.00  0.00    -0.315 N 
ATOM     13  H4  UNL     1      20.214  22.115  19.024  1.00  0.00     0.172 HD
BRANCH  12  14
HETATM   14  C11 UNL     1      18.911  22.415  20.584  1.00  0.00     0.134 C 
BRANCH  14  15
HETATM   15  C12 UNL     1      17.547  23.033  20.251  1.00  0.00     0.050 C 
BRANCH  15  16
HETATM   16  C13 UNL     1      17.068  22.422  18.972  1.00  0.00     0.274 C 
BRANCH  16  17
HETATM   17  N5  UNL     1      16.272  21.248  19.137  1.00  0.00     0.091 N 
HETATM   18  C14 UNL     1      16.423  20.427  17.925  1.00  0.00     0.302 C 
HETATM   19  C15 UNL     1      15.538  19.226  17.934  1.00  0.00     0.302 C 
HETATM   20  N6  UNL     1      14.150  19.550  18.203  1.00  0.00     0.091 N 
HETATM   21  C18 UNL     1      14.026  20.433  19.333  1.00  0.00     0.302 C 
HETATM   22  C19 UNL     1      14.862  21.669  19.101  1.00  0.00     0.302 C 
BRANCH  20  23
HETATM   23  C16 UNL     1      13.442  18.324  18.508  1.00  0.00     0.268 C 
HETATM   24  C17 UNL     1      13.328  18.127  20.012  1.00  0.00     0.037 C 
ENDBRANCH  20  23
ENDBRANCH  16  17
ENDBRANCH  15  16
ENDBRANCH  14  15
ENDBRANCH  12  14
ENDBRANCH   9  12
ENDBRANCH   3   9
BRANCH   1  25
HETATM   25  C7  UNL     1      18.055  25.746  15.564  1.00  0.00     0.258 C 
HETATM   26  N3  UNL     1      16.817  25.303  16.044  1.00  0.00    -0.302 N 
HETATM   27  C6  UNL     1      16.264  24.182  15.626  1.00  0.00     0.168 A 
ATOM     28  H3  UNL     1      16.327  25.866  16.739  1.00  0.00     0.171 HD
HETATM   29  N2  UNL     1      16.748  23.318  14.727  1.00  0.00    -0.279 N 
HETATM   30  S2  UNL     1      14.790  23.444  16.062  1.00  0.00    -0.038 SA
HETATM   31  N1  UNL     1      16.071  22.284  14.453  1.00  0.00    -0.296 N 
ATOM     32  H2  UNL     1      17.645  23.488  14.272  1.00  0.00     0.189 HD
HETATM   33  C5  UNL     1      14.911  22.057  15.038  1.00  0.00     0.069 A 
ATOM     34  H1  UNL     1      16.429  21.617  13.770  1.00  0.00     0.187 HD
HETATM   35  O1  UNL     1      18.177  25.918  14.317  1.00  0.00    -0.267 OA
BRANCH  33  36
HETATM   36  C4  UNL     1      13.956  20.912  14.867  1.00  0.00     0.066 C 
BRANCH  36  37
HETATM   37  C3  UNL     1      12.945  21.147  13.791  1.00  0.00     0.006 C 
BRANCH  37  38
HETATM   38  C2  UNL     1      11.747  21.917  14.287  1.00  0.00    -0.004 C 
HETATM   39  C1  UNL     1      10.539  21.022  14.313  1.00  0.00     0.005 C 
ENDBRANCH  37  38
ENDBRANCH  36  37
ENDBRANCH  33  36
ENDBRANCH   1  25
BRANCH   6  40
HETATM   40  N7  UNL     1      22.030  28.307  16.881  1.00  0.00    -0.326 N 
HETATM   41  C23 UNL     1      23.174  28.122  16.062  1.00  0.00     0.218 C 
HETATM   42  C24 UNL     1      24.146  29.217  15.810  1.00  0.00     0.117 C 
HETATM   43  O4  UNL     1      23.357  26.993  15.543  1.00  0.00    -0.274 OA
ATOM     44  H7  UNL     1      21.856  29.212  17.316  1.00  0.00     0.169 HD
ENDBRANCH   6  40
TORSDOF 12
ENDMDL
MODEL 5
REMARK VINA RESULT: -8.429952605      4.008      9.531
REMARK  12 active torsions:
REMARK  status: ('A' for Active; 'I' for Inactive)
REMARK    1  A    between atoms: C2_2  and  C3_3 
REMARK    2  A    between atoms: C3_3  and  C4_4 
REMARK    3  A    between atoms: C4_4  and  C5_5 
REMARK       I    between atoms: N3_11  and  C7_13 
REMARK    4  A    between atoms: C7_13  and  C8_15 
REMARK    5  A    between atoms: C10_17  and  S1_18 
REMARK    6  A    between atoms: S1_18  and  N4_21 
REMARK    7  A    between atoms: N4_21  and  C11_23 
REMARK    8  A    between atoms: C11_23  and  C12_24 
REMARK    9  A    between atoms: C12_24  and  C13_25 
REMARK   10  A    between atoms: C13_25  and  N5_26 
REMARK   11  A    between atoms: N6_29  and  C16_30 
REMARK   12  A    between atoms: C22_36  and  N7_37 
REMARK       I    between atoms: N7_37  and  C23_39 
ROOT
HETATM    1  C8  UNL     1      13.346  20.311  18.095  1.00  0.00     0.042 A 
HETATM    2  C9  UNL     1      13.507  20.872  16.821  1.00  0.00     0.043 A 
HETATM    3  C10 UNL     1      12.682  20.581  15.735  1.00  0.00     0.088 A 
HETATM    4  C20 UNL     1      11.667  19.699  15.959  1.00  0.00    -0.011 A 
HETATM    5  C21 UNL     1      10.695  19.340  14.940  1.00  0.00     0.052 C 
HETATM    6  C22 UNL     1      11.498  19.135  17.218  1.00  0.00     0.049 A 
HETATM    7  C25 UNL     1      12.334  19.434  18.295  1.00  0.00    -0.019 A 
HETATM    8  C26 UNL     1      12.076  18.776  19.606  1.00  0.00     0.052 C 
ENDROOT
BRANCH   3   9
HETATM    9  S1  UNL     1      12.988  21.282  14.192  1.00  0.00     0.259 S 
HETATM   10  O2  UNL     1      12.978  20.226  13.087  1.00  0.00    -0.201 OA
HETATM   11  O3  UNL     1      11.707  22.054  13.808  1.00  0.00    -0.201 OA
BRANCH   9  12
HETATM   12  N4  UNL     1      14.216  22.370  14.006  1.00  0.00    -0.315 N 
ATOM     13  H4  UNL     1      13.954  23.351  13.915  1.00  0.00     0.172 HD
BRANCH  12  14
HETATM   14  C11 UNL     1      15.564  22.075  13.961  1.00  0.00     0.134 C 
BRANCH  14  15
HETATM   15  C12 UNL     1      16.288  22.263  15.302  1.00  0.00     0.050 C 
BRANCH  15  16
HETATM   16  C13 UNL     1      16.379  23.732  15.570  1.00  0.00     0.274 C 
BRANCH  16  17
HETATM   17  N5  UNL     1      17.610  24.333  15.167  1.00  0.00     0.091 N 
HETATM   18  C14 UNL     1      18.702  23.627  15.858  1.00  0.00     0.302 C 
HETATM   19  C15 UNL     1      20.035  24.250  15.606  1.00  0.00     0.302 C 
HETATM   20  N6  UNL     1      20.051  25.675  15.874  1.00  0.00     0.091 N 
HETATM   21  C18 UNL     1      18.923  26.336  15.272  1.00  0.00     0.302 C 
HETATM   22  C19 UNL     1      17.645  25.685  15.747  1.00  0.00     0.302 C 
BRANCH  20  23
HETATM   23  C16 UNL     1      21.259  26.236  15.304  1.00  0.00     0.268 C 
HETATM   24  C17 UNL     1      20.925  27.343  14.316  1.00  0.00     0.037 C 
ENDBRANCH  20  23
ENDBRANCH  16  17
ENDBRANCH  15  16
ENDBRANCH  14  15
ENDBRANCH  12  14
ENDBRANCH   9  12
ENDBRANCH   3   9
BRANCH   1  25
HETATM   25  C7  UNL     1      14.272  20.713  19.159  1.00  0.00     0.258 C 
HETATM   26  N3  UNL     1      14.864  21.979  19.237  1.00  0.00    -0.302 N 
HETATM   27  C6  UNL     1      16.172  22.141  19.262  1.00  0.00     0.168 A 
ATOM     28  H3  UNL     1      14.264  22.803  19.274  1.00  0.00     0.171 HD
HETATM   29  N2  UNL     1      17.113  21.191  19.223  1.00  0.00    -0.279 N 
HETATM   30  S2  UNL     1      17.112  23.561  19.346  1.00  0.00    -0.038 SA
HETATM   31  N1  UNL     1      18.329  21.540  19.254  1.00  0.00    -0.296 N 
ATOM     32  H2  UNL     1      16.856  20.205  19.168  1.00  0.00     0.189 HD
HETATM   33  C5  UNL     1      18.670  22.812  19.323  1.00  0.00     0.069 A 
ATOM     34  H1  UNL     1      19.057  20.826  19.224  1.00  0.00     0.187 HD
HETATM   35  O1  UNL     1      14.557  19.873  20.060  1.00  0.00    -0.267 OA
BRANCH  33  36
HETATM   36  C4  UNL     1      20.031  23.442  19.369  1.00  0.00     0.066 C 
BRANCH  36  37
HETATM   37  C3  UNL     1      19.984  24.930  19.503  1.00  0.00     0.006 C 
BRANCH  37  38
HETATM   38  C2  UNL     1      20.692  25.417  20.743  1.00  0.00    -0.004 C 
HETATM   39  C1  UNL     1      21.957  24.631  20.952  1.00  0.00     0.005 C 
ENDBRANCH  37  38
ENDBRANCH  36  37
ENDBRANCH  33  36
ENDBRANCH   1  25
BRANCH   6  40
HETATM   40  N7  UNL     1      10.425  18.216  17.412  1.00  0.00    -0.326 N 
HETATM   41  C23 UNL     1      10.650  16.821  17.278  1.00  0.00     0.218 C 
HETATM   42  C24 UNL     1       9.565  15.826  17.471  1.00  0.00     0.117 C 
HETATM   43  O4  UNL     1      11.810  16.433  16.988  1.00  0.00    -0.274 OA
ATOM     44  H7  UNL     1       9.494  18.561  17.647  1.00  0.00     0.169 HD
ENDBRANCH   6  40
TORSDOF 12
ENDMDL
