MODEL 1
REMARK VINA RESULT: -8.790419755      0.000      0.000
REMARK  19 active torsions:
REMARK  status: ('A' for Active; 'I' for Inactive)
REMARK    1  A    between atoms: C2_2  and  C3_3 
REMARK    2  A    between atoms: C3_3  and  C4_4 
REMARK    3  A    between atoms: C4_4  and  N1_5 
REMARK    4  A    between atoms: C4_4  and  C11_14 
REMARK    5  A    between atoms: N1_5  and  C5_6 
REMARK    6  A    between atoms: C5_6  and  O1_7 
REMARK    7  A    between atoms: C5_6  and  C6_9 
REMARK    8  A    between atoms: C6_9  and  C7_10 
REMARK    9  A    between atoms: C11_14  and  C12_16 
REMARK   10  A    between atoms: C12_16  and  O3_17 
REMARK   11  A    between atoms: C12_16  and  N2_19 
REMARK   12  A    between atoms: N2_19  and  C13_21 
REMARK   13  A    between atoms: C14_26  and  C15_27 
REMARK   14  A    between atoms: C15_27  and  C16_28 
REMARK   15  A    between atoms: C16_28  and  C17_29 
REMARK   16  A    between atoms: C17_29  and  C18_30 
REMARK   17  A    between atoms: C18_30  and  C19_31 
REMARK   18  A    between atoms: C20_36  and  N7_37 
REMARK       I    between atoms: N7_37  and  C21_39 
REMARK   19  A    between atoms: C21_39  and  C22_41 
ROOT
HETATM    1  C13 UNL     1      16.275  23.336  16.349  1.00  0.00     0.167 A 
HETATM    2  N3  UNL     1      17.150  22.435  15.901  1.00  0.00    -0.279 N 
ATOM      3  H3  UNL     1      17.183  22.189  14.912  1.00  0.00     0.189 HD
HETATM    4  N4  UNL     1      17.941  21.889  16.731  1.00  0.00    -0.296 N 
ATOM      5  H4  UNL     1      18.620  21.198  16.408  1.00  0.00     0.187 HD
HETATM    6  C14 UNL     1      17.886  22.216  18.023  1.00  0.00     0.069 A 
HETATM    7  S1  UNL     1      16.639  23.371  18.027  1.00  0.00    -0.038 SA
ENDROOT
BRANCH   6   8
HETATM    8  C15 UNL     1      18.716  21.614  19.134  1.00  0.00     0.066 C 
BRANCH   8   9
HETATM    9  C16 UNL     1      18.223  22.131  20.444  1.00  0.00     0.007 C 
BRANCH   9  10
HETATM   10  C17 UNL     1      19.201  22.908  21.222  1.00  0.00     0.006 C 
BRANCH  10  11
HETATM   11  C18 UNL     1      19.293  24.372  21.126  1.00  0.00     0.061 C 
BRANCH  11  12
HETATM   12  C19 UNL     1      20.132  24.919  20.055  1.00  0.00     0.049 A 
HETATM   13  N5  UNL     1      19.406  25.412  18.961  1.00  0.00    -0.289 N 
HETATM   14  N6  UNL     1      20.034  25.868  17.935  1.00  0.00    -0.132 N 
ATOM     15  H5  UNL     1      18.386  25.409  18.978  1.00  0.00     0.187 HD
HETATM   16  C20 UNL     1      21.395  25.901  17.855  1.00  0.00     0.699 A 
ATOM     17  H6  UNL     1      19.491  26.221  17.147  1.00  0.00     0.205 HD
HETATM   18  N8  UNL     1      22.090  25.431  18.893  1.00  0.00    -0.192 N 
HETATM   19  C26 UNL     1      21.468  24.933  20.012  1.00  0.00     0.046 A 
ATOM     20  H8  UNL     1      23.109  25.442  18.854  1.00  0.00     0.184 HD
HETATM   21  C27 UNL     1      22.337  24.527  21.116  1.00  0.00     0.071 C 
BRANCH  16  22
HETATM   22  N7  UNL     1      21.981  26.398  16.796  1.00  0.00    -0.158 N 
HETATM   23  C21 UNL     1      21.361  27.457  16.085  1.00  0.00     0.243 C 
HETATM   24  O4  UNL     1      21.213  28.543  16.732  1.00  0.00    -0.272 OA
ATOM     25  H7  UNL     1      22.877  26.026  16.484  1.00  0.00     0.187 HD
BRANCH  23  26
HETATM   26  C22 UNL     1      20.903  27.348  14.693  1.00  0.00     0.031 C 
HETATM   27  C23 UNL     1      21.088  25.906  14.245  1.00  0.00     0.025 C 
HETATM   28  C24 UNL     1      19.431  27.680  14.551  1.00  0.00     0.025 C 
HETATM   29  C25 UNL     1      21.696  28.254  13.748  1.00  0.00     0.025 C 
ENDBRANCH  23  26
ENDBRANCH  16  22
ENDBRANCH  11  12
ENDBRANCH  10  11
ENDBRANCH   9  10
ENDBRANCH   8   9
ENDBRANCH   6   8
BRANCH   1  30
HETATM   30  N2  UNL     1      15.289  23.902  15.710  1.00  0.00    -0.313 N 
ATOM     31  H2  UNL     1      15.382  24.907  15.563  1.00  0.00     0.170 HD
BRANCH  30  32
HETATM   32  C12 UNL     1      14.136  23.334  15.204  1.00  0.00     0.192 C 
BRANCH  32  33
HETATM   33  C11 UNL     1      13.732  22.391  14.261  1.00  0.00     0.235 C 
HETATM   34  O2  UNL     1      13.402  22.637  13.050  1.00  0.00    -0.285 OA
BRANCH  33  35
HETATM   35  C4  UNL     1      13.625  20.887  14.658  1.00  0.00     0.243 C 
BRANCH  35  36
HETATM   36  C3  UNL     1      12.308  20.375  14.167  1.00  0.00     0.047 C 
BRANCH  36  37
HETATM   37  C2  UNL     1      11.186  20.754  15.126  1.00  0.00    -0.001 C 
HETATM   38  C1  UNL     1      10.130  21.486  14.320  1.00  0.00     0.005 C 
ENDBRANCH  36  37
ENDBRANCH  35  36
BRANCH  35  39
HETATM   39  N1  UNL     1      13.790  20.859  16.094  1.00  0.00    -0.415 NA
BRANCH  39  40
HETATM   40  C5  UNL     1      13.926  20.831  17.372  1.00  0.00     0.185 C 
BRANCH  40  41
HETATM   41  O1  UNL     1      13.403  21.672  18.246  1.00  0.00    -0.339 OA
ATOM     42  H1  UNL     1      13.057  21.462  19.105  1.00  0.00     0.220 HD
ENDBRANCH  40  41
BRANCH  40  43
HETATM   43  C6  UNL     1      14.752  19.795  18.119  1.00  0.00     0.108 C 
BRANCH  43  44
HETATM   44  C7  UNL     1      13.928  18.631  18.567  1.00  0.00    -0.043 C 
HETATM   45  C8  UNL     1      12.571  18.471  17.976  1.00  0.00     0.015 C 
HETATM   46  C9  UNL     1      14.727  17.330  18.329  1.00  0.00     0.015 C 
HETATM   47  C10 UNL     1      13.734  18.733  20.071  1.00  0.00     0.015 C 
ENDBRANCH  43  44
ENDBRANCH  40  43
ENDBRANCH  39  40
ENDBRANCH  35  39
ENDBRANCH  33  35
ENDBRANCH  32  33
BRANCH  32  48
HETATM   48  O3  UNL     1      13.074  23.903  15.844  1.00  0.00    -0.343 OA
ATOM     49  H3  UNL     1      12.257  23.472  15.625  1.00  0.00     0.219 HD
ENDBRANCH  32  48
ENDBRANCH  30  32
ENDBRANCH   1  30
TORSDOF 19
ENDMDL
MODEL 2
REMARK VINA RESULT: -8.655671428      3.359     10.102
REMARK  19 active torsions:
REMARK  status: ('A' for Active; 'I' for Inactive)
REMARK    1  A    between atoms: C2_2  and  C3_3 
REMARK    2  A    between atoms: C3_3  and  C4_4 
REMARK    3  A    between atoms: C4_4  and  N1_5 
REMARK    4  A    between atoms: C4_4  and  C11_14 
REMARK    5  A    between atoms: N1_5  and  C5_6 
REMARK    6  A    between atoms: C5_6  and  O1_7 
REMARK    7  A    between atoms: C5_6  and  C6_9 
REMARK    8  A    between atoms: C6_9  and  C7_10 
REMARK    9  A    between atoms: C11_14  and  C12_16 
REMARK   10  A    between atoms: C12_16  and  O3_17 
REMARK   11  A    between atoms: C12_16  and  N2_19 
REMARK   12  A    between atoms: N2_19  and  C13_21 
REMARK   13  A    between atoms: C14_26  and  C15_27 
REMARK   14  A    between atoms: C15_27  and  C16_28 
REMARK   15  A    between atoms: C16_28  and  C17_29 
REMARK   16  A    between atoms: C17_29  and  C18_30 
REMARK   17  A    between atoms: C18_30  and  C19_31 
REMARK   18  A    between atoms: C20_36  and  N7_37 
REMARK       I    between atoms: N7_37  and  C21_39 
REMARK   19  A    between atoms: C21_39  and  C22_41 
ROOT
HETATM    1  C13 UNL     1      12.682  20.565  14.898  1.00  0.00     0.167 A 
HETATM    2  N3  UNL     1      13.516  19.975  14.042  1.00  0.00    -0.279 N 
ATOM      3  H3  UNL     1      14.521  20.143  14.095  1.00  0.00     0.189 HD
HETATM    4  N4  UNL     1      13.037  19.198  13.159  1.00  0.00    -0.296 N 
ATOM      5  H4  UNL     1      13.658  18.735  12.496  1.00  0.00     0.187 HD
HETATM    6  C14 UNL     1      11.721  18.988  13.097  1.00  0.00     0.069 A 
HETATM    7  S1  UNL     1      11.163  19.952  14.381  1.00  0.00    -0.038 SA
ENDROOT
BRANCH   6   8
HETATM    8  C15 UNL     1      10.998  18.144  12.074  1.00  0.00     0.066 C 
BRANCH   8   9
HETATM    9  C16 UNL     1      11.216  16.701  12.389  1.00  0.00     0.007 C 
BRANCH   9  10
HETATM   10  C17 UNL     1      10.015  15.958  12.800  1.00  0.00     0.006 C 
BRANCH  10  11
HETATM   11  C18 UNL     1       9.988  15.115  14.004  1.00  0.00     0.061 C 
BRANCH  11  12
HETATM   12  C19 UNL     1      10.075  15.797  15.298  1.00  0.00     0.049 A 
HETATM   13  N5  UNL     1      11.295  16.455  15.512  1.00  0.00    -0.289 N 
HETATM   14  N6  UNL     1      11.511  17.045  16.635  1.00  0.00    -0.132 N 
ATOM     15  H5  UNL     1      12.008  16.466  14.782  1.00  0.00     0.187 HD
HETATM   16  C20 UNL     1      10.597  17.066  17.648  1.00  0.00     0.699 A 
ATOM     17  H6  UNL     1      12.404  17.517  16.775  1.00  0.00     0.205 HD
HETATM   18  N8  UNL     1       9.436  16.440  17.449  1.00  0.00    -0.192 N 
HETATM   19  C26 UNL     1       9.155  15.795  16.268  1.00  0.00     0.046 A 
ATOM     20  H8  UNL     1       8.738  16.440  18.193  1.00  0.00     0.184 HD
HETATM   21  C27 UNL     1       7.817  15.220  16.140  1.00  0.00     0.071 C 
BRANCH  16  22
HETATM   22  N7  UNL     1      10.861  17.702  18.760  1.00  0.00    -0.158 N 
HETATM   23  C21 UNL     1      11.713  18.835  18.734  1.00  0.00     0.243 C 
HETATM   24  O4  UNL     1      11.290  19.828  18.059  1.00  0.00    -0.272 OA
ATOM     25  H7  UNL     1      10.457  17.384  19.640  1.00  0.00     0.187 HD
BRANCH  23  26
HETATM   26  C22 UNL     1      13.009  18.899  19.426  1.00  0.00     0.031 C 
HETATM   27  C23 UNL     1      13.651  20.240  19.105  1.00  0.00     0.025 C 
HETATM   28  C24 UNL     1      12.853  18.821  20.931  1.00  0.00     0.025 C 
HETATM   29  C25 UNL     1      13.961  17.787  18.981  1.00  0.00     0.025 C 
ENDBRANCH  23  26
ENDBRANCH  16  22
ENDBRANCH  11  12
ENDBRANCH  10  11
ENDBRANCH   9  10
ENDBRANCH   8   9
ENDBRANCH   6   8
BRANCH   1  30
HETATM   30  N2  UNL     1      12.937  21.497  15.773  1.00  0.00    -0.313 N 
ATOM     31  H2  UNL     1      12.282  21.556  16.553  1.00  0.00     0.170 HD
BRANCH  30  32
HETATM   32  C12 UNL     1      13.968  22.415  15.796  1.00  0.00     0.192 C 
BRANCH  32  33
HETATM   33  C11 UNL     1      15.337  22.494  15.548  1.00  0.00     0.235 C 
HETATM   34  O2  UNL     1      16.082  21.535  15.147  1.00  0.00    -0.285 OA
BRANCH  33  35
HETATM   35  C4  UNL     1      16.098  23.833  15.789  1.00  0.00     0.243 C 
BRANCH  35  36
HETATM   36  C3  UNL     1      17.389  23.770  15.037  1.00  0.00     0.047 C 
BRANCH  36  37
HETATM   37  C2  UNL     1      18.256  24.985  15.343  1.00  0.00    -0.001 C 
HETATM   38  C1  UNL     1      19.691  24.505  15.436  1.00  0.00     0.005 C 
ENDBRANCH  36  37
ENDBRANCH  35  36
BRANCH  35  39
HETATM   39  N1  UNL     1      16.235  23.942  17.224  1.00  0.00    -0.415 NA
BRANCH  39  40
HETATM   40  C5  UNL     1      16.362  24.049  18.498  1.00  0.00     0.185 C 
BRANCH  40  41
HETATM   41  O1  UNL     1      16.412  25.166  19.201  1.00  0.00    -0.339 OA
ATOM     42  H1  UNL     1      16.781  25.279  20.070  1.00  0.00     0.220 HD
ENDBRANCH  40  41
BRANCH  40  43
HETATM   43  C6  UNL     1      16.493  22.865  19.445  1.00  0.00     0.108 C 
BRANCH  43  44
HETATM   44  C7  UNL     1      17.753  22.094  19.213  1.00  0.00    -0.043 C 
HETATM   45  C8  UNL     1      18.885  22.795  18.549  1.00  0.00     0.015 C 
HETATM   46  C9  UNL     1      18.246  21.526  20.563  1.00  0.00     0.015 C 
HETATM   47  C10 UNL     1      17.424  20.889  18.347  1.00  0.00     0.015 C 
ENDBRANCH  43  44
ENDBRANCH  40  43
ENDBRANCH  39  40
ENDBRANCH  35  39
ENDBRANCH  33  35
ENDBRANCH  32  33
BRANCH  32  48
HETATM   48  O3  UNL     1      13.453  23.612  16.200  1.00  0.00    -0.343 OA
ATOM     49  H3  UNL     1      12.925  24.018  15.523  1.00  0.00     0.219 HD
ENDBRANCH  32  48
ENDBRANCH  30  32
ENDBRANCH   1  30
TORSDOF 19
ENDMDL
MODEL 3
REMARK VINA RESULT: -8.653906972      0.990      1.512
REMARK  19 active torsions:
REMARK  status: ('A' for Active; 'I' for Inactive)
REMARK    1  A    between atoms: C2_2  and  C3_3 
REMARK    2  A    between atoms: C3_3  and  C4_4 
REMARK    3  A    between atoms: C4_4  and  N1_5 
REMARK    4  A    between atoms: C4_4  and  C11_14 
REMARK    5  A    between atoms: N1_5  and  C5_6 
REMARK    6  A    between atoms: C5_6  and  O1_7 
REMARK    7  A    between atoms: C5_6  and  C6_9 
REMARK    8  A    between atoms: C6_9  and  C7_10 
REMARK    9  A    between atoms: C11_14  and  C12_16 
REMARK   10  A    between atoms: C12_16  and  O3_17 
REMARK   11  A    between atoms: C12_16  and  N2_19 
REMARK   12  A    between atoms: N2_19  and  C13_21 
REMARK   13  A    between atoms: C14_26  and  C15_27 
REMARK   14  A    between atoms: C15_27  and  C16_28 
REMARK   15  A    between atoms: C16_28  and  C17_29 
REMARK   16  A    between atoms: C17_29  and  C18_30 
REMARK   17  A    between atoms: C18_30  and  C19_31 
REMARK   18  A    between atoms: C20_36  and  N7_37 
REMARK       I    between atoms: N7_37  and  C21_39 
REMARK   19  A    between atoms: C21_39  and  C22_41 
ROOT
HETATM    1  C13 UNL     1      16.237  22.189  16.317  1.00  0.00     0.167 A 
HETATM    2  N3  UNL     1      16.200  20.986  16.890  1.00  0.00    -0.279 N 
ATOM      3  H3  UNL     1      15.534  20.280  16.575  1.00  0.00     0.189 HD
HETATM    4  N4  UNL     1      17.010  20.736  17.836  1.00  0.00    -0.296 N 
ATOM      5  H4  UNL     1      16.999  19.821  18.286  1.00  0.00     0.187 HD
HETATM    6  C14 UNL     1      17.873  21.669  18.241  1.00  0.00     0.069 A 
HETATM    7  S1  UNL     1      17.496  22.956  17.197  1.00  0.00    -0.038 SA
ENDROOT
BRANCH   6   8
HETATM    8  C15 UNL     1      18.853  21.544  19.385  1.00  0.00     0.066 C 
BRANCH   8   9
HETATM    9  C16 UNL     1      18.217  22.064  20.630  1.00  0.00     0.007 C 
BRANCH   9  10
HETATM   10  C17 UNL     1      18.024  23.522  20.676  1.00  0.00     0.006 C 
BRANCH  10  11
HETATM   11  C18 UNL     1      19.093  24.443  21.088  1.00  0.00     0.061 C 
BRANCH  11  12
HETATM   12  C19 UNL     1      19.977  24.952  20.035  1.00  0.00     0.049 A 
HETATM   13  N5  UNL     1      19.298  25.562  18.969  1.00  0.00    -0.289 N 
HETATM   14  N6  UNL     1      19.964  25.999  17.959  1.00  0.00    -0.132 N 
ATOM     15  H5  UNL     1      18.283  25.658  18.995  1.00  0.00     0.187 HD
HETATM   16  C20 UNL     1      21.321  25.902  17.868  1.00  0.00     0.699 A 
ATOM     17  H6  UNL     1      19.455  26.438  17.191  1.00  0.00     0.205 HD
HETATM   18  N8  UNL     1      21.971  25.321  18.879  1.00  0.00    -0.192 N 
HETATM   19  C26 UNL     1      21.307  24.837  19.981  1.00  0.00     0.046 A 
ATOM     20  H8  UNL     1      22.986  25.234  18.832  1.00  0.00     0.184 HD
HETATM   21  C27 UNL     1      22.137  24.299  21.058  1.00  0.00     0.071 C 
BRANCH  16  22
HETATM   22  N7  UNL     1      21.948  26.386  16.827  1.00  0.00    -0.158 N 
HETATM   23  C21 UNL     1      21.373  27.457  16.098  1.00  0.00     0.243 C 
HETATM   24  O4  UNL     1      21.228  28.546  16.740  1.00  0.00    -0.272 OA
ATOM     25  H7  UNL     1      22.846  25.995  16.542  1.00  0.00     0.187 HD
BRANCH  23  26
HETATM   26  C22 UNL     1      20.954  27.357  14.693  1.00  0.00     0.031 C 
HETATM   27  C23 UNL     1      19.509  27.819  14.595  1.00  0.00     0.025 C 
HETATM   28  C24 UNL     1      21.778  28.253  13.789  1.00  0.00     0.025 C 
HETATM   29  C25 UNL     1      21.041  25.925  14.161  1.00  0.00     0.025 C 
ENDBRANCH  23  26
ENDBRANCH  16  22
ENDBRANCH  11  12
ENDBRANCH  10  11
ENDBRANCH   9  10
ENDBRANCH   8   9
ENDBRANCH   6   8
BRANCH   1  30
HETATM   30  N2  UNL     1      15.413  22.702  15.444  1.00  0.00    -0.313 N 
ATOM     31  H2  UNL     1      15.851  23.185  14.661  1.00  0.00     0.170 HD
BRANCH  30  32
HETATM   32  C12 UNL     1      14.033  22.684  15.431  1.00  0.00     0.192 C 
BRANCH  32  33
HETATM   33  C11 UNL     1      12.977  22.015  14.815  1.00  0.00     0.235 C 
HETATM   34  O2  UNL     1      12.180  22.512  13.947  1.00  0.00    -0.285 OA
BRANCH  33  35
HETATM   35  C4  UNL     1      12.665  20.534  15.192  1.00  0.00     0.243 C 
BRANCH  35  36
HETATM   36  C3  UNL     1      11.285  20.218  14.711  1.00  0.00     0.047 C 
BRANCH  36  37
HETATM   37  C2  UNL     1      11.249  18.864  14.013  1.00  0.00    -0.001 C 
HETATM   38  C1  UNL     1      12.169  18.950  12.810  1.00  0.00     0.005 C 
ENDBRANCH  36  37
ENDBRANCH  35  36
BRANCH  35  39
HETATM   39  N1  UNL     1      12.841  20.460  16.625  1.00  0.00    -0.415 NA
BRANCH  39  40
HETATM   40  C5  UNL     1      13.000  20.404  17.899  1.00  0.00     0.185 C 
BRANCH  40  41
HETATM   41  O1  UNL     1      13.845  21.112  18.626  1.00  0.00    -0.339 OA
ATOM     42  H1  UNL     1      13.704  21.445  19.505  1.00  0.00     0.220 HD
ENDBRANCH  40  41
BRANCH  40  43
HETATM   43  C6  UNL     1      12.224  19.471  18.816  1.00  0.00     0.108 C 
BRANCH  43  44
HETATM   44  C7  UNL     1      12.844  18.113  18.895  1.00  0.00    -0.043 C 
HETATM   45  C8  UNL     1      14.283  17.982  18.534  1.00  0.00     0.015 C 
HETATM   46  C9  UNL     1      12.639  17.551  20.320  1.00  0.00     0.015 C 
HETATM   47  C10 UNL     1      12.081  17.184  17.965  1.00  0.00     0.015 C 
ENDBRANCH  43  44
ENDBRANCH  40  43
ENDBRANCH  39  40
ENDBRANCH  35  39
ENDBRANCH  33  35
ENDBRANCH  32  33
BRANCH  32  48
HETATM   48  O3  UNL     1      13.593  23.639  16.300  1.00  0.00    -0.343 OA
ATOM     49  H3  UNL     1      12.996  24.249  15.883  1.00  0.00     0.219 HD
ENDBRANCH  32  48
ENDBRANCH  30  32
ENDBRANCH   1  30
TORSDOF 19
ENDMDL
MODEL 4
REMARK VINA RESULT: -8.642325836      2.396      8.919
REMARK  19 active torsions:
REMARK  status: ('A' for Active; 'I' for Inactive)
REMARK    1  A    between atoms: C2_2  and  C3_3 
REMARK    2  A    between atoms: C3_3  and  C4_4 
REMARK    3  A    between atoms: C4_4  and  N1_5 
REMARK    4  A    between atoms: C4_4  and  C11_14 
REMARK    5  A    between atoms: N1_5  and  C5_6 
REMARK    6  A    between atoms: C5_6  and  O1_7 
REMARK    7  A    between atoms: C5_6  and  C6_9 
REMARK    8  A    between atoms: C6_9  and  C7_10 
REMARK    9  A    between atoms: C11_14  and  C12_16 
REMARK   10  A    between atoms: C12_16  and  O3_17 
REMARK   11  A    between atoms: C12_16  and  N2_19 
REMARK   12  A    between atoms: N2_19  and  C13_21 
REMARK   13  A    between atoms: C14_26  and  C15_27 
REMARK   14  A    between atoms: C15_27  and  C16_28 
REMARK   15  A    between atoms: C16_28  and  C17_29 
REMARK   16  A    between atoms: C17_29  and  C18_30 
REMARK   17  A    between atoms: C18_30  and  C19_31 
REMARK   18  A    between atoms: C20_36  and  N7_37 
REMARK       I    between atoms: N7_37  and  C21_39 
REMARK   19  A    between atoms: C21_39  and  C22_41 
ROOT
HETATM    1  C13 UNL     1      15.851  22.430  18.896  1.00  0.00     0.167 A 
HETATM    2  N3  UNL     1      14.548  22.328  19.154  1.00  0.00    -0.279 N 
ATOM      3  H3  UNL     1      13.976  23.163  19.283  1.00  0.00     0.189 HD
HETATM    4  N4  UNL     1      14.031  21.171  19.238  1.00  0.00    -0.296 N 
ATOM      5  H4  UNL     1      13.035  21.071  19.432  1.00  0.00     0.187 HD
HETATM    6  C14 UNL     1      14.790  20.086  19.072  1.00  0.00     0.069 A 
HETATM    7  S1  UNL     1      16.313  20.781  18.774  1.00  0.00    -0.038 SA
ENDROOT
BRANCH   6   8
HETATM    8  C15 UNL     1      14.337  18.650  19.198  1.00  0.00     0.066 C 
BRANCH   8   9
HETATM    9  C16 UNL     1      13.206  18.579  20.168  1.00  0.00     0.007 C 
BRANCH   9  10
HETATM   10  C17 UNL     1      12.077  17.729  19.758  1.00  0.00     0.006 C 
BRANCH  10  11
HETATM   11  C18 UNL     1      10.928  18.258  19.008  1.00  0.00     0.061 C 
BRANCH  11  12
HETATM   12  C19 UNL     1      11.191  18.776  17.663  1.00  0.00     0.049 A 
HETATM   13  N5  UNL     1      11.459  20.153  17.625  1.00  0.00    -0.289 N 
HETATM   14  N6  UNL     1      11.652  20.732  16.493  1.00  0.00    -0.132 N 
ATOM     15  H5  UNL     1      11.501  20.691  18.491  1.00  0.00     0.187 HD
HETATM   16  C20 UNL     1      11.611  20.066  15.304  1.00  0.00     0.699 A 
ATOM     17  H6  UNL     1      11.844  21.734  16.484  1.00  0.00     0.205 HD
HETATM   18  N8  UNL     1      11.355  18.757  15.334  1.00  0.00    -0.192 N 
HETATM   19  C26 UNL     1      11.141  18.089  16.517  1.00  0.00     0.046 A 
ATOM     20  H8  UNL     1      11.316  18.238  14.457  1.00  0.00     0.184 HD
HETATM   21  C27 UNL     1      10.954  16.642  16.425  1.00  0.00     0.071 C 
BRANCH  16  22
HETATM   22  N7  UNL     1      11.838  20.702  14.184  1.00  0.00    -0.158 N 
HETATM   23  C21 UNL     1      13.163  20.799  13.690  1.00  0.00     0.243 C 
HETATM   24  O4  UNL     1      13.719  19.697  13.382  1.00  0.00    -0.272 OA
ATOM     25  H7  UNL     1      11.066  21.127  13.670  1.00  0.00     0.187 HD
BRANCH  23  26
HETATM   26  C22 UNL     1      13.885  22.070  13.530  1.00  0.00     0.031 C 
HETATM   27  C23 UNL     1      12.912  23.205  13.813  1.00  0.00     0.025 C 
HETATM   28  C24 UNL     1      15.030  22.201  14.514  1.00  0.00     0.025 C 
HETATM   29  C25 UNL     1      14.440  22.250  12.116  1.00  0.00     0.025 C 
ENDBRANCH  23  26
ENDBRANCH  16  22
ENDBRANCH  11  12
ENDBRANCH  10  11
ENDBRANCH   9  10
ENDBRANCH   8   9
ENDBRANCH   6   8
BRANCH   1  30
HETATM   30  N2  UNL     1      16.605  23.496  18.914  1.00  0.00    -0.313 N 
ATOM     31  H2  UNL     1      17.336  23.502  19.626  1.00  0.00     0.170 HD
BRANCH  30  32
HETATM   32  C12 UNL     1      16.554  24.615  18.107  1.00  0.00     0.192 C 
BRANCH  32  33
HETATM   33  C11 UNL     1      17.204  25.172  17.008  1.00  0.00     0.235 C 
HETATM   34  O2  UNL     1      16.728  25.263  15.824  1.00  0.00    -0.285 OA
BRANCH  33  35
HETATM   35  C4  UNL     1      18.652  25.729  17.157  1.00  0.00     0.243 C 
BRANCH  35  36
HETATM   36  C3  UNL     1      19.230  25.879  15.787  1.00  0.00     0.047 C 
BRANCH  36  37
HETATM   37  C2  UNL     1      20.185  24.734  15.471  1.00  0.00    -0.001 C 
HETATM   38  C1  UNL     1      21.339  25.313  14.676  1.00  0.00     0.005 C 
ENDBRANCH  36  37
ENDBRANCH  35  36
BRANCH  35  39
HETATM   39  N1  UNL     1      19.340  24.781  18.006  1.00  0.00    -0.415 NA
BRANCH  39  40
HETATM   40  C5  UNL     1      19.954  23.947  18.767  1.00  0.00     0.185 C 
BRANCH  40  41
HETATM   41  O1  UNL     1      19.462  22.838  19.291  1.00  0.00    -0.339 OA
ATOM     42  H1  UNL     1      19.949  22.068  19.560  1.00  0.00     0.220 HD
ENDBRANCH  40  41
BRANCH  40  43
HETATM   43  C6  UNL     1      21.397  24.108  19.219  1.00  0.00     0.108 C 
BRANCH  43  44
HETATM   44  C7  UNL     1      21.559  25.220  20.205  1.00  0.00    -0.043 C 
HETATM   45  C8  UNL     1      20.391  25.569  21.059  1.00  0.00     0.015 C 
HETATM   46  C9  UNL     1      22.765  24.907  21.119  1.00  0.00     0.015 C 
HETATM   47  C10 UNL     1      21.929  26.483  19.444  1.00  0.00     0.015 C 
ENDBRANCH  43  44
ENDBRANCH  40  43
ENDBRANCH  39  40
ENDBRANCH  35  39
ENDBRANCH  33  35
ENDBRANCH  32  33
BRANCH  32  48
HETATM   48  O3  UNL     1      15.544  25.411  18.560  1.00  0.00    -0.343 OA
ATOM     49  H3  UNL     1      15.870  26.223  18.929  1.00  0.00     0.219 HD
ENDBRANCH  32  48
ENDBRANCH  30  32
ENDBRANCH   1  30
TORSDOF 19
ENDMDL
MODEL 5
REMARK VINA RESULT: -8.529919590      2.103      9.125
REMARK  19 active torsions:
REMARK  status: ('A' for Active; 'I' for Inactive)
REMARK    1  A    between atoms: C2_2  and  C3_3 
REMARK    2  A    between atoms: C3_3  and  C4_4 
REMARK    3  A    between atoms: C4_4  and  N1_5 
REMARK    4  A    between atoms: C4_4  and  C11_14 
REMARK    5  A    between atoms: N1_5  and  C5_6 
REMARK    6  A    between atoms: C5_6  and  O1_7 
REMARK    7  A    between atoms: C5_6  and  C6_9 
REMARK    8  A    between atoms: C6_9  and  C7_10 
REMARK    9  A    between atoms: C11_14  and  C12_16 
REMARK   10  A    between atoms: C12_16  and  O3_17 
REMARK   11  A    between atoms: C12_16  and  N2_19 
REMARK   12  A    between atoms: N2_19  and  C13_21 
REMARK   13  A    between atoms: C14_26  and  C15_27 
REMARK   14  A    between atoms: C15_27  and  C16_28 
REMARK   15  A    between atoms: C16_28  and  C17_29 
REMARK   16  A    between atoms: C17_29  and  C18_30 
REMARK   17  A    between atoms: C18_30  and  C19_31 
REMARK   18  A    between atoms: C20_36  and  N7_37 
REMARK       I    between atoms: N7_37  and  C21_39 
REMARK   19  A    between atoms: C21_39  and  C22_41 
ROOT
HETATM    1  C13 UNL     1      15.849  22.356  18.233  1.00  0.00     0.167 A 
HETATM    2  N3  UNL     1      16.545  21.331  17.742  1.00  0.00    -0.279 N 
ATOM      3  H3  UNL     1      17.381  21.491  17.180  1.00  0.00     0.189 HD
HETATM    4  N4  UNL     1      16.146  20.150  17.986  1.00  0.00    -0.296 N 
ATOM      5  H4  UNL     1      16.666  19.351  17.621  1.00  0.00     0.187 HD
HETATM    6  C14 UNL     1      15.049  19.953  18.718  1.00  0.00     0.069 A 
HETATM    7  S1  UNL     1      14.585  21.550  19.071  1.00  0.00    -0.038 SA
ENDROOT
BRANCH   6   8
HETATM    8  C15 UNL     1      14.419  18.619  19.044  1.00  0.00     0.066 C 
BRANCH   8   9
HETATM    9  C16 UNL     1      13.350  18.820  20.065  1.00  0.00     0.007 C 
BRANCH   9  10
HETATM   10  C17 UNL     1      12.167  17.959  19.915  1.00  0.00     0.006 C 
BRANCH  10  11
HETATM   11  C18 UNL     1      10.997  18.364  19.122  1.00  0.00     0.061 C 
BRANCH  11  12
HETATM   12  C19 UNL     1      11.247  18.839  17.758  1.00  0.00     0.049 A 
HETATM   13  N5  UNL     1      11.507  20.215  17.674  1.00  0.00    -0.289 N 
HETATM   14  N6  UNL     1      11.690  20.757  16.521  1.00  0.00    -0.132 N 
ATOM     15  H5  UNL     1      11.552  20.782  18.521  1.00  0.00     0.187 HD
HETATM   16  C20 UNL     1      11.645  20.052  15.355  1.00  0.00     0.699 A 
ATOM     17  H6  UNL     1      11.875  21.760  16.478  1.00  0.00     0.205 HD
HETATM   18  N8  UNL     1      11.396  18.743  15.431  1.00  0.00    -0.192 N 
HETATM   19  C26 UNL     1      11.194  18.114  16.636  1.00  0.00     0.046 A 
ATOM     20  H8  UNL     1      11.355  18.195  14.571  1.00  0.00     0.184 HD
HETATM   21  C27 UNL     1      11.015  16.663  16.594  1.00  0.00     0.071 C 
BRANCH  16  22
HETATM   22  N7  UNL     1      11.861  20.652  14.214  1.00  0.00    -0.158 N 
HETATM   23  C21 UNL     1      13.189  20.794  13.737  1.00  0.00     0.243 C 
HETATM   24  O4  UNL     1      13.804  19.709  13.485  1.00  0.00    -0.272 OA
ATOM     25  H7  UNL     1      11.079  21.016  13.669  1.00  0.00     0.187 HD
BRANCH  23  26
HETATM   26  C22 UNL     1      13.850  22.092  13.536  1.00  0.00     0.031 C 
HETATM   27  C23 UNL     1      15.026  22.178  14.496  1.00  0.00     0.025 C 
HETATM   28  C24 UNL     1      14.401  22.237  12.131  1.00  0.00     0.025 C 
HETATM   29  C25 UNL     1      12.913  23.270  13.811  1.00  0.00     0.025 C 
ENDBRANCH  23  26
ENDBRANCH  16  22
ENDBRANCH  11  12
ENDBRANCH  10  11
ENDBRANCH   9  10
ENDBRANCH   8   9
ENDBRANCH   6   8
BRANCH   1  30
HETATM   30  N2  UNL     1      15.990  23.630  17.986  1.00  0.00    -0.313 N 
ATOM     31  H2  UNL     1      15.173  24.207  18.188  1.00  0.00     0.170 HD
BRANCH  30  32
HETATM   32  C12 UNL     1      17.086  24.307  17.492  1.00  0.00     0.192 C 
BRANCH  32  33
HETATM   33  C11 UNL     1      18.354  24.056  16.971  1.00  0.00     0.235 C 
HETATM   34  O2  UNL     1      18.616  23.733  15.762  1.00  0.00    -0.285 OA
BRANCH  33  35
HETATM   35  C4  UNL     1      19.607  24.132  17.895  1.00  0.00     0.243 C 
BRANCH  35  36
HETATM   36  C3  UNL     1      19.173  23.801  19.287  1.00  0.00     0.047 C 
BRANCH  36  37
HETATM   37  C2  UNL     1      19.468  22.344  19.617  1.00  0.00    -0.001 C 
HETATM   38  C1  UNL     1      18.533  21.934  20.738  1.00  0.00     0.005 C 
ENDBRANCH  36  37
ENDBRANCH  35  36
BRANCH  35  39
HETATM   39  N1  UNL     1      20.127  25.470  17.724  1.00  0.00    -0.415 NA
BRANCH  39  40
HETATM   40  C5  UNL     1      20.581  26.664  17.576  1.00  0.00     0.185 C 
BRANCH  40  41
HETATM   41  O1  UNL     1      20.277  27.725  18.301  1.00  0.00    -0.339 OA
ATOM     42  H1  UNL     1      20.417  27.839  19.234  1.00  0.00     0.220 HD
ENDBRANCH  40  41
BRANCH  40  43
HETATM   43  C6  UNL     1      21.568  27.073  16.494  1.00  0.00     0.108 C 
BRANCH  43  44
HETATM   44  C7  UNL     1      20.979  26.970  15.124  1.00  0.00    -0.043 C 
HETATM   45  C8  UNL     1      19.504  27.118  14.987  1.00  0.00     0.015 C 
HETATM   46  C9  UNL     1      21.666  28.004  14.204  1.00  0.00     0.015 C 
HETATM   47  C10 UNL     1      21.329  25.605  14.554  1.00  0.00     0.015 C 
ENDBRANCH  43  44
ENDBRANCH  40  43
ENDBRANCH  39  40
ENDBRANCH  35  39
ENDBRANCH  33  35
ENDBRANCH  32  33
BRANCH  32  48
HETATM   48  O3  UNL     1      16.816  25.643  17.555  1.00  0.00    -0.343 OA
ATOM     49  H3  UNL     1      16.171  25.843  18.222  1.00  0.00     0.219 HD
ENDBRANCH  32  48
ENDBRANCH  30  32
ENDBRANCH   1  30
TORSDOF 19
ENDMDL
