MODEL 1
REMARK VINA RESULT: -8.546298120      0.000      0.000
REMARK  17 active torsions:
REMARK  status: ('A' for Active; 'I' for Inactive)
REMARK    1  A    between atoms: C2_2  and  C3_3 
REMARK    2  A    between atoms: C3_3  and  C5_5 
REMARK    3  A    between atoms: C5_5  and  N1_6 
REMARK    4  A    between atoms: C5_5  and  C6_10 
REMARK       I    between atoms: C6_10  and  N2_12 
REMARK    5  A    between atoms: N2_12  and  C7_14 
REMARK    6  A    between atoms: C8_16  and  N3_17 
REMARK    7  A    between atoms: N3_17  and  C10_19 
REMARK    8  A    between atoms: C10_19  and  C11_21 
REMARK    9  A    between atoms: C11_21  and  C12_22 
REMARK   10  A    between atoms: C12_22  and  C13_23 
REMARK   11  A    between atoms: C13_23  and  C14_24 
REMARK   12  A    between atoms: C14_24  and  C15_25 
REMARK   13  A    between atoms: C15_25  and  C16_26 
REMARK   14  A    between atoms: C16_26  and  N4_27 
REMARK   15  A    between atoms: N4_27  and  C17_28 
REMARK   16  A    between atoms: C17_28  and  O2_29 
REMARK   17  A    between atoms: C17_28  and  N5_31 
ROOT
HETATM    1  C12 UNL     1      17.978  23.863  19.719  1.00  0.00     0.006 C 
HETATM    2  N6  UNL     1      17.980  22.565  19.692  1.00  0.00    -0.301 N 
ATOM      3  H6  UNL     1      17.622  22.106  18.854  1.00  0.00     0.177 HD
HETATM    4  C22 UNL     1      18.439  21.757  20.729  1.00  0.00     0.181 C 
HETATM    5  N7  UNL     1      18.800  21.066  21.616  1.00  0.00    -0.172 NA
ENDROOT
BRANCH   1   6
HETATM    6  C11 UNL     1      17.466  24.567  18.552  1.00  0.00     0.123 C 
BRANCH   6   7
HETATM    7  C10 UNL     1      17.921  24.163  17.221  1.00  0.00     0.085 C 
HETATM    8  S2  UNL     1      19.313  23.488  16.811  1.00  0.00    -0.065 SA
BRANCH   7   9
HETATM    9  N3  UNL     1      16.946  24.419  16.173  1.00  0.00    -0.340 N 
HETATM   10  C9  UNL     1      16.935  25.753  15.606  1.00  0.00     0.157 C 
BRANCH   9  11
HETATM   11  C8  UNL     1      16.069  23.407  15.750  1.00  0.00     0.070 C 
HETATM   12  S1  UNL     1      14.775  22.732  16.815  1.00  0.00    -0.086 SA
HETATM   13  C7  UNL     1      14.027  21.395  15.817  1.00  0.00     0.161 C 
HETATM   14  C25 UNL     1      13.998  21.874  14.408  1.00  0.00    -0.014 C 
HETATM   15  C24 UNL     1      15.413  21.946  13.886  1.00  0.00     0.041 C 
HETATM   16  C26 UNL     1      13.251  23.153  14.198  1.00  0.00     0.018 C 
HETATM   17  C27 UNL     1      13.315  20.807  13.510  1.00  0.00     0.018 C 
HETATM   18  C23 UNL     1      16.232  22.971  14.506  1.00  0.00     0.011 C 
BRANCH  13  19
HETATM   19  N2  UNL     1      12.792  20.971  16.378  1.00  0.00    -0.345 N 
HETATM   20  C6  UNL     1      12.737  19.874  17.324  1.00  0.00     0.249 C 
HETATM   21  O1  UNL     1      13.778  19.285  17.644  1.00  0.00    -0.271 OA
ATOM     22  H2  UNL     1      11.930  21.445  16.110  1.00  0.00     0.163 HD
BRANCH  20  23
HETATM   23  C5  UNL     1      11.427  19.501  17.873  1.00  0.00     0.278 C 
BRANCH  23  24
HETATM   24  C3  UNL     1      11.573  18.103  18.466  1.00  0.00     0.021 C 
HETATM   25  C4  UNL     1      10.534  17.138  17.998  1.00  0.00     0.012 C 
BRANCH  24  26
HETATM   26  C2  UNL     1      11.375  18.261  19.980  1.00  0.00     0.002 C 
HETATM   27  C1  UNL     1      12.668  17.820  20.628  1.00  0.00     0.005 C 
ENDBRANCH  24  26
ENDBRANCH  23  24
BRANCH  23  28
HETATM   28  N1  UNL     1      10.384  19.410  16.858  1.00  0.00    -0.066 N 
ATOM     29  H13 UNL     1      10.705  19.662  15.924  1.00  0.00     0.275 HD
ATOM     30  H12 UNL     1      10.112  18.450  16.643  1.00  0.00     0.275 HD
ATOM     31  H11 UNL     1       9.610  19.985  17.189  1.00  0.00     0.275 HD
ENDBRANCH  23  28
ENDBRANCH  20  23
ENDBRANCH  13  19
ENDBRANCH   9  11
ENDBRANCH   7   9
ENDBRANCH   6   7
ENDBRANCH   1   6
BRANCH   1  32
HETATM   32  C13 UNL     1      18.475  24.623  20.889  1.00  0.00     0.080 C 
BRANCH  32  33
HETATM   33  C14 UNL     1      19.847  25.102  20.928  1.00  0.00    -0.022 C 
BRANCH  33  34
HETATM   34  C15 UNL     1      21.002  24.392  20.400  1.00  0.00     0.002 C 
BRANCH  34  35
HETATM   35  C16 UNL     1      21.777  24.867  19.244  1.00  0.00     0.249 C 
BRANCH  35  36
HETATM   36  N4  UNL     1      21.438  26.106  18.655  1.00  0.00    -0.406 NA
BRANCH  36  37
HETATM   37  C17 UNL     1      21.122  27.256  18.115  1.00  0.00     0.291 C 
BRANCH  37  38
HETATM   38  O2  UNL     1      20.682  28.288  18.793  1.00  0.00    -0.322 OA
ATOM     39  H2  UNL     1      20.969  29.181  18.645  1.00  0.00     0.222 HD
ENDBRANCH  37  38
BRANCH  37  40
HETATM   40  N5  UNL     1      21.204  27.577  16.706  1.00  0.00    -0.332 N 
HETATM   41  C18 UNL     1      22.211  28.501  16.212  1.00  0.00     0.153 C 
HETATM   42  C19 UNL     1      22.171  28.401  14.686  1.00  0.00     0.187 C 
HETATM   43  O3  UNL     1      20.957  28.832  14.222  1.00  0.00    -0.388 OA
HETATM   44  C20 UNL     1      19.900  28.194  14.834  1.00  0.00     0.187 C 
HETATM   45  C21 UNL     1      20.306  27.032  15.728  1.00  0.00     0.153 C 
ENDBRANCH  37  40
ENDBRANCH  36  37
ENDBRANCH  35  36
ENDBRANCH  34  35
ENDBRANCH  33  34
ENDBRANCH  32  33
ENDBRANCH   1  32
TORSDOF 17
ENDMDL
MODEL 2
REMARK VINA RESULT: -8.423049127      2.449      4.108
REMARK  17 active torsions:
REMARK  status: ('A' for Active; 'I' for Inactive)
REMARK    1  A    between atoms: C2_2  and  C3_3 
REMARK    2  A    between atoms: C3_3  and  C5_5 
REMARK    3  A    between atoms: C5_5  and  N1_6 
REMARK    4  A    between atoms: C5_5  and  C6_10 
REMARK       I    between atoms: C6_10  and  N2_12 
REMARK    5  A    between atoms: N2_12  and  C7_14 
REMARK    6  A    between atoms: C8_16  and  N3_17 
REMARK    7  A    between atoms: N3_17  and  C10_19 
REMARK    8  A    between atoms: C10_19  and  C11_21 
REMARK    9  A    between atoms: C11_21  and  C12_22 
REMARK   10  A    between atoms: C12_22  and  C13_23 
REMARK   11  A    between atoms: C13_23  and  C14_24 
REMARK   12  A    between atoms: C14_24  and  C15_25 
REMARK   13  A    between atoms: C15_25  and  C16_26 
REMARK   14  A    between atoms: C16_26  and  N4_27 
REMARK   15  A    between atoms: N4_27  and  C17_28 
REMARK   16  A    between atoms: C17_28  and  O2_29 
REMARK   17  A    between atoms: C17_28  and  N5_31 
ROOT
HETATM    1  C12 UNL     1      17.745  21.911  17.967  1.00  0.00     0.006 C 
HETATM    2  N6  UNL     1      17.841  21.220  19.062  1.00  0.00    -0.301 N 
ATOM      3  H6  UNL     1      17.436  20.284  19.071  1.00  0.00     0.177 HD
HETATM    4  C22 UNL     1      18.460  21.671  20.225  1.00  0.00     0.181 C 
HETATM    5  N7  UNL     1      18.959  22.057  21.223  1.00  0.00    -0.172 NA
ENDROOT
BRANCH   1   6
HETATM    6  C11 UNL     1      17.068  21.298  16.833  1.00  0.00     0.123 C 
BRANCH   6   7
HETATM    7  C10 UNL     1      15.872  21.943  16.286  1.00  0.00     0.085 C 
HETATM    8  S2  UNL     1      15.620  22.462  14.794  1.00  0.00    -0.065 SA
BRANCH   7   9
HETATM    9  N3  UNL     1      14.803  22.100  17.258  1.00  0.00    -0.340 N 
HETATM   10  C9  UNL     1      14.541  23.446  17.727  1.00  0.00     0.157 C 
BRANCH   9  11
HETATM   11  C8  UNL     1      14.075  20.985  17.706  1.00  0.00     0.070 C 
HETATM   12  S1  UNL     1      13.215  19.866  16.578  1.00  0.00    -0.086 SA
HETATM   13  C7  UNL     1      12.358  18.689  17.684  1.00  0.00     0.161 C 
HETATM   14  C25 UNL     1      13.274  18.428  18.828  1.00  0.00    -0.014 C 
HETATM   15  C24 UNL     1      13.377  19.679  19.667  1.00  0.00     0.041 C 
HETATM   16  C26 UNL     1      14.616  17.890  18.445  1.00  0.00     0.018 C 
HETATM   17  C27 UNL     1      12.632  17.384  19.781  1.00  0.00     0.018 C 
HETATM   18  C23 UNL     1      14.058  20.785  19.018  1.00  0.00     0.011 C 
BRANCH  13  19
HETATM   19  N2  UNL     1      11.893  17.557  16.961  1.00  0.00    -0.345 N 
HETATM   20  C6  UNL     1      10.665  17.611  16.194  1.00  0.00     0.249 C 
HETATM   21  O1  UNL     1       9.998  18.655  16.174  1.00  0.00    -0.271 OA
ATOM     22  H2  UNL     1      12.433  16.691  16.982  1.00  0.00     0.163 HD
BRANCH  20  23
HETATM   23  C5  UNL     1      10.255  16.407  15.460  1.00  0.00     0.278 C 
BRANCH  23  24
HETATM   24  C3  UNL     1      10.417  15.226  16.413  1.00  0.00     0.021 C 
HETATM   25  C4  UNL     1      10.366  13.896  15.738  1.00  0.00     0.012 C 
BRANCH  24  26
HETATM   26  C2  UNL     1       9.214  15.282  17.365  1.00  0.00     0.002 C 
HETATM   27  C1  UNL     1       9.160  13.943  18.065  1.00  0.00     0.005 C 
ENDBRANCH  24  26
ENDBRANCH  23  24
BRANCH  23  28
HETATM   28  N1  UNL     1      11.099  16.122  14.306  1.00  0.00    -0.066 N 
ATOM     29  H13 UNL     1      11.040  15.154  13.990  1.00  0.00     0.275 HD
ATOM     30  H12 UNL     1      10.768  16.556  13.445  1.00  0.00     0.275 HD
ATOM     31  H11 UNL     1      12.045  16.405  14.565  1.00  0.00     0.275 HD
ENDBRANCH  23  28
ENDBRANCH  20  23
ENDBRANCH  13  19
ENDBRANCH   9  11
ENDBRANCH   7   9
ENDBRANCH   6   7
ENDBRANCH   1   6
BRANCH   1  32
HETATM   32  C13 UNL     1      18.299  23.279  17.853  1.00  0.00     0.080 C 
BRANCH  32  33
HETATM   33  C14 UNL     1      19.209  23.619  16.772  1.00  0.00    -0.022 C 
BRANCH  33  34
HETATM   34  C15 UNL     1      18.846  24.345  15.564  1.00  0.00     0.002 C 
BRANCH  34  35
HETATM   35  C16 UNL     1      18.355  25.731  15.577  1.00  0.00     0.249 C 
BRANCH  35  36
HETATM   36  N4  UNL     1      19.272  26.785  15.362  1.00  0.00    -0.406 NA
BRANCH  36  37
HETATM   37  C17 UNL     1      20.117  27.765  15.164  1.00  0.00     0.291 C 
BRANCH  37  38
HETATM   38  O2  UNL     1      19.767  28.969  14.782  1.00  0.00    -0.322 OA
ATOM     39  H2  UNL     1      20.156  29.426  14.046  1.00  0.00     0.222 HD
ENDBRANCH  37  38
BRANCH  37  40
HETATM   40  N5  UNL     1      21.552  27.687  15.331  1.00  0.00    -0.332 N 
HETATM   41  C18 UNL     1      22.148  26.663  16.172  1.00  0.00     0.153 C 
HETATM   42  C19 UNL     1      23.655  26.718  15.911  1.00  0.00     0.187 C 
HETATM   43  O3  UNL     1      24.155  27.926  16.320  1.00  0.00    -0.388 OA
HETATM   44  C20 UNL     1      23.471  28.993  15.777  1.00  0.00     0.187 C 
HETATM   45  C21 UNL     1      22.461  28.607  14.707  1.00  0.00     0.153 C 
ENDBRANCH  37  40
ENDBRANCH  36  37
ENDBRANCH  35  36
ENDBRANCH  34  35
ENDBRANCH  33  34
ENDBRANCH  32  33
ENDBRANCH   1  32
TORSDOF 17
ENDMDL
MODEL 3
REMARK VINA RESULT: -8.321229063      2.660      4.961
REMARK  17 active torsions:
REMARK  status: ('A' for Active; 'I' for Inactive)
REMARK    1  A    between atoms: C2_2  and  C3_3 
REMARK    2  A    between atoms: C3_3  and  C5_5 
REMARK    3  A    between atoms: C5_5  and  N1_6 
REMARK    4  A    between atoms: C5_5  and  C6_10 
REMARK       I    between atoms: C6_10  and  N2_12 
REMARK    5  A    between atoms: N2_12  and  C7_14 
REMARK    6  A    between atoms: C8_16  and  N3_17 
REMARK    7  A    between atoms: N3_17  and  C10_19 
REMARK    8  A    between atoms: C10_19  and  C11_21 
REMARK    9  A    between atoms: C11_21  and  C12_22 
REMARK   10  A    between atoms: C12_22  and  C13_23 
REMARK   11  A    between atoms: C13_23  and  C14_24 
REMARK   12  A    between atoms: C14_24  and  C15_25 
REMARK   13  A    between atoms: C15_25  and  C16_26 
REMARK   14  A    between atoms: C16_26  and  N4_27 
REMARK   15  A    between atoms: N4_27  and  C17_28 
REMARK   16  A    between atoms: C17_28  and  O2_29 
REMARK   17  A    between atoms: C17_28  and  N5_31 
ROOT
HETATM    1  C12 UNL     1      17.095  22.702  15.671  1.00  0.00     0.006 C 
HETATM    2  N6  UNL     1      17.278  23.873  15.142  1.00  0.00    -0.301 N 
ATOM      3  H6  UNL     1      16.558  24.230  14.515  1.00  0.00     0.177 HD
HETATM    4  C22 UNL     1      18.392  24.676  15.374  1.00  0.00     0.181 C 
HETATM    5  N7  UNL     1      19.347  25.349  15.545  1.00  0.00    -0.172 NA
ENDROOT
BRANCH   1   6
HETATM    6  C11 UNL     1      15.875  21.984  15.330  1.00  0.00     0.123 C 
BRANCH   6   7
HETATM    7  C10 UNL     1      14.583  22.556  15.713  1.00  0.00     0.085 C 
HETATM    8  S2  UNL     1      13.504  23.281  14.780  1.00  0.00    -0.065 SA
BRANCH   7   9
HETATM    9  N3  UNL     1      14.284  22.415  17.128  1.00  0.00    -0.340 N 
HETATM   10  C9  UNL     1      14.566  23.561  17.971  1.00  0.00     0.157 C 
BRANCH   9  11
HETATM   11  C8  UNL     1      13.750  21.217  17.630  1.00  0.00     0.070 C 
HETATM   12  S1  UNL     1      12.881  20.025  16.587  1.00  0.00    -0.086 SA
HETATM   13  C7  UNL     1      12.312  18.740  17.755  1.00  0.00     0.161 C 
HETATM   14  C25 UNL     1      13.393  18.566  18.764  1.00  0.00    -0.014 C 
HETATM   15  C24 UNL     1      13.464  19.807  19.622  1.00  0.00     0.041 C 
HETATM   16  C26 UNL     1      14.725  18.193  18.197  1.00  0.00     0.018 C 
HETATM   17  C27 UNL     1      13.001  17.440  19.758  1.00  0.00     0.018 C 
HETATM   18  C23 UNL     1      13.927  20.994  18.927  1.00  0.00     0.011 C 
BRANCH  13  19
HETATM   19  N2  UNL     1      11.886  17.574  17.062  1.00  0.00    -0.345 N 
HETATM   20  C6  UNL     1      10.669  17.573  16.276  1.00  0.00     0.249 C 
HETATM   21  O1  UNL     1       9.976  18.598  16.213  1.00  0.00    -0.271 OA
ATOM     22  H2  UNL     1      12.448  16.724  17.118  1.00  0.00     0.163 HD
BRANCH  20  23
HETATM   23  C5  UNL     1      10.300  16.336  15.575  1.00  0.00     0.278 C 
BRANCH  23  24
HETATM   24  C3  UNL     1      10.519  15.186  16.553  1.00  0.00     0.021 C 
HETATM   25  C4  UNL     1      10.455  13.836  15.921  1.00  0.00     0.012 C 
BRANCH  24  26
HETATM   26  C2  UNL     1       9.359  15.256  17.557  1.00  0.00     0.002 C 
HETATM   27  C1  UNL     1       9.109  13.839  18.021  1.00  0.00     0.005 C 
ENDBRANCH  24  26
ENDBRANCH  23  24
BRANCH  23  28
HETATM   28  N1  UNL     1      11.143  16.058  14.419  1.00  0.00    -0.066 N 
ATOM     29  H13 UNL     1      10.811  16.497  13.560  1.00  0.00     0.275 HD
ATOM     30  H12 UNL     1      12.049  16.525  14.457  1.00  0.00     0.275 HD
ATOM     31  H11 UNL     1      11.214  15.042  14.353  1.00  0.00     0.275 HD
ENDBRANCH  23  28
ENDBRANCH  20  23
ENDBRANCH  13  19
ENDBRANCH   9  11
ENDBRANCH   7   9
ENDBRANCH   6   7
ENDBRANCH   1   6
BRANCH   1  32
HETATM   32  C13 UNL     1      18.083  22.095  16.592  1.00  0.00     0.080 C 
BRANCH  32  33
HETATM   33  C14 UNL     1      17.643  21.371  17.773  1.00  0.00    -0.022 C 
BRANCH  33  34
HETATM   34  C15 UNL     1      17.901  21.769  19.149  1.00  0.00     0.002 C 
BRANCH  34  35
HETATM   35  C16 UNL     1      18.075  23.169  19.561  1.00  0.00     0.249 C 
BRANCH  35  36
HETATM   36  N4  UNL     1      19.281  23.833  19.240  1.00  0.00    -0.406 NA
BRANCH  36  37
HETATM   37  C17 UNL     1      20.396  24.448  18.937  1.00  0.00     0.291 C 
BRANCH  37  38
HETATM   38  O2  UNL     1      20.973  24.383  17.761  1.00  0.00    -0.322 OA
ATOM     39  H2  UNL     1      21.840  24.722  17.576  1.00  0.00     0.222 HD
ENDBRANCH  37  38
BRANCH  37  40
HETATM   40  N5  UNL     1      21.166  25.286  19.830  1.00  0.00    -0.332 N 
HETATM   41  C18 UNL     1      20.541  25.921  20.977  1.00  0.00     0.153 C 
HETATM   42  C19 UNL     1      21.679  26.499  21.820  1.00  0.00     0.187 C 
HETATM   43  O3  UNL     1      22.330  27.477  21.116  1.00  0.00    -0.388 OA
HETATM   44  C20 UNL     1      22.740  27.049  19.871  1.00  0.00     0.187 C 
HETATM   45  C21 UNL     1      22.563  25.558  19.636  1.00  0.00     0.153 C 
ENDBRANCH  37  40
ENDBRANCH  36  37
ENDBRANCH  35  36
ENDBRANCH  34  35
ENDBRANCH  33  34
ENDBRANCH  32  33
ENDBRANCH   1  32
TORSDOF 17
ENDMDL
MODEL 4
REMARK VINA RESULT: -8.282028486      2.386     10.033
REMARK  17 active torsions:
REMARK  status: ('A' for Active; 'I' for Inactive)
REMARK    1  A    between atoms: C2_2  and  C3_3 
REMARK    2  A    between atoms: C3_3  and  C5_5 
REMARK    3  A    between atoms: C5_5  and  N1_6 
REMARK    4  A    between atoms: C5_5  and  C6_10 
REMARK       I    between atoms: C6_10  and  N2_12 
REMARK    5  A    between atoms: N2_12  and  C7_14 
REMARK    6  A    between atoms: C8_16  and  N3_17 
REMARK    7  A    between atoms: N3_17  and  C10_19 
REMARK    8  A    between atoms: C10_19  and  C11_21 
REMARK    9  A    between atoms: C11_21  and  C12_22 
REMARK   10  A    between atoms: C12_22  and  C13_23 
REMARK   11  A    between atoms: C13_23  and  C14_24 
REMARK   12  A    between atoms: C14_24  and  C15_25 
REMARK   13  A    between atoms: C15_25  and  C16_26 
REMARK   14  A    between atoms: C16_26  and  N4_27 
REMARK   15  A    between atoms: N4_27  and  C17_28 
REMARK   16  A    between atoms: C17_28  and  O2_29 
REMARK   17  A    between atoms: C17_28  and  N5_31 
ROOT
HETATM    1  C12 UNL     1      17.773  21.686  18.400  1.00  0.00     0.006 C 
HETATM    2  N6  UNL     1      18.797  21.890  19.172  1.00  0.00    -0.301 N 
ATOM      3  H6  UNL     1      19.631  22.305  18.756  1.00  0.00     0.177 HD
HETATM    4  C22 UNL     1      18.834  21.582  20.529  1.00  0.00     0.181 C 
HETATM    5  N7  UNL     1      18.882  21.297  21.674  1.00  0.00    -0.172 NA
ENDROOT
BRANCH   1   6
HETATM    6  C11 UNL     1      17.890  22.065  17.000  1.00  0.00     0.123 C 
BRANCH   6   7
HETATM    7  C10 UNL     1      17.061  23.157  16.486  1.00  0.00     0.085 C 
HETATM    8  S2  UNL     1      15.910  23.091  15.376  1.00  0.00    -0.065 SA
BRANCH   7   9
HETATM    9  N3  UNL     1      17.351  24.442  17.100  1.00  0.00    -0.340 N 
HETATM   10  C9  UNL     1      16.415  24.912  18.102  1.00  0.00     0.157 C 
BRANCH   9  11
HETATM   11  C8  UNL     1      18.488  25.175  16.721  1.00  0.00     0.070 C 
HETATM   12  S1  UNL     1      20.081  25.001  17.555  1.00  0.00    -0.086 SA
HETATM   13  C7  UNL     1      21.148  26.246  16.746  1.00  0.00     0.161 C 
HETATM   14  C25 UNL     1      20.783  26.252  15.302  1.00  0.00    -0.014 C 
HETATM   15  C24 UNL     1      19.397  26.832  15.150  1.00  0.00     0.041 C 
HETATM   16  C26 UNL     1      20.923  24.930  14.616  1.00  0.00     0.018 C 
HETATM   17  C27 UNL     1      21.698  27.248  14.540  1.00  0.00     0.018 C 
HETATM   18  C23 UNL     1      18.336  26.006  15.697  1.00  0.00     0.011 C 
BRANCH  13  19
HETATM   19  N2  UNL     1      22.516  26.028  17.063  1.00  0.00    -0.345 N 
HETATM   20  C6  UNL     1      23.095  26.555  18.282  1.00  0.00     0.249 C 
HETATM   21  O1  UNL     1      22.395  27.219  19.059  1.00  0.00    -0.271 OA
ATOM     22  H2  UNL     1      23.100  25.491  16.422  1.00  0.00     0.163 HD
BRANCH  20  23
HETATM   23  C5  UNL     1      24.512  26.278  18.550  1.00  0.00     0.278 C 
BRANCH  23  24
HETATM   24  C3  UNL     1      25.237  26.317  17.208  1.00  0.00     0.021 C 
HETATM   25  C4  UNL     1      26.470  25.477  17.164  1.00  0.00     0.012 C 
BRANCH  24  26
HETATM   26  C2  UNL     1      25.689  27.771  17.013  1.00  0.00     0.002 C 
HETATM   27  C1  UNL     1      25.380  28.126  15.576  1.00  0.00     0.005 C 
ENDBRANCH  24  26
ENDBRANCH  23  24
BRANCH  23  28
HETATM   28  N1  UNL     1      24.742  24.948  19.102  1.00  0.00    -0.066 N 
ATOM     29  H13 UNL     1      24.875  24.231  18.388  1.00  0.00     0.275 HD
ATOM     30  H12 UNL     1      25.652  24.848  19.551  1.00  0.00     0.275 HD
ATOM     31  H11 UNL     1      23.959  24.756  19.727  1.00  0.00     0.275 HD
ENDBRANCH  23  28
ENDBRANCH  20  23
ENDBRANCH  13  19
ENDBRANCH   9  11
ENDBRANCH   7   9
ENDBRANCH   6   7
ENDBRANCH   1   6
BRANCH   1  32
HETATM   32  C13 UNL     1      16.518  21.088  18.908  1.00  0.00     0.080 C 
BRANCH  32  33
HETATM   33  C14 UNL     1      15.814  20.081  18.131  1.00  0.00    -0.022 C 
BRANCH  33  34
HETATM   34  C15 UNL     1      14.882  19.102  18.670  1.00  0.00     0.002 C 
BRANCH  34  35
HETATM   35  C16 UNL     1      13.507  19.436  19.067  1.00  0.00     0.249 C 
BRANCH  35  36
HETATM   36  N4  UNL     1      12.588  19.845  18.075  1.00  0.00    -0.406 NA
BRANCH  36  37
HETATM   37  C17 UNL     1      11.740  20.229  17.155  1.00  0.00     0.291 C 
BRANCH  37  38
HETATM   38  O2  UNL     1      10.457  20.398  17.365  1.00  0.00    -0.322 OA
ATOM     39  H2  UNL     1      10.029  21.246  17.379  1.00  0.00     0.222 HD
ENDBRANCH  37  38
BRANCH  37  40
HETATM   40  N5  UNL     1      12.067  20.526  15.777  1.00  0.00    -0.332 N 
HETATM   41  C18 UNL     1      13.386  20.226  15.245  1.00  0.00     0.153 C 
HETATM   42  C19 UNL     1      13.292  20.425  13.731  1.00  0.00     0.187 C 
HETATM   43  O3  UNL     1      13.028  21.739  13.449  1.00  0.00    -0.388 OA
HETATM   44  C20 UNL     1      11.925  22.214  14.127  1.00  0.00     0.187 C 
HETATM   45  C21 UNL     1      11.141  21.143  14.869  1.00  0.00     0.153 C 
ENDBRANCH  37  40
ENDBRANCH  36  37
ENDBRANCH  35  36
ENDBRANCH  34  35
ENDBRANCH  33  34
ENDBRANCH  32  33
ENDBRANCH   1  32
TORSDOF 17
ENDMDL
MODEL 5
REMARK VINA RESULT: -8.276658965      2.318      4.486
REMARK  17 active torsions:
REMARK  status: ('A' for Active; 'I' for Inactive)
REMARK    1  A    between atoms: C2_2  and  C3_3 
REMARK    2  A    between atoms: C3_3  and  C5_5 
REMARK    3  A    between atoms: C5_5  and  N1_6 
REMARK    4  A    between atoms: C5_5  and  C6_10 
REMARK       I    between atoms: C6_10  and  N2_12 
REMARK    5  A    between atoms: N2_12  and  C7_14 
REMARK    6  A    between atoms: C8_16  and  N3_17 
REMARK    7  A    between atoms: N3_17  and  C10_19 
REMARK    8  A    between atoms: C10_19  and  C11_21 
REMARK    9  A    between atoms: C11_21  and  C12_22 
REMARK   10  A    between atoms: C12_22  and  C13_23 
REMARK   11  A    between atoms: C13_23  and  C14_24 
REMARK   12  A    between atoms: C14_24  and  C15_25 
REMARK   13  A    between atoms: C15_25  and  C16_26 
REMARK   14  A    between atoms: C16_26  and  N4_27 
REMARK   15  A    between atoms: N4_27  and  C17_28 
REMARK   16  A    between atoms: C17_28  and  O2_29 
REMARK   17  A    between atoms: C17_28  and  N5_31 
ROOT
HETATM    1  C12 UNL     1      17.764  21.818  17.841  1.00  0.00     0.006 C 
HETATM    2  N6  UNL     1      17.714  21.212  18.988  1.00  0.00    -0.301 N 
ATOM      3  H6  UNL     1      17.145  20.368  19.056  1.00  0.00     0.177 HD
HETATM    4  C22 UNL     1      18.386  21.635  20.132  1.00  0.00     0.181 C 
HETATM    5  N7  UNL     1      18.931  22.004  21.112  1.00  0.00    -0.172 NA
ENDROOT
BRANCH   1   6
HETATM    6  C11 UNL     1      17.005  21.249  16.737  1.00  0.00     0.123 C 
BRANCH   6   7
HETATM    7  C10 UNL     1      15.814  21.952  16.255  1.00  0.00     0.085 C 
HETATM    8  S2  UNL     1      15.533  22.538  14.793  1.00  0.00    -0.065 SA
BRANCH   7   9
HETATM    9  N3  UNL     1      14.782  22.105  17.267  1.00  0.00    -0.340 N 
HETATM   10  C9  UNL     1      14.558  23.445  17.772  1.00  0.00     0.157 C 
BRANCH   9  11
HETATM   11  C8  UNL     1      14.053  20.992  17.719  1.00  0.00     0.070 C 
HETATM   12  S1  UNL     1      13.180  19.879  16.596  1.00  0.00    -0.086 SA
HETATM   13  C7  UNL     1      12.327  18.703  17.705  1.00  0.00     0.161 C 
HETATM   14  C25 UNL     1      13.252  18.435  18.841  1.00  0.00    -0.014 C 
HETATM   15  C24 UNL     1      13.367  19.683  19.682  1.00  0.00     0.041 C 
HETATM   16  C26 UNL     1      14.588  17.893  18.445  1.00  0.00     0.018 C 
HETATM   17  C27 UNL     1      12.613  17.391  19.796  1.00  0.00     0.018 C 
HETATM   18  C23 UNL     1      14.047  20.788  19.031  1.00  0.00     0.011 C 
BRANCH  13  19
HETATM   19  N2  UNL     1      11.852  17.575  16.983  1.00  0.00    -0.345 N 
HETATM   20  C6  UNL     1      10.644  17.651  16.185  1.00  0.00     0.249 C 
HETATM   21  O1  UNL     1      10.004  18.711  16.138  1.00  0.00    -0.271 OA
ATOM     22  H2  UNL     1      12.369  16.696  17.027  1.00  0.00     0.163 HD
BRANCH  20  23
HETATM   23  C5  UNL     1      10.222  16.449  15.455  1.00  0.00     0.278 C 
BRANCH  23  24
HETATM   24  C3  UNL     1      10.406  15.264  16.398  1.00  0.00     0.021 C 
HETATM   25  C4  UNL     1      10.430  13.942  15.708  1.00  0.00     0.012 C 
BRANCH  24  26
HETATM   26  C2  UNL     1       9.176  15.259  17.318  1.00  0.00     0.002 C 
HETATM   27  C1  UNL     1       9.211  13.948  18.070  1.00  0.00     0.005 C 
ENDBRANCH  24  26
ENDBRANCH  23  24
BRANCH  23  28
HETATM   28  N1  UNL     1      11.043  16.171  14.282  1.00  0.00    -0.066 N 
ATOM     29  H13 UNL     1      12.043  16.157  14.483  1.00  0.00     0.275 HD
ATOM     30  H12 UNL     1      10.966  15.209  13.953  1.00  0.00     0.275 HD
ATOM     31  H11 UNL     1      10.781  16.862  13.578  1.00  0.00     0.275 HD
ENDBRANCH  23  28
ENDBRANCH  20  23
ENDBRANCH  13  19
ENDBRANCH   9  11
ENDBRANCH   7   9
ENDBRANCH   6   7
ENDBRANCH   1   6
BRANCH   1  32
HETATM   32  C13 UNL     1      18.560  23.050  17.641  1.00  0.00     0.080 C 
BRANCH  32  33
HETATM   33  C14 UNL     1      19.076  23.389  16.325  1.00  0.00    -0.022 C 
BRANCH  33  34
HETATM   34  C15 UNL     1      18.724  24.578  15.564  1.00  0.00     0.002 C 
BRANCH  34  35
HETATM   35  C16 UNL     1      18.494  25.890  16.185  1.00  0.00     0.249 C 
BRANCH  35  36
HETATM   36  N4  UNL     1      19.529  26.477  16.949  1.00  0.00    -0.406 NA
BRANCH  36  37
HETATM   37  C17 UNL     1      20.487  27.025  17.653  1.00  0.00     0.291 C 
BRANCH  37  38
HETATM   38  O2  UNL     1      21.180  28.067  17.261  1.00  0.00    -0.322 OA
ATOM     39  H2  UNL     1      22.122  28.064  17.144  1.00  0.00     0.222 HD
ENDBRANCH  37  38
BRANCH  37  40
HETATM   40  N5  UNL     1      20.934  26.584  18.956  1.00  0.00    -0.332 N 
HETATM   41  C18 UNL     1      20.367  25.398  19.575  1.00  0.00     0.153 C 
HETATM   42  C19 UNL     1      21.239  25.091  20.793  1.00  0.00     0.187 C 
HETATM   43  O3  UNL     1      21.144  26.111  21.702  1.00  0.00    -0.388 OA
HETATM   44  C20 UNL     1      21.407  27.344  21.144  1.00  0.00     0.187 C 
HETATM   45  C21 UNL     1      21.931  27.283  19.717  1.00  0.00     0.153 C 
ENDBRANCH  37  40
ENDBRANCH  36  37
ENDBRANCH  35  36
ENDBRANCH  34  35
ENDBRANCH  33  34
ENDBRANCH  32  33
ENDBRANCH   1  32
TORSDOF 17
ENDMDL
