MODEL 1
REMARK VINA RESULT: -6.663304530      0.000      0.000
REMARK  14 active torsions:
REMARK  status: ('A' for Active; 'I' for Inactive)
REMARK    1  A    between atoms: O1_2  and  C2_3 
REMARK    2  A    between atoms: C3_4  and  O2_5 
REMARK    3  A    between atoms: C4_7  and  O3_8 
REMARK    4  A    between atoms: O3_8  and  C5_9 
REMARK    5  A    between atoms: C7_11  and  O4_12 
REMARK    6  A    between atoms: O4_12  and  C8_13 
REMARK    7  A    between atoms: C20_25  and  O5_26 
REMARK    8  A    between atoms: C20_25  and  O6_28 
REMARK    9  A    between atoms: O6_28  and  C21_29 
REMARK   10  A    between atoms: C21_29  and  C22_30 
REMARK   11  A    between atoms: C23_33  and  C24_34 
REMARK   12  A    between atoms: C24_34  and  O8_35 
REMARK   13  A    between atoms: C24_34  and  O9_37 
REMARK   14  A    between atoms: C27_43  and  O11_45 
ROOT
HETATM    1  C24 UNL     1      24.071  -8.376   8.223  1.00  0.00     0.282 C 
HETATM    2  C25 UNL     1      23.426  -9.525   8.788  1.00  0.00     0.133 C 
HETATM    3  N1  UNL     1      22.920 -10.455   9.224  1.00  0.00    -0.191 NA
ENDROOT
BRANCH   1   4
HETATM    4  C23 UNL     1      24.279  -8.360   6.757  1.00  0.00     0.034 C 
HETATM    5  C5  UNL     1      23.589  -7.297   5.971  1.00  0.00     0.163 C 
HETATM    6  C6  UNL     1      23.824  -7.485   4.478  1.00  0.00     0.070 C 
HETATM    7  C7  UNL     1      22.745  -8.269   3.836  1.00  0.00     0.139 C 
HETATM    8  C14 UNL     1      22.496  -9.611   4.395  1.00  0.00     0.028 C 
HETATM    9  C15 UNL     1      21.313  -9.706   5.329  1.00  0.00     0.025 C 
HETATM   10  C16 UNL     1      22.141 -10.523   3.198  1.00  0.00     0.025 C 
HETATM   11  C17 UNL     1      23.640 -10.203   5.092  1.00  0.00     0.070 C 
HETATM   12  C18 UNL     1      24.344  -9.665   6.075  1.00  0.00    -0.009 C 
HETATM   13  O7  UNL     1      24.128 -11.461   4.770  1.00  0.00    -0.293 OA
HETATM   14  C19 UNL     1      25.383 -10.654   6.440  1.00  0.00     0.144 C 
HETATM   15  C20 UNL     1      25.394 -11.698   5.312  1.00  0.00     0.288 C 
BRANCH   5  16
HETATM   16  O3  UNL     1      23.907  -6.011   6.339  1.00  0.00    -0.349 OA
BRANCH  16  17
HETATM   17  C4  UNL     1      25.091  -5.509   5.886  1.00  0.00     0.291 C 
HETATM   18  C3  UNL     1      26.126  -5.333   6.983  1.00  0.00     0.205 C 
HETATM   19  C2  UNL     1      26.866  -3.995   6.858  1.00  0.00     0.190 C 
HETATM   20  C27 UNL     1      27.328  -3.859   5.440  1.00  0.00     0.104 C 
HETATM   21  C26 UNL     1      26.251  -4.246   4.447  1.00  0.00     0.211 C 
HETATM   22  C28 UNL     1      28.480  -4.825   5.249  1.00  0.00     0.051 C 
HETATM   23  O10 UNL     1      25.069  -4.340   5.178  1.00  0.00    -0.355 OA
BRANCH  18  24
HETATM   24  O2  UNL     1      25.397  -5.283   8.194  1.00  0.00    -0.388 OA
ATOM     25  H2  UNL     1      24.838  -6.051   8.209  1.00  0.00     0.210 HD
ENDBRANCH  18  24
BRANCH  19  26
HETATM   26  O1  UNL     1      26.050  -3.025   7.323  1.00  0.00    -0.385 OA
HETATM   27  C1  UNL     1      26.491  -2.250   8.347  1.00  0.00     0.202 C 
ENDBRANCH  19  26
BRANCH  20  28
HETATM   28  O11 UNL     1      27.791  -2.615   5.101  1.00  0.00    -0.385 OA
ATOM     29  H11 UNL     1      28.296  -2.581   4.297  1.00  0.00     0.210 HD
ENDBRANCH  20  28
ENDBRANCH  16  17
ENDBRANCH   5  16
BRANCH   7  30
HETATM   30  O4  UNL     1      21.602  -7.540   3.549  1.00  0.00    -0.379 OA
BRANCH  30  31
HETATM   31  C8  UNL     1      21.392  -7.185   2.257  1.00  0.00     0.122 C 
HETATM   32  C9  UNL     1      20.299  -7.988   1.566  1.00  0.00     0.032 C 
HETATM   33  C10 UNL     1      19.889  -7.262   0.281  1.00  0.00     0.002 C 
HETATM   34  C11 UNL     1      19.033  -6.061   0.647  1.00  0.00     0.000 C 
HETATM   35  C12 UNL     1      19.412  -5.664   2.053  1.00  0.00     0.002 C 
HETATM   36  C13 UNL     1      20.910  -5.743   2.239  1.00  0.00     0.032 C 
ENDBRANCH  30  31
ENDBRANCH   7  30
BRANCH  15  37
HETATM   37  O5  UNL     1      25.540 -12.975   5.865  1.00  0.00    -0.343 OA
ATOM     38  H5  UNL     1      25.927 -12.901   6.730  1.00  0.00     0.215 HD
ENDBRANCH  15  37
BRANCH  15  39
HETATM   39  O6  UNL     1      26.380 -11.386   4.428  1.00  0.00    -0.332 OA
BRANCH  39  40
HETATM   40  C21 UNL     1      26.734 -12.295   3.487  1.00  0.00     0.184 C 
BRANCH  40  41
HETATM   41  C22 UNL     1      26.275 -12.083   2.092  1.00  0.00     0.111 C 
HETATM   42 BR1  UNL     1      25.861 -10.175   1.918  1.00  0.00    -0.094 Br
ENDBRANCH  40  41
ENDBRANCH  39  40
ENDBRANCH  15  39
ENDBRANCH   1   4
BRANCH   1  43
HETATM   43  O8  UNL     1      25.267  -8.154   8.941  1.00  0.00    -0.350 OA
ATOM     44  H8  UNL     1      25.334  -8.702   9.715  1.00  0.00     0.214 HD
ENDBRANCH   1  43
BRANCH   1  45
HETATM   45  O9  UNL     1      23.288  -7.250   8.645  1.00  0.00    -0.350 OA
ATOM     46  H9  UNL     1      22.363  -7.466   8.662  1.00  0.00     0.214 HD
ENDBRANCH   1  45
TORSDOF 14
ENDMDL
MODEL 2
REMARK VINA RESULT: -6.610318749      3.235      6.623
REMARK  14 active torsions:
REMARK  status: ('A' for Active; 'I' for Inactive)
REMARK    1  A    between atoms: O1_2  and  C2_3 
REMARK    2  A    between atoms: C3_4  and  O2_5 
REMARK    3  A    between atoms: C4_7  and  O3_8 
REMARK    4  A    between atoms: O3_8  and  C5_9 
REMARK    5  A    between atoms: C7_11  and  O4_12 
REMARK    6  A    between atoms: O4_12  and  C8_13 
REMARK    7  A    between atoms: C20_25  and  O5_26 
REMARK    8  A    between atoms: C20_25  and  O6_28 
REMARK    9  A    between atoms: O6_28  and  C21_29 
REMARK   10  A    between atoms: C21_29  and  C22_30 
REMARK   11  A    between atoms: C23_33  and  C24_34 
REMARK   12  A    between atoms: C24_34  and  O8_35 
REMARK   13  A    between atoms: C24_34  and  O9_37 
REMARK   14  A    between atoms: C27_43  and  O11_45 
ROOT
HETATM    1  C24 UNL     1      22.296  -6.846   4.023  1.00  0.00     0.282 C 
HETATM    2  C25 UNL     1      21.352  -7.286   3.038  1.00  0.00     0.133 C 
HETATM    3  N1  UNL     1      20.584  -7.638   2.265  1.00  0.00    -0.191 NA
ENDROOT
BRANCH   1   4
HETATM    4  C23 UNL     1      22.139  -7.368   5.401  1.00  0.00     0.034 C 
HETATM    5  C5  UNL     1      23.240  -8.208   5.954  1.00  0.00     0.163 C 
HETATM    6  C6  UNL     1      22.876  -8.744   7.332  1.00  0.00     0.070 C 
HETATM    7  C7  UNL     1      22.260 -10.088   7.265  1.00  0.00     0.139 C 
HETATM    8  C14 UNL     1      21.048 -10.208   6.433  1.00  0.00     0.028 C 
HETATM    9  C15 UNL     1      21.268 -10.799   5.061  1.00  0.00     0.025 C 
HETATM   10  C16 UNL     1      20.117 -11.206   7.159  1.00  0.00     0.025 C 
HETATM   11  C17 UNL     1      20.312  -8.956   6.246  1.00  0.00     0.070 C 
HETATM   12  C18 UNL     1      20.790  -7.805   5.802  1.00  0.00    -0.009 C 
HETATM   13  O7  UNL     1      18.959  -8.846   6.535  1.00  0.00    -0.293 OA
HETATM   14  C19 UNL     1      19.656  -6.854   5.789  1.00  0.00     0.144 C 
HETATM   15  C20 UNL     1      18.531  -7.518   6.600  1.00  0.00     0.288 C 
BRANCH   5  16
HETATM   16  O3  UNL     1      24.468  -7.591   5.999  1.00  0.00    -0.349 OA
BRANCH  16  17
HETATM   17  C4  UNL     1      24.743  -6.831   7.096  1.00  0.00     0.291 C 
HETATM   18  C3  UNL     1      24.707  -5.339   6.816  1.00  0.00     0.205 C 
HETATM   19  C2  UNL     1      25.882  -4.607   7.476  1.00  0.00     0.190 C 
HETATM   20  C27 UNL     1      25.946  -5.043   8.907  1.00  0.00     0.104 C 
HETATM   21  C26 UNL     1      25.782  -6.541   9.058  1.00  0.00     0.211 C 
HETATM   22  C28 UNL     1      24.782  -4.391   9.627  1.00  0.00     0.051 C 
HETATM   23  O10 UNL     1      25.904  -7.072   7.775  1.00  0.00    -0.355 OA
BRANCH  18  24
HETATM   24  O2  UNL     1      24.877  -5.206   5.418  1.00  0.00    -0.388 OA
ATOM     25  H2  UNL     1      24.057  -4.874   5.072  1.00  0.00     0.210 HD
ENDBRANCH  18  24
BRANCH  19  26
HETATM   26  O1  UNL     1      26.982  -4.831   6.727  1.00  0.00    -0.385 OA
HETATM   27  C1  UNL     1      27.712  -3.760   6.321  1.00  0.00     0.202 C 
ENDBRANCH  19  26
BRANCH  20  28
HETATM   28  O11 UNL     1      27.085  -4.671   9.572  1.00  0.00    -0.385 OA
ATOM     29  H11 UNL     1      27.708  -5.372   9.722  1.00  0.00     0.210 HD
ENDBRANCH  20  28
ENDBRANCH  16  17
ENDBRANCH   5  16
BRANCH   7  30
HETATM   30  O4  UNL     1      23.167 -11.125   7.118  1.00  0.00    -0.379 OA
BRANCH  30  31
HETATM   31  C8  UNL     1      24.337 -11.037   7.799  1.00  0.00     0.122 C 
HETATM   32  C9  UNL     1      24.612 -12.226   8.710  1.00  0.00     0.032 C 
HETATM   33  C10 UNL     1      26.090 -12.209   9.112  1.00  0.00     0.002 C 
HETATM   34  C11 UNL     1      26.926 -12.682   7.935  1.00  0.00     0.000 C 
HETATM   35  C12 UNL     1      26.130 -12.388   6.686  1.00  0.00     0.002 C 
HETATM   36  C13 UNL     1      25.471 -11.031   6.786  1.00  0.00     0.032 C 
ENDBRANCH  30  31
ENDBRANCH   7  30
BRANCH  15  37
HETATM   37  O5  UNL     1      17.305  -7.288   5.964  1.00  0.00    -0.343 OA
ATOM     38  H5  UNL     1      16.714  -6.853   6.568  1.00  0.00     0.215 HD
ENDBRANCH  15  37
BRANCH  15  39
HETATM   39  O6  UNL     1      18.566  -7.046   7.876  1.00  0.00    -0.332 OA
BRANCH  39  40
HETATM   40  C21 UNL     1      18.010  -7.784   8.867  1.00  0.00     0.184 C 
BRANCH  40  41
HETATM   41  C22 UNL     1      18.572  -7.668  10.235  1.00  0.00     0.111 C 
HETATM   42 BR1  UNL     1      20.311  -8.572  10.208  1.00  0.00    -0.094 Br
ENDBRANCH  40  41
ENDBRANCH  39  40
ENDBRANCH  15  39
ENDBRANCH   1   4
BRANCH   1  43
HETATM   43  O8  UNL     1      22.342  -5.435   3.981  1.00  0.00    -0.350 OA
ATOM     44  H8  UNL     1      23.122  -5.084   4.394  1.00  0.00     0.214 HD
ENDBRANCH   1  43
BRANCH   1  45
HETATM   45  O9  UNL     1      23.588  -7.177   3.492  1.00  0.00    -0.350 OA
ATOM     46  H9  UNL     1      23.732  -6.748   2.656  1.00  0.00     0.214 HD
ENDBRANCH   1  45
TORSDOF 14
ENDMDL
MODEL 3
REMARK VINA RESULT: -6.493855342      3.553      6.844
REMARK  14 active torsions:
REMARK  status: ('A' for Active; 'I' for Inactive)
REMARK    1  A    between atoms: O1_2  and  C2_3 
REMARK    2  A    between atoms: C3_4  and  O2_5 
REMARK    3  A    between atoms: C4_7  and  O3_8 
REMARK    4  A    between atoms: O3_8  and  C5_9 
REMARK    5  A    between atoms: C7_11  and  O4_12 
REMARK    6  A    between atoms: O4_12  and  C8_13 
REMARK    7  A    between atoms: C20_25  and  O5_26 
REMARK    8  A    between atoms: C20_25  and  O6_28 
REMARK    9  A    between atoms: O6_28  and  C21_29 
REMARK   10  A    between atoms: C21_29  and  C22_30 
REMARK   11  A    between atoms: C23_33  and  C24_34 
REMARK   12  A    between atoms: C24_34  and  O8_35 
REMARK   13  A    between atoms: C24_34  and  O9_37 
REMARK   14  A    between atoms: C27_43  and  O11_45 
ROOT
HETATM    1  C24 UNL     1      21.947  -7.889   5.393  1.00  0.00     0.282 C 
HETATM    2  C25 UNL     1      20.898  -8.580   4.703  1.00  0.00     0.133 C 
HETATM    3  N1  UNL     1      20.054  -9.140   4.169  1.00  0.00    -0.191 NA
ENDROOT
BRANCH   1   4
HETATM    4  C23 UNL     1      22.554  -8.563   6.565  1.00  0.00     0.034 C 
HETATM    5  C5  UNL     1      23.993  -8.943   6.477  1.00  0.00     0.163 C 
HETATM    6  C6  UNL     1      24.429  -9.713   7.717  1.00  0.00     0.070 C 
HETATM    7  C7  UNL     1      24.318 -11.177   7.534  1.00  0.00     0.139 C 
HETATM    8  C14 UNL     1      22.984 -11.688   7.168  1.00  0.00     0.028 C 
HETATM    9  C15 UNL     1      22.798 -12.004   5.703  1.00  0.00     0.025 C 
HETATM   10  C16 UNL     1      22.820 -13.042   7.898  1.00  0.00     0.025 C 
HETATM   11  C17 UNL     1      21.871 -10.823   7.564  1.00  0.00     0.070 C 
HETATM   12  C18 UNL     1      21.717  -9.539   7.284  1.00  0.00    -0.009 C 
HETATM   13  O7  UNL     1      20.805 -11.292   8.319  1.00  0.00    -0.293 OA
HETATM   14  C19 UNL     1      20.436  -9.124   7.899  1.00  0.00     0.144 C 
HETATM   15  C20 UNL     1      20.033 -10.258   8.856  1.00  0.00     0.288 C 
BRANCH   5  16
HETATM   16  O3  UNL     1      24.853  -7.895   6.249  1.00  0.00    -0.349 OA
BRANCH  16  17
HETATM   17  C4  UNL     1      24.995  -6.977   7.246  1.00  0.00     0.291 C 
HETATM   18  C3  UNL     1      24.705  -5.555   6.799  1.00  0.00     0.205 C 
HETATM   19  C2  UNL     1      25.739  -4.563   7.347  1.00  0.00     0.190 C 
HETATM   20  C27 UNL     1      25.877  -4.814   8.817  1.00  0.00     0.104 C 
HETATM   21  C26 UNL     1      25.971  -6.291   9.141  1.00  0.00     0.211 C 
HETATM   22  C28 UNL     1      24.620  -4.290   9.481  1.00  0.00     0.051 C 
HETATM   23  O10 UNL     1      26.181  -6.939   7.925  1.00  0.00    -0.355 OA
BRANCH  18  24
HETATM   24  O2  UNL     1      24.850  -5.559   5.392  1.00  0.00    -0.388 OA
ATOM     25  H2  UNL     1      23.979  -5.458   5.027  1.00  0.00     0.210 HD
ENDBRANCH  18  24
BRANCH  19  26
HETATM   26  O1  UNL     1      26.861  -4.683   6.606  1.00  0.00    -0.385 OA
HETATM   27  C1  UNL     1      27.476  -3.549   6.182  1.00  0.00     0.202 C 
ENDBRANCH  19  26
BRANCH  20  28
HETATM   28  O11 UNL     1      26.936  -4.180   9.412  1.00  0.00    -0.385 OA
ATOM     29  H11 UNL     1      27.784  -4.370   9.027  1.00  0.00     0.210 HD
ENDBRANCH  20  28
ENDBRANCH  16  17
ENDBRANCH   5  16
BRANCH   7  30
HETATM   30  O4  UNL     1      25.368 -11.746   6.831  1.00  0.00    -0.379 OA
BRANCH  30  31
HETATM   31  C8  UNL     1      26.430 -12.198   7.544  1.00  0.00     0.122 C 
HETATM   32  C9  UNL     1      26.150 -12.356   9.033  1.00  0.00     0.032 C 
HETATM   33  C10 UNL     1      27.254 -13.217   9.654  1.00  0.00     0.002 C 
HETATM   34  C11 UNL     1      27.021 -14.668   9.269  1.00  0.00     0.000 C 
HETATM   35  C12 UNL     1      26.239 -14.659   7.977  1.00  0.00     0.002 C 
HETATM   36  C13 UNL     1      26.770 -13.593   7.045  1.00  0.00     0.032 C 
ENDBRANCH  30  31
ENDBRANCH   7  30
BRANCH  15  37
HETATM   37  O5  UNL     1      18.654 -10.476   8.759  1.00  0.00    -0.343 OA
ATOM     38  H5  UNL     1      18.402 -11.168   9.360  1.00  0.00     0.215 HD
ENDBRANCH  15  37
BRANCH  15  39
HETATM   39  O6  UNL     1      20.435  -9.940  10.116  1.00  0.00    -0.332 OA
BRANCH  39  40
HETATM   40  C21 UNL     1      20.459  -8.638  10.491  1.00  0.00     0.184 C 
BRANCH  40  41
HETATM   41  C22 UNL     1      19.388  -8.142  11.390  1.00  0.00     0.111 C 
HETATM   42 BR1  UNL     1      19.661  -9.012  13.125  1.00  0.00    -0.094 Br
ENDBRANCH  40  41
ENDBRANCH  39  40
ENDBRANCH  15  39
ENDBRANCH   1   4
BRANCH   1  43
HETATM   43  O8  UNL     1      21.484  -6.589   5.696  1.00  0.00    -0.350 OA
ATOM     44  H8  UNL     1      22.147  -6.057   6.122  1.00  0.00     0.214 HD
ENDBRANCH   1  43
BRANCH   1  45
HETATM   45  O9  UNL     1      22.938  -7.599   4.397  1.00  0.00    -0.350 OA
ATOM     46  H9  UNL     1      23.564  -6.959   4.715  1.00  0.00     0.214 HD
ENDBRANCH   1  45
TORSDOF 14
ENDMDL
MODEL 4
REMARK VINA RESULT: -6.482723195      2.680      5.079
REMARK  14 active torsions:
REMARK  status: ('A' for Active; 'I' for Inactive)
REMARK    1  A    between atoms: O1_2  and  C2_3 
REMARK    2  A    between atoms: C3_4  and  O2_5 
REMARK    3  A    between atoms: C4_7  and  O3_8 
REMARK    4  A    between atoms: O3_8  and  C5_9 
REMARK    5  A    between atoms: C7_11  and  O4_12 
REMARK    6  A    between atoms: O4_12  and  C8_13 
REMARK    7  A    between atoms: C20_25  and  O5_26 
REMARK    8  A    between atoms: C20_25  and  O6_28 
REMARK    9  A    between atoms: O6_28  and  C21_29 
REMARK   10  A    between atoms: C21_29  and  C22_30 
REMARK   11  A    between atoms: C23_33  and  C24_34 
REMARK   12  A    between atoms: C24_34  and  O8_35 
REMARK   13  A    between atoms: C24_34  and  O9_37 
REMARK   14  A    between atoms: C27_43  and  O11_45 
ROOT
HETATM    1  C24 UNL     1      25.594  -7.824   4.426  1.00  0.00     0.282 C 
HETATM    2  C25 UNL     1      26.352  -8.632   3.516  1.00  0.00     0.133 C 
HETATM    3  N1  UNL     1      26.940  -9.279   2.777  1.00  0.00    -0.191 NA
ENDROOT
BRANCH   1   4
HETATM    4  C23 UNL     1      24.171  -8.180   4.634  1.00  0.00     0.034 C 
HETATM    5  C5  UNL     1      23.541  -7.787   5.928  1.00  0.00     0.163 C 
HETATM    6  C6  UNL     1      22.115  -8.316   6.020  1.00  0.00     0.070 C 
HETATM    7  C7  UNL     1      22.048  -9.626   6.705  1.00  0.00     0.139 C 
HETATM    8  C14 UNL     1      22.861 -10.709   6.120  1.00  0.00     0.028 C 
HETATM    9  C15 UNL     1      24.169 -10.981   6.826  1.00  0.00     0.025 C 
HETATM   10  C16 UNL     1      22.038 -12.007   6.280  1.00  0.00     0.025 C 
HETATM   11  C17 UNL     1      23.169 -10.539   4.699  1.00  0.00     0.070 C 
HETATM   12  C18 UNL     1      23.726  -9.487   4.121  1.00  0.00    -0.009 C 
HETATM   13  O7  UNL     1      22.889 -11.523   3.762  1.00  0.00    -0.293 OA
HETATM   14  C19 UNL     1      23.830  -9.804   2.679  1.00  0.00     0.144 C 
HETATM   15  C20 UNL     1      22.955 -11.047   2.450  1.00  0.00     0.288 C 
BRANCH   5  16
HETATM   16  O3  UNL     1      23.560  -6.439   6.191  1.00  0.00    -0.349 OA
BRANCH  16  17
HETATM   17  C4  UNL     1      24.299  -6.023   7.259  1.00  0.00     0.291 C 
HETATM   18  C3  UNL     1      24.841  -4.613   7.101  1.00  0.00     0.205 C 
HETATM   19  C2  UNL     1      26.303  -4.511   7.552  1.00  0.00     0.190 C 
HETATM   20  C27 UNL     1      26.410  -5.147   8.903  1.00  0.00     0.104 C 
HETATM   21  C26 UNL     1      25.665  -6.464   8.977  1.00  0.00     0.211 C 
HETATM   22  C28 UNL     1      25.753  -4.207   9.895  1.00  0.00     0.051 C 
HETATM   23  O10 UNL     1      25.348  -6.801   7.662  1.00  0.00    -0.355 OA
BRANCH  18  24
HETATM   24  O2  UNL     1      24.824  -4.349   5.711  1.00  0.00    -0.388 OA
ATOM     25  H2  UNL     1      24.090  -4.832   5.350  1.00  0.00     0.210 HD
ENDBRANCH  18  24
BRANCH  19  26
HETATM   26  O1  UNL     1      27.075  -5.033   6.576  1.00  0.00    -0.385 OA
HETATM   27  C1  UNL     1      27.987  -4.226   5.976  1.00  0.00     0.202 C 
ENDBRANCH  19  26
BRANCH  20  28
HETATM   28  O11 UNL     1      27.690  -5.358   9.342  1.00  0.00    -0.385 OA
ATOM     29  H11 UNL     1      28.136  -6.093   8.937  1.00  0.00     0.210 HD
ENDBRANCH  20  28
ENDBRANCH  16  17
ENDBRANCH   5  16
BRANCH   7  30
HETATM   30  O4  UNL     1      22.094  -9.550   8.088  1.00  0.00    -0.379 OA
BRANCH  30  31
HETATM   31  C8  UNL     1      21.325  -8.610   8.691  1.00  0.00     0.122 C 
HETATM   32  C9  UNL     1      19.890  -9.053   8.941  1.00  0.00     0.032 C 
HETATM   33  C10 UNL     1      19.244  -8.096   9.946  1.00  0.00     0.002 C 
HETATM   34  C11 UNL     1      19.777  -8.407  11.335  1.00  0.00     0.000 C 
HETATM   35  C12 UNL     1      21.131  -9.048  11.151  1.00  0.00     0.002 C 
HETATM   36  C13 UNL     1      21.910  -8.336  10.068  1.00  0.00     0.032 C 
ENDBRANCH  30  31
ENDBRANCH   7  30
BRANCH  15  37
HETATM   37  O5  UNL     1      23.607 -11.916   1.567  1.00  0.00    -0.343 OA
ATOM     38  H5  UNL     1      23.922 -12.673   2.047  1.00  0.00     0.215 HD
ENDBRANCH  15  37
BRANCH  15  39
HETATM   39  O6  UNL     1      21.732 -10.653   2.002  1.00  0.00    -0.332 OA
BRANCH  39  40
HETATM   40  C21 UNL     1      21.650  -9.600   1.151  1.00  0.00     0.184 C 
BRANCH  40  41
HETATM   41  C22 UNL     1      20.510  -8.662   1.297  1.00  0.00     0.111 C 
HETATM   42 BR1  UNL     1      21.182  -7.108   2.284  1.00  0.00    -0.094 Br
ENDBRANCH  40  41
ENDBRANCH  39  40
ENDBRANCH  15  39
ENDBRANCH   1   4
BRANCH   1  43
HETATM   43  O8  UNL     1      25.765  -6.473   4.052  1.00  0.00    -0.350 OA
ATOM     44  H8  UNL     1      26.280  -5.983   4.683  1.00  0.00     0.214 HD
ENDBRANCH   1  43
BRANCH   1  45
HETATM   45  O9  UNL     1      26.319  -7.857   5.664  1.00  0.00    -0.350 OA
ATOM     46  H9  UNL     1      27.135  -7.375   5.594  1.00  0.00     0.214 HD
ENDBRANCH   1  45
TORSDOF 14
ENDMDL
MODEL 5
REMARK VINA RESULT: -6.397449244      2.611      5.050
REMARK  14 active torsions:
REMARK  status: ('A' for Active; 'I' for Inactive)
REMARK    1  A    between atoms: O1_2  and  C2_3 
REMARK    2  A    between atoms: C3_4  and  O2_5 
REMARK    3  A    between atoms: C4_7  and  O3_8 
REMARK    4  A    between atoms: O3_8  and  C5_9 
REMARK    5  A    between atoms: C7_11  and  O4_12 
REMARK    6  A    between atoms: O4_12  and  C8_13 
REMARK    7  A    between atoms: C20_25  and  O5_26 
REMARK    8  A    between atoms: C20_25  and  O6_28 
REMARK    9  A    between atoms: O6_28  and  C21_29 
REMARK   10  A    between atoms: C21_29  and  C22_30 
REMARK   11  A    between atoms: C23_33  and  C24_34 
REMARK   12  A    between atoms: C24_34  and  O8_35 
REMARK   13  A    between atoms: C24_34  and  O9_37 
REMARK   14  A    between atoms: C27_43  and  O11_45 
ROOT
HETATM    1  C24 UNL     1      25.821  -9.345   4.180  1.00  0.00     0.282 C 
HETATM    2  C25 UNL     1      26.587 -10.520   4.475  1.00  0.00     0.133 C 
HETATM    3  N1  UNL     1      27.182 -11.471   4.706  1.00  0.00    -0.191 NA
ENDROOT
BRANCH   1   4
HETATM    4  C23 UNL     1      24.377  -9.369   4.509  1.00  0.00     0.034 C 
HETATM    5  C5  UNL     1      23.927  -8.604   5.708  1.00  0.00     0.163 C 
HETATM    6  C6  UNL     1      22.440  -8.817   5.961  1.00  0.00     0.070 C 
HETATM    7  C7  UNL     1      22.188  -9.920   6.915  1.00  0.00     0.139 C 
HETATM    8  C14 UNL     1      22.746 -11.236   6.552  1.00  0.00     0.028 C 
HETATM    9  C15 UNL     1      24.031 -11.603   7.254  1.00  0.00     0.025 C 
HETATM   10  C16 UNL     1      21.715 -12.290   7.016  1.00  0.00     0.025 C 
HETATM   11  C17 UNL     1      22.972 -11.425   5.117  1.00  0.00     0.070 C 
HETATM   12  C18 UNL     1      23.665 -10.643   4.306  1.00  0.00    -0.009 C 
HETATM   13  O7  UNL     1      22.449 -12.509   4.426  1.00  0.00    -0.293 OA
HETATM   14  C19 UNL     1      23.602 -11.264   2.965  1.00  0.00     0.144 C 
HETATM   15  C20 UNL     1      22.502 -12.335   3.040  1.00  0.00     0.288 C 
BRANCH   5  16
HETATM   16  O3  UNL     1      24.209  -7.259   5.672  1.00  0.00    -0.349 OA
BRANCH  16  17
HETATM   17  C4  UNL     1      24.577  -6.669   6.844  1.00  0.00     0.291 C 
HETATM   18  C3  UNL     1      24.637  -5.153   6.759  1.00  0.00     0.205 C 
HETATM   19  C2  UNL     1      25.884  -4.593   7.455  1.00  0.00     0.190 C 
HETATM   20  C27 UNL     1      25.967  -5.215   8.814  1.00  0.00     0.104 C 
HETATM   21  C26 UNL     1      25.703  -6.706   8.779  1.00  0.00     0.211 C 
HETATM   22  C28 UNL     1      24.879  -4.588   9.662  1.00  0.00     0.051 C 
HETATM   23  O10 UNL     1      25.741  -7.073   7.435  1.00  0.00    -0.355 OA
BRANCH  18  24
HETATM   24  O2  UNL     1      24.767  -4.851   5.384  1.00  0.00    -0.388 OA
ATOM     25  H2  UNL     1      25.608  -5.195   5.106  1.00  0.00     0.210 HD
ENDBRANCH  18  24
BRANCH  19  26
HETATM   26  O1  UNL     1      26.938  -4.789   6.635  1.00  0.00    -0.385 OA
HETATM   27  C1  UNL     1      27.703  -3.717   6.304  1.00  0.00     0.202 C 
ENDBRANCH  19  26
BRANCH  20  28
HETATM   28  O11 UNL     1      27.152  -5.009   9.470  1.00  0.00    -0.385 OA
ATOM     29  H11 UNL     1      27.538  -5.789   9.853  1.00  0.00     0.210 HD
ENDBRANCH  20  28
ENDBRANCH  16  17
ENDBRANCH   5  16
BRANCH   7  30
HETATM   30  O4  UNL     1      22.350  -9.571   8.247  1.00  0.00    -0.379 OA
BRANCH  30  31
HETATM   31  C8  UNL     1      21.537  -8.606   8.746  1.00  0.00     0.122 C 
HETATM   32  C9  UNL     1      20.071  -9.012   8.820  1.00  0.00     0.032 C 
HETATM   33  C10 UNL     1      19.332  -8.031   9.734  1.00  0.00     0.002 C 
HETATM   34  C11 UNL     1      19.682  -8.345  11.179  1.00  0.00     0.000 C 
HETATM   35  C12 UNL     1      21.032  -9.020  11.166  1.00  0.00     0.002 C 
HETATM   36  C13 UNL     1      21.956  -8.337  10.183  1.00  0.00     0.032 C 
ENDBRANCH  30  31
ENDBRANCH   7  30
BRANCH  15  37
HETATM   37  O5  UNL     1      22.919 -13.477   2.345  1.00  0.00    -0.343 OA
ATOM     38  H5  UNL     1      22.161 -14.011   2.134  1.00  0.00     0.215 HD
ENDBRANCH  15  37
BRANCH  15  39
HETATM   39  O6  UNL     1      21.341 -11.813   2.560  1.00  0.00    -0.332 OA
BRANCH  39  40
HETATM   40  C21 UNL     1      21.387 -10.963   1.506  1.00  0.00     0.184 C 
BRANCH  40  41
HETATM   41  C22 UNL     1      20.443  -9.819   1.480  1.00  0.00     0.111 C 
HETATM   42 BR1  UNL     1      21.407  -8.275   2.205  1.00  0.00    -0.094 Br
ENDBRANCH  40  41
ENDBRANCH  39  40
ENDBRANCH  15  39
ENDBRANCH   1   4
BRANCH   1  43
HETATM   43  O8  UNL     1      26.064  -8.996   2.833  1.00  0.00    -0.350 OA
ATOM     44  H8  UNL     1      26.958  -9.176   2.565  1.00  0.00     0.214 HD
ENDBRANCH   1  43
BRANCH   1  45
HETATM   45  O9  UNL     1      26.487  -8.271   4.862  1.00  0.00    -0.350 OA
ATOM     46  H9  UNL     1      27.393  -8.201   4.584  1.00  0.00     0.214 HD
ENDBRANCH   1  45
TORSDOF 14
ENDMDL
