MODEL 1
REMARK VINA RESULT: -7.503207938      0.000      0.000
REMARK  15 active torsions:
REMARK  status: ('A' for Active; 'I' for Inactive)
REMARK    1  A    between atoms: O1_2  and  C2_3 
REMARK    2  A    between atoms: C2_3  and  C3_5 
REMARK    3  A    between atoms: C3_5  and  C4_6 
REMARK    4  A    between atoms: C3_5  and  C20_33 
REMARK    5  A    between atoms: C5_7  and  C6_8 
REMARK    6  A    between atoms: C10_14  and  O5_15 
REMARK    7  A    between atoms: C17_26  and  O8_27 
REMARK    8  A    between atoms: C18_29  and  O9_31 
REMARK    9  A    between atoms: C20_33  and  O10_34 
REMARK   10  A    between atoms: C20_33  and  O11_36 
REMARK   11  A    between atoms: C20_33  and  C21_38 
REMARK   12  A    between atoms: C21_38  and  C22_40 
REMARK   13  A    between atoms: C23_41  and  C24_42 
REMARK   14  A    between atoms: C24_42  and  C25_43 
REMARK   15  A    between atoms: C25_43  and  C26_44 
ROOT
HETATM    1  C6  UNL     1      23.372  -9.967   5.537  1.00  0.00     0.184 C 
HETATM    2  O3  UNL     1      23.011  -8.545   5.551  1.00  0.00    -0.334 OA
HETATM    3  C7  UNL     1      24.152  -7.841   5.473  1.00  0.00     0.270 C 
HETATM    4  O4  UNL     1      24.052  -6.445   5.758  1.00  0.00    -0.303 OA
HETATM    5  C8  UNL     1      25.246  -5.754   5.445  1.00  0.00     0.084 A 
HETATM    6  C9  UNL     1      25.443  -4.449   5.890  1.00  0.00     0.075 A 
HETATM    7  C10 UNL     1      26.596  -3.746   5.602  1.00  0.00     0.085 A 
HETATM    8  C11 UNL     1      27.577  -4.362   4.851  1.00  0.00     0.044 A 
HETATM    9 BR1  UNL     1      29.201  -3.450   4.415  1.00  0.00    -0.048 Br
HETATM   10  C12 UNL     1      27.429  -5.659   4.386  1.00  0.00     0.034 A 
HETATM   11  C13 UNL     1      26.262  -6.312   4.701  1.00  0.00     0.007 A 
HETATM   12  C14 UNL     1      26.084  -7.726   4.188  1.00  0.00     0.180 C 
HETATM   13  O6  UNL     1      26.360  -8.544   5.342  1.00  0.00    -0.306 OA
HETATM   14  C15 UNL     1      25.317  -8.303   6.242  1.00  0.00     0.324 C 
HETATM   15  O7  UNL     1      25.346  -8.446   7.488  1.00  0.00    -0.259 OA
HETATM   16  C16 UNL     1      24.622  -7.878   4.017  1.00  0.00     0.125 C 
HETATM   17  C17 UNL     1      24.082  -9.028   3.287  1.00  0.00     0.167 C 
HETATM   18  C18 UNL     1      23.776 -10.272   4.139  1.00  0.00     0.110 C 
HETATM   19  C19 UNL     1      25.040 -11.108   4.012  1.00  0.00     0.051 C 
ENDROOT
BRANCH   1  20
HETATM   20  C5  UNL     1      22.162 -10.573   6.123  1.00  0.00     0.005 C 
HETATM   21  C4  UNL     1      21.566 -10.486   7.413  1.00  0.00    -0.008 C 
BRANCH  21  22
HETATM   22  C3  UNL     1      22.006 -10.789   8.760  1.00  0.00     0.178 C 
BRANCH  22  23
HETATM   23  C2  UNL     1      23.157 -11.631   9.026  1.00  0.00     0.272 C 
HETATM   24  O2  UNL     1      23.023 -12.841   9.318  1.00  0.00    -0.264 OA
BRANCH  23  25
HETATM   25  O1  UNL     1      24.435 -11.104   8.961  1.00  0.00    -0.326 OA
HETATM   26  C1  UNL     1      25.545 -11.854   8.574  1.00  0.00     0.213 C 
ENDBRANCH  23  25
ENDBRANCH  22  23
BRANCH  22  27
HETATM   27  C20 UNL     1      22.190  -9.477   9.590  1.00  0.00     0.243 C 
BRANCH  27  28
HETATM   28  O10 UNL     1      22.927  -8.586   8.779  1.00  0.00    -0.358 OA
ATOM     29  H10 UNL     1      22.895  -7.739   9.208  1.00  0.00     0.213 HD
ENDBRANCH  27  28
BRANCH  27  30
HETATM   30  O11 UNL     1      22.891  -9.774  10.731  1.00  0.00    -0.358 OA
ATOM     31  H11 UNL     1      22.288 -10.124  11.376  1.00  0.00     0.213 HD
ENDBRANCH  27  30
BRANCH  27  32
HETATM   32  C21 UNL     1      20.884  -8.913   9.913  1.00  0.00     0.211 C 
HETATM   33  O12 UNL     1      20.434  -7.999   9.145  1.00  0.00    -0.287 OA
BRANCH  32  34
HETATM   34  C22 UNL     1      20.022  -9.282  11.040  1.00  0.00     0.052 C 
HETATM   35  C23 UNL     1      19.906  -8.534  12.099  1.00  0.00    -0.023 C 
BRANCH  35  36
HETATM   36  C24 UNL     1      19.080  -8.831  13.254  1.00  0.00     0.027 C 
BRANCH  36  37
HETATM   37  C25 UNL     1      18.178  -7.771  13.753  1.00  0.00     0.007 C 
BRANCH  37  38
HETATM   38  C26 UNL     1      18.296  -6.438  13.077  1.00  0.00    -0.023 C 
HETATM   39  C27 UNL     1      17.094  -6.221  12.156  1.00  0.00     0.009 C 
HETATM   40  C28 UNL     1      18.238  -5.393  14.206  1.00  0.00     0.009 C 
ENDBRANCH  37  38
ENDBRANCH  36  37
ENDBRANCH  35  36
ENDBRANCH  32  34
ENDBRANCH  27  32
ENDBRANCH  22  27
ENDBRANCH  21  22
ENDBRANCH   1  20
BRANCH  18  41
HETATM   41  O9  UNL     1      22.738 -10.914   3.478  1.00  0.00    -0.385 OA
ATOM     42  H9  UNL     1      22.655 -10.569   2.597  1.00  0.00     0.210 HD
ENDBRANCH  18  41
BRANCH  17  43
HETATM   43  O8  UNL     1      24.856  -9.365   2.190  1.00  0.00    -0.392 OA
ATOM     44  H8  UNL     1      24.385  -9.908   1.569  1.00  0.00     0.210 HD
ENDBRANCH  17  43
BRANCH   7  45
HETATM   45  O5  UNL     1      26.774  -2.428   6.061  1.00  0.00    -0.359 OA
ATOM     46  H5  UNL     1      26.911  -1.712   5.451  1.00  0.00     0.217 HD
ENDBRANCH   7  45
TORSDOF 15
ENDMDL
MODEL 2
REMARK VINA RESULT: -7.441949242      3.965      7.686
REMARK  15 active torsions:
REMARK  status: ('A' for Active; 'I' for Inactive)
REMARK    1  A    between atoms: O1_2  and  C2_3 
REMARK    2  A    between atoms: C2_3  and  C3_5 
REMARK    3  A    between atoms: C3_5  and  C4_6 
REMARK    4  A    between atoms: C3_5  and  C20_33 
REMARK    5  A    between atoms: C5_7  and  C6_8 
REMARK    6  A    between atoms: C10_14  and  O5_15 
REMARK    7  A    between atoms: C17_26  and  O8_27 
REMARK    8  A    between atoms: C18_29  and  O9_31 
REMARK    9  A    between atoms: C20_33  and  O10_34 
REMARK   10  A    between atoms: C20_33  and  O11_36 
REMARK   11  A    between atoms: C20_33  and  C21_38 
REMARK   12  A    between atoms: C21_38  and  C22_40 
REMARK   13  A    between atoms: C23_41  and  C24_42 
REMARK   14  A    between atoms: C24_42  and  C25_43 
REMARK   15  A    between atoms: C25_43  and  C26_44 
ROOT
HETATM    1  C6  UNL     1      23.612  -7.792   6.374  1.00  0.00     0.184 C 
HETATM    2  O3  UNL     1      24.803  -8.647   6.455  1.00  0.00    -0.334 OA
HETATM    3  C7  UNL     1      24.445  -9.772   7.096  1.00  0.00     0.270 C 
HETATM    4  O4  UNL     1      25.513 -10.613   7.534  1.00  0.00    -0.303 OA
HETATM    5  C8  UNL     1      25.043 -11.864   8.001  1.00  0.00     0.084 A 
HETATM    6  C9  UNL     1      25.888 -12.714   8.709  1.00  0.00     0.075 A 
HETATM    7  C10 UNL     1      25.462 -13.941   9.179  1.00  0.00     0.085 A 
HETATM    8  C11 UNL     1      24.159 -14.327   8.936  1.00  0.00     0.044 A 
HETATM    9 BR1  UNL     1      23.500 -16.011   9.558  1.00  0.00    -0.048 Br
HETATM   10  C12 UNL     1      23.279 -13.516   8.238  1.00  0.00     0.034 A 
HETATM   11  C13 UNL     1      23.756 -12.306   7.792  1.00  0.00     0.007 A 
HETATM   12  C14 UNL     1      22.806 -11.416   7.018  1.00  0.00     0.180 C 
HETATM   13  O6  UNL     1      22.403 -10.426   7.984  1.00  0.00    -0.306 OA
HETATM   14  C15 UNL     1      23.545  -9.665   8.254  1.00  0.00     0.324 C 
HETATM   15  O7  UNL     1      23.784  -9.003   9.292  1.00  0.00    -0.259 OA
HETATM   16  C16 UNL     1      23.679 -10.649   6.103  1.00  0.00     0.125 C 
HETATM   17  C17 UNL     1      23.095  -9.870   5.008  1.00  0.00     0.167 C 
HETATM   18  C18 UNL     1      22.734  -8.413   5.348  1.00  0.00     0.110 C 
HETATM   19  C19 UNL     1      21.265  -8.494   5.734  1.00  0.00     0.051 C 
ENDROOT
BRANCH   1  20
HETATM   20  C5  UNL     1      24.226  -6.472   6.142  1.00  0.00     0.005 C 
HETATM   21  C4  UNL     1      25.205  -6.011   5.217  1.00  0.00    -0.008 C 
BRANCH  21  22
HETATM   22  C3  UNL     1      26.579  -6.369   4.926  1.00  0.00     0.178 C 
BRANCH  22  23
HETATM   23  C2  UNL     1      26.922  -7.486   4.068  1.00  0.00     0.272 C 
HETATM   24  O2  UNL     1      28.107  -7.709   3.733  1.00  0.00    -0.264 OA
BRANCH  23  25
HETATM   25  O1  UNL     1      25.932  -8.334   3.600  1.00  0.00    -0.326 OA
HETATM   26  C1  UNL     1      26.203  -9.593   3.064  1.00  0.00     0.213 C 
ENDBRANCH  23  25
ENDBRANCH  22  23
BRANCH  22  27
HETATM   27  C20 UNL     1      27.377  -5.127   4.410  1.00  0.00     0.243 C 
BRANCH  27  28
HETATM   28  O10 UNL     1      27.057  -4.980   3.043  1.00  0.00    -0.358 OA
ATOM     29  H10 UNL     1      26.801  -4.074   2.920  1.00  0.00     0.213 HD
ENDBRANCH  27  28
BRANCH  27  30
HETATM   30  O11 UNL     1      28.718  -5.372   4.563  1.00  0.00    -0.358 OA
ATOM     31  H11 UNL     1      29.098  -4.674   5.081  1.00  0.00     0.213 HD
ENDBRANCH  27  30
BRANCH  27  32
HETATM   32  C21 UNL     1      26.977  -3.941   5.159  1.00  0.00     0.211 C 
HETATM   33  O12 UNL     1      26.501  -2.960   4.495  1.00  0.00    -0.287 OA
BRANCH  32  34
HETATM   34  C22 UNL     1      27.066  -3.746   6.610  1.00  0.00     0.052 C 
HETATM   35  C23 UNL     1      26.191  -3.043   7.271  1.00  0.00    -0.023 C 
BRANCH  35  36
HETATM   36  C24 UNL     1      26.212  -2.800   8.700  1.00  0.00     0.027 C 
BRANCH  36  37
HETATM   37  C25 UNL     1      26.736  -3.869   9.578  1.00  0.00     0.007 C 
BRANCH  37  38
HETATM   38  C26 UNL     1      25.722  -4.835  10.113  1.00  0.00    -0.023 C 
HETATM   39  C27 UNL     1      24.313  -4.320   9.810  1.00  0.00     0.009 C 
HETATM   40  C28 UNL     1      25.939  -6.141   9.328  1.00  0.00     0.009 C 
ENDBRANCH  37  38
ENDBRANCH  36  37
ENDBRANCH  35  36
ENDBRANCH  32  34
ENDBRANCH  27  32
ENDBRANCH  22  27
ENDBRANCH  21  22
ENDBRANCH   1  20
BRANCH  18  41
HETATM   41  O9  UNL     1      22.851  -7.725   4.148  1.00  0.00    -0.385 OA
ATOM     42  H9  UNL     1      23.367  -8.234   3.534  1.00  0.00     0.210 HD
ENDBRANCH  18  41
BRANCH  17  43
HETATM   43  O8  UNL     1      22.022 -10.515   4.418  1.00  0.00    -0.392 OA
ATOM     44  H8  UNL     1      21.210 -10.032   4.519  1.00  0.00     0.210 HD
ENDBRANCH  17  43
BRANCH   7  45
HETATM   45  O5  UNL     1      26.334 -14.785   9.892  1.00  0.00    -0.359 OA
ATOM     46  H5  UNL     1      26.064 -15.188  10.709  1.00  0.00     0.217 HD
ENDBRANCH   7  45
TORSDOF 15
ENDMDL
MODEL 3
REMARK VINA RESULT: -7.401961651      3.490      8.328
REMARK  15 active torsions:
REMARK  status: ('A' for Active; 'I' for Inactive)
REMARK    1  A    between atoms: O1_2  and  C2_3 
REMARK    2  A    between atoms: C2_3  and  C3_5 
REMARK    3  A    between atoms: C3_5  and  C4_6 
REMARK    4  A    between atoms: C3_5  and  C20_33 
REMARK    5  A    between atoms: C5_7  and  C6_8 
REMARK    6  A    between atoms: C10_14  and  O5_15 
REMARK    7  A    between atoms: C17_26  and  O8_27 
REMARK    8  A    between atoms: C18_29  and  O9_31 
REMARK    9  A    between atoms: C20_33  and  O10_34 
REMARK   10  A    between atoms: C20_33  and  O11_36 
REMARK   11  A    between atoms: C20_33  and  C21_38 
REMARK   12  A    between atoms: C21_38  and  C22_40 
REMARK   13  A    between atoms: C23_41  and  C24_42 
REMARK   14  A    between atoms: C24_42  and  C25_43 
REMARK   15  A    between atoms: C25_43  and  C26_44 
ROOT
HETATM    1  C6  UNL     1      23.202  -8.332   7.928  1.00  0.00     0.184 C 
HETATM    2  O3  UNL     1      22.562  -7.929   9.186  1.00  0.00    -0.334 OA
HETATM    3  C7  UNL     1      21.382  -8.567   9.258  1.00  0.00     0.270 C 
HETATM    4  O4  UNL     1      20.474  -8.101  10.257  1.00  0.00    -0.303 OA
HETATM    5  C8  UNL     1      19.359  -8.961  10.401  1.00  0.00     0.084 A 
HETATM    6  C9  UNL     1      18.243  -8.552  11.125  1.00  0.00     0.075 A 
HETATM    7  C10 UNL     1      17.139  -9.365  11.285  1.00  0.00     0.085 A 
HETATM    8  C11 UNL     1      17.150 -10.619  10.707  1.00  0.00     0.044 A 
HETATM    9 BR1  UNL     1      15.656 -11.799  10.886  1.00  0.00    -0.048 Br
HETATM   10  C12 UNL     1      18.237 -11.072   9.976  1.00  0.00     0.034 A 
HETATM   11  C13 UNL     1      19.309 -10.221   9.849  1.00  0.00     0.007 A 
HETATM   12  C14 UNL     1      20.507 -10.710   9.061  1.00  0.00     0.180 C 
HETATM   13  O6  UNL     1      20.370 -10.050   7.787  1.00  0.00    -0.306 OA
HETATM   14  C15 UNL     1      20.573  -8.689   8.035  1.00  0.00     0.324 C 
HETATM   15  O7  UNL     1      20.150  -7.724   7.354  1.00  0.00    -0.259 OA
HETATM   16  C16 UNL     1      21.661 -10.013   9.671  1.00  0.00     0.125 C 
HETATM   17  C17 UNL     1      23.028 -10.431   9.347  1.00  0.00     0.167 C 
HETATM   18  C18 UNL     1      23.669  -9.728   8.138  1.00  0.00     0.110 C 
HETATM   19  C19 UNL     1      23.379 -10.674   6.983  1.00  0.00     0.051 C 
ENDROOT
BRANCH   1  20
HETATM   20  C5  UNL     1      24.167  -7.234   7.736  1.00  0.00     0.005 C 
HETATM   21  C4  UNL     1      24.894  -6.774   6.601  1.00  0.00    -0.008 C 
BRANCH  21  22
HETATM   22  C3  UNL     1      25.851  -7.375   5.694  1.00  0.00     0.178 C 
BRANCH  22  23
HETATM   23  C2  UNL     1      25.703  -8.731   5.200  1.00  0.00     0.272 C 
HETATM   24  O2  UNL     1      26.439  -9.657   5.611  1.00  0.00    -0.264 OA
BRANCH  23  25
HETATM   25  O1  UNL     1      24.734  -9.026   4.256  1.00  0.00    -0.326 OA
HETATM   26  C1  UNL     1      24.809 -10.137   3.416  1.00  0.00     0.213 C 
ENDBRANCH  23  25
ENDBRANCH  22  23
BRANCH  22  27
HETATM   27  C20 UNL     1      26.092  -6.454   4.454  1.00  0.00     0.243 C 
BRANCH  27  28
HETATM   28  O10 UNL     1      24.817  -6.076   3.978  1.00  0.00    -0.358 OA
ATOM     29  H10 UNL     1      24.705  -6.500   3.135  1.00  0.00     0.213 HD
ENDBRANCH  27  28
BRANCH  27  30
HETATM   30  O11 UNL     1      26.765  -7.171   3.497  1.00  0.00    -0.358 OA
ATOM     31  H11 UNL     1      27.498  -6.654   3.189  1.00  0.00     0.213 HD
ENDBRANCH  27  30
BRANCH  27  32
HETATM   32  C21 UNL     1      26.856  -5.279   4.856  1.00  0.00     0.211 C 
HETATM   33  O12 UNL     1      28.082  -5.227   4.504  1.00  0.00    -0.287 OA
BRANCH  32  34
HETATM   34  C22 UNL     1      26.367  -4.136   5.635  1.00  0.00     0.052 C 
HETATM   35  C23 UNL     1      26.949  -3.743   6.731  1.00  0.00    -0.023 C 
BRANCH  35  36
HETATM   36  C24 UNL     1      26.525  -2.629   7.558  1.00  0.00     0.027 C 
BRANCH  36  37
HETATM   37  C25 UNL     1      26.202  -2.902   8.975  1.00  0.00     0.007 C 
BRANCH  37  38
HETATM   38  C26 UNL     1      25.437  -4.162   9.243  1.00  0.00    -0.023 C 
HETATM   39  C27 UNL     1      26.379  -5.224   9.813  1.00  0.00     0.009 C 
HETATM   40  C28 UNL     1      24.405  -3.799  10.325  1.00  0.00     0.009 C 
ENDBRANCH  37  38
ENDBRANCH  36  37
ENDBRANCH  35  36
ENDBRANCH  32  34
ENDBRANCH  27  32
ENDBRANCH  22  27
ENDBRANCH  21  22
ENDBRANCH   1  20
BRANCH  18  41
HETATM   41  O9  UNL     1      25.032  -9.735   8.399  1.00  0.00    -0.385 OA
ATOM     42  H9  UNL     1      25.230 -10.390   9.057  1.00  0.00     0.210 HD
ENDBRANCH  18  41
BRANCH  17  43
HETATM   43  O8  UNL     1      23.145 -11.806   9.232  1.00  0.00    -0.392 OA
ATOM     44  H8  UNL     1      23.026 -12.105   8.338  1.00  0.00     0.210 HD
ENDBRANCH  17  43
BRANCH   7  45
HETATM   45  O5  UNL     1      16.021  -8.932  12.022  1.00  0.00    -0.359 OA
ATOM     46  H5  UNL     1      15.161  -8.882  11.622  1.00  0.00     0.217 HD
ENDBRANCH   7  45
TORSDOF 15
ENDMDL
MODEL 4
REMARK VINA RESULT: -7.208483716      1.275      1.395
REMARK  15 active torsions:
REMARK  status: ('A' for Active; 'I' for Inactive)
REMARK    1  A    between atoms: O1_2  and  C2_3 
REMARK    2  A    between atoms: C2_3  and  C3_5 
REMARK    3  A    between atoms: C3_5  and  C4_6 
REMARK    4  A    between atoms: C3_5  and  C20_33 
REMARK    5  A    between atoms: C5_7  and  C6_8 
REMARK    6  A    between atoms: C10_14  and  O5_15 
REMARK    7  A    between atoms: C17_26  and  O8_27 
REMARK    8  A    between atoms: C18_29  and  O9_31 
REMARK    9  A    between atoms: C20_33  and  O10_34 
REMARK   10  A    between atoms: C20_33  and  O11_36 
REMARK   11  A    between atoms: C20_33  and  C21_38 
REMARK   12  A    between atoms: C21_38  and  C22_40 
REMARK   13  A    between atoms: C23_41  and  C24_42 
REMARK   14  A    between atoms: C24_42  and  C25_43 
REMARK   15  A    between atoms: C25_43  and  C26_44 
ROOT
HETATM    1  C6  UNL     1      22.135  -9.089   5.727  1.00  0.00     0.184 C 
HETATM    2  O3  UNL     1      22.226  -7.821   6.460  1.00  0.00    -0.334 OA
HETATM    3  C7  UNL     1      23.421  -7.278   6.175  1.00  0.00     0.270 C 
HETATM    4  O4  UNL     1      23.831  -6.189   7.002  1.00  0.00    -0.303 OA
HETATM    5  C8  UNL     1      24.989  -5.548   6.499  1.00  0.00     0.084 A 
HETATM    6  C9  UNL     1      25.693  -4.644   7.288  1.00  0.00     0.075 A 
HETATM    7  C10 UNL     1      26.826  -4.002   6.828  1.00  0.00     0.085 A 
HETATM    8  C11 UNL     1      27.266  -4.271   5.548  1.00  0.00     0.044 A 
HETATM    9 BR1  UNL     1      28.828  -3.420   4.844  1.00  0.00    -0.048 Br
HETATM   10  C12 UNL     1      26.600  -5.164   4.724  1.00  0.00     0.034 A 
HETATM   11  C13 UNL     1      25.478  -5.774   5.232  1.00  0.00     0.007 A 
HETATM   12  C14 UNL     1      24.737  -6.744   4.336  1.00  0.00     0.180 C 
HETATM   13  O6  UNL     1      25.146  -8.038   4.820  1.00  0.00    -0.306 OA
HETATM   14  C15 UNL     1      24.595  -8.161   6.100  1.00  0.00     0.324 C 
HETATM   15  O7  UNL     1      25.009  -8.887   7.035  1.00  0.00    -0.259 OA
HETATM   16  C16 UNL     1      23.328  -6.656   4.780  1.00  0.00     0.125 C 
HETATM   17  C17 UNL     1      22.262  -7.256   3.973  1.00  0.00     0.167 C 
HETATM   18  C18 UNL     1      21.925  -8.721   4.301  1.00  0.00     0.110 C 
HETATM   19  C19 UNL     1      22.770  -9.509   3.312  1.00  0.00     0.051 C 
ENDROOT
BRANCH   1  20
HETATM   20  C5  UNL     1      21.082  -9.783   6.490  1.00  0.00     0.005 C 
HETATM   21  C4  UNL     1      20.842  -9.936   7.885  1.00  0.00    -0.008 C 
BRANCH  21  22
HETATM   22  C3  UNL     1      21.594 -10.491   8.992  1.00  0.00     0.178 C 
BRANCH  22  23
HETATM   23  C2  UNL     1      22.694 -11.415   8.794  1.00  0.00     0.272 C 
HETATM   24  O2  UNL     1      22.497 -12.647   8.685  1.00  0.00    -0.264 OA
BRANCH  23  25
HETATM   25  O1  UNL     1      23.994 -10.945   8.720  1.00  0.00    -0.326 OA
HETATM   26  C1  UNL     1      25.108 -11.781   8.800  1.00  0.00     0.213 C 
ENDBRANCH  23  25
ENDBRANCH  22  23
BRANCH  22  27
HETATM   27  C20 UNL     1      22.107  -9.356   9.937  1.00  0.00     0.243 C 
BRANCH  27  28
HETATM   28  O10 UNL     1      22.887  -8.489   9.140  1.00  0.00    -0.358 OA
ATOM     29  H10 UNL     1      22.642  -8.655   8.238  1.00  0.00     0.213 HD
ENDBRANCH  27  28
BRANCH  27  30
HETATM   30  O11 UNL     1      22.878  -9.919  10.923  1.00  0.00    -0.358 OA
ATOM     31  H11 UNL     1      23.009  -9.277  11.610  1.00  0.00     0.213 HD
ENDBRANCH  27  30
BRANCH  27  32
HETATM   32  C21 UNL     1      20.971  -8.642  10.509  1.00  0.00     0.211 C 
HETATM   33  O12 UNL     1      20.393  -7.774   9.773  1.00  0.00    -0.287 OA
BRANCH  32  34
HETATM   34  C22 UNL     1      20.415  -8.809  11.855  1.00  0.00     0.052 C 
HETATM   35  C23 UNL     1      19.350  -8.173  12.251  1.00  0.00    -0.023 C 
BRANCH  35  36
HETATM   36  C24 UNL     1      18.743  -8.280  13.564  1.00  0.00     0.027 C 
BRANCH  36  37
HETATM   37  C25 UNL     1      17.752  -7.255  13.955  1.00  0.00     0.007 C 
BRANCH  37  38
HETATM   38  C26 UNL     1      17.993  -5.874  13.424  1.00  0.00    -0.023 C 
HETATM   39  C27 UNL     1      16.895  -5.509  12.423  1.00  0.00     0.009 C 
HETATM   40  C28 UNL     1      17.873  -4.936  14.639  1.00  0.00     0.009 C 
ENDBRANCH  37  38
ENDBRANCH  36  37
ENDBRANCH  35  36
ENDBRANCH  32  34
ENDBRANCH  27  32
ENDBRANCH  22  27
ENDBRANCH  21  22
ENDBRANCH   1  20
BRANCH  18  41
HETATM   41  O9  UNL     1      20.585  -8.865   3.970  1.00  0.00    -0.385 OA
ATOM     42  H9  UNL     1      20.318  -8.156   3.397  1.00  0.00     0.210 HD
ENDBRANCH  18  41
BRANCH  17  43
HETATM   43  O8  UNL     1      22.478  -7.097   2.614  1.00  0.00    -0.392 OA
ATOM     44  H8  UNL     1      21.864  -7.597   2.090  1.00  0.00     0.210 HD
ENDBRANCH  17  43
BRANCH   7  45
HETATM   45  O5  UNL     1      27.522  -3.090   7.643  1.00  0.00    -0.359 OA
ATOM     46  H5  UNL     1      27.692  -2.202   7.349  1.00  0.00     0.217 HD
ENDBRANCH   7  45
TORSDOF 15
ENDMDL
MODEL 5
REMARK VINA RESULT: -7.193184713      3.802      6.224
REMARK  15 active torsions:
REMARK  status: ('A' for Active; 'I' for Inactive)
REMARK    1  A    between atoms: O1_2  and  C2_3 
REMARK    2  A    between atoms: C2_3  and  C3_5 
REMARK    3  A    between atoms: C3_5  and  C4_6 
REMARK    4  A    between atoms: C3_5  and  C20_33 
REMARK    5  A    between atoms: C5_7  and  C6_8 
REMARK    6  A    between atoms: C10_14  and  O5_15 
REMARK    7  A    between atoms: C17_26  and  O8_27 
REMARK    8  A    between atoms: C18_29  and  O9_31 
REMARK    9  A    between atoms: C20_33  and  O10_34 
REMARK   10  A    between atoms: C20_33  and  O11_36 
REMARK   11  A    between atoms: C20_33  and  C21_38 
REMARK   12  A    between atoms: C21_38  and  C22_40 
REMARK   13  A    between atoms: C23_41  and  C24_42 
REMARK   14  A    between atoms: C24_42  and  C25_43 
REMARK   15  A    between atoms: C25_43  and  C26_44 
ROOT
HETATM    1  C6  UNL     1      23.773  -8.451   4.069  1.00  0.00     0.184 C 
HETATM    2  O3  UNL     1      22.890  -8.115   5.194  1.00  0.00    -0.334 OA
HETATM    3  C7  UNL     1      21.772  -7.580   4.678  1.00  0.00     0.270 C 
HETATM    4  O4  UNL     1      20.904  -6.923   5.604  1.00  0.00    -0.303 OA
HETATM    5  C8  UNL     1      19.663  -6.583   5.015  1.00  0.00     0.084 A 
HETATM    6  C9  UNL     1      18.790  -5.713   5.663  1.00  0.00     0.075 A 
HETATM    7  C10 UNL     1      17.572  -5.360   5.117  1.00  0.00     0.085 A 
HETATM    8  C11 UNL     1      17.217  -5.889   3.893  1.00  0.00     0.044 A 
HETATM    9 BR1  UNL     1      15.546  -5.444   3.076  1.00  0.00    -0.048 Br
HETATM   10  C12 UNL     1      18.051  -6.758   3.208  1.00  0.00     0.034 A 
HETATM   11  C13 UNL     1      19.251  -7.076   3.797  1.00  0.00     0.007 A 
HETATM   12  C14 UNL     1      20.165  -8.033   3.062  1.00  0.00     0.180 C 
HETATM   13  O6  UNL     1      21.161  -7.172   2.476  1.00  0.00    -0.306 OA
HETATM   14  C15 UNL     1      21.894  -6.649   3.546  1.00  0.00     0.324 C 
HETATM   15  O7  UNL     1      22.547  -5.578   3.563  1.00  0.00    -0.259 OA
HETATM   16  C16 UNL     1      20.916  -8.725   4.133  1.00  0.00     0.125 C 
HETATM   17  C17 UNL     1      21.713  -9.916   3.823  1.00  0.00     0.167 C 
HETATM   18  C18 UNL     1      23.176  -9.652   3.427  1.00  0.00     0.110 C 
HETATM   19  C19 UNL     1      23.128  -9.601   1.908  1.00  0.00     0.051 C 
ENDROOT
BRANCH   1  20
HETATM   20  C5  UNL     1      25.079  -8.528   4.748  1.00  0.00     0.005 C 
HETATM   21  C4  UNL     1      25.639  -7.821   5.849  1.00  0.00    -0.008 C 
BRANCH  21  22
HETATM   22  C3  UNL     1      25.912  -6.425   6.129  1.00  0.00     0.178 C 
BRANCH  22  23
HETATM   23  C2  UNL     1      26.023  -5.433   5.078  1.00  0.00     0.272 C 
HETATM   24  O2  UNL     1      25.169  -4.527   4.945  1.00  0.00    -0.264 OA
BRANCH  23  25
HETATM   25  O1  UNL     1      27.087  -5.472   4.193  1.00  0.00    -0.326 OA
HETATM   26  C1  UNL     1      28.286  -4.796   4.419  1.00  0.00     0.213 C 
ENDBRANCH  23  25
ENDBRANCH  22  23
BRANCH  22  27
HETATM   27  C20 UNL     1      24.908  -5.867   7.190  1.00  0.00     0.243 C 
BRANCH  27  28
HETATM   28  O10 UNL     1      23.649  -5.795   6.555  1.00  0.00    -0.358 OA
ATOM     29  H10 UNL     1      23.809  -5.877   5.623  1.00  0.00     0.213 HD
ENDBRANCH  27  28
BRANCH  27  30
HETATM   30  O11 UNL     1      25.322  -4.616   7.571  1.00  0.00    -0.358 OA
ATOM     31  H11 UNL     1      25.249  -4.546   8.515  1.00  0.00     0.213 HD
ENDBRANCH  27  30
BRANCH  27  32
HETATM   32  C21 UNL     1      24.852  -6.768   8.335  1.00  0.00     0.211 C 
HETATM   33  O12 UNL     1      25.921  -6.918   9.016  1.00  0.00    -0.287 OA
BRANCH  32  34
HETATM   34  C22 UNL     1      23.689  -7.535   8.794  1.00  0.00     0.052 C 
HETATM   35  C23 UNL     1      23.715  -8.831   8.912  1.00  0.00    -0.023 C 
BRANCH  35  36
HETATM   36  C24 UNL     1      22.609  -9.659   9.353  1.00  0.00     0.027 C 
BRANCH  36  37
HETATM   37  C25 UNL     1      21.983  -9.344  10.655  1.00  0.00     0.007 C 
BRANCH  37  38
HETATM   38  C26 UNL     1      20.486  -9.268  10.661  1.00  0.00    -0.023 C 
HETATM   39  C27 UNL     1      20.009  -8.621  11.963  1.00  0.00     0.009 C 
HETATM   40  C28 UNL     1      20.113  -8.336   9.493  1.00  0.00     0.009 C 
ENDBRANCH  37  38
ENDBRANCH  36  37
ENDBRANCH  35  36
ENDBRANCH  32  34
ENDBRANCH  27  32
ENDBRANCH  22  27
ENDBRANCH  21  22
ENDBRANCH   1  20
BRANCH  18  41
HETATM   41  O9  UNL     1      23.866 -10.789   3.822  1.00  0.00    -0.385 OA
ATOM     42  H9  UNL     1      23.338 -11.561   3.653  1.00  0.00     0.210 HD
ENDBRANCH  18  41
BRANCH  17  43
HETATM   43  O8  UNL     1      21.094 -10.735   2.894  1.00  0.00    -0.392 OA
ATOM     44  H8  UNL     1      21.436 -11.621   2.910  1.00  0.00     0.210 HD
ENDBRANCH  17  43
BRANCH   7  45
HETATM   45  O5  UNL     1      16.705  -4.479   5.791  1.00  0.00    -0.359 OA
ATOM     46  H5  UNL     1      15.766  -4.623   5.791  1.00  0.00     0.217 HD
ENDBRANCH   7  45
TORSDOF 15
ENDMDL
