MODEL 1
REMARK VINA RESULT: -7.555462093      0.000      0.000
REMARK  14 active torsions:
REMARK  status: ('A' for Active; 'I' for Inactive)
REMARK    1  A    between atoms: C2_2  and  C3_3 
REMARK    2  A    between atoms: C3_3  and  C4_4 
REMARK    3  A    between atoms: C8_8  and  O1_9 
REMARK    4  A    between atoms: C10_12  and  O2_13 
REMARK    5  A    between atoms: O2_13  and  C11_14 
REMARK    6  A    between atoms: C12_16  and  C13_17 
REMARK    7  A    between atoms: C13_17  and  O4_18 
REMARK    8  A    between atoms: C14_20  and  O5_21 
REMARK    9  A    between atoms: C15_23  and  O6_24 
REMARK   10  A    between atoms: C16_26  and  O7_27 
REMARK   11  A    between atoms: C19_31  and  C20_32 
REMARK   12  A    between atoms: C23_36  and  O9_37 
REMARK   13  A    between atoms: C25_39  and  O10_40 
REMARK   14  A    between atoms: C29_44  and  O11_45 
ROOT
HETATM    1  C4  UNL     1      20.213 -11.868   8.152  1.00  0.00     0.227 C 
HETATM    2  C5  UNL     1      21.657 -12.235   8.026  1.00  0.00     0.076 C 
HETATM    3  C6  UNL     1      21.857 -11.164   9.100  1.00  0.00     0.262 A 
HETATM    4  C7  UNL     1      22.711 -10.042   8.657  1.00  0.00     0.017 A 
HETATM    5  C8  UNL     1      24.084  -9.892   8.619  1.00  0.00     0.077 A 
HETATM    6  C9  UNL     1      24.679  -8.717   8.136  1.00  0.00     0.074 A 
HETATM    7  C10 UNL     1      23.916  -7.666   7.681  1.00  0.00     0.075 A 
HETATM    8  C17 UNL     1      22.530  -7.843   7.730  1.00  0.00     0.047 A 
HETATM    9  C18 UNL     1      21.944  -8.999   8.205  1.00  0.00    -0.011 A 
HETATM   10  C19 UNL     1      20.505  -9.418   8.363  1.00  0.00     0.267 A 
HETATM   11  N1  UNL     1      20.521 -10.705   8.917  1.00  0.00     0.112 N 
ENDROOT
BRANCH  10  12
HETATM   12  C20 UNL     1      19.837  -8.401   9.302  1.00  0.00     0.087 C 
HETATM   13  C21 UNL     1      19.733  -8.904  10.701  1.00  0.00     0.186 C 
HETATM   14  O8  UNL     1      18.459  -8.661  11.310  1.00  0.00    -0.347 OA
HETATM   15  C22 UNL     1      17.772  -7.494  11.028  1.00  0.00     0.116 A 
HETATM   16  C23 UNL     1      17.100  -6.752  12.007  1.00  0.00     0.136 A 
HETATM   17  C31 UNL     1      17.780  -7.087   9.709  1.00  0.00     0.046 A 
HETATM   18  C25 UNL     1      16.436  -5.589  11.631  1.00  0.00     0.113 A 
HETATM   19  C27 UNL     1      16.459  -5.203  10.303  1.00  0.00     0.008 A 
HETATM   20  C28 UNL     1      15.759  -3.971   9.899  1.00  0.00     0.054 C 
HETATM   21  C29 UNL     1      17.122  -5.937   9.339  1.00  0.00     0.088 A 
HETATM   22  C32 UNL     1      18.511  -7.934   8.742  1.00  0.00     0.217 C 
HETATM   23  F1  UNL     1      17.698  -9.052   8.496  1.00  0.00    -0.244 F 
BRANCH  16  24
HETATM   24  O9  UNL     1      17.108  -7.181  13.313  1.00  0.00    -0.351 OA
HETATM   25  C24 UNL     1      18.208  -6.740  14.125  1.00  0.00     0.210 C 
ENDBRANCH  16  24
BRANCH  18  26
HETATM   26  O10 UNL     1      15.776  -4.866  12.615  1.00  0.00    -0.352 OA
HETATM   27  C26 UNL     1      14.462  -5.130  13.025  1.00  0.00     0.210 C 
ENDBRANCH  18  26
BRANCH  21  28
HETATM   28  O11 UNL     1      17.109  -5.499   8.023  1.00  0.00    -0.355 OA
HETATM   29  C30 UNL     1      16.184  -5.980   7.065  1.00  0.00     0.210 C 
ENDBRANCH  21  28
ENDBRANCH  10  12
BRANCH   1  30
HETATM   30  C3  UNL     1      19.479 -11.764   6.888  1.00  0.00     0.035 C 
BRANCH  30  31
HETATM   31  C2  UNL     1      20.363 -11.828   5.689  1.00  0.00    -0.002 C 
HETATM   32  C1  UNL     1      20.559 -10.607   4.881  1.00  0.00     0.005 C 
ENDBRANCH  30  31
ENDBRANCH   1  30
BRANCH   5  33
HETATM   33  O1  UNL     1      24.852 -10.961   9.081  1.00  0.00    -0.360 OA
ATOM     34  H1  UNL     1      25.245 -11.526   8.427  1.00  0.00     0.217 HD
ENDBRANCH   5  33
BRANCH   7  35
HETATM   35  O2  UNL     1      24.457  -6.490   7.196  1.00  0.00    -0.318 OA
BRANCH  35  36
HETATM   36  C11 UNL     1      25.413  -5.691   7.822  1.00  0.00     0.298 C 
HETATM   37  O3  UNL     1      26.355  -5.349   6.839  1.00  0.00    -0.348 OA
HETATM   38  C12 UNL     1      25.943  -4.261   6.093  1.00  0.00     0.179 C 
HETATM   39  C14 UNL     1      26.187  -3.013   6.910  1.00  0.00     0.180 C 
HETATM   40  C15 UNL     1      25.786  -3.315   8.335  1.00  0.00     0.183 C 
HETATM   41  C16 UNL     1      24.774  -4.444   8.405  1.00  0.00     0.205 C 
BRANCH  38  42
HETATM   42  C13 UNL     1      26.782  -4.240   4.830  1.00  0.00     0.198 C 
BRANCH  42  43
HETATM   43  O4  UNL     1      26.664  -3.063   4.132  1.00  0.00    -0.398 OA
ATOM     44  H4  UNL     1      26.297  -3.185   3.265  1.00  0.00     0.209 HD
ENDBRANCH  42  43
ENDBRANCH  38  42
BRANCH  39  45
HETATM   45  O5  UNL     1      27.581  -2.781   6.901  1.00  0.00    -0.390 OA
ATOM     46  H5  UNL     1      27.710  -1.862   7.103  1.00  0.00     0.210 HD
ENDBRANCH  39  45
BRANCH  40  47
HETATM   47  O6  UNL     1      26.913  -3.729   9.050  1.00  0.00    -0.390 OA
ATOM     48  H6  UNL     1      26.682  -3.829   9.966  1.00  0.00     0.210 HD
ENDBRANCH  40  47
BRANCH  41  49
HETATM   49  O7  UNL     1      24.522  -4.688   9.752  1.00  0.00    -0.388 OA
ATOM     50  H7  UNL     1      23.599  -4.522   9.908  1.00  0.00     0.210 HD
ENDBRANCH  41  49
ENDBRANCH  35  36
ENDBRANCH   7  35
TORSDOF 14
ENDMDL
MODEL 2
REMARK VINA RESULT: -7.395979417      2.934      4.258
REMARK  14 active torsions:
REMARK  status: ('A' for Active; 'I' for Inactive)
REMARK    1  A    between atoms: C2_2  and  C3_3 
REMARK    2  A    between atoms: C3_3  and  C4_4 
REMARK    3  A    between atoms: C8_8  and  O1_9 
REMARK    4  A    between atoms: C10_12  and  O2_13 
REMARK    5  A    between atoms: O2_13  and  C11_14 
REMARK    6  A    between atoms: C12_16  and  C13_17 
REMARK    7  A    between atoms: C13_17  and  O4_18 
REMARK    8  A    between atoms: C14_20  and  O5_21 
REMARK    9  A    between atoms: C15_23  and  O6_24 
REMARK   10  A    between atoms: C16_26  and  O7_27 
REMARK   11  A    between atoms: C19_31  and  C20_32 
REMARK   12  A    between atoms: C23_36  and  O9_37 
REMARK   13  A    between atoms: C25_39  and  O10_40 
REMARK   14  A    between atoms: C29_44  and  O11_45 
ROOT
HETATM    1  C4  UNL     1      17.370  -7.252   3.130  1.00  0.00     0.227 C 
HETATM    2  C5  UNL     1      18.380  -7.819   2.184  1.00  0.00     0.076 C 
HETATM    3  C6  UNL     1      19.057  -8.320   3.462  1.00  0.00     0.262 A 
HETATM    4  C7  UNL     1      20.416  -7.774   3.658  1.00  0.00     0.017 A 
HETATM    5  C8  UNL     1      21.644  -8.166   3.162  1.00  0.00     0.077 A 
HETATM    6  C9  UNL     1      22.819  -7.471   3.484  1.00  0.00     0.074 A 
HETATM    7  C10 UNL     1      22.794  -6.370   4.309  1.00  0.00     0.075 A 
HETATM    8  C17 UNL     1      21.539  -5.994   4.798  1.00  0.00     0.047 A 
HETATM    9  C18 UNL     1      20.382  -6.678   4.481  1.00  0.00    -0.011 A 
HETATM   10  C19 UNL     1      18.942  -6.478   4.879  1.00  0.00     0.267 A 
HETATM   11  N1  UNL     1      18.209  -7.496   4.256  1.00  0.00     0.112 N 
ENDROOT
BRANCH  10  12
HETATM   12  C20 UNL     1      18.877  -6.582   6.411  1.00  0.00     0.087 C 
HETATM   13  C21 UNL     1      19.274  -7.931   6.905  1.00  0.00     0.186 C 
HETATM   14  O8  UNL     1      18.410  -8.453   7.922  1.00  0.00    -0.347 OA
HETATM   15  C22 UNL     1      17.854  -7.599   8.858  1.00  0.00     0.116 A 
HETATM   16  C23 UNL     1      17.759  -7.920  10.217  1.00  0.00     0.136 A 
HETATM   17  C31 UNL     1      17.388  -6.392   8.379  1.00  0.00     0.046 A 
HETATM   18  C25 UNL     1      17.185  -6.999  11.087  1.00  0.00     0.113 A 
HETATM   19  C27 UNL     1      16.726  -5.795  10.582  1.00  0.00     0.008 A 
HETATM   20  C28 UNL     1      16.118  -4.814  11.498  1.00  0.00     0.054 C 
HETATM   21  C29 UNL     1      16.820  -5.481   9.240  1.00  0.00     0.088 A 
HETATM   22  C32 UNL     1      17.525  -6.139   6.928  1.00  0.00     0.217 C 
HETATM   23  F1  UNL     1      16.523  -6.890   6.295  1.00  0.00    -0.244 F 
BRANCH  16  24
HETATM   24  O9  UNL     1      18.231  -9.130  10.667  1.00  0.00    -0.351 OA
HETATM   25  C24 UNL     1      19.649  -9.227  10.876  1.00  0.00     0.210 C 
ENDBRANCH  16  24
BRANCH  18  26
HETATM   26  O10 UNL     1      17.100  -7.333  12.431  1.00  0.00    -0.352 OA
HETATM   27  C26 UNL     1      18.086  -7.016  13.375  1.00  0.00     0.210 C 
ENDBRANCH  18  26
BRANCH  21  28
HETATM   28  O11 UNL     1      16.341  -4.259   8.793  1.00  0.00    -0.355 OA
HETATM   29  C30 UNL     1      15.035  -4.093   8.272  1.00  0.00     0.210 C 
ENDBRANCH  21  28
ENDBRANCH  10  12
BRANCH   1  30
HETATM   30  C3  UNL     1      16.906  -5.898   2.817  1.00  0.00     0.035 C 
BRANCH  30  31
HETATM   31  C2  UNL     1      17.552  -5.323   1.602  1.00  0.00    -0.002 C 
HETATM   32  C1  UNL     1      16.696  -4.809   0.514  1.00  0.00     0.005 C 
ENDBRANCH  30  31
ENDBRANCH   1  30
BRANCH   5  33
HETATM   33  O1  UNL     1      21.664  -9.282   2.325  1.00  0.00    -0.360 OA
ATOM     34  H1  UNL     1      21.997 -10.092   2.692  1.00  0.00     0.217 HD
ENDBRANCH   5  33
BRANCH   7  35
HETATM   35  O2  UNL     1      23.925  -5.654   4.654  1.00  0.00    -0.318 OA
BRANCH  35  36
HETATM   36  C11 UNL     1      24.859  -5.991   5.633  1.00  0.00     0.298 C 
HETATM   37  O3  UNL     1      26.103  -5.530   5.174  1.00  0.00    -0.348 OA
HETATM   38  C12 UNL     1      26.291  -4.192   5.464  1.00  0.00     0.179 C 
HETATM   39  C14 UNL     1      26.669  -4.078   6.923  1.00  0.00     0.180 C 
HETATM   40  C15 UNL     1      25.798  -5.040   7.697  1.00  0.00     0.183 C 
HETATM   41  C16 UNL     1      24.507  -5.343   6.959  1.00  0.00     0.205 C 
BRANCH  38  42
HETATM   42  C13 UNL     1      27.423  -3.697   4.584  1.00  0.00     0.198 C 
BRANCH  42  43
HETATM   43  O4  UNL     1      28.082  -2.618   5.121  1.00  0.00    -0.398 OA
ATOM     44  H4  UNL     1      29.026  -2.717   5.100  1.00  0.00     0.209 HD
ENDBRANCH  42  43
ENDBRANCH  38  42
BRANCH  39  45
HETATM   45  O5  UNL     1      28.005  -4.526   7.040  1.00  0.00    -0.390 OA
ATOM     46  H5  UNL     1      28.170  -5.100   6.301  1.00  0.00     0.210 HD
ENDBRANCH  39  45
BRANCH  40  47
HETATM   47  O6  UNL     1      26.478  -6.250   7.851  1.00  0.00    -0.390 OA
ATOM     48  H6  UNL     1      26.068  -6.909   7.304  1.00  0.00     0.210 HD
ENDBRANCH  40  47
BRANCH  41  49
HETATM   49  O7  UNL     1      23.812  -6.282   7.717  1.00  0.00    -0.388 OA
ATOM     50  H7  UNL     1      24.408  -6.620   8.375  1.00  0.00     0.210 HD
ENDBRANCH  41  49
ENDBRANCH  35  36
ENDBRANCH   7  35
TORSDOF 14
ENDMDL
MODEL 3
REMARK VINA RESULT: -7.333308627      3.183      5.300
REMARK  14 active torsions:
REMARK  status: ('A' for Active; 'I' for Inactive)
REMARK    1  A    between atoms: C2_2  and  C3_3 
REMARK    2  A    between atoms: C3_3  and  C4_4 
REMARK    3  A    between atoms: C8_8  and  O1_9 
REMARK    4  A    between atoms: C10_12  and  O2_13 
REMARK    5  A    between atoms: O2_13  and  C11_14 
REMARK    6  A    between atoms: C12_16  and  C13_17 
REMARK    7  A    between atoms: C13_17  and  O4_18 
REMARK    8  A    between atoms: C14_20  and  O5_21 
REMARK    9  A    between atoms: C15_23  and  O6_24 
REMARK   10  A    between atoms: C16_26  and  O7_27 
REMARK   11  A    between atoms: C19_31  and  C20_32 
REMARK   12  A    between atoms: C23_36  and  O9_37 
REMARK   13  A    between atoms: C25_39  and  O10_40 
REMARK   14  A    between atoms: C29_44  and  O11_45 
ROOT
HETATM    1  C4  UNL     1      21.811 -10.246   1.635  1.00  0.00     0.227 C 
HETATM    2  C5  UNL     1      23.227 -10.149   1.163  1.00  0.00     0.076 C 
HETATM    3  C6  UNL     1      23.561 -10.649   2.571  1.00  0.00     0.262 A 
HETATM    4  C7  UNL     1      24.376  -9.696   3.352  1.00  0.00     0.017 A 
HETATM    5  C8  UNL     1      25.738  -9.468   3.390  1.00  0.00     0.077 A 
HETATM    6  C9  UNL     1      26.292  -8.482   4.218  1.00  0.00     0.074 A 
HETATM    7  C10 UNL     1      25.500  -7.701   5.028  1.00  0.00     0.075 A 
HETATM    8  C17 UNL     1      24.125  -7.952   4.971  1.00  0.00     0.047 A 
HETATM    9  C18 UNL     1      23.579  -8.923   4.156  1.00  0.00    -0.011 A 
HETATM   10  C19 UNL     1      22.160  -9.378   3.928  1.00  0.00     0.267 A 
HETATM   11  N1  UNL     1      22.219 -10.418   2.990  1.00  0.00     0.112 N 
ENDROOT
BRANCH  10  12
HETATM   12  C20 UNL     1      21.617  -9.861   5.281  1.00  0.00     0.087 C 
HETATM   13  C21 UNL     1      20.401 -10.711   5.134  1.00  0.00     0.186 C 
HETATM   14  O8  UNL     1      19.356 -10.392   6.062  1.00  0.00    -0.347 OA
HETATM   15  C22 UNL     1      19.674  -9.999   7.350  1.00  0.00     0.116 A 
HETATM   16  C23 UNL     1      18.975 -10.448   8.476  1.00  0.00     0.136 A 
HETATM   17  C31 UNL     1      20.736  -9.125   7.474  1.00  0.00     0.046 A 
HETATM   18  C25 UNL     1      19.366 -10.000   9.734  1.00  0.00     0.113 A 
HETATM   19  C27 UNL     1      20.434  -9.125   9.832  1.00  0.00     0.008 A 
HETATM   20  C28 UNL     1      20.855  -8.648  11.161  1.00  0.00     0.054 C 
HETATM   21  C29 UNL     1      21.122  -8.683   8.719  1.00  0.00     0.088 A 
HETATM   22  C32 UNL     1      21.414  -8.700   6.231  1.00  0.00     0.217 C 
HETATM   23  F1  UNL     1      20.576  -7.752   5.623  1.00  0.00    -0.244 F 
BRANCH  16  24
HETATM   24  O9  UNL     1      17.922 -11.318   8.323  1.00  0.00    -0.351 OA
HETATM   25  C24 UNL     1      18.248 -12.716   8.272  1.00  0.00     0.210 C 
ENDBRANCH  16  24
BRANCH  18  26
HETATM   26  O10 UNL     1      18.662 -10.456  10.839  1.00  0.00    -0.352 OA
HETATM   27  C26 UNL     1      17.479  -9.867  11.305  1.00  0.00     0.210 C 
ENDBRANCH  18  26
BRANCH  21  28
HETATM   28  O11 UNL     1      22.183  -7.805   8.881  1.00  0.00    -0.355 OA
HETATM   29  C30 UNL     1      23.534  -8.227   8.871  1.00  0.00     0.210 C 
ENDBRANCH  21  28
ENDBRANCH  10  12
BRANCH   1  30
HETATM   30  C3  UNL     1      20.942  -9.132   1.247  1.00  0.00     0.035 C 
BRANCH  30  31
HETATM   31  C2  UNL     1      20.728  -9.041  -0.226  1.00  0.00    -0.002 C 
HETATM   32  C1  UNL     1      19.984  -7.886  -0.769  1.00  0.00     0.005 C 
ENDBRANCH  30  31
ENDBRANCH   1  30
BRANCH   5  33
HETATM   33  O1  UNL     1      26.538 -10.261   2.567  1.00  0.00    -0.360 OA
ATOM     34  H1  UNL     1      26.171 -10.526   1.732  1.00  0.00     0.217 HD
ENDBRANCH   5  33
BRANCH   7  35
HETATM   35  O2  UNL     1      26.000  -6.717   5.860  1.00  0.00    -0.318 OA
BRANCH  35  36
HETATM   36  C11 UNL     1      25.929  -5.339   5.660  1.00  0.00     0.298 C 
HETATM   37  O3  UNL     1      25.511  -4.778   6.876  1.00  0.00    -0.348 OA
HETATM   38  C12 UNL     1      26.571  -4.591   7.744  1.00  0.00     0.179 C 
HETATM   39  C14 UNL     1      27.319  -3.352   7.308  1.00  0.00     0.180 C 
HETATM   40  C15 UNL     1      27.399  -3.373   5.800  1.00  0.00     0.183 C 
HETATM   41  C16 UNL     1      27.282  -4.784   5.253  1.00  0.00     0.205 C 
BRANCH  38  42
HETATM   42  C13 UNL     1      25.988  -4.398   9.130  1.00  0.00     0.198 C 
BRANCH  42  43
HETATM   43  O4  UNL     1      26.944  -4.118  10.075  1.00  0.00    -0.398 OA
ATOM     44  H4  UNL     1      27.276  -3.230  10.009  1.00  0.00     0.209 HD
ENDBRANCH  42  43
ENDBRANCH  38  42
BRANCH  39  45
HETATM   45  O5  UNL     1      26.525  -2.241   7.676  1.00  0.00    -0.390 OA
ATOM     46  H5  UNL     1      27.116  -1.509   7.806  1.00  0.00     0.210 HD
ENDBRANCH  39  45
BRANCH  40  47
HETATM   47  O6  UNL     1      26.334  -2.638   5.274  1.00  0.00    -0.390 OA
ATOM     48  H6  UNL     1      26.672  -1.992   4.666  1.00  0.00     0.210 HD
ENDBRANCH  40  47
BRANCH  41  49
HETATM   49  O7  UNL     1      27.300  -4.689   3.864  1.00  0.00    -0.388 OA
ATOM     50  H7  UNL     1      26.695  -5.338   3.522  1.00  0.00     0.210 HD
ENDBRANCH  41  49
ENDBRANCH  35  36
ENDBRANCH   7  35
TORSDOF 14
ENDMDL
MODEL 4
REMARK VINA RESULT: -7.329138948      3.030      4.475
REMARK  14 active torsions:
REMARK  status: ('A' for Active; 'I' for Inactive)
REMARK    1  A    between atoms: C2_2  and  C3_3 
REMARK    2  A    between atoms: C3_3  and  C4_4 
REMARK    3  A    between atoms: C8_8  and  O1_9 
REMARK    4  A    between atoms: C10_12  and  O2_13 
REMARK    5  A    between atoms: O2_13  and  C11_14 
REMARK    6  A    between atoms: C12_16  and  C13_17 
REMARK    7  A    between atoms: C13_17  and  O4_18 
REMARK    8  A    between atoms: C14_20  and  O5_21 
REMARK    9  A    between atoms: C15_23  and  O6_24 
REMARK   10  A    between atoms: C16_26  and  O7_27 
REMARK   11  A    between atoms: C19_31  and  C20_32 
REMARK   12  A    between atoms: C23_36  and  O9_37 
REMARK   13  A    between atoms: C25_39  and  O10_40 
REMARK   14  A    between atoms: C29_44  and  O11_45 
ROOT
HETATM    1  C4  UNL     1      19.801  -8.028   1.854  1.00  0.00     0.227 C 
HETATM    2  C5  UNL     1      20.992  -8.806   1.395  1.00  0.00     0.076 C 
HETATM    3  C6  UNL     1      21.171  -9.103   2.885  1.00  0.00     0.262 A 
HETATM    4  C7  UNL     1      22.447  -8.600   3.434  1.00  0.00     0.017 A 
HETATM    5  C8  UNL     1      23.720  -9.138   3.439  1.00  0.00     0.077 A 
HETATM    6  C9  UNL     1      24.800  -8.457   4.021  1.00  0.00     0.074 A 
HETATM    7  C10 UNL     1      24.632  -7.226   4.611  1.00  0.00     0.075 A 
HETATM    8  C17 UNL     1      23.335  -6.704   4.593  1.00  0.00     0.047 A 
HETATM    9  C18 UNL     1      22.272  -7.374   4.020  1.00  0.00    -0.011 A 
HETATM   10  C19 UNL     1      20.810  -7.031   3.883  1.00  0.00     0.267 A 
HETATM   11  N1  UNL     1      20.208  -8.107   3.217  1.00  0.00     0.112 N 
ENDROOT
BRANCH  10  12
HETATM   12  C20 UNL     1      20.252  -6.855   5.304  1.00  0.00     0.087 C 
HETATM   13  C21 UNL     1      20.524  -8.035   6.172  1.00  0.00     0.186 C 
HETATM   14  O8  UNL     1      19.398  -8.449   6.955  1.00  0.00    -0.347 OA
HETATM   15  C22 UNL     1      18.529  -7.503   7.468  1.00  0.00     0.116 A 
HETATM   16  C23 UNL     1      18.009  -7.572   8.765  1.00  0.00     0.136 A 
HETATM   17  C31 UNL     1      18.193  -6.465   6.622  1.00  0.00     0.046 A 
HETATM   18  C25 UNL     1      17.141  -6.573   9.196  1.00  0.00     0.113 A 
HETATM   19  C27 UNL     1      16.820  -5.544   8.329  1.00  0.00     0.008 A 
HETATM   20  C28 UNL     1      15.904  -4.482   8.780  1.00  0.00     0.054 C 
HETATM   21  C29 UNL     1      17.335  -5.478   7.049  1.00  0.00     0.088 A 
HETATM   22  C32 UNL     1      18.787  -6.474   5.267  1.00  0.00     0.217 C 
HETATM   23  F1  UNL     1      18.081  -7.437   4.529  1.00  0.00    -0.244 F 
BRANCH  16  24
HETATM   24  O9  UNL     1      18.360  -8.617   9.586  1.00  0.00    -0.351 OA
HETATM   25  C24 UNL     1      19.612  -8.493  10.280  1.00  0.00     0.210 C 
ENDBRANCH  16  24
BRANCH  18  26
HETATM   26  O10 UNL     1      16.635  -6.658  10.485  1.00  0.00    -0.352 OA
HETATM   27  C26 UNL     1      17.222  -6.033  11.594  1.00  0.00     0.210 C 
ENDBRANCH  18  26
BRANCH  21  28
HETATM   28  O11 UNL     1      16.976  -4.421   6.226  1.00  0.00    -0.355 OA
HETATM   29  C30 UNL     1      15.868  -4.478   5.347  1.00  0.00     0.210 C 
ENDBRANCH  21  28
ENDBRANCH  10  12
BRANCH   1  30
HETATM   30  C3  UNL     1      19.609  -6.730   1.201  1.00  0.00     0.035 C 
BRANCH  30  31
HETATM   31  C2  UNL     1      18.245  -6.164   1.411  1.00  0.00    -0.002 C 
HETATM   32  C1  UNL     1      18.110  -4.866   2.104  1.00  0.00     0.005 C 
ENDBRANCH  30  31
ENDBRANCH   1  30
BRANCH   5  33
HETATM   33  O1  UNL     1      23.885 -10.386   2.838  1.00  0.00    -0.360 OA
ATOM     34  H1  UNL     1      24.569 -10.946   3.184  1.00  0.00     0.217 HD
ENDBRANCH   5  33
BRANCH   7  35
HETATM   35  O2  UNL     1      25.665  -6.518   5.197  1.00  0.00    -0.318 OA
BRANCH  35  36
HETATM   36  C11 UNL     1      25.831  -5.133   5.199  1.00  0.00     0.298 C 
HETATM   37  O3  UNL     1      25.328  -4.672   6.425  1.00  0.00    -0.348 OA
HETATM   38  C12 UNL     1      26.266  -4.779   7.436  1.00  0.00     0.179 C 
HETATM   39  C14 UNL     1      27.245  -3.638   7.288  1.00  0.00     0.180 C 
HETATM   40  C15 UNL     1      27.542  -3.478   5.816  1.00  0.00     0.183 C 
HETATM   41  C16 UNL     1      27.297  -4.766   5.052  1.00  0.00     0.205 C 
BRANCH  38  42
HETATM   42  C13 UNL     1      25.520  -4.672   8.752  1.00  0.00     0.198 C 
BRANCH  42  43
HETATM   43  O4  UNL     1      24.204  -4.314   8.589  1.00  0.00    -0.398 OA
ATOM     44  H4  UNL     1      23.611  -5.052   8.656  1.00  0.00     0.209 HD
ENDBRANCH  42  43
ENDBRANCH  38  42
BRANCH  39  45
HETATM   45  O5  UNL     1      26.581  -2.467   7.718  1.00  0.00    -0.390 OA
ATOM     46  H5  UNL     1      26.879  -2.288   8.602  1.00  0.00     0.210 HD
ENDBRANCH  39  45
BRANCH  40  47
HETATM   47  O6  UNL     1      26.687  -2.512   5.279  1.00  0.00    -0.390 OA
ATOM     48  H6  UNL     1      27.152  -2.021   4.612  1.00  0.00     0.210 HD
ENDBRANCH  40  47
BRANCH  41  49
HETATM   49  O7  UNL     1      27.532  -4.497   3.706  1.00  0.00    -0.388 OA
ATOM     50  H7  UNL     1      28.451  -4.669   3.534  1.00  0.00     0.210 HD
ENDBRANCH  41  49
ENDBRANCH  35  36
ENDBRANCH   7  35
TORSDOF 14
ENDMDL
MODEL 5
REMARK VINA RESULT: -7.317554513      5.287      7.308
REMARK  14 active torsions:
REMARK  status: ('A' for Active; 'I' for Inactive)
REMARK    1  A    between atoms: C2_2  and  C3_3 
REMARK    2  A    between atoms: C3_3  and  C4_4 
REMARK    3  A    between atoms: C8_8  and  O1_9 
REMARK    4  A    between atoms: C10_12  and  O2_13 
REMARK    5  A    between atoms: O2_13  and  C11_14 
REMARK    6  A    between atoms: C12_16  and  C13_17 
REMARK    7  A    between atoms: C13_17  and  O4_18 
REMARK    8  A    between atoms: C14_20  and  O5_21 
REMARK    9  A    between atoms: C15_23  and  O6_24 
REMARK   10  A    between atoms: C16_26  and  O7_27 
REMARK   11  A    between atoms: C19_31  and  C20_32 
REMARK   12  A    between atoms: C23_36  and  O9_37 
REMARK   13  A    between atoms: C25_39  and  O10_40 
REMARK   14  A    between atoms: C29_44  and  O11_45 
ROOT
HETATM    1  C4  UNL     1      25.767 -12.635   4.972  1.00  0.00     0.227 C 
HETATM    2  C5  UNL     1      26.082 -12.496   6.427  1.00  0.00     0.076 C 
HETATM    3  C6  UNL     1      24.646 -11.976   6.524  1.00  0.00     0.262 A 
HETATM    4  C7  UNL     1      24.559 -10.584   7.012  1.00  0.00     0.017 A 
HETATM    5  C8  UNL     1      24.560 -10.057   8.289  1.00  0.00     0.077 A 
HETATM    6  C9  UNL     1      24.477  -8.675   8.510  1.00  0.00     0.074 A 
HETATM    7  C10 UNL     1      24.390  -7.788   7.462  1.00  0.00     0.075 A 
HETATM    8  C17 UNL     1      24.390  -8.347   6.180  1.00  0.00     0.047 A 
HETATM    9  C18 UNL     1      24.471  -9.707   5.962  1.00  0.00    -0.011 A 
HETATM   10  C19 UNL     1      24.482 -10.536   4.702  1.00  0.00     0.267 A 
HETATM   11  N1  UNL     1      24.568 -11.875   5.105  1.00  0.00     0.112 N 
ENDROOT
BRANCH  10  12
HETATM   12  C20 UNL     1      23.169 -10.247   3.959  1.00  0.00     0.087 C 
HETATM   13  C21 UNL     1      22.684 -11.424   3.184  1.00  0.00     0.186 C 
HETATM   14  O8  UNL     1      22.232 -11.101   1.863  1.00  0.00    -0.347 OA
HETATM   15  C22 UNL     1      21.573  -9.906   1.633  1.00  0.00     0.116 A 
HETATM   16  C23 UNL     1      20.447  -9.805   0.809  1.00  0.00     0.136 A 
HETATM   17  C31 UNL     1      22.090  -8.795   2.269  1.00  0.00     0.046 A 
HETATM   18  C25 UNL     1      19.849  -8.561   0.636  1.00  0.00     0.113 A 
HETATM   19  C27 UNL     1      20.386  -7.463   1.285  1.00  0.00     0.008 A 
HETATM   20  C28 UNL     1      19.756  -6.143   1.108  1.00  0.00     0.054 C 
HETATM   21  C29 UNL     1      21.498  -7.565   2.098  1.00  0.00     0.088 A 
HETATM   22  C32 UNL     1      23.285  -8.993   3.118  1.00  0.00     0.217 C 
HETATM   23  F1  UNL     1      24.377  -9.126   2.247  1.00  0.00    -0.244 F 
BRANCH  16  24
HETATM   24  O9  UNL     1      19.954 -10.928   0.187  1.00  0.00    -0.351 OA
HETATM   25  C24 UNL     1      20.593 -11.313  -1.040  1.00  0.00     0.210 C 
ENDBRANCH  16  24
BRANCH  18  26
HETATM   26  O10 UNL     1      18.733  -8.480  -0.185  1.00  0.00    -0.352 OA
HETATM   27  C26 UNL     1      18.793  -8.174  -1.551  1.00  0.00     0.210 C 
ENDBRANCH  18  26
BRANCH  21  28
HETATM   28  O11 UNL     1      21.991  -6.428   2.721  1.00  0.00    -0.355 OA
HETATM   29  C30 UNL     1      21.812  -6.174   4.102  1.00  0.00     0.210 C 
ENDBRANCH  21  28
ENDBRANCH  10  12
BRANCH   1  30
HETATM   30  C3  UNL     1      26.829 -12.211   4.055  1.00  0.00     0.035 C 
BRANCH  30  31
HETATM   31  C2  UNL     1      26.664 -12.754   2.676  1.00  0.00    -0.002 C 
HETATM   32  C1  UNL     1      26.096 -11.882   1.629  1.00  0.00     0.005 C 
ENDBRANCH  30  31
ENDBRANCH   1  30
BRANCH   5  33
HETATM   33  O1  UNL     1      24.649 -10.960   9.349  1.00  0.00    -0.360 OA
ATOM     34  H1  UNL     1      23.864 -11.102   9.864  1.00  0.00     0.217 HD
ENDBRANCH   5  33
BRANCH   7  35
HETATM   35  O2  UNL     1      24.307  -6.418   7.630  1.00  0.00    -0.318 OA
BRANCH  35  36
HETATM   36  C11 UNL     1      25.296  -5.579   8.143  1.00  0.00     0.298 C 
HETATM   37  O3  UNL     1      26.189  -5.325   7.091  1.00  0.00    -0.348 OA
HETATM   38  C12 UNL     1      25.746  -4.296   6.281  1.00  0.00     0.179 C 
HETATM   39  C14 UNL     1      26.035  -2.989   6.983  1.00  0.00     0.180 C 
HETATM   40  C15 UNL     1      25.704  -3.173   8.446  1.00  0.00     0.183 C 
HETATM   41  C16 UNL     1      24.691  -4.285   8.654  1.00  0.00     0.205 C 
BRANCH  38  42
HETATM   42  C13 UNL     1      26.522  -4.382   4.981  1.00  0.00     0.198 C 
BRANCH  42  43
HETATM   43  O4  UNL     1      26.553  -3.190   4.300  1.00  0.00    -0.398 OA
ATOM     44  H4  UNL     1      26.975  -3.261   3.453  1.00  0.00     0.209 HD
ENDBRANCH  42  43
ENDBRANCH  38  42
BRANCH  39  45
HETATM   45  O5  UNL     1      27.428  -2.769   6.887  1.00  0.00    -0.390 OA
ATOM     46  H5  UNL     1      27.553  -1.837   6.756  1.00  0.00     0.210 HD
ENDBRANCH  39  45
BRANCH  40  47
HETATM   47  O6  UNL     1      26.863  -3.537   9.135  1.00  0.00    -0.390 OA
ATOM     48  H6  UNL     1      27.245  -2.764   9.532  1.00  0.00     0.210 HD
ENDBRANCH  40  47
BRANCH  41  49
HETATM   49  O7  UNL     1      24.506  -4.418  10.028  1.00  0.00    -0.388 OA
ATOM     50  H7  UNL     1      23.585  -4.272  10.210  1.00  0.00     0.210 HD
ENDBRANCH  41  49
ENDBRANCH  35  36
ENDBRANCH   7  35
TORSDOF 14
ENDMDL
