MODEL 1
REMARK VINA RESULT: -6.474447351      0.000      0.000
REMARK  12 active torsions:
REMARK  status: ('A' for Active; 'I' for Inactive)
REMARK    1  A    between atoms: O1_2  and  C2_3 
REMARK    2  A    between atoms: C4_5  and  N1_6 
REMARK    3  A    between atoms: C10_13  and  O3_14 
REMARK    4  A    between atoms: C11_16  and  N2_17 
REMARK    5  A    between atoms: C14_20  and  N3_21 
REMARK    6  A    between atoms: N3_21  and  C15_23 
REMARK    7  A    between atoms: C15_23  and  C16_24 
REMARK    8  A    between atoms: C16_24  and  N4_25 
REMARK    9  A    between atoms: C17_29  and  O4_30 
REMARK   10  A    between atoms: C20_34  and  O5_35 
REMARK   11  A    between atoms: O5_35  and  C21_36 
REMARK   12  A    between atoms: C27_46  and  O7_47 
ROOT
HETATM    1  C2  UNL     1      23.395  -7.439   5.899  1.00  0.00     0.149 C 
HETATM    2  C3  UNL     1      24.078  -6.163   6.508  1.00  0.00     0.106 C 
HETATM    3  C4  UNL     1      23.995  -6.296   7.991  1.00  0.00     0.019 C 
HETATM    4  C7  UNL     1      23.280  -7.541   8.226  1.00  0.00     0.031 C 
HETATM    5  C8  UNL     1      23.623  -8.658   9.080  1.00  0.00     0.175 C 
HETATM    6  O2  UNL     1      24.774  -9.441   8.769  1.00  0.00    -0.337 OA
HETATM    7  C9  UNL     1      25.227 -10.027   7.558  1.00  0.00     0.119 A 
HETATM    8  C10 UNL     1      25.772 -11.213   7.805  1.00  0.00     0.129 A 
HETATM    9  C11 UNL     1      26.263 -11.970   6.728  1.00  0.00     0.095 A 
HETATM   10  C14 UNL     1      26.167 -11.473   5.428  1.00  0.00     0.092 A 
HETATM   11  C17 UNL     1      25.599 -10.247   5.189  1.00  0.00     0.108 A 
HETATM   12  C18 UNL     1      25.124  -9.503   6.287  1.00  0.00     0.047 A 
HETATM   13  C19 UNL     1      24.719  -8.243   5.684  1.00  0.00     0.020 C 
HETATM   14  C20 UNL     1      25.524  -7.697   4.847  1.00  0.00     0.157 C 
HETATM   15  C23 UNL     1      22.309  -9.468   9.069  1.00  0.00     0.075 A 
HETATM   16  C24 UNL     1      21.521  -9.534  10.326  1.00  0.00     0.062 A 
HETATM   17  C25 UNL     1      20.467  -8.697   9.735  1.00  0.00     0.012 A 
HETATM   18 BR1  UNL     1      18.766  -8.009  10.354  1.00  0.00    -0.054 Br
HETATM   19  C26 UNL     1      21.166  -8.618   8.623  1.00  0.00     0.028 A 
HETATM   20  N5  UNL     1      21.270  -8.007   7.262  1.00  0.00    -0.354 N 
ATOM     21  H5  UNL     1      20.518  -7.636   6.681  1.00  0.00     0.163 HD
HETATM   22  C27 UNL     1      22.695  -8.064   6.958  1.00  0.00     0.200 C 
ENDROOT
BRANCH  10  23
HETATM   23  N3  UNL     1      26.647 -12.198   4.304  1.00  0.00    -0.384 N 
ATOM     24  H3  UNL     1      27.625 -12.081   4.040  1.00  0.00     0.159 HD
BRANCH  23  25
HETATM   25  C15 UNL     1      25.833 -13.090   3.511  1.00  0.00     0.147 C 
BRANCH  25  26
HETATM   26  C16 UNL     1      26.177 -12.967   2.035  1.00  0.00     0.249 C 
BRANCH  26  27
HETATM   27  N4  UNL     1      26.133 -11.573   1.689  1.00  0.00    -0.078 N 
ATOM     28  H43 UNL     1      26.264 -11.408   0.691  1.00  0.00     0.274 HD
ATOM     29  H42 UNL     1      25.198 -11.174   1.770  1.00  0.00     0.274 HD
ATOM     30  H41 UNL     1      26.822 -11.088   2.265  1.00  0.00     0.274 HD
ENDBRANCH  26  27
ENDBRANCH  25  26
ENDBRANCH  23  25
ENDBRANCH  10  23
BRANCH   9  31
HETATM   31  N2  UNL     1      26.861 -13.225   6.985  1.00  0.00    -0.385 N 
HETATM   32  C12 UNL     1      28.291 -13.201   7.311  1.00  0.00     0.149 C 
HETATM   33  C13 UNL     1      26.154 -14.484   6.956  1.00  0.00     0.149 C 
ENDBRANCH   9  31
BRANCH  11  34
HETATM   34  O4  UNL     1      25.455  -9.734   3.931  1.00  0.00    -0.357 OA
ATOM     35  H4  UNL     1      25.873  -8.926   3.656  1.00  0.00     0.217 HD
ENDBRANCH  11  34
BRANCH   8  36
HETATM   36  O3  UNL     1      25.881 -11.739   9.079  1.00  0.00    -0.356 OA
ATOM     37  H3  UNL     1      26.154 -11.224   9.829  1.00  0.00     0.218 HD
ENDBRANCH   8  36
BRANCH   1  38
HETATM   38  O1  UNL     1      22.853  -7.202   4.708  1.00  0.00    -0.374 OA
HETATM   39  C1  UNL     1      22.395  -6.033   4.278  1.00  0.00     0.203 C 
ENDBRANCH   1  38
BRANCH  14  40
HETATM   40  O5  UNL     1      26.729  -8.019   4.405  1.00  0.00    -0.291 OA
BRANCH  40  41
HETATM   41  C21 UNL     1      27.689  -7.240   3.760  1.00  0.00     0.259 C 
HETATM   42  C22 UNL     1      27.849  -5.792   4.046  1.00  0.00     0.126 C 
HETATM   43  O6  UNL     1      28.425  -7.792   2.923  1.00  0.00    -0.265 OA
ENDBRANCH  40  41
ENDBRANCH  14  40
BRANCH  22  44
HETATM   44  O7  UNL     1      22.650  -9.445   6.709  1.00  0.00    -0.358 OA
HETATM   45  C28 UNL     1      21.691  -9.771   5.797  1.00  0.00     0.205 C 
ENDBRANCH  22  44
BRANCH   3  46
HETATM   46  N1  UNL     1      25.036  -5.857   8.805  1.00  0.00    -0.392 N 
HETATM   47  C5  UNL     1      24.859  -4.560   9.410  1.00  0.00     0.148 C 
HETATM   48  C6  UNL     1      26.383  -5.993   8.408  1.00  0.00     0.148 C 
ENDBRANCH   3  46
TORSDOF 12
ENDMDL
MODEL 2
REMARK VINA RESULT: -6.101946334      2.694      6.105
REMARK  12 active torsions:
REMARK  status: ('A' for Active; 'I' for Inactive)
REMARK    1  A    between atoms: O1_2  and  C2_3 
REMARK    2  A    between atoms: C4_5  and  N1_6 
REMARK    3  A    between atoms: C10_13  and  O3_14 
REMARK    4  A    between atoms: C11_16  and  N2_17 
REMARK    5  A    between atoms: C14_20  and  N3_21 
REMARK    6  A    between atoms: N3_21  and  C15_23 
REMARK    7  A    between atoms: C15_23  and  C16_24 
REMARK    8  A    between atoms: C16_24  and  N4_25 
REMARK    9  A    between atoms: C17_29  and  O4_30 
REMARK   10  A    between atoms: C20_34  and  O5_35 
REMARK   11  A    between atoms: O5_35  and  C21_36 
REMARK   12  A    between atoms: C27_46  and  O7_47 
ROOT
HETATM    1  C2  UNL     1      24.118 -10.125   4.180  1.00  0.00     0.149 C 
HETATM    2  C3  UNL     1      22.608 -10.555   4.179  1.00  0.00     0.106 C 
HETATM    3  C4  UNL     1      22.358 -11.254   5.472  1.00  0.00     0.019 C 
HETATM    4  C7  UNL     1      23.640 -11.263   6.159  1.00  0.00     0.031 C 
HETATM    5  C8  UNL     1      23.969 -10.862   7.511  1.00  0.00     0.175 C 
HETATM    6  O2  UNL     1      23.843  -9.490   7.878  1.00  0.00    -0.337 OA
HETATM    7  C9  UNL     1      24.282  -8.294   7.250  1.00  0.00     0.119 A 
HETATM    8  C10 UNL     1      24.689  -7.425   8.169  1.00  0.00     0.129 A 
HETATM    9  C11 UNL     1      25.187  -6.179   7.750  1.00  0.00     0.095 A 
HETATM   10  C14 UNL     1      25.251  -5.879   6.388  1.00  0.00     0.092 A 
HETATM   11  C17 UNL     1      24.828  -6.789   5.452  1.00  0.00     0.108 A 
HETATM   12  C18 UNL     1      24.324  -8.026   5.899  1.00  0.00     0.047 A 
HETATM   13  C19 UNL     1      23.868  -8.661   4.674  1.00  0.00     0.020 C 
HETATM   14  C20 UNL     1      23.179  -7.953   3.855  1.00  0.00     0.157 C 
HETATM   15  C23 UNL     1      25.408 -11.406   7.651  1.00  0.00     0.075 A 
HETATM   16  C24 UNL     1      25.635 -12.542   8.581  1.00  0.00     0.062 A 
HETATM   17  C25 UNL     1      25.900 -13.443   7.450  1.00  0.00     0.012 A 
HETATM   18 BR1  UNL     1      26.372 -15.313   7.279  1.00  0.00    -0.054 Br
HETATM   19  C26 UNL     1      25.683 -12.446   6.617  1.00  0.00     0.028 A 
HETATM   20  N5  UNL     1      25.551 -12.030   5.187  1.00  0.00    -0.354 N 
ATOM     21  H5  UNL     1      25.943 -12.484   4.362  1.00  0.00     0.163 HD
HETATM   22  C27 UNL     1      24.734 -10.824   5.246  1.00  0.00     0.200 C 
ENDROOT
BRANCH  10  23
HETATM   23  N3  UNL     1      25.746  -4.636   5.910  1.00  0.00    -0.384 N 
ATOM     24  H3  UNL     1      25.069  -3.914   5.663  1.00  0.00     0.159 HD
BRANCH  23  25
HETATM   25  C15 UNL     1      27.149  -4.332   5.753  1.00  0.00     0.147 C 
BRANCH  25  26
HETATM   26  C16 UNL     1      27.576  -4.485   4.302  1.00  0.00     0.249 C 
BRANCH  26  27
HETATM   27  N4  UNL     1      28.050  -5.830   4.124  1.00  0.00    -0.078 N 
ATOM     28  H43 UNL     1      28.654  -6.142   4.885  1.00  0.00     0.274 HD
ATOM     29  H42 UNL     1      27.315  -6.528   4.242  1.00  0.00     0.274 HD
ATOM     30  H41 UNL     1      28.503  -5.883   3.212  1.00  0.00     0.274 HD
ENDBRANCH  26  27
ENDBRANCH  25  26
ENDBRANCH  23  25
ENDBRANCH  10  23
BRANCH   9  31
HETATM   31  N2  UNL     1      25.605  -5.242   8.722  1.00  0.00    -0.385 N 
HETATM   32  C12 UNL     1      24.598  -4.262   9.144  1.00  0.00     0.149 C 
HETATM   33  C13 UNL     1      26.925  -5.212   9.307  1.00  0.00     0.149 C 
ENDBRANCH   9  31
BRANCH  11  34
HETATM   34  O4  UNL     1      24.901  -6.552   4.108  1.00  0.00    -0.357 OA
ATOM     35  H4  UNL     1      24.134  -6.375   3.577  1.00  0.00     0.217 HD
ENDBRANCH  11  34
BRANCH   8  36
HETATM   36  O3  UNL     1      24.645  -7.688   9.525  1.00  0.00    -0.356 OA
ATOM     37  H3  UNL     1      23.899  -7.466  10.070  1.00  0.00     0.218 HD
ENDBRANCH   8  36
BRANCH   1  38
HETATM   38  O1  UNL     1      24.629 -10.070   2.954  1.00  0.00    -0.374 OA
HETATM   39  C1  UNL     1      24.368 -10.913   1.962  1.00  0.00     0.203 C 
ENDBRANCH   1  38
BRANCH  14  40
HETATM   40  O5  UNL     1      22.730  -6.708   3.889  1.00  0.00    -0.291 OA
BRANCH  40  41
HETATM   41  C21 UNL     1      21.489  -6.190   3.520  1.00  0.00     0.259 C 
HETATM   42  C22 UNL     1      20.287  -6.337   4.380  1.00  0.00     0.126 C 
HETATM   43  O6  UNL     1      21.406  -5.587   2.435  1.00  0.00    -0.265 OA
ENDBRANCH  40  41
ENDBRANCH  14  40
BRANCH  22  44
HETATM   44  O7  UNL     1      25.800 -10.050   5.730  1.00  0.00    -0.358 OA
HETATM   45  C28 UNL     1      26.861 -10.045   4.874  1.00  0.00     0.205 C 
ENDBRANCH  22  44
BRANCH   3  46
HETATM   46  N1  UNL     1      21.144 -11.104   6.140  1.00  0.00    -0.392 N 
HETATM   47  C5  UNL     1      20.121 -12.064   5.808  1.00  0.00     0.148 C 
HETATM   48  C6  UNL     1      20.545  -9.836   6.294  1.00  0.00     0.148 C 
ENDBRANCH   3  46
TORSDOF 12
ENDMDL
MODEL 3
REMARK VINA RESULT: -5.564346241      3.169      6.912
REMARK  12 active torsions:
REMARK  status: ('A' for Active; 'I' for Inactive)
REMARK    1  A    between atoms: O1_2  and  C2_3 
REMARK    2  A    between atoms: C4_5  and  N1_6 
REMARK    3  A    between atoms: C10_13  and  O3_14 
REMARK    4  A    between atoms: C11_16  and  N2_17 
REMARK    5  A    between atoms: C14_20  and  N3_21 
REMARK    6  A    between atoms: N3_21  and  C15_23 
REMARK    7  A    between atoms: C15_23  and  C16_24 
REMARK    8  A    between atoms: C16_24  and  N4_25 
REMARK    9  A    between atoms: C17_29  and  O4_30 
REMARK   10  A    between atoms: C20_34  and  O5_35 
REMARK   11  A    between atoms: O5_35  and  C21_36 
REMARK   12  A    between atoms: C27_46  and  O7_47 
ROOT
HETATM    1  C2  UNL     1      26.679 -12.930   3.773  1.00  0.00     0.149 C 
HETATM    2  C3  UNL     1      25.440 -13.770   3.299  1.00  0.00     0.106 C 
HETATM    3  C4  UNL     1      24.670 -14.132   4.523  1.00  0.00     0.019 C 
HETATM    4  C7  UNL     1      25.428 -13.576   5.633  1.00  0.00     0.031 C 
HETATM    5  C8  UNL     1      24.985 -12.745   6.733  1.00  0.00     0.175 C 
HETATM    6  O2  UNL     1      24.520 -11.424   6.460  1.00  0.00    -0.337 OA
HETATM    7  C9  UNL     1      25.056 -10.370   5.675  1.00  0.00     0.119 A 
HETATM    8  C10 UNL     1      24.836  -9.204   6.273  1.00  0.00     0.129 A 
HETATM    9  C11 UNL     1      25.314  -8.030   5.665  1.00  0.00     0.095 A 
HETATM   10  C14 UNL     1      26.009  -8.107   4.457  1.00  0.00     0.092 A 
HETATM   11  C17 UNL     1      26.229  -9.320   3.853  1.00  0.00     0.108 A 
HETATM   12  C18 UNL     1      25.731 -10.479   4.478  1.00  0.00     0.047 A 
HETATM   13  C19 UNL     1      26.032 -11.529   3.518  1.00  0.00     0.020 C 
HETATM   14  C20 UNL     1      25.759 -11.305   2.285  1.00  0.00     0.157 C 
HETATM   15  C23 UNL     1      26.219 -12.782   7.661  1.00  0.00     0.075 A 
HETATM   16  C24 UNL     1      26.095 -13.503   8.954  1.00  0.00     0.062 A 
HETATM   17  C25 UNL     1      27.001 -14.557   8.477  1.00  0.00     0.012 A 
HETATM   18 BR1  UNL     1      27.730 -16.178   9.246  1.00  0.00    -0.054 Br
HETATM   19  C26 UNL     1      27.103 -13.935   7.322  1.00  0.00     0.028 A 
HETATM   20  N5  UNL     1      27.649 -13.980   5.930  1.00  0.00    -0.354 N 
ATOM     21  H5  UNL     1      28.455 -14.506   5.588  1.00  0.00     0.163 HD
HETATM   22  C27 UNL     1      26.766 -13.100   5.176  1.00  0.00     0.200 C 
ENDROOT
BRANCH  10  23
HETATM   23  N3  UNL     1      26.513  -6.952   3.800  1.00  0.00    -0.384 N 
ATOM     24  H3  UNL     1      25.915  -6.492   3.114  1.00  0.00     0.159 HD
BRANCH  23  25
HETATM   25  C15 UNL     1      27.820  -6.390   4.045  1.00  0.00     0.147 C 
BRANCH  25  26
HETATM   26  C16 UNL     1      27.718  -4.912   4.387  1.00  0.00     0.249 C 
BRANCH  26  27
HETATM   27  N4  UNL     1      28.848  -4.574   5.209  1.00  0.00    -0.078 N 
ATOM     28  H43 UNL     1      28.949  -5.189   6.016  1.00  0.00     0.274 HD
ATOM     29  H42 UNL     1      29.740  -4.789   4.764  1.00  0.00     0.274 HD
ATOM     30  H41 UNL     1      28.761  -3.591   5.468  1.00  0.00     0.274 HD
ENDBRANCH  26  27
ENDBRANCH  25  26
ENDBRANCH  23  25
ENDBRANCH  10  23
BRANCH   9  31
HETATM   31  N2  UNL     1      25.068  -6.784   6.285  1.00  0.00    -0.385 N 
HETATM   32  C12 UNL     1      23.924  -6.024   5.770  1.00  0.00     0.149 C 
HETATM   33  C13 UNL     1      25.854  -6.249   7.372  1.00  0.00     0.149 C 
ENDBRANCH   9  31
BRANCH  11  34
HETATM   34  O4  UNL     1      26.931  -9.446   2.688  1.00  0.00    -0.357 OA
ATOM     35  H4  UNL     1      27.745  -9.933   2.630  1.00  0.00     0.217 HD
ENDBRANCH  11  34
BRANCH   8  36
HETATM   36  O3  UNL     1      24.156  -9.090   7.470  1.00  0.00    -0.356 OA
ATOM     37  H3  UNL     1      23.351  -8.594   7.562  1.00  0.00     0.218 HD
ENDBRANCH   8  36
BRANCH   1  38
HETATM   38  O1  UNL     1      27.722 -13.063   2.959  1.00  0.00    -0.374 OA
HETATM   39  C1  UNL     1      28.123 -14.189   2.382  1.00  0.00     0.203 C 
ENDBRANCH   1  38
BRANCH  14  40
HETATM   40  O5  UNL     1      25.198 -10.288   1.650  1.00  0.00    -0.291 OA
BRANCH  40  41
HETATM   41  C21 UNL     1      23.874 -10.092   1.259  1.00  0.00     0.259 C 
HETATM   42  C22 UNL     1      22.867  -9.486   2.167  1.00  0.00     0.126 C 
HETATM   43  O6  UNL     1      23.546 -10.439   0.111  1.00  0.00    -0.265 OA
ENDBRANCH  40  41
ENDBRANCH  14  40
BRANCH  22  44
HETATM   44  O7  UNL     1      27.340 -11.945   5.730  1.00  0.00    -0.358 OA
HETATM   45  C28 UNL     1      28.702 -11.995   5.724  1.00  0.00     0.205 C 
ENDBRANCH  22  44
BRANCH   3  46
HETATM   46  N1  UNL     1      23.277 -14.171   4.503  1.00  0.00    -0.392 N 
HETATM   47  C5  UNL     1      22.688 -15.446   4.179  1.00  0.00     0.148 C 
HETATM   48  C6  UNL     1      22.525 -13.150   3.882  1.00  0.00     0.148 C 
ENDBRANCH   3  46
TORSDOF 12
ENDMDL
MODEL 4
REMARK VINA RESULT: -5.549186101      3.015      7.063
REMARK  12 active torsions:
REMARK  status: ('A' for Active; 'I' for Inactive)
REMARK    1  A    between atoms: O1_2  and  C2_3 
REMARK    2  A    between atoms: C4_5  and  N1_6 
REMARK    3  A    between atoms: C10_13  and  O3_14 
REMARK    4  A    between atoms: C11_16  and  N2_17 
REMARK    5  A    between atoms: C14_20  and  N3_21 
REMARK    6  A    between atoms: N3_21  and  C15_23 
REMARK    7  A    between atoms: C15_23  and  C16_24 
REMARK    8  A    between atoms: C16_24  and  N4_25 
REMARK    9  A    between atoms: C17_29  and  O4_30 
REMARK   10  A    between atoms: C20_34  and  O5_35 
REMARK   11  A    between atoms: O5_35  and  C21_36 
REMARK   12  A    between atoms: C27_46  and  O7_47 
ROOT
HETATM    1  C2  UNL     1      22.753  -9.967   4.819  1.00  0.00     0.149 C 
HETATM    2  C3  UNL     1      23.169 -11.173   5.734  1.00  0.00     0.106 C 
HETATM    3  C4  UNL     1      24.285 -11.876   5.040  1.00  0.00     0.019 C 
HETATM    4  C7  UNL     1      24.478 -11.154   3.792  1.00  0.00     0.031 C 
HETATM    5  C8  UNL     1      25.692 -10.622   3.208  1.00  0.00     0.175 C 
HETATM    6  O2  UNL     1      26.369  -9.555   3.868  1.00  0.00    -0.337 OA
HETATM    7  C9  UNL     1      25.907  -8.327   4.411  1.00  0.00     0.119 A 
HETATM    8  C10 UNL     1      26.800  -7.369   4.186  1.00  0.00     0.129 A 
HETATM    9  C11 UNL     1      26.519  -6.064   4.626  1.00  0.00     0.095 A 
HETATM   10  C14 UNL     1      25.316  -5.796   5.282  1.00  0.00     0.092 A 
HETATM   11  C17 UNL     1      24.403  -6.797   5.504  1.00  0.00     0.108 A 
HETATM   12  C18 UNL     1      24.714  -8.097   5.063  1.00  0.00     0.047 A 
HETATM   13  C19 UNL     1      23.608  -8.893   5.569  1.00  0.00     0.020 C 
HETATM   14  C20 UNL     1      23.246  -8.705   6.786  1.00  0.00     0.157 C 
HETATM   15  C23 UNL     1      25.214 -10.259   1.785  1.00  0.00     0.075 A 
HETATM   16  C24 UNL     1      25.741 -11.059   0.649  1.00  0.00     0.062 A 
HETATM   17  C25 UNL     1      24.419 -11.667   0.436  1.00  0.00     0.012 A 
HETATM   18 BR1  UNL     1      23.696 -12.948  -0.822  1.00  0.00    -0.054 Br
HETATM   19  C26 UNL     1      23.948 -10.976   1.453  1.00  0.00     0.028 A 
HETATM   20  N5  UNL     1      22.774 -10.722   2.344  1.00  0.00    -0.354 N 
ATOM     21  H5  UNL     1      21.787 -10.886   2.145  1.00  0.00     0.163 HD
HETATM   22  C27 UNL     1      23.368 -10.186   3.563  1.00  0.00     0.200 C 
ENDROOT
BRANCH  10  23
HETATM   23  N3  UNL     1      24.982  -4.495   5.747  1.00  0.00    -0.384 N 
ATOM     24  H3  UNL     1      24.391  -3.912   5.155  1.00  0.00     0.159 HD
BRANCH  23  25
HETATM   25  C15 UNL     1      25.429  -3.950   7.007  1.00  0.00     0.147 C 
BRANCH  25  26
HETATM   26  C16 UNL     1      26.168  -2.637   6.796  1.00  0.00     0.249 C 
BRANCH  26  27
HETATM   27  N4  UNL     1      26.644  -2.192   8.077  1.00  0.00    -0.078 N 
ATOM     28  H43 UNL     1      25.891  -2.023   8.743  1.00  0.00     0.274 HD
ATOM     29  H42 UNL     1      27.123  -2.926   8.598  1.00  0.00     0.274 HD
ATOM     30  H41 UNL     1      27.228  -1.370   7.923  1.00  0.00     0.274 HD
ENDBRANCH  26  27
ENDBRANCH  25  26
ENDBRANCH  23  25
ENDBRANCH  10  23
BRANCH   9  31
HETATM   31  N2  UNL     1      27.471  -5.043   4.407  1.00  0.00    -0.385 N 
HETATM   32  C12 UNL     1      27.222  -4.168   3.256  1.00  0.00     0.149 C 
HETATM   33  C13 UNL     1      28.630  -4.820   5.239  1.00  0.00     0.149 C 
ENDBRANCH   9  31
BRANCH  11  34
HETATM   34  O4  UNL     1      23.201  -6.575   6.113  1.00  0.00    -0.357 OA
ATOM     35  H4  UNL     1      22.953  -6.997   6.928  1.00  0.00     0.217 HD
ENDBRANCH  11  34
BRANCH   8  36
HETATM   36  O3  UNL     1      27.999  -7.596   3.537  1.00  0.00    -0.356 OA
ATOM     37  H3  UNL     1      28.843  -7.494   3.960  1.00  0.00     0.218 HD
ENDBRANCH   8  36
BRANCH   1  38
HETATM   38  O1  UNL     1      21.470  -9.648   4.955  1.00  0.00    -0.374 OA
HETATM   39  C1  UNL     1      20.459 -10.504   5.047  1.00  0.00     0.203 C 
ENDBRANCH   1  38
BRANCH  14  40
HETATM   40  O5  UNL     1      23.701  -7.929   7.757  1.00  0.00    -0.291 OA
BRANCH  40  41
HETATM   41  C21 UNL     1      24.748  -8.133   8.655  1.00  0.00     0.259 C 
HETATM   42  C22 UNL     1      25.518  -7.003   9.236  1.00  0.00     0.126 C 
HETATM   43  O6  UNL     1      25.032  -9.302   8.968  1.00  0.00    -0.265 OA
ENDBRANCH  40  41
ENDBRANCH  14  40
BRANCH  22  44
HETATM   44  O7  UNL     1      23.618  -8.940   2.966  1.00  0.00    -0.358 OA
HETATM   45  C28 UNL     1      22.483  -8.367   2.476  1.00  0.00     0.205 C 
ENDBRANCH  22  44
BRANCH   3  46
HETATM   46  N1  UNL     1      25.339 -12.429   5.764  1.00  0.00    -0.392 N 
HETATM   47  C5  UNL     1      25.156 -13.789   6.205  1.00  0.00     0.148 C 
HETATM   48  C6  UNL     1      25.985 -11.702   6.787  1.00  0.00     0.148 C 
ENDBRANCH   3  46
TORSDOF 12
ENDMDL
MODEL 5
REMARK VINA RESULT: -5.530452939      2.087      2.627
REMARK  12 active torsions:
REMARK  status: ('A' for Active; 'I' for Inactive)
REMARK    1  A    between atoms: O1_2  and  C2_3 
REMARK    2  A    between atoms: C4_5  and  N1_6 
REMARK    3  A    between atoms: C10_13  and  O3_14 
REMARK    4  A    between atoms: C11_16  and  N2_17 
REMARK    5  A    between atoms: C14_20  and  N3_21 
REMARK    6  A    between atoms: N3_21  and  C15_23 
REMARK    7  A    between atoms: C15_23  and  C16_24 
REMARK    8  A    between atoms: C16_24  and  N4_25 
REMARK    9  A    between atoms: C17_29  and  O4_30 
REMARK   10  A    between atoms: C20_34  and  O5_35 
REMARK   11  A    between atoms: O5_35  and  C21_36 
REMARK   12  A    between atoms: C27_46  and  O7_47 
ROOT
HETATM    1  C2  UNL     1      22.229  -9.973   5.699  1.00  0.00     0.149 C 
HETATM    2  C3  UNL     1      22.897  -8.603   5.323  1.00  0.00     0.106 C 
HETATM    3  C4  UNL     1      23.230  -7.918   6.605  1.00  0.00     0.019 C 
HETATM    4  C7  UNL     1      22.754  -8.810   7.651  1.00  0.00     0.031 C 
HETATM    5  C8  UNL     1      23.442  -9.312   8.823  1.00  0.00     0.175 C 
HETATM    6  O2  UNL     1      24.551 -10.193   8.651  1.00  0.00    -0.337 OA
HETATM    7  C9  UNL     1      24.727 -11.356   7.857  1.00  0.00     0.119 A 
HETATM    8  C10 UNL     1      25.453 -12.250   8.520  1.00  0.00     0.129 A 
HETATM    9  C11 UNL     1      25.722 -13.488   7.911  1.00  0.00     0.095 A 
HETATM   10  C14 UNL     1      25.224 -13.759   6.636  1.00  0.00     0.092 A 
HETATM   11  C17 UNL     1      24.474 -12.825   5.966  1.00  0.00     0.108 A 
HETATM   12  C18 UNL     1      24.227 -11.589   6.593  1.00  0.00     0.047 A 
HETATM   13  C19 UNL     1      23.532 -10.829   5.567  1.00  0.00     0.020 C 
HETATM   14  C20 UNL     1      24.014 -10.854   4.378  1.00  0.00     0.157 C 
HETATM   15  C23 UNL     1      22.276  -9.940   9.617  1.00  0.00     0.075 A 
HETATM   16  C24 UNL     1      21.867  -9.286  10.886  1.00  0.00     0.062 A 
HETATM   17  C25 UNL     1      20.603  -8.846  10.278  1.00  0.00     0.012 A 
HETATM   18 BR1  UNL     1      19.062  -7.855  10.903  1.00  0.00    -0.054 Br
HETATM   19  C26 UNL     1      20.965  -9.407   9.143  1.00  0.00     0.028 A 
HETATM   20  N5  UNL     1      20.628  -9.624   7.702  1.00  0.00    -0.354 N 
ATOM     21  H5  UNL     1      19.710  -9.586   7.259  1.00  0.00     0.163 HD
HETATM   22  C27 UNL     1      21.916  -9.901   7.078  1.00  0.00     0.200 C 
ENDROOT
BRANCH  10  23
HETATM   23  N3  UNL     1      25.466 -14.994   5.977  1.00  0.00    -0.384 N 
ATOM     24  H3  UNL     1      24.807 -15.757   6.131  1.00  0.00     0.159 HD
BRANCH  23  25
HETATM   25  C15 UNL     1      26.589 -15.235   5.101  1.00  0.00     0.147 C 
BRANCH  25  26
HETATM   26  C16 UNL     1      26.115 -15.632   3.711  1.00  0.00     0.249 C 
BRANCH  26  27
HETATM   27  N4  UNL     1      25.876 -14.425   2.968  1.00  0.00    -0.078 N 
ATOM     28  H43 UNL     1      26.292 -14.444   2.037  1.00  0.00     0.274 HD
ATOM     29  H42 UNL     1      24.903 -14.325   2.680  1.00  0.00     0.274 HD
ATOM     30  H41 UNL     1      26.205 -13.642   3.533  1.00  0.00     0.274 HD
ENDBRANCH  26  27
ENDBRANCH  25  26
ENDBRANCH  23  25
ENDBRANCH  10  23
BRANCH   9  31
HETATM   31  N2  UNL     1      26.509 -14.438   8.602  1.00  0.00    -0.385 N 
HETATM   32  C12 UNL     1      27.962 -14.280   8.479  1.00  0.00     0.149 C 
HETATM   33  C13 UNL     1      25.970 -15.510   9.406  1.00  0.00     0.149 C 
ENDBRANCH   9  31
BRANCH  11  34
HETATM   34  O4  UNL     1      23.939 -13.059   4.731  1.00  0.00    -0.357 OA
ATOM     35  H4  UNL     1      24.444 -12.975   3.930  1.00  0.00     0.217 HD
ENDBRANCH  11  34
BRANCH   8  36
HETATM   36  O3  UNL     1      25.959 -12.018   9.784  1.00  0.00    -0.356 OA
ATOM     37  H3  UNL     1      26.793 -12.365  10.079  1.00  0.00     0.218 HD
ENDBRANCH   8  36
BRANCH   1  38
HETATM   38  O1  UNL     1      21.364 -10.384   4.777  1.00  0.00    -0.374 OA
HETATM   39  C1  UNL     1      20.496  -9.620   4.127  1.00  0.00     0.203 C 
ENDBRANCH   1  38
BRANCH  14  40
HETATM   40  O5  UNL     1      25.085 -11.418   3.846  1.00  0.00    -0.291 OA
BRANCH  40  41
HETATM   41  C21 UNL     1      26.122 -10.856   3.101  1.00  0.00     0.259 C 
HETATM   42  C22 UNL     1      26.293  -9.386   2.975  1.00  0.00     0.126 C 
HETATM   43  O6  UNL     1      26.919 -11.624   2.535  1.00  0.00    -0.265 OA
ENDBRANCH  40  41
ENDBRANCH  14  40
BRANCH  22  44
HETATM   44  O7  UNL     1      21.967 -11.197   7.615  1.00  0.00    -0.358 OA
HETATM   45  C28 UNL     1      20.846 -11.917   7.326  1.00  0.00     0.205 C 
ENDBRANCH  22  44
BRANCH   3  46
HETATM   46  N1  UNL     1      24.393  -7.161   6.727  1.00  0.00    -0.392 N 
HETATM   47  C5  UNL     1      24.272  -5.763   6.401  1.00  0.00     0.148 C 
HETATM   48  C6  UNL     1      25.630  -7.636   6.241  1.00  0.00     0.148 C 
ENDBRANCH   3  46
TORSDOF 12
ENDMDL
