MODEL 1
REMARK VINA RESULT: -7.536889743      0.000      0.000
REMARK  15 active torsions:
REMARK  status: ('A' for Active; 'I' for Inactive)
REMARK    1  A    between atoms: C3_3  and  O1_4 
REMARK    2  A    between atoms: O1_4  and  C4_5 
REMARK    3  A    between atoms: C4_5  and  C5_7 
REMARK    4  A    between atoms: C10_12  and  C11_13 
REMARK    5  A    between atoms: C11_13  and  O3_14 
REMARK    6  A    between atoms: O3_14  and  C12_15 
REMARK    7  A    between atoms: C13_17  and  C14_18 
REMARK    8  A    between atoms: C14_18  and  O5_19 
REMARK    9  A    between atoms: C15_21  and  O6_22 
REMARK   10  A    between atoms: C16_24  and  O7_25 
REMARK   11  A    between atoms: C17_27  and  O8_28 
REMARK   12  A    between atoms: C20_32  and  O9_33 
REMARK   13  A    between atoms: O9_33  and  C21_34 
REMARK   14  A    between atoms: C23_37  and  C24_38 
REMARK   15  A    between atoms: C29_45  and  O12_47 
ROOT
HETATM    1  C1  UNL     1      24.197 -10.233   8.465  1.00  0.00     0.017 C 
HETATM    2  C2  UNL     1      23.992 -10.084   7.187  1.00  0.00    -0.051 C 
HETATM    3  C3  UNL     1      24.627 -11.022   6.169  1.00  0.00     0.164 C 
HETATM    4  C7  UNL     1      25.063 -10.292   4.955  1.00  0.00     0.071 C 
HETATM    5  C8  UNL     1      24.363  -9.020   4.629  1.00  0.00    -0.074 C 
HETATM    6  C9  UNL     1      24.048  -8.835   3.374  1.00  0.00     0.015 C 
HETATM    7  C10 UNL     1      24.111  -8.115   5.785  1.00  0.00     0.020 C 
HETATM    8  C18 UNL     1      23.312  -6.934   5.682  1.00  0.00     0.029 C 
HETATM    9  C19 UNL     1      23.225  -6.064   4.517  1.00  0.00     0.014 C 
HETATM   10  C20 UNL     1      21.865  -7.251   6.193  1.00  0.00     0.164 C 
HETATM   11  C29 UNL     1      22.259  -8.218   7.359  1.00  0.00     0.089 C 
HETATM   12  C30 UNL     1      21.100  -8.994   7.889  1.00  0.00     0.049 C 
HETATM   13  C31 UNL     1      23.171  -9.067   6.610  1.00  0.00     0.068 C 
ENDROOT
BRANCH   7  14
HETATM   14  C11 UNL     1      25.431  -7.957   6.433  1.00  0.00     0.186 C 
BRANCH  14  15
HETATM   15  O3  UNL     1      25.756  -7.300   7.522  1.00  0.00    -0.357 OA
BRANCH  15  16
HETATM   16  C12 UNL     1      25.809  -5.970   7.689  1.00  0.00     0.291 C 
HETATM   17  O4  UNL     1      26.849  -5.454   6.787  1.00  0.00    -0.348 OA
HETATM   18  C13 UNL     1      26.454  -4.149   6.526  1.00  0.00     0.179 C 
HETATM   19  C15 UNL     1      26.749  -3.312   7.740  1.00  0.00     0.180 C 
HETATM   20  C16 UNL     1      25.986  -3.882   8.897  1.00  0.00     0.183 C 
HETATM   21  C17 UNL     1      26.227  -5.399   9.001  1.00  0.00     0.204 C 
BRANCH  18  22
HETATM   22  C14 UNL     1      27.224  -3.683   5.308  1.00  0.00     0.198 C 
BRANCH  22  23
HETATM   23  O5  UNL     1      26.308  -2.905   4.561  1.00  0.00    -0.398 OA
ATOM     24  H5  UNL     1      26.554  -3.033   3.652  1.00  0.00     0.209 HD
ENDBRANCH  22  23
ENDBRANCH  18  22
BRANCH  19  25
HETATM   25  O6  UNL     1      26.356  -2.002   7.517  1.00  0.00    -0.390 OA
ATOM     26  H6  UNL     1      25.765  -1.965   6.774  1.00  0.00     0.210 HD
ENDBRANCH  19  25
BRANCH  20  27
HETATM   27  O7  UNL     1      26.386  -3.224  10.052  1.00  0.00    -0.390 OA
ATOM     28  H7  UNL     1      25.843  -2.452  10.159  1.00  0.00     0.210 HD
ENDBRANCH  20  27
BRANCH  21  29
HETATM   29  O8  UNL     1      27.559  -5.570   9.315  1.00  0.00    -0.388 OA
ATOM     30  H8  UNL     1      27.975  -4.820   9.721  1.00  0.00     0.210 HD
ENDBRANCH  21  29
ENDBRANCH  15  16
ENDBRANCH  14  15
ENDBRANCH   7  14
BRANCH  10  31
HETATM   31  O9  UNL     1      21.082  -7.825   5.255  1.00  0.00    -0.351 OA
BRANCH  31  32
HETATM   32  C21 UNL     1      19.811  -7.305   5.086  1.00  0.00     0.284 C 
HETATM   33  O10 UNL     1      19.642  -6.008   5.702  1.00  0.00    -0.330 OA
HETATM   34  C22 UNL     1      18.352  -5.519   5.628  1.00  0.00     0.149 C 
HETATM   35  C23 UNL     1      17.671  -5.688   4.517  1.00  0.00     0.015 C 
HETATM   36  C26 UNL     1      18.252  -6.334   3.339  1.00  0.00     0.043 C 
HETATM   37  C27 UNL     1      18.701  -5.221   2.390  1.00  0.00     0.017 C 
HETATM   38  C28 UNL     1      19.391  -7.253   3.668  1.00  0.00     0.146 C 
HETATM   39 CL1  UNL     1      20.724  -6.794   2.567  1.00  0.00    -0.119 Cl
BRANCH  35  40
HETATM   40  C24 UNL     1      16.299  -5.154   4.481  1.00  0.00     0.154 C 
HETATM   41  C25 UNL     1      15.797  -4.375   5.633  1.00  0.00     0.096 C 
HETATM   42  O11 UNL     1      15.557  -5.351   3.494  1.00  0.00    -0.293 OA
ENDBRANCH  35  40
ENDBRANCH  31  32
ENDBRANCH  10  31
BRANCH  11  43
HETATM   43  O12 UNL     1      22.790  -7.506   8.404  1.00  0.00    -0.387 OA
ATOM     44  H12 UNL     1      22.377  -7.763   9.219  1.00  0.00     0.210 HD
ENDBRANCH  11  43
BRANCH   3  45
HETATM   45  O1  UNL     1      23.795 -12.082   5.818  1.00  0.00    -0.311 OA
BRANCH  45  46
HETATM   46  C4  UNL     1      23.248 -12.974   6.724  1.00  0.00     0.259 C 
HETATM   47  O2  UNL     1      24.097 -13.692   7.358  1.00  0.00    -0.265 OA
BRANCH  46  48
HETATM   48  C5  UNL     1      21.790 -13.127   6.977  1.00  0.00     0.106 C 
HETATM   49  C6  UNL     1      21.465 -12.751   8.390  1.00  0.00     0.015 C 
ENDBRANCH  46  48
ENDBRANCH  45  46
ENDBRANCH   3  45
TORSDOF 15
ENDMDL
MODEL 2
REMARK VINA RESULT: -7.389901959      1.273      1.542
REMARK  15 active torsions:
REMARK  status: ('A' for Active; 'I' for Inactive)
REMARK    1  A    between atoms: C3_3  and  O1_4 
REMARK    2  A    between atoms: O1_4  and  C4_5 
REMARK    3  A    between atoms: C4_5  and  C5_7 
REMARK    4  A    between atoms: C10_12  and  C11_13 
REMARK    5  A    between atoms: C11_13  and  O3_14 
REMARK    6  A    between atoms: O3_14  and  C12_15 
REMARK    7  A    between atoms: C13_17  and  C14_18 
REMARK    8  A    between atoms: C14_18  and  O5_19 
REMARK    9  A    between atoms: C15_21  and  O6_22 
REMARK   10  A    between atoms: C16_24  and  O7_25 
REMARK   11  A    between atoms: C17_27  and  O8_28 
REMARK   12  A    between atoms: C20_32  and  O9_33 
REMARK   13  A    between atoms: O9_33  and  C21_34 
REMARK   14  A    between atoms: C23_37  and  C24_38 
REMARK   15  A    between atoms: C29_45  and  O12_47 
ROOT
HETATM    1  C1  UNL     1      23.913 -10.420   8.561  1.00  0.00     0.017 C 
HETATM    2  C2  UNL     1      23.955 -10.312   7.263  1.00  0.00    -0.051 C 
HETATM    3  C3  UNL     1      24.838 -11.225   6.421  1.00  0.00     0.164 C 
HETATM    4  C7  UNL     1      25.457 -10.492   5.292  1.00  0.00     0.071 C 
HETATM    5  C8  UNL     1      24.757  -9.278   4.792  1.00  0.00    -0.074 C 
HETATM    6  C9  UNL     1      24.684  -9.141   3.495  1.00  0.00     0.015 C 
HETATM    7  C10 UNL     1      24.224  -8.369   5.845  1.00  0.00     0.020 C 
HETATM    8  C18 UNL     1      23.388  -7.248   5.548  1.00  0.00     0.029 C 
HETATM    9  C19 UNL     1      23.478  -6.410   4.360  1.00  0.00     0.014 C 
HETATM   10  C20 UNL     1      21.892  -7.653   5.776  1.00  0.00     0.164 C 
HETATM   11  C29 UNL     1      22.108  -8.566   7.028  1.00  0.00     0.089 C 
HETATM   12  C30 UNL     1      20.918  -9.409   7.348  1.00  0.00     0.049 C 
HETATM   13  C31 UNL     1      23.201  -9.366   6.502  1.00  0.00     0.068 C 
ENDROOT
BRANCH   7  14
HETATM   14  C11 UNL     1      25.377  -8.106   6.734  1.00  0.00     0.186 C 
BRANCH  14  15
HETATM   15  O3  UNL     1      25.448  -7.371   7.818  1.00  0.00    -0.357 OA
BRANCH  15  16
HETATM   16  C12 UNL     1      25.620  -6.044   7.897  1.00  0.00     0.291 C 
HETATM   17  O4  UNL     1      26.592  -5.664   6.861  1.00  0.00    -0.348 OA
HETATM   18  C13 UNL     1      26.271  -4.347   6.562  1.00  0.00     0.179 C 
HETATM   19  C15 UNL     1      26.760  -3.473   7.685  1.00  0.00     0.180 C 
HETATM   20  C16 UNL     1      26.086  -3.916   8.948  1.00  0.00     0.183 C 
HETATM   21  C17 UNL     1      26.221  -5.440   9.120  1.00  0.00     0.204 C 
BRANCH  18  22
HETATM   22  C14 UNL     1      26.938  -4.011   5.245  1.00  0.00     0.198 C 
BRANCH  22  23
HETATM   23  O5  UNL     1      26.233  -2.891   4.743  1.00  0.00    -0.398 OA
ATOM     24  H5  UNL     1      25.760  -3.212   3.984  1.00  0.00     0.209 HD
ENDBRANCH  22  23
ENDBRANCH  18  22
BRANCH  19  25
HETATM   25  O6  UNL     1      26.446  -2.149   7.423  1.00  0.00    -0.390 OA
ATOM     26  H6  UNL     1      26.070  -2.072   6.554  1.00  0.00     0.210 HD
ENDBRANCH  19  25
BRANCH  20  27
HETATM   27  O7  UNL     1      26.658  -3.232  10.012  1.00  0.00    -0.390 OA
ATOM     28  H7  UNL     1      26.521  -3.740  10.803  1.00  0.00     0.210 HD
ENDBRANCH  20  27
BRANCH  21  29
HETATM   29  O8  UNL     1      27.562  -5.703   9.303  1.00  0.00    -0.388 OA
ATOM     30  H8  UNL     1      28.039  -5.040   9.787  1.00  0.00     0.210 HD
ENDBRANCH  21  29
ENDBRANCH  15  16
ENDBRANCH  14  15
ENDBRANCH   7  14
BRANCH  10  31
HETATM   31  O9  UNL     1      21.347  -8.299   4.723  1.00  0.00    -0.351 OA
BRANCH  31  32
HETATM   32  C21 UNL     1      20.218  -7.740   4.152  1.00  0.00     0.284 C 
HETATM   33  O10 UNL     1      20.146  -6.306   4.321  1.00  0.00    -0.330 OA
HETATM   34  C22 UNL     1      18.977  -5.745   3.844  1.00  0.00     0.149 C 
HETATM   35  C23 UNL     1      18.477  -6.186   2.711  1.00  0.00     0.015 C 
HETATM   36  C26 UNL     1      19.144  -7.218   1.916  1.00  0.00     0.043 C 
HETATM   37  C27 UNL     1      19.911  -6.503   0.803  1.00  0.00     0.017 C 
HETATM   38  C28 UNL     1      20.056  -8.092   2.723  1.00  0.00     0.146 C 
HETATM   39 CL1  UNL     1      21.611  -8.126   1.839  1.00  0.00    -0.119 Cl
BRANCH  35  40
HETATM   40  C24 UNL     1      17.228  -5.564   2.241  1.00  0.00     0.154 C 
HETATM   41  C25 UNL     1      15.983  -5.770   3.011  1.00  0.00     0.096 C 
HETATM   42  O11 UNL     1      17.209  -4.865   1.203  1.00  0.00    -0.293 OA
ENDBRANCH  35  40
ENDBRANCH  31  32
ENDBRANCH  10  31
BRANCH  11  43
HETATM   43  O12 UNL     1      22.375  -7.798   8.133  1.00  0.00    -0.387 OA
ATOM     44  H12 UNL     1      23.314  -7.708   8.250  1.00  0.00     0.210 HD
ENDBRANCH  11  43
BRANCH   3  45
HETATM   45  O1  UNL     1      24.160 -12.346   5.950  1.00  0.00    -0.311 OA
BRANCH  45  46
HETATM   46  C4  UNL     1      24.353 -12.903   4.698  1.00  0.00     0.259 C 
HETATM   47  O2  UNL     1      25.347 -13.706   4.610  1.00  0.00    -0.265 OA
BRANCH  46  48
HETATM   48  C5  UNL     1      23.502 -12.622   3.512  1.00  0.00     0.106 C 
HETATM   49  C6  UNL     1      22.224 -11.963   3.933  1.00  0.00     0.015 C 
ENDBRANCH  46  48
ENDBRANCH  45  46
ENDBRANCH   3  45
TORSDOF 15
ENDMDL
MODEL 3
REMARK VINA RESULT: -7.365216115      1.869      2.275
REMARK  15 active torsions:
REMARK  status: ('A' for Active; 'I' for Inactive)
REMARK    1  A    between atoms: C3_3  and  O1_4 
REMARK    2  A    between atoms: O1_4  and  C4_5 
REMARK    3  A    between atoms: C4_5  and  C5_7 
REMARK    4  A    between atoms: C10_12  and  C11_13 
REMARK    5  A    between atoms: C11_13  and  O3_14 
REMARK    6  A    between atoms: O3_14  and  C12_15 
REMARK    7  A    between atoms: C13_17  and  C14_18 
REMARK    8  A    between atoms: C14_18  and  O5_19 
REMARK    9  A    between atoms: C15_21  and  O6_22 
REMARK   10  A    between atoms: C16_24  and  O7_25 
REMARK   11  A    between atoms: C17_27  and  O8_28 
REMARK   12  A    between atoms: C20_32  and  O9_33 
REMARK   13  A    between atoms: O9_33  and  C21_34 
REMARK   14  A    between atoms: C23_37  and  C24_38 
REMARK   15  A    between atoms: C29_45  and  O12_47 
ROOT
HETATM    1  C1  UNL     1      22.366 -10.347   8.286  1.00  0.00     0.017 C 
HETATM    2  C2  UNL     1      22.710 -10.234   7.034  1.00  0.00    -0.051 C 
HETATM    3  C3  UNL     1      23.829 -11.081   6.442  1.00  0.00     0.164 C 
HETATM    4  C7  UNL     1      24.648 -10.305   5.481  1.00  0.00     0.071 C 
HETATM    5  C8  UNL     1      24.004  -9.144   4.810  1.00  0.00    -0.074 C 
HETATM    6  C9  UNL     1      24.234  -9.011   3.530  1.00  0.00     0.015 C 
HETATM    7  C10 UNL     1      23.173  -8.276   5.691  1.00  0.00     0.020 C 
HETATM    8  C18 UNL     1      22.357  -7.217   5.184  1.00  0.00     0.029 C 
HETATM    9  C19 UNL     1      22.669  -6.374   4.039  1.00  0.00     0.014 C 
HETATM   10  C20 UNL     1      20.881  -7.729   5.056  1.00  0.00     0.164 C 
HETATM   11  C29 UNL     1      20.855  -8.625   6.338  1.00  0.00     0.089 C 
HETATM   12  C30 UNL     1      19.685  -9.551   6.378  1.00  0.00     0.049 C 
HETATM   13  C31 UNL     1      22.096  -9.345   6.101  1.00  0.00     0.068 C 
ENDROOT
BRANCH   7  14
HETATM   14  C11 UNL     1      24.060  -7.932   6.824  1.00  0.00     0.186 C 
BRANCH  14  15
HETATM   15  O3  UNL     1      23.928  -6.999   7.737  1.00  0.00    -0.357 OA
BRANCH  15  16
HETATM   16  C12 UNL     1      24.661  -5.885   7.879  1.00  0.00     0.291 C 
HETATM   17  O4  UNL     1      25.556  -5.796   6.716  1.00  0.00    -0.348 OA
HETATM   18  C13 UNL     1      25.794  -4.435   6.576  1.00  0.00     0.179 C 
HETATM   19  C15 UNL     1      26.753  -4.008   7.654  1.00  0.00     0.180 C 
HETATM   20  C16 UNL     1      26.127  -4.309   8.982  1.00  0.00     0.183 C 
HETATM   21  C17 UNL     1      25.618  -5.762   9.015  1.00  0.00     0.204 C 
BRANCH  18  22
HETATM   22  C14 UNL     1      26.361  -4.219   5.188  1.00  0.00     0.198 C 
BRANCH  22  23
HETATM   23  O5  UNL     1      26.243  -2.830   4.948  1.00  0.00    -0.398 OA
ATOM     24  H5  UNL     1      26.913  -2.424   5.486  1.00  0.00     0.209 HD
ENDBRANCH  22  23
ENDBRANCH  18  22
BRANCH  19  25
HETATM   25  O6  UNL     1      27.005  -2.649   7.549  1.00  0.00    -0.390 OA
ATOM     26  H6  UNL     1      26.388  -2.252   6.946  1.00  0.00     0.210 HD
ENDBRANCH  19  25
BRANCH  20  27
HETATM   27  O7  UNL     1      27.072  -4.079   9.972  1.00  0.00    -0.390 OA
ATOM     28  H7  UNL     1      26.631  -3.698  10.723  1.00  0.00     0.210 HD
ENDBRANCH  20  27
BRANCH  21  29
HETATM   29  O8  UNL     1      26.728  -6.575   8.935  1.00  0.00    -0.388 OA
ATOM     30  H8  UNL     1      27.119  -6.638   8.072  1.00  0.00     0.210 HD
ENDBRANCH  21  29
ENDBRANCH  15  16
ENDBRANCH  14  15
ENDBRANCH   7  14
BRANCH  10  31
HETATM   31  O9  UNL     1      20.650  -8.411   3.914  1.00  0.00    -0.351 OA
BRANCH  31  32
HETATM   32  C21 UNL     1      19.623  -7.961   3.104  1.00  0.00     0.284 C 
HETATM   33  O10 UNL     1      19.558  -6.520   3.016  1.00  0.00    -0.330 OA
HETATM   34  C22 UNL     1      18.479  -6.052   2.292  1.00  0.00     0.149 C 
HETATM   35  C23 UNL     1      18.131  -6.682   1.192  1.00  0.00     0.015 C 
HETATM   36  C26 UNL     1      18.879  -7.832   0.684  1.00  0.00     0.043 C 
HETATM   37  C27 UNL     1      19.808  -7.316  -0.416  1.00  0.00     0.017 C 
HETATM   38  C28 UNL     1      19.653  -8.553   1.748  1.00  0.00     0.146 C 
HETATM   39 CL1  UNL     1      21.314  -8.733   1.108  1.00  0.00    -0.119 Cl
BRANCH  35  40
HETATM   40  C24 UNL     1      16.973  -6.153   0.453  1.00  0.00     0.154 C 
HETATM   41  C25 UNL     1      16.606  -4.729   0.607  1.00  0.00     0.096 C 
HETATM   42  O11 UNL     1      16.299  -6.889  -0.302  1.00  0.00    -0.293 OA
ENDBRANCH  35  40
ENDBRANCH  31  32
ENDBRANCH  10  31
BRANCH  11  43
HETATM   43  O12 UNL     1      20.797  -7.841   7.462  1.00  0.00    -0.387 OA
ATOM     44  H12 UNL     1      20.935  -8.370   8.239  1.00  0.00     0.210 HD
ENDBRANCH  11  43
BRANCH   3  45
HETATM   45  O1  UNL     1      23.363 -12.248   5.841  1.00  0.00    -0.311 OA
BRANCH  45  46
HETATM   46  C4  UNL     1      23.807 -12.725   4.620  1.00  0.00     0.259 C 
HETATM   47  O2  UNL     1      24.898 -13.393   4.664  1.00  0.00    -0.265 OA
BRANCH  46  48
HETATM   48  C5  UNL     1      23.107 -12.503   3.327  1.00  0.00     0.106 C 
HETATM   49  C6  UNL     1      21.728 -11.970   3.565  1.00  0.00     0.015 C 
ENDBRANCH  46  48
ENDBRANCH  45  46
ENDBRANCH   3  45
TORSDOF 15
ENDMDL
MODEL 4
REMARK VINA RESULT: -7.322938150      3.170      6.281
REMARK  15 active torsions:
REMARK  status: ('A' for Active; 'I' for Inactive)
REMARK    1  A    between atoms: C3_3  and  O1_4 
REMARK    2  A    between atoms: O1_4  and  C4_5 
REMARK    3  A    between atoms: C4_5  and  C5_7 
REMARK    4  A    between atoms: C10_12  and  C11_13 
REMARK    5  A    between atoms: C11_13  and  O3_14 
REMARK    6  A    between atoms: O3_14  and  C12_15 
REMARK    7  A    between atoms: C13_17  and  C14_18 
REMARK    8  A    between atoms: C14_18  and  O5_19 
REMARK    9  A    between atoms: C15_21  and  O6_22 
REMARK   10  A    between atoms: C16_24  and  O7_25 
REMARK   11  A    between atoms: C17_27  and  O8_28 
REMARK   12  A    between atoms: C20_32  and  O9_33 
REMARK   13  A    between atoms: O9_33  and  C21_34 
REMARK   14  A    between atoms: C23_37  and  C24_38 
REMARK   15  A    between atoms: C29_45  and  O12_47 
ROOT
HETATM    1  C1  UNL     1      26.259  -8.782   4.966  1.00  0.00     0.017 C 
HETATM    2  C2  UNL     1      25.034  -9.176   4.765  1.00  0.00    -0.051 C 
HETATM    3  C3  UNL     1      24.344  -8.962   3.424  1.00  0.00     0.164 C 
HETATM    4  C7  UNL     1      22.917  -8.600   3.598  1.00  0.00     0.071 C 
HETATM    5  C8  UNL     1      22.242  -9.044   4.848  1.00  0.00    -0.074 C 
HETATM    6  C9  UNL     1      21.037  -9.531   4.717  1.00  0.00     0.015 C 
HETATM    7  C10 UNL     1      23.036  -8.874   6.097  1.00  0.00     0.020 C 
HETATM    8  C18 UNL     1      22.610  -9.392   7.360  1.00  0.00     0.029 C 
HETATM    9  C19 UNL     1      21.232  -9.491   7.819  1.00  0.00     0.014 C 
HETATM   10  C20 UNL     1      23.335 -10.757   7.620  1.00  0.00     0.164 C 
HETATM   11  C29 UNL     1      24.719 -10.386   6.990  1.00  0.00     0.089 C 
HETATM   12  C30 UNL     1      25.592 -11.574   6.760  1.00  0.00     0.049 C 
HETATM   13  C31 UNL     1      24.224  -9.839   5.737  1.00  0.00     0.068 C 
ENDROOT
BRANCH   7  14
HETATM   14  C11 UNL     1      23.461  -7.456   6.082  1.00  0.00     0.186 C 
BRANCH  14  15
HETATM   15  O3  UNL     1      23.533  -6.594   7.069  1.00  0.00    -0.357 OA
BRANCH  15  16
HETATM   16  C12 UNL     1      24.504  -5.700   7.304  1.00  0.00     0.291 C 
HETATM   17  O4  UNL     1      25.418  -5.730   6.153  1.00  0.00    -0.348 OA
HETATM   18  C13 UNL     1      25.972  -4.457   6.127  1.00  0.00     0.179 C 
HETATM   19  C15 UNL     1      26.982  -4.356   7.237  1.00  0.00     0.180 C 
HETATM   20  C16 UNL     1      26.277  -4.608   8.535  1.00  0.00     0.183 C 
HETATM   21  C17 UNL     1      25.440  -5.897   8.447  1.00  0.00     0.204 C 
BRANCH  18  22
HETATM   22  C14 UNL     1      26.601  -4.269   4.762  1.00  0.00     0.198 C 
BRANCH  22  23
HETATM   23  O5  UNL     1      26.527  -2.879   4.504  1.00  0.00    -0.398 OA
ATOM     24  H5  UNL     1      26.781  -2.459   5.317  1.00  0.00     0.209 HD
ENDBRANCH  22  23
ENDBRANCH  18  22
BRANCH  19  25
HETATM   25  O6  UNL     1      27.548  -3.091   7.246  1.00  0.00    -0.390 OA
ATOM     26  H6  UNL     1      28.400  -3.121   7.664  1.00  0.00     0.210 HD
ENDBRANCH  19  25
BRANCH  20  27
HETATM   27  O7  UNL     1      27.229  -4.688   9.541  1.00  0.00    -0.390 OA
ATOM     28  H7  UNL     1      27.663  -3.845   9.611  1.00  0.00     0.210 HD
ENDBRANCH  20  27
BRANCH  21  29
HETATM   29  O8  UNL     1      26.330  -6.940   8.300  1.00  0.00    -0.388 OA
ATOM     30  H8  UNL     1      26.913  -7.078   9.036  1.00  0.00     0.210 HD
ENDBRANCH  21  29
ENDBRANCH  15  16
ENDBRANCH  14  15
ENDBRANCH   7  14
BRANCH  10  31
HETATM   31  O9  UNL     1      22.732 -11.805   7.021  1.00  0.00    -0.351 OA
BRANCH  31  32
HETATM   32  C21 UNL     1      22.395 -12.883   7.819  1.00  0.00     0.284 C 
HETATM   33  O10 UNL     1      20.976 -13.162   7.829  1.00  0.00    -0.330 OA
HETATM   34  C22 UNL     1      20.611 -14.171   8.698  1.00  0.00     0.149 C 
HETATM   35  C23 UNL     1      21.376 -15.236   8.793  1.00  0.00     0.015 C 
HETATM   36  C26 UNL     1      22.575 -15.407   7.972  1.00  0.00     0.043 C 
HETATM   37  C27 UNL     1      22.194 -16.313   6.800  1.00  0.00     0.017 C 
HETATM   38  C28 UNL     1      23.151 -14.111   7.486  1.00  0.00     0.146 C 
HETATM   39 CL1  UNL     1      23.398 -14.314   5.726  1.00  0.00    -0.119 Cl
BRANCH  35  40
HETATM   40  C24 UNL     1      20.952 -16.287   9.733  1.00  0.00     0.154 C 
HETATM   41  C25 UNL     1      21.960 -16.924  10.606  1.00  0.00     0.096 C 
HETATM   42  O11 UNL     1      19.755 -16.644   9.801  1.00  0.00    -0.293 OA
ENDBRANCH  35  40
ENDBRANCH  31  32
ENDBRANCH  10  31
BRANCH  11  43
HETATM   43  O12 UNL     1      25.400  -9.529   7.816  1.00  0.00    -0.387 OA
ATOM     44  H12 UNL     1      24.840  -8.806   8.073  1.00  0.00     0.210 HD
ENDBRANCH  11  43
BRANCH   3  45
HETATM   45  O1  UNL     1      24.459 -10.060   2.575  1.00  0.00    -0.311 OA
BRANCH  45  46
HETATM   46  C4  UNL     1      25.651 -10.493   2.022  1.00  0.00     0.259 C 
HETATM   47  O2  UNL     1      26.150  -9.716   1.134  1.00  0.00    -0.265 OA
BRANCH  46  48
HETATM   48  C5  UNL     1      26.341 -11.757   2.393  1.00  0.00     0.106 C 
HETATM   49  C6  UNL     1      25.435 -12.623   3.214  1.00  0.00     0.015 C 
ENDBRANCH  46  48
ENDBRANCH  45  46
ENDBRANCH   3  45
TORSDOF 15
ENDMDL
MODEL 5
REMARK VINA RESULT: -7.249377339      2.167      6.482
REMARK  15 active torsions:
REMARK  status: ('A' for Active; 'I' for Inactive)
REMARK    1  A    between atoms: C3_3  and  O1_4 
REMARK    2  A    between atoms: O1_4  and  C4_5 
REMARK    3  A    between atoms: C4_5  and  C5_7 
REMARK    4  A    between atoms: C10_12  and  C11_13 
REMARK    5  A    between atoms: C11_13  and  O3_14 
REMARK    6  A    between atoms: O3_14  and  C12_15 
REMARK    7  A    between atoms: C13_17  and  C14_18 
REMARK    8  A    between atoms: C14_18  and  O5_19 
REMARK    9  A    between atoms: C15_21  and  O6_22 
REMARK   10  A    between atoms: C16_24  and  O7_25 
REMARK   11  A    between atoms: C17_27  and  O8_28 
REMARK   12  A    between atoms: C20_32  and  O9_33 
REMARK   13  A    between atoms: O9_33  and  C21_34 
REMARK   14  A    between atoms: C23_37  and  C24_38 
REMARK   15  A    between atoms: C29_45  and  O12_47 
ROOT
HETATM    1  C1  UNL     1      26.116  -6.944   5.571  1.00  0.00     0.017 C 
HETATM    2  C2  UNL     1      25.166  -7.009   6.461  1.00  0.00    -0.051 C 
HETATM    3  C3  UNL     1      25.445  -6.750   7.936  1.00  0.00     0.164 C 
HETATM    4  C7  UNL     1      24.667  -7.665   8.805  1.00  0.00     0.071 C 
HETATM    5  C8  UNL     1      23.403  -8.226   8.257  1.00  0.00    -0.074 C 
HETATM    6  C9  UNL     1      22.377  -8.248   9.066  1.00  0.00     0.015 C 
HETATM    7  C10 UNL     1      23.470  -8.693   6.844  1.00  0.00     0.020 C 
HETATM    8  C18 UNL     1      22.315  -9.107   6.111  1.00  0.00     0.029 C 
HETATM    9  C19 UNL     1      21.158  -9.796   6.663  1.00  0.00     0.014 C 
HETATM   10  C20 UNL     1      21.823  -7.915   5.220  1.00  0.00     0.164 C 
HETATM   11  C29 UNL     1      23.228  -7.345   4.834  1.00  0.00     0.089 C 
HETATM   12  C30 UNL     1      23.158  -5.979   4.235  1.00  0.00     0.049 C 
HETATM   13  C31 UNL     1      23.800  -7.311   6.170  1.00  0.00     0.068 C 
ENDROOT
BRANCH   7  14
HETATM   14  C11 UNL     1      24.631  -9.609   6.806  1.00  0.00     0.186 C 
BRANCH  14  15
HETATM   15  O3  UNL     1      24.664 -10.913   6.660  1.00  0.00    -0.357 OA
BRANCH  15  16
HETATM   16  C12 UNL     1      25.548 -11.773   7.187  1.00  0.00     0.291 C 
HETATM   17  O4  UNL     1      25.025 -13.130   6.969  1.00  0.00    -0.348 OA
HETATM   18  C13 UNL     1      26.161 -13.928   6.931  1.00  0.00     0.179 C 
HETATM   19  C15 UNL     1      26.675 -14.089   8.336  1.00  0.00     0.180 C 
HETATM   20  C16 UNL     1      26.993 -12.728   8.875  1.00  0.00     0.183 C 
HETATM   21  C17 UNL     1      25.805 -11.773   8.655  1.00  0.00     0.204 C 
BRANCH  18  22
HETATM   22  C14 UNL     1      25.759 -15.251   6.314  1.00  0.00     0.198 C 
BRANCH  22  23
HETATM   23  O5  UNL     1      26.945 -15.779   5.753  1.00  0.00    -0.398 OA
ATOM     24  H5  UNL     1      27.336 -16.306   6.440  1.00  0.00     0.209 HD
ENDBRANCH  22  23
ENDBRANCH  18  22
BRANCH  19  25
HETATM   25  O6  UNL     1      27.816 -14.873   8.333  1.00  0.00    -0.390 OA
ATOM     26  H6  UNL     1      28.512 -14.433   8.807  1.00  0.00     0.210 HD
ENDBRANCH  19  25
BRANCH  20  27
HETATM   27  O7  UNL     1      27.302 -12.852  10.223  1.00  0.00    -0.390 OA
ATOM     28  H7  UNL     1      27.389 -13.776  10.425  1.00  0.00     0.210 HD
ENDBRANCH  20  27
BRANCH  21  29
HETATM   29  O8  UNL     1      24.767 -12.246   9.430  1.00  0.00    -0.388 OA
ATOM     30  H8  UNL     1      24.278 -12.967   9.052  1.00  0.00     0.210 HD
ENDBRANCH  21  29
ENDBRANCH  15  16
ENDBRANCH  14  15
ENDBRANCH   7  14
BRANCH  10  31
HETATM   31  O9  UNL     1      21.046  -7.035   5.886  1.00  0.00    -0.351 OA
BRANCH  31  32
HETATM   32  C21 UNL     1      19.962  -6.507   5.209  1.00  0.00     0.284 C 
HETATM   33  O10 UNL     1      19.504  -7.347   4.126  1.00  0.00    -0.330 OA
HETATM   34  C22 UNL     1      18.487  -6.789   3.377  1.00  0.00     0.149 C 
HETATM   35  C23 UNL     1      17.534  -6.126   3.994  1.00  0.00     0.015 C 
HETATM   36  C26 UNL     1      17.490  -6.003   5.451  1.00  0.00     0.043 C 
HETATM   37  C27 UNL     1      16.502  -7.052   5.963  1.00  0.00     0.017 C 
HETATM   38  C28 UNL     1      18.832  -6.165   6.101  1.00  0.00     0.146 C 
HETATM   39 CL1  UNL     1      18.600  -7.358   7.412  1.00  0.00    -0.119 Cl
BRANCH  35  40
HETATM   40  C24 UNL     1      16.471  -5.544   3.158  1.00  0.00     0.154 C 
HETATM   41  C25 UNL     1      16.681  -5.428   1.699  1.00  0.00     0.096 C 
HETATM   42  O11 UNL     1      15.397  -5.149   3.664  1.00  0.00    -0.293 OA
ENDBRANCH  35  40
ENDBRANCH  31  32
ENDBRANCH  10  31
BRANCH  11  43
HETATM   43  O12 UNL     1      23.836  -8.164   3.918  1.00  0.00    -0.387 OA
ATOM     44  H12 UNL     1      24.589  -7.729   3.537  1.00  0.00     0.210 HD
ENDBRANCH  11  43
BRANCH   3  45
HETATM   45  O1  UNL     1      25.213  -5.427   8.305  1.00  0.00    -0.311 OA
BRANCH  45  46
HETATM   46  C4  UNL     1      26.211  -4.521   8.616  1.00  0.00     0.259 C 
HETATM   47  O2  UNL     1      27.156  -4.984   9.345  1.00  0.00    -0.265 OA
BRANCH  46  48
HETATM   48  C5  UNL     1      26.231  -3.104   8.164  1.00  0.00     0.106 C 
HETATM   49  C6  UNL     1      26.265  -3.035   6.668  1.00  0.00     0.015 C 
ENDBRANCH  46  48
ENDBRANCH  45  46
ENDBRANCH   3  45
TORSDOF 15
ENDMDL
