MODEL 1
REMARK VINA RESULT: -6.341404535      0.000      0.000
REMARK  4 active torsions:
REMARK  status: ('A' for Active; 'I' for Inactive)
REMARK    1  A    between atoms: N1_1  and  C1_4 
REMARK    2  A    between atoms: C6_11  and  C7_12 
REMARK    3  A    between atoms: C7_12  and  O2_14 
REMARK    4  A    between atoms: O2_14  and  N3_15 
ROOT
HETATM    1  C1  UNL     1      39.259  17.888 -14.303  1.00  0.00     0.169 A 
HETATM    2  N2  UNL     1      38.761  16.763 -13.759  1.00  0.00    -0.346 N 
ATOM      3  H2  UNL     1      39.348  16.154 -13.189  1.00  0.00     0.167 HD
HETATM    4  C2  UNL     1      37.470  16.463 -13.984  1.00  0.00     0.119 A 
HETATM    5  C3  UNL     1      36.680  17.294 -14.758  1.00  0.00     0.057 A 
HETATM    6  C4  UNL     1      35.352  16.955 -14.972  1.00  0.00     0.032 A 
HETATM    7  C5  UNL     1      34.572  17.791 -15.745  1.00  0.00     0.021 A 
HETATM    8  C6  UNL     1      35.062  18.945 -16.310  1.00  0.00     0.057 A 
HETATM    9  C8  UNL     1      36.392  19.238 -16.067  1.00  0.00     0.118 A 
HETATM   10  N4  UNL     1      37.158  18.424 -15.312  1.00  0.00    -0.284 N 
HETATM   11  C9  UNL     1      38.466  18.713 -15.073  1.00  0.00     0.295 A 
HETATM   12  O3  UNL     1      38.929  19.765 -15.584  1.00  0.00    -0.263 OA
ENDROOT
BRANCH   8  13
HETATM   13  C7  UNL     1      34.211  19.807 -17.123  1.00  0.00     0.316 C 
HETATM   14  O1  UNL     1      34.563  20.185 -18.256  1.00  0.00    -0.257 OA
BRANCH  13  15
HETATM   15  O2  UNL     1      32.990  20.208 -16.618  1.00  0.00    -0.202 OA
BRANCH  15  16
HETATM   16  N3  UNL     1      31.994  20.581 -17.494  1.00  0.00    -0.302 N 
ATOM     17  H32 UNL     1      31.030  20.637 -17.165  1.00  0.00     0.184 HD
ATOM     18  H31 UNL     1      32.239  20.796 -18.460  1.00  0.00     0.184 HD
ENDBRANCH  15  16
ENDBRANCH  13  15
ENDBRANCH   8  13
BRANCH   1  19
HETATM   19  N1  UNL     1      40.501  18.179 -14.086  1.00  0.00    -0.381 N 
ATOM     20  H12 UNL     1      40.756  18.991 -13.523  1.00  0.00     0.157 HD
ATOM     21  H11 UNL     1      41.218  17.575 -14.489  1.00  0.00     0.157 HD
ENDBRANCH   1  19
TORSDOF 4
ENDMDL
MODEL 2
REMARK VINA RESULT: -5.853118698      1.435      1.637
REMARK  4 active torsions:
REMARK  status: ('A' for Active; 'I' for Inactive)
REMARK    1  A    between atoms: N1_1  and  C1_4 
REMARK    2  A    between atoms: C6_11  and  C7_12 
REMARK    3  A    between atoms: C7_12  and  O2_14 
REMARK    4  A    between atoms: O2_14  and  N3_15 
ROOT
HETATM    1  C1  UNL     1      40.130  18.094 -14.288  1.00  0.00     0.169 A 
HETATM    2  N2  UNL     1      39.934  16.963 -13.587  1.00  0.00    -0.346 N 
ATOM      3  H2  UNL     1      40.708  16.503 -13.108  1.00  0.00     0.167 HD
HETATM    4  C2  UNL     1      38.690  16.454 -13.534  1.00  0.00     0.119 A 
HETATM    5  C3  UNL     1      37.645  17.082 -14.187  1.00  0.00     0.057 A 
HETATM    6  C4  UNL     1      36.375  16.531 -14.112  1.00  0.00     0.032 A 
HETATM    7  C5  UNL     1      35.338  17.166 -14.766  1.00  0.00     0.021 A 
HETATM    8  C6  UNL     1      35.519  18.322 -15.488  1.00  0.00     0.057 A 
HETATM    9  C8  UNL     1      36.804  18.831 -15.531  1.00  0.00     0.118 A 
HETATM   10  N4  UNL     1      37.820  18.215 -14.894  1.00  0.00    -0.284 N 
HETATM   11  C9  UNL     1      39.084  18.716 -14.936  1.00  0.00     0.295 A 
HETATM   12  O3  UNL     1      39.265  19.774 -15.593  1.00  0.00    -0.263 OA
ENDROOT
BRANCH   8  13
HETATM   13  C7  UNL     1      34.402  18.969 -16.169  1.00  0.00     0.316 C 
HETATM   14  O1  UNL     1      33.912  20.032 -15.746  1.00  0.00    -0.257 OA
BRANCH  13  15
HETATM   15  O2  UNL     1      33.884  18.383 -17.307  1.00  0.00    -0.202 OA
BRANCH  15  16
HETATM   16  N3  UNL     1      34.688  17.552 -18.057  1.00  0.00    -0.302 N 
ATOM     17  H32 UNL     1      35.036  16.686 -17.647  1.00  0.00     0.184 HD
ATOM     18  H31 UNL     1      34.922  17.820 -19.013  1.00  0.00     0.184 HD
ENDBRANCH  15  16
ENDBRANCH  13  15
ENDBRANCH   8  13
BRANCH   1  19
HETATM   19  N1  UNL     1      41.327  18.585 -14.339  1.00  0.00    -0.381 N 
ATOM     20  H12 UNL     1      41.859  18.752 -13.485  1.00  0.00     0.157 HD
ATOM     21  H11 UNL     1      41.723  18.800 -15.254  1.00  0.00     0.157 HD
ENDBRANCH   1  19
TORSDOF 4
ENDMDL
MODEL 3
REMARK VINA RESULT: -5.658935217      0.946      1.047
REMARK  4 active torsions:
REMARK  status: ('A' for Active; 'I' for Inactive)
REMARK    1  A    between atoms: N1_1  and  C1_4 
REMARK    2  A    between atoms: C6_11  and  C7_12 
REMARK    3  A    between atoms: C7_12  and  O2_14 
REMARK    4  A    between atoms: O2_14  and  N3_15 
ROOT
HETATM    1  C1  UNL     1      39.858  18.233 -14.211  1.00  0.00     0.169 A 
HETATM    2  N2  UNL     1      39.679  17.102 -13.506  1.00  0.00    -0.346 N 
ATOM      3  H2  UNL     1      40.439  16.704 -12.954  1.00  0.00     0.167 HD
HETATM    4  C2  UNL     1      38.474  16.508 -13.549  1.00  0.00     0.119 A 
HETATM    5  C3  UNL     1      37.449  17.052 -14.301  1.00  0.00     0.057 A 
HETATM    6  C4  UNL     1      36.217  16.415 -14.324  1.00  0.00     0.032 A 
HETATM    7  C5  UNL     1      35.200  16.966 -15.076  1.00  0.00     0.021 A 
HETATM    8  C6  UNL     1      35.363  18.122 -15.803  1.00  0.00     0.057 A 
HETATM    9  C8  UNL     1      36.609  18.719 -15.747  1.00  0.00     0.118 A 
HETATM   10  N4  UNL     1      37.605  18.184 -15.013  1.00  0.00    -0.284 N 
HETATM   11  C9  UNL     1      38.831  18.772 -14.958  1.00  0.00     0.295 A 
HETATM   12  O3  UNL     1      38.996  19.830 -15.618  1.00  0.00    -0.263 OA
ENDROOT
BRANCH   8  13
HETATM   13  C7  UNL     1      34.267  18.680 -16.589  1.00  0.00     0.316 C 
HETATM   14  O1  UNL     1      33.866  18.125 -17.630  1.00  0.00    -0.257 OA
BRANCH  13  15
HETATM   15  O2  UNL     1      33.667  19.848 -16.163  1.00  0.00    -0.202 OA
BRANCH  15  16
HETATM   16  N3  UNL     1      32.797  20.500 -17.010  1.00  0.00    -0.302 N 
ATOM     17  H32 UNL     1      33.167  21.057 -17.780  1.00  0.00     0.184 HD
ATOM     18  H31 UNL     1      31.793  20.414 -16.851  1.00  0.00     0.184 HD
ENDBRANCH  15  16
ENDBRANCH  13  15
ENDBRANCH   8  13
BRANCH   1  19
HETATM   19  N1  UNL     1      41.018  18.806 -14.170  1.00  0.00    -0.381 N 
ATOM     20  H12 UNL     1      41.789  18.464 -14.743  1.00  0.00     0.157 HD
ATOM     21  H11 UNL     1      41.140  19.609 -13.551  1.00  0.00     0.157 HD
ENDBRANCH   1  19
TORSDOF 4
ENDMDL
MODEL 4
REMARK VINA RESULT: -5.618109643      2.663      3.686
REMARK  4 active torsions:
REMARK  status: ('A' for Active; 'I' for Inactive)
REMARK    1  A    between atoms: N1_1  and  C1_4 
REMARK    2  A    between atoms: C6_11  and  C7_12 
REMARK    3  A    between atoms: C7_12  and  O2_14 
REMARK    4  A    between atoms: O2_14  and  N3_15 
ROOT
HETATM    1  C1  UNL     1      41.250  16.428 -13.073  1.00  0.00     0.169 A 
HETATM    2  N2  UNL     1      41.631  17.713 -13.180  1.00  0.00    -0.346 N 
ATOM      3  H2  UNL     1      42.508  18.035 -12.773  1.00  0.00     0.167 HD
HETATM    4  C2  UNL     1      40.824  18.564 -13.839  1.00  0.00     0.119 A 
HETATM    5  C3  UNL     1      39.635  18.122 -14.389  1.00  0.00     0.057 A 
HETATM    6  C4  UNL     1      38.825  19.025 -15.061  1.00  0.00     0.032 A 
HETATM    7  C5  UNL     1      37.641  18.574 -15.608  1.00  0.00     0.021 A 
HETATM    8  C6  UNL     1      37.234  17.264 -15.509  1.00  0.00     0.057 A 
HETATM    9  C8  UNL     1      38.076  16.403 -14.829  1.00  0.00     0.118 A 
HETATM   10  N4  UNL     1      39.234  16.840 -14.294  1.00  0.00    -0.284 N 
HETATM   11  C9  UNL     1      40.063  15.992 -13.625  1.00  0.00     0.295 A 
HETATM   12  O3  UNL     1      39.705  14.791 -13.526  1.00  0.00    -0.263 OA
ENDROOT
BRANCH   8  13
HETATM   13  C7  UNL     1      35.976  16.818 -16.097  1.00  0.00     0.316 C 
HETATM   14  O1  UNL     1      35.655  15.615 -16.110  1.00  0.00    -0.257 OA
BRANCH  13  15
HETATM   15  O2  UNL     1      35.126  17.757 -16.648  1.00  0.00    -0.202 OA
BRANCH  15  16
HETATM   16  N3  UNL     1      34.752  17.628 -17.968  1.00  0.00    -0.302 N 
ATOM     17  H32 UNL     1      35.122  18.277 -18.661  1.00  0.00     0.184 HD
ATOM     18  H31 UNL     1      34.109  16.881 -18.230  1.00  0.00     0.184 HD
ENDBRANCH  15  16
ENDBRANCH  13  15
ENDBRANCH   8  13
BRANCH   1  19
HETATM   19  N1  UNL     1      42.026  15.608 -12.441  1.00  0.00    -0.381 N 
ATOM     20  H12 UNL     1      42.913  15.310 -12.847  1.00  0.00     0.157 HD
ATOM     21  H11 UNL     1      41.729  15.267 -11.526  1.00  0.00     0.157 HD
ENDBRANCH   1  19
TORSDOF 4
ENDMDL
MODEL 5
REMARK VINA RESULT: -5.437701212      2.294      3.343
REMARK  4 active torsions:
REMARK  status: ('A' for Active; 'I' for Inactive)
REMARK    1  A    between atoms: N1_1  and  C1_4 
REMARK    2  A    between atoms: C6_11  and  C7_12 
REMARK    3  A    between atoms: C7_12  and  O2_14 
REMARK    4  A    between atoms: O2_14  and  N3_15 
ROOT
HETATM    1  C1  UNL     1      41.103  20.146 -14.266  1.00  0.00     0.169 A 
HETATM    2  N2  UNL     1      41.712  19.167 -13.573  1.00  0.00    -0.346 N 
ATOM      3  H2  UNL     1      42.602  19.334 -13.104  1.00  0.00     0.167 HD
HETATM    4  C2  UNL     1      41.117  17.963 -13.514  1.00  0.00     0.119 A 
HETATM    5  C3  UNL     1      39.910  17.743 -14.153  1.00  0.00     0.057 A 
HETATM    6  C4  UNL     1      39.323  16.489 -14.073  1.00  0.00     0.032 A 
HETATM    7  C5  UNL     1      38.118  16.280 -14.712  1.00  0.00     0.021 A 
HETATM    8  C6  UNL     1      37.480  17.267 -15.426  1.00  0.00     0.057 A 
HETATM    9  C8  UNL     1      38.106  18.499 -15.476  1.00  0.00     0.118 A 
HETATM   10  N4  UNL     1      39.283  18.708 -14.852  1.00  0.00    -0.284 N 
HETATM   11  C9  UNL     1      39.899  19.920 -14.901  1.00  0.00     0.295 A 
HETATM   12  O3  UNL     1      39.328  20.834 -15.550  1.00  0.00    -0.263 OA
ENDROOT
BRANCH   8  13
HETATM   13  C7  UNL     1      36.207  17.014 -16.092  1.00  0.00     0.316 C 
HETATM   14  O1  UNL     1      35.804  15.855 -16.304  1.00  0.00    -0.257 OA
BRANCH  13  15
HETATM   15  O2  UNL     1      35.438  18.089 -16.494  1.00  0.00    -0.202 OA
BRANCH  15  16
HETATM   16  N3  UNL     1      34.879  18.078 -17.753  1.00  0.00    -0.302 N 
ATOM     17  H32 UNL     1      34.089  17.464 -17.948  1.00  0.00     0.184 HD
ATOM     18  H31 UNL     1      35.268  18.688 -18.473  1.00  0.00     0.184 HD
ENDBRANCH  15  16
ENDBRANCH  13  15
ENDBRANCH   8  13
BRANCH   1  19
HETATM   19  N1  UNL     1      41.675  21.305 -14.323  1.00  0.00    -0.381 N 
ATOM     20  H12 UNL     1      42.461  21.530 -13.713  1.00  0.00     0.157 HD
ATOM     21  H11 UNL     1      41.319  21.988 -14.993  1.00  0.00     0.157 HD
ENDBRANCH   1  19
TORSDOF 4
ENDMDL
