MODEL 1
REMARK VINA RESULT: -7.026670568      0.000      0.000
REMARK  3 active torsions:
REMARK  status: ('A' for Active; 'I' for Inactive)
REMARK    1  A    between atoms: N1_1  and  C1_4 
REMARK    2  A    between atoms: C4_7  and  N2_8 
REMARK    3  A    between atoms: N4_18  and  N5_19 
ROOT
HETATM    1  C1  UNL     1      38.449  18.679 -15.102  1.00  0.00     0.138 A 
HETATM    2  C2  UNL     1      37.157  18.305 -15.433  1.00  0.00     0.039 A 
HETATM    3  C3  UNL     1      36.266  19.162 -16.044  1.00  0.00     0.053 A 
HETATM    4  C4  UNL     1      34.966  18.790 -16.378  1.00  0.00     0.103 A 
HETATM    5  C5  UNL     1      34.605  17.496 -16.063  1.00  0.00     0.038 A 
HETATM    6  C6  UNL     1      35.484  16.633 -15.454  1.00  0.00     0.033 A 
HETATM    7  C7  UNL     1      36.777  17.020 -15.127  1.00  0.00     0.050 A 
HETATM    8  N3  UNL     1      37.641  16.178 -14.531  1.00  0.00    -0.306 N 
ATOM      9  H3  UNL     1      37.342  15.228 -14.310  1.00  0.00     0.171 HD
HETATM   10  C8  UNL     1      38.897  16.566 -14.218  1.00  0.00     0.347 A 
HETATM   11  O3  UNL     1      39.632  15.709 -13.663  1.00  0.00    -0.245 OA
HETATM   12  N4  UNL     1      39.297  17.817 -14.505  1.00  0.00    -0.195 N 
ENDROOT
BRANCH   1  13
HETATM   13  N1  UNL     1      38.872  19.836 -15.350  1.00  0.00    -0.383 N 
ATOM     14  H12 UNL     1      38.246  20.474 -15.843  1.00  0.00     0.157 HD
ATOM     15  H11 UNL     1      39.808  20.126 -15.067  1.00  0.00     0.157 HD
ENDBRANCH   1  13
BRANCH  12  16
HETATM   16  N5  UNL     1      40.610  18.142 -14.150  1.00  0.00    -0.333 N 
ATOM     17  H52 UNL     1      40.830  19.137 -14.098  1.00  0.00     0.177 HD
ATOM     18  H51 UNL     1      41.330  17.448 -13.948  1.00  0.00     0.177 HD
ENDBRANCH  12  16
BRANCH   4  19
HETATM   19  N2  UNL     1      34.065  19.680 -17.004  1.00  0.00    -0.116 N 
HETATM   20  O1  UNL     1      33.030  19.994 -16.389  1.00  0.00    -0.532 OA
HETATM   21  O2  UNL     1      34.261  20.219 -18.240  1.00  0.00    -0.532 OA
ENDBRANCH   4  19
TORSDOF 3
ENDMDL
MODEL 2
REMARK VINA RESULT: -6.521701585      2.467      4.988
REMARK  3 active torsions:
REMARK  status: ('A' for Active; 'I' for Inactive)
REMARK    1  A    between atoms: N1_1  and  C1_4 
REMARK    2  A    between atoms: C4_7  and  N2_8 
REMARK    3  A    between atoms: N4_18  and  N5_19 
ROOT
HETATM    1  C1  UNL     1      36.387  18.649 -15.945  1.00  0.00     0.138 A 
HETATM    2  C2  UNL     1      37.605  18.280 -15.401  1.00  0.00     0.039 A 
HETATM    3  C3  UNL     1      38.605  19.190 -15.126  1.00  0.00     0.053 A 
HETATM    4  C4  UNL     1      39.832  18.824 -14.579  1.00  0.00     0.103 A 
HETATM    5  C5  UNL     1      40.004  17.480 -14.318  1.00  0.00     0.038 A 
HETATM    6  C6  UNL     1      39.015  16.564 -14.587  1.00  0.00     0.033 A 
HETATM    7  C7  UNL     1      37.797  16.946 -15.133  1.00  0.00     0.050 A 
HETATM    8  N3  UNL     1      36.827  16.053 -15.398  1.00  0.00    -0.306 N 
ATOM      9  H3  UNL     1      36.986  15.066 -15.195  1.00  0.00     0.171 HD
HETATM   10  C8  UNL     1      35.645  16.436 -15.930  1.00  0.00     0.347 A 
HETATM   11  O3  UNL     1      34.799  15.529 -16.142  1.00  0.00    -0.245 OA
HETATM   12  N4  UNL     1      35.428  17.735 -16.202  1.00  0.00    -0.195 N 
ENDROOT
BRANCH   1  13
HETATM   13  N1  UNL     1      36.135  19.849 -16.218  1.00  0.00    -0.383 N 
ATOM     14  H12 UNL     1      36.910  20.439 -16.522  1.00  0.00     0.157 HD
ATOM     15  H11 UNL     1      35.188  20.220 -16.136  1.00  0.00     0.157 HD
ENDBRANCH   1  13
BRANCH  12  16
HETATM   16  N5  UNL     1      34.182  18.051 -16.751  1.00  0.00    -0.333 N 
ATOM     17  H52 UNL     1      33.973  19.045 -16.853  1.00  0.00     0.177 HD
ATOM     18  H51 UNL     1      33.498  17.352 -17.043  1.00  0.00     0.177 HD
ENDBRANCH  12  16
BRANCH   4  19
HETATM   19  N2  UNL     1      40.846  19.769 -14.304  1.00  0.00    -0.116 N 
HETATM   20  O1  UNL     1      41.800  19.412 -13.588  1.00  0.00    -0.532 OA
HETATM   21  O2  UNL     1      40.845  21.048 -14.774  1.00  0.00    -0.532 OA
ENDBRANCH   4  19
TORSDOF 3
ENDMDL
MODEL 3
REMARK VINA RESULT: -6.007795307      1.652      5.855
REMARK  3 active torsions:
REMARK  status: ('A' for Active; 'I' for Inactive)
REMARK    1  A    between atoms: N1_1  and  C1_4 
REMARK    2  A    between atoms: C4_7  and  N2_8 
REMARK    3  A    between atoms: N4_18  and  N5_19 
ROOT
HETATM    1  C1  UNL     1      36.324  16.884 -15.750  1.00  0.00     0.138 A 
HETATM    2  C2  UNL     1      37.574  17.220 -15.257  1.00  0.00     0.039 A 
HETATM    3  C3  UNL     1      38.457  16.283 -14.764  1.00  0.00     0.053 A 
HETATM    4  C4  UNL     1      39.715  16.616 -14.267  1.00  0.00     0.103 A 
HETATM    5  C5  UNL     1      40.043  17.956 -14.294  1.00  0.00     0.038 A 
HETATM    6  C6  UNL     1      39.171  18.899 -14.783  1.00  0.00     0.033 A 
HETATM    7  C7  UNL     1      37.920  18.550 -15.274  1.00  0.00     0.050 A 
HETATM    8  N3  UNL     1      37.063  19.469 -15.754  1.00  0.00    -0.306 N 
ATOM      9  H3  UNL     1      37.335  20.453 -15.758  1.00  0.00     0.171 HD
HETATM   10  C8  UNL     1      35.848  19.117 -16.230  1.00  0.00     0.347 A 
HETATM   11  O3  UNL     1      35.116  20.048 -16.658  1.00  0.00    -0.245 OA
HETATM   12  N4  UNL     1      35.482  17.824 -16.226  1.00  0.00    -0.195 N 
ENDROOT
BRANCH   1  13
HETATM   13  N1  UNL     1      35.934  15.689 -15.769  1.00  0.00    -0.383 N 
ATOM     14  H12 UNL     1      36.647  14.959 -15.796  1.00  0.00     0.157 HD
ATOM     15  H11 UNL     1      34.941  15.459 -15.757  1.00  0.00     0.157 HD
ENDBRANCH   1  13
BRANCH  12  16
HETATM   16  N5  UNL     1      34.210  17.540 -16.734  1.00  0.00    -0.333 N 
ATOM     17  H52 UNL     1      34.108  16.651 -17.223  1.00  0.00     0.177 HD
ATOM     18  H51 UNL     1      33.410  18.166 -16.638  1.00  0.00     0.177 HD
ENDBRANCH  12  16
BRANCH   4  19
HETATM   19  N2  UNL     1      40.609  15.643 -13.765  1.00  0.00    -0.116 N 
HETATM   20  O1  UNL     1      41.829  15.878 -13.836  1.00  0.00    -0.532 OA
HETATM   21  O2  UNL     1      40.217  14.464 -13.207  1.00  0.00    -0.532 OA
ENDBRANCH   4  19
TORSDOF 3
ENDMDL
MODEL 4
REMARK VINA RESULT: -5.905422006      2.255      3.214
REMARK  3 active torsions:
REMARK  status: ('A' for Active; 'I' for Inactive)
REMARK    1  A    between atoms: N1_1  and  C1_4 
REMARK    2  A    between atoms: C4_7  and  N2_8 
REMARK    3  A    between atoms: N4_18  and  N5_19 
ROOT
HETATM    1  C1  UNL     1      39.603  16.078 -14.274  1.00  0.00     0.138 A 
HETATM    2  C2  UNL     1      38.612  16.898 -14.787  1.00  0.00     0.039 A 
HETATM    3  C3  UNL     1      37.417  16.411 -15.274  1.00  0.00     0.053 A 
HETATM    4  C4  UNL     1      36.418  17.233 -15.790  1.00  0.00     0.103 A 
HETATM    5  C5  UNL     1      36.686  18.586 -15.791  1.00  0.00     0.038 A 
HETATM    6  C6  UNL     1      37.873  19.084 -15.309  1.00  0.00     0.033 A 
HETATM    7  C7  UNL     1      38.858  18.251 -14.797  1.00  0.00     0.050 A 
HETATM    8  N3  UNL     1      40.022  18.733 -14.325  1.00  0.00    -0.306 N 
ATOM      9  H3  UNL     1      40.189  19.740 -14.341  1.00  0.00     0.171 HD
HETATM   10  C8  UNL     1      40.974  17.912 -13.828  1.00  0.00     0.347 A 
HETATM   11  O3  UNL     1      42.028  18.457 -13.409  1.00  0.00    -0.245 OA
HETATM   12  N4  UNL     1      40.761  16.585 -13.806  1.00  0.00    -0.195 N 
ENDROOT
BRANCH   1  13
HETATM   13  N1  UNL     1      39.452  14.830 -14.230  1.00  0.00    -0.383 N 
ATOM     14  H12 UNL     1      39.996  14.312 -13.539  1.00  0.00     0.157 HD
ATOM     15  H11 UNL     1      38.809  14.355 -14.863  1.00  0.00     0.157 HD
ENDBRANCH   1  13
BRANCH  12  16
HETATM   16  N5  UNL     1      41.793  15.803 -13.278  1.00  0.00    -0.333 N 
ATOM     17  H52 UNL     1      42.018  15.957 -12.295  1.00  0.00     0.177 HD
ATOM     18  H51 UNL     1      42.311  15.110 -13.819  1.00  0.00     0.177 HD
ENDBRANCH  12  16
BRANCH   4  19
HETATM   19  N2  UNL     1      35.199  16.716 -16.285  1.00  0.00    -0.116 N 
HETATM   20  O1  UNL     1      34.982  15.499 -16.149  1.00  0.00    -0.532 OA
HETATM   21  O2  UNL     1      34.246  17.470 -16.900  1.00  0.00    -0.532 OA
ENDBRANCH   4  19
TORSDOF 3
ENDMDL
MODEL 5
REMARK VINA RESULT: -5.585845309      1.233      1.409
REMARK  3 active torsions:
REMARK  status: ('A' for Active; 'I' for Inactive)
REMARK    1  A    between atoms: N1_1  and  C1_4 
REMARK    2  A    between atoms: C4_7  and  N2_8 
REMARK    3  A    between atoms: N4_18  and  N5_19 
ROOT
HETATM    1  C1  UNL     1      39.247  18.940 -14.939  1.00  0.00     0.138 A 
HETATM    2  C2  UNL     1      38.045  18.261 -15.037  1.00  0.00     0.039 A 
HETATM    3  C3  UNL     1      36.946  18.779 -15.691  1.00  0.00     0.053 A 
HETATM    4  C4  UNL     1      35.735  18.099 -15.792  1.00  0.00     0.103 A 
HETATM    5  C5  UNL     1      35.685  16.856 -15.195  1.00  0.00     0.038 A 
HETATM    6  C6  UNL     1      36.772  16.329 -14.541  1.00  0.00     0.033 A 
HETATM    7  C7  UNL     1      37.973  17.020 -14.449  1.00  0.00     0.050 A 
HETATM    8  N3  UNL     1      39.040  16.509 -13.809  1.00  0.00    -0.306 N 
ATOM      9  H3  UNL     1      38.969  15.587 -13.377  1.00  0.00     0.171 HD
HETATM   10  C8  UNL     1      40.204  17.191 -13.726  1.00  0.00     0.347 A 
HETATM   11  O3  UNL     1      41.146  16.630 -13.108  1.00  0.00    -0.245 OA
HETATM   12  N4  UNL     1      40.304  18.406 -14.292  1.00  0.00    -0.195 N 
ENDROOT
BRANCH   1  13
HETATM   13  N1  UNL     1      39.392  20.079 -15.451  1.00  0.00    -0.383 N 
ATOM     14  H12 UNL     1      38.668  20.406 -16.090  1.00  0.00     0.157 HD
ATOM     15  H11 UNL     1      40.206  20.654 -15.233  1.00  0.00     0.157 HD
ENDBRANCH   1  13
BRANCH  12  16
HETATM   16  N5  UNL     1      41.540  19.048 -14.163  1.00  0.00    -0.333 N 
ATOM     17  H52 UNL     1      41.887  19.527 -14.993  1.00  0.00     0.177 HD
ATOM     18  H51 UNL     1      42.086  19.054 -13.301  1.00  0.00     0.177 HD
ENDBRANCH  12  16
BRANCH   4  19
HETATM   19  N2  UNL     1      34.620  18.645 -16.467  1.00  0.00    -0.116 N 
HETATM   20  O1  UNL     1      34.301  19.821 -16.212  1.00  0.00    -0.532 OA
HETATM   21  O2  UNL     1      33.872  17.964 -17.379  1.00  0.00    -0.532 OA
ENDBRANCH   4  19
TORSDOF 3
ENDMDL
