MODEL 1
REMARK VINA RESULT: -6.523780638      0.000      0.000
REMARK  1 active torsions:
REMARK  status: ('A' for Active; 'I' for Inactive)
REMARK    1  A    between atoms: C1_2  and  C2_4 
ROOT
HETATM    1  C2  UNL     1     -36.443 -17.237 -15.553  1.00  0.00     0.173 A 
HETATM    2  N2  UNL     1     -37.187 -16.254 -14.972  1.00  0.00    -0.332 N 
ATOM      3  H2  UNL     1     -36.880 -15.292 -14.829  1.00  0.00     0.168 HD
HETATM    4  C3  UNL     1     -38.386 -16.745 -14.615  1.00  0.00     0.135 A 
HETATM    5  C4  UNL     1     -39.397 -16.024 -13.997  1.00  0.00     0.278 C 
HETATM    6  O2  UNL     1     -39.260 -14.774 -14.000  1.00  0.00    -0.265 OA
HETATM    7  N3  UNL     1     -40.506 -16.484 -13.395  1.00  0.00    -0.273 N 
ATOM      8  H3  UNL     1     -41.076 -15.793 -12.908  1.00  0.00     0.173 HD
HETATM    9  C5  UNL     1     -40.952 -17.761 -13.363  1.00  0.00     0.330 C 
HETATM   10  O3  UNL     1     -41.967 -17.895 -12.631  1.00  0.00    -0.246 OA
HETATM   11  N4  UNL     1     -40.471 -18.860 -13.986  1.00  0.00    -0.273 N 
ATOM     12  H4  UNL     1     -40.977 -19.728 -13.807  1.00  0.00     0.173 HD
HETATM   13  C6  UNL     1     -39.412 -18.962 -14.812  1.00  0.00     0.278 C 
HETATM   14  O4  UNL     1     -39.335 -19.998 -15.538  1.00  0.00    -0.265 OA
HETATM   15  C7  UNL     1     -38.362 -18.087 -14.999  1.00  0.00     0.135 A 
HETATM   16  N5  UNL     1     -37.174 -18.365 -15.567  1.00  0.00    -0.332 N 
ATOM     17  H5  UNL     1     -36.882 -19.268 -15.940  1.00  0.00     0.168 HD
ENDROOT
BRANCH   1  18
HETATM   18  C1  UNL     1     -35.088 -17.034 -16.053  1.00  0.00     0.298 C 
HETATM   19  N1  UNL     1     -34.736 -15.880 -16.799  1.00  0.00    -0.054 NA
HETATM   20  O1  UNL     1     -34.238 -17.932 -15.793  1.00  0.00    -0.268 OA
ENDBRANCH   1  18
TORSDOF 1
ENDMDL
MODEL 2
REMARK VINA RESULT: -6.494978428      2.054      3.425
REMARK  1 active torsions:
REMARK  status: ('A' for Active; 'I' for Inactive)
REMARK    1  A    between atoms: C1_2  and  C2_4 
ROOT
HETATM    1  C2  UNL     1     -35.123 -18.993 -16.029  1.00  0.00     0.173 A 
HETATM    2  N2  UNL     1     -36.453 -19.293 -16.056  1.00  0.00    -0.332 N 
ATOM      3  H2  UNL     1     -36.873 -20.052 -16.593  1.00  0.00     0.168 HD
HETATM    4  C3  UNL     1     -37.125 -18.439 -15.266  1.00  0.00     0.135 A 
HETATM    5  C4  UNL     1     -38.497 -18.451 -15.056  1.00  0.00     0.278 C 
HETATM    6  O2  UNL     1     -39.102 -19.484 -15.442  1.00  0.00    -0.265 OA
HETATM    7  N3  UNL     1     -39.265 -17.504 -14.493  1.00  0.00    -0.273 N 
ATOM      8  H3  UNL     1     -40.272 -17.661 -14.525  1.00  0.00     0.173 HD
HETATM    9  C5  UNL     1     -38.854 -16.367 -13.888  1.00  0.00     0.330 C 
HETATM   10  O3  UNL     1     -39.817 -15.629 -13.551  1.00  0.00    -0.246 OA
HETATM   11  N4  UNL     1     -37.602 -15.939 -13.612  1.00  0.00    -0.273 N 
ATOM     12  H4  UNL     1     -37.536 -15.034 -13.146  1.00  0.00     0.173 HD
HETATM   13  C6  UNL     1     -36.430 -16.550 -13.870  1.00  0.00     0.278 C 
HETATM   14  O4  UNL     1     -35.408 -16.141 -13.240  1.00  0.00    -0.265 OA
HETATM   15  C7  UNL     1     -36.155 -17.584 -14.740  1.00  0.00     0.135 A 
HETATM   16  N5  UNL     1     -34.947 -17.937 -15.215  1.00  0.00    -0.332 N 
ATOM     17  H5  UNL     1     -34.059 -17.486 -14.996  1.00  0.00     0.168 HD
ENDROOT
BRANCH   1  18
HETATM   18  C1  UNL     1     -34.115 -19.731 -16.780  1.00  0.00     0.298 C 
HETATM   19  N1  UNL     1     -34.380 -20.245 -18.075  1.00  0.00    -0.054 NA
HETATM   20  O1  UNL     1     -32.990 -19.893 -16.227  1.00  0.00    -0.268 OA
ENDBRANCH   1  18
TORSDOF 1
ENDMDL
MODEL 3
REMARK VINA RESULT: -6.468148074      3.132      4.508
REMARK  1 active torsions:
REMARK  status: ('A' for Active; 'I' for Inactive)
REMARK    1  A    between atoms: C1_2  and  C2_4 
ROOT
HETATM    1  C2  UNL     1     -33.870 -19.175 -16.953  1.00  0.00     0.173 A 
HETATM    2  N2  UNL     1     -34.010 -19.160 -15.598  1.00  0.00    -0.332 N 
ATOM      3  H2  UNL     1     -33.556 -19.807 -14.953  1.00  0.00     0.168 HD
HETATM    4  C3  UNL     1     -34.837 -18.164 -15.240  1.00  0.00     0.135 A 
HETATM    5  C4  UNL     1     -35.207 -17.855 -13.939  1.00  0.00     0.278 C 
HETATM    6  O2  UNL     1     -34.523 -18.396 -13.031  1.00  0.00    -0.265 OA
HETATM    7  N3  UNL     1     -36.198 -17.053 -13.518  1.00  0.00    -0.273 N 
ATOM      8  H3  UNL     1     -36.373 -17.039 -12.513  1.00  0.00     0.173 HD
HETATM    9  C5  UNL     1     -36.991 -16.262 -14.276  1.00  0.00     0.330 C 
HETATM   10  O3  UNL     1     -37.899 -15.709 -13.603  1.00  0.00    -0.246 OA
HETATM   11  N4  UNL     1     -36.937 -16.002 -15.602  1.00  0.00    -0.273 N 
ATOM     12  H4  UNL     1     -37.653 -15.368 -15.957  1.00  0.00     0.173 HD
HETATM   13  C6  UNL     1     -36.065 -16.469 -16.514  1.00  0.00     0.278 C 
HETATM   14  O4  UNL     1     -35.988 -15.850 -17.618  1.00  0.00    -0.265 OA
HETATM   15  C7  UNL     1     -35.212 -17.550 -16.437  1.00  0.00     0.135 A 
HETATM   16  N5  UNL     1     -34.614 -18.179 -17.464  1.00  0.00    -0.332 N 
ATOM     17  H5  UNL     1     -34.707 -17.942 -18.452  1.00  0.00     0.168 HD
ENDROOT
BRANCH   1  18
HETATM   18  C1  UNL     1     -33.037 -20.137 -17.667  1.00  0.00     0.298 C 
HETATM   19  N1  UNL     1     -31.701 -20.402 -17.272  1.00  0.00    -0.054 NA
HETATM   20  O1  UNL     1     -33.559 -20.727 -18.656  1.00  0.00    -0.268 OA
ENDBRANCH   1  18
TORSDOF 1
ENDMDL
MODEL 4
REMARK VINA RESULT: -6.388402774      1.017      2.737
REMARK  1 active torsions:
REMARK  status: ('A' for Active; 'I' for Inactive)
REMARK    1  A    between atoms: C1_2  and  C2_4 
ROOT
HETATM    1  C2  UNL     1     -36.423 -17.048 -15.741  1.00  0.00     0.173 A 
HETATM    2  N2  UNL     1     -37.131 -18.212 -15.771  1.00  0.00    -0.332 N 
ATOM      3  H2  UNL     1     -36.798 -19.093 -16.164  1.00  0.00     0.168 HD
HETATM    4  C3  UNL     1     -38.334 -18.024 -15.202  1.00  0.00     0.135 A 
HETATM    5  C4  UNL     1     -39.315 -18.994 -15.060  1.00  0.00     0.278 C 
HETATM    6  O2  UNL     1     -38.947 -20.181 -15.259  1.00  0.00    -0.265 OA
HETATM    7  N3  UNL     1     -40.609 -18.835 -14.737  1.00  0.00    -0.273 N 
ATOM      8  H3  UNL     1     -41.193 -19.670 -14.785  1.00  0.00     0.173 HD
HETATM    9  C5  UNL     1     -41.224 -17.693 -14.354  1.00  0.00     0.330 C 
HETATM   10  O3  UNL     1     -42.467 -17.841 -14.219  1.00  0.00    -0.246 OA
HETATM   11  N4  UNL     1     -40.702 -16.470 -14.110  1.00  0.00    -0.273 N 
ATOM     12  H4  UNL     1     -41.370 -15.751 -13.833  1.00  0.00     0.173 HD
HETATM   13  C6  UNL     1     -39.417 -16.076 -14.183  1.00  0.00     0.278 C 
HETATM   14  O4  UNL     1     -39.104 -14.995 -13.601  1.00  0.00    -0.265 OA
HETATM   15  C7  UNL     1     -38.350 -16.683 -14.813  1.00  0.00     0.135 A 
HETATM   16  N5  UNL     1     -37.181 -16.109 -15.149  1.00  0.00    -0.332 N 
ATOM     17  H5  UNL     1     -36.917 -15.138 -14.983  1.00  0.00     0.168 HD
ENDROOT
BRANCH   1  18
HETATM   18  C1  UNL     1     -35.074 -16.911 -16.280  1.00  0.00     0.298 C 
HETATM   19  N1  UNL     1     -34.229 -18.036 -16.465  1.00  0.00    -0.054 NA
HETATM   20  O1  UNL     1     -34.689 -15.744 -16.576  1.00  0.00    -0.268 OA
ENDBRANCH   1  18
TORSDOF 1
ENDMDL
MODEL 5
REMARK VINA RESULT: -6.027925092      2.647      4.016
REMARK  1 active torsions:
REMARK  status: ('A' for Active; 'I' for Inactive)
REMARK    1  A    between atoms: C1_2  and  C2_4 
ROOT
HETATM    1  C2  UNL     1     -34.082 -19.529 -17.179  1.00  0.00     0.173 A 
HETATM    2  N2  UNL     1     -34.047 -18.168 -17.113  1.00  0.00    -0.332 N 
ATOM      3  H2  UNL     1     -33.302 -17.581 -17.487  1.00  0.00     0.168 HD
HETATM    4  C3  UNL     1     -35.144 -17.718 -16.482  1.00  0.00     0.135 A 
HETATM    5  C4  UNL     1     -35.440 -16.385 -16.236  1.00  0.00     0.278 C 
HETATM    6  O2  UNL     1     -34.747 -15.545 -16.867  1.00  0.00    -0.265 OA
HETATM    7  N3  UNL     1     -36.368 -15.870 -15.414  1.00  0.00    -0.273 N 
ATOM      8  H3  UNL     1     -36.357 -14.858 -15.296  1.00  0.00     0.173 HD
HETATM    9  C5  UNL     1     -37.316 -16.545 -14.724  1.00  0.00     0.330 C 
HETATM   10  O3  UNL     1     -37.974 -15.794 -13.956  1.00  0.00    -0.246 OA
HETATM   11  N4  UNL     1     -37.634 -17.858 -14.751  1.00  0.00    -0.273 N 
ATOM     12  H4  UNL     1     -38.395 -18.142 -14.132  1.00  0.00     0.173 HD
HETATM   13  C6  UNL     1     -37.081 -18.841 -15.486  1.00  0.00     0.278 C 
HETATM   14  O4  UNL     1     -37.737 -19.920 -15.606  1.00  0.00    -0.265 OA
HETATM   15  C7  UNL     1     -35.873 -18.862 -16.151  1.00  0.00     0.135 A 
HETATM   16  N5  UNL     1     -35.211 -19.950 -16.584  1.00  0.00    -0.332 N 
ATOM     17  H5  UNL     1     -35.512 -20.919 -16.479  1.00  0.00     0.168 HD
ENDROOT
BRANCH   1  18
HETATM   18  C1  UNL     1     -33.037 -20.333 -17.802  1.00  0.00     0.298 C 
HETATM   19  N1  UNL     1     -31.760 -20.488 -17.204  1.00  0.00    -0.054 NA
HETATM   20  O1  UNL     1     -33.317 -20.887 -18.903  1.00  0.00    -0.268 OA
ENDBRANCH   1  18
TORSDOF 1
ENDMDL
