MODEL 1
REMARK VINA RESULT: -7.498232790      0.000      0.000
REMARK  0 active torsions:
REMARK  status: ('A' for Active; 'I' for Inactive)
ROOT
HETATM    1  O1  UNL     1     -35.830 -17.122 -12.274  1.00  0.00    -0.247 OA
HETATM    2  C1  UNL     1     -35.473 -17.194 -13.484  1.00  0.00     0.328 A 
HETATM    3  N1  UNL     1     -34.762 -18.245 -13.908  1.00  0.00    -0.293 N 
ATOM      4  H1  UNL     1     -34.520 -18.974 -13.237  1.00  0.00     0.172 HD
HETATM    5  C2  UNL     1     -34.347 -18.382 -15.198  1.00  0.00     0.137 A 
HETATM    6  C3  UNL     1     -34.654 -17.421 -16.124  1.00  0.00     0.093 A 
HETATM    7  C4  UNL     1     -35.399 -16.330 -15.657  1.00  0.00     0.264 A 
HETATM    8  O2  UNL     1     -35.735 -15.392 -16.423  1.00  0.00    -0.267 OA
HETATM    9  N2  UNL     1     -35.787 -16.237 -14.375  1.00  0.00    -0.275 N 
ATOM     10  H2  UNL     1     -36.329 -15.427 -14.073  1.00  0.00     0.173 HD
HETATM   11  C5  UNL     1     -34.302 -17.392 -17.537  1.00  0.00     0.122 C 
HETATM   12  N3  UNL     1     -33.374 -18.338 -18.018  1.00  0.00    -0.277 N 
ATOM     13  H3  UNL     1     -32.711 -18.133 -18.765  1.00  0.00     0.179 HD
HETATM   14  S1  UNL     1     -33.457 -19.870 -17.237  1.00  0.00     0.324 S 
HETATM   15  O3  UNL     1     -32.223 -20.640 -17.563  1.00  0.00    -0.182 OA
HETATM   16  O4  UNL     1     -34.710 -20.570 -17.701  1.00  0.00    -0.182 OA
HETATM   17  N4  UNL     1     -33.596 -19.533 -15.550  1.00  0.00    -0.252 N 
ATOM     18  H4  UNL     1     -33.163 -20.130 -14.845  1.00  0.00     0.182 HD
ENDROOT
TORSDOF 0
ENDMDL
MODEL 2
REMARK VINA RESULT: -7.100150697      2.313      4.596
REMARK  0 active torsions:
REMARK  status: ('A' for Active; 'I' for Inactive)
ROOT
HETATM    1  O1  UNL     1     -33.517 -20.373 -17.790  1.00  0.00    -0.247 OA
HETATM    2  C1  UNL     1     -34.131 -19.348 -17.379  1.00  0.00     0.328 A 
HETATM    3  N1  UNL     1     -35.175 -19.482 -16.553  1.00  0.00    -0.293 N 
ATOM      4  H1  UNL     1     -35.456 -20.421 -16.270  1.00  0.00     0.172 HD
HETATM    5  C2  UNL     1     -35.877 -18.418 -16.074  1.00  0.00     0.137 A 
HETATM    6  C3  UNL     1     -35.525 -17.145 -16.435  1.00  0.00     0.093 A 
HETATM    7  C4  UNL     1     -34.430 -17.029 -17.300  1.00  0.00     0.264 A 
HETATM    8  O2  UNL     1     -34.023 -15.906 -17.694  1.00  0.00    -0.267 OA
HETATM    9  N2  UNL     1     -33.766 -18.107 -17.748  1.00  0.00    -0.275 N 
ATOM     10  H2  UNL     1     -32.973 -17.982 -18.376  1.00  0.00     0.173 HD
HETATM   11  C5  UNL     1     -36.150 -15.893 -16.029  1.00  0.00     0.122 C 
HETATM   12  N3  UNL     1     -37.381 -15.947 -15.343  1.00  0.00    -0.277 N 
ATOM     13  H3  UNL     1     -38.107 -15.240 -15.453  1.00  0.00     0.179 HD
HETATM   14  S1  UNL     1     -37.553 -17.310 -14.306  1.00  0.00     0.324 S 
HETATM   15  O3  UNL     1     -38.989 -17.450 -13.935  1.00  0.00    -0.182 OA
HETATM   16  O4  UNL     1     -36.667 -17.103 -13.103  1.00  0.00    -0.182 OA
HETATM   17  N4  UNL     1     -36.970 -18.664 -15.203  1.00  0.00    -0.252 N 
ATOM     18  H4  UNL     1     -37.387 -19.590 -15.112  1.00  0.00     0.182 HD
ENDROOT
TORSDOF 0
ENDMDL
MODEL 3
REMARK VINA RESULT: -6.221336815      3.535      4.455
REMARK  0 active torsions:
REMARK  status: ('A' for Active; 'I' for Inactive)
ROOT
HETATM    1  O1  UNL     1     -40.416 -14.783 -13.099  1.00  0.00    -0.247 OA
HETATM    2  C1  UNL     1     -39.726 -15.692 -13.643  1.00  0.00     0.328 A 
HETATM    3  N1  UNL     1     -38.510 -15.408 -14.123  1.00  0.00    -0.293 N 
ATOM      4  H1  UNL     1     -38.162 -14.453 -14.038  1.00  0.00     0.172 HD
HETATM    5  C2  UNL     1     -37.717 -16.341 -14.719  1.00  0.00     0.137 A 
HETATM    6  C3  UNL     1     -38.154 -17.633 -14.847  1.00  0.00     0.093 A 
HETATM    7  C4  UNL     1     -39.429 -17.906 -14.338  1.00  0.00     0.264 A 
HETATM    8  O2  UNL     1     -39.927 -19.059 -14.404  1.00  0.00    -0.267 OA
HETATM    9  N2  UNL     1     -40.177 -16.954 -13.757  1.00  0.00    -0.275 N 
ATOM     10  H2  UNL     1     -41.101 -17.191 -13.397  1.00  0.00     0.173 HD
HETATM   11  C5  UNL     1     -37.454 -18.760 -15.449  1.00  0.00     0.122 C 
HETATM   12  N3  UNL     1     -36.271 -18.508 -16.172  1.00  0.00    -0.277 N 
ATOM     13  H3  UNL     1     -35.998 -19.049 -16.993  1.00  0.00     0.179 HD
HETATM   14  S1  UNL     1     -35.327 -17.209 -15.553  1.00  0.00     0.324 S 
HETATM   15  O3  UNL     1     -34.326 -16.812 -16.583  1.00  0.00    -0.182 OA
HETATM   16  O4  UNL     1     -34.680 -17.666 -14.269  1.00  0.00    -0.182 OA
HETATM   17  N4  UNL     1     -36.442 -15.942 -15.197  1.00  0.00    -0.252 N 
ATOM     18  H4  UNL     1     -36.199 -14.959 -15.323  1.00  0.00     0.182 HD
ENDROOT
TORSDOF 0
ENDMDL
MODEL 4
REMARK VINA RESULT: -6.111953501      3.844      4.718
REMARK  0 active torsions:
REMARK  status: ('A' for Active; 'I' for Inactive)
ROOT
HETATM    1  O1  UNL     1     -40.873 -20.317 -15.211  1.00  0.00    -0.247 OA
HETATM    2  C1  UNL     1     -40.068 -19.381 -14.942  1.00  0.00     0.328 A 
HETATM    3  N1  UNL     1     -38.840 -19.385 -15.476  1.00  0.00    -0.293 N 
ATOM      4  H1  UNL     1     -38.578 -20.152 -16.094  1.00  0.00     0.172 HD
HETATM    5  C2  UNL     1     -37.926 -18.406 -15.227  1.00  0.00     0.137 A 
HETATM    6  C3  UNL     1     -38.246 -17.361 -14.402  1.00  0.00     0.093 A 
HETATM    7  C4  UNL     1     -39.535 -17.379 -13.855  1.00  0.00     0.264 A 
HETATM    8  O2  UNL     1     -39.932 -16.468 -13.084  1.00  0.00    -0.267 OA
HETATM    9  N2  UNL     1     -40.405 -18.365 -14.128  1.00  0.00    -0.275 N 
ATOM     10  H2  UNL     1     -41.336 -18.343 -13.712  1.00  0.00     0.173 HD
HETATM   11  C5  UNL     1     -37.409 -16.232 -14.020  1.00  0.00     0.122 C 
HETATM   12  N3  UNL     1     -36.040 -16.267 -14.353  1.00  0.00    -0.277 N 
ATOM     13  H3  UNL     1     -35.316 -15.855 -13.764  1.00  0.00     0.179 HD
HETATM   14  S1  UNL     1     -35.694 -17.063 -15.839  1.00  0.00     0.324 S 
HETATM   15  O3  UNL     1     -34.233 -17.352 -15.897  1.00  0.00    -0.182 OA
HETATM   16  O4  UNL     1     -36.148 -16.173 -16.969  1.00  0.00    -0.182 OA
HETATM   17  N4  UNL     1     -36.649 -18.500 -15.840  1.00  0.00    -0.252 N 
ATOM     18  H4  UNL     1     -36.316 -19.368 -16.257  1.00  0.00     0.182 HD
ENDROOT
TORSDOF 0
ENDMDL
MODEL 5
REMARK VINA RESULT: -6.002949404      3.339      3.717
REMARK  0 active torsions:
REMARK  status: ('A' for Active; 'I' for Inactive)
ROOT
HETATM    1  O1  UNL     1     -40.891 -18.875 -15.448  1.00  0.00    -0.247 OA
HETATM    2  C1  UNL     1     -39.750 -18.386 -15.213  1.00  0.00     0.328 A 
HETATM    3  N1  UNL     1     -38.651 -19.036 -15.616  1.00  0.00    -0.293 N 
ATOM      4  H1  UNL     1     -38.761 -19.921 -16.110  1.00  0.00     0.172 HD
HETATM    5  C2  UNL     1     -37.393 -18.562 -15.395  1.00  0.00     0.137 A 
HETATM    6  C3  UNL     1     -37.212 -17.376 -14.735  1.00  0.00     0.093 A 
HETATM    7  C4  UNL     1     -38.376 -16.716 -14.323  1.00  0.00     0.264 A 
HETATM    8  O2  UNL     1     -38.323 -15.619 -13.709  1.00  0.00    -0.267 OA
HETATM    9  N2  UNL     1     -39.597 -17.219 -14.563  1.00  0.00    -0.275 N 
ATOM     10  H2  UNL     1     -40.422 -16.708 -14.248  1.00  0.00     0.173 HD
HETATM   11  C5  UNL     1     -35.955 -16.715 -14.409  1.00  0.00     0.122 C 
HETATM   12  N3  UNL     1     -34.753 -17.427 -14.596  1.00  0.00    -0.277 N 
ATOM     13  H3  UNL     1     -33.941 -17.311 -13.990  1.00  0.00     0.179 HD
HETATM   14  S1  UNL     1     -34.773 -18.509 -15.935  1.00  0.00     0.324 S 
HETATM   15  O3  UNL     1     -33.618 -19.443 -15.811  1.00  0.00    -0.182 OA
HETATM   16  O4  UNL     1     -34.718 -17.692 -17.202  1.00  0.00    -0.182 OA
HETATM   17  N4  UNL     1     -36.291 -19.325 -15.861  1.00  0.00    -0.252 N 
ATOM     18  H4  UNL     1     -36.391 -20.302 -16.137  1.00  0.00     0.182 HD
ENDROOT
TORSDOF 0
ENDMDL
