MODEL 1
REMARK VINA RESULT: -6.185593042      0.000      0.000
REMARK  1 active torsions:
REMARK  status: ('A' for Active; 'I' for Inactive)
REMARK    1  A    between atoms: C1_2  and  C2_4 
ROOT
HETATM    1  C2  UNL     1     -40.079 -17.778 -13.985  1.00  0.00     0.117 A 
HETATM    2  C3  UNL     1     -40.498 -19.116 -14.234  1.00  0.00     0.276 A 
HETATM    3  O2  UNL     1     -41.569 -19.484 -13.692  1.00  0.00    -0.266 OA
HETATM    4  N2  UNL     1     -39.796 -19.944 -15.004  1.00  0.00    -0.264 N 
ATOM      5  H2  UNL     1     -40.140 -20.893 -15.151  1.00  0.00     0.190 HD
HETATM    6  N3  UNL     1     -38.676 -19.575 -15.579  1.00  0.00    -0.282 N 
ATOM      7  H3  UNL     1     -38.165 -20.237 -16.163  1.00  0.00     0.188 HD
HETATM    8  C4  UNL     1     -38.199 -18.340 -15.403  1.00  0.00     0.141 A 
HETATM    9  N4  UNL     1     -37.028 -18.034 -16.007  1.00  0.00    -0.292 N 
ATOM     10  H4  UNL     1     -36.544 -18.719 -16.587  1.00  0.00     0.172 HD
HETATM   11  C5  UNL     1     -36.521 -16.807 -15.823  1.00  0.00     0.328 A 
HETATM   12  O3  UNL     1     -35.433 -16.515 -16.382  1.00  0.00    -0.247 OA
HETATM   13  N5  UNL     1     -37.168 -15.913 -15.059  1.00  0.00    -0.275 N 
ATOM     14  H5  UNL     1     -36.760 -14.987 -14.936  1.00  0.00     0.173 HD
HETATM   15  C6  UNL     1     -38.352 -16.195 -14.438  1.00  0.00     0.264 A 
HETATM   16  O4  UNL     1     -38.890 -15.316 -13.740  1.00  0.00    -0.267 OA
HETATM   17  C7  UNL     1     -38.893 -17.429 -14.607  1.00  0.00     0.098 A 
ENDROOT
BRANCH   1  18
HETATM   18  C1  UNL     1     -40.886 -16.967 -13.139  1.00  0.00     0.271 C 
HETATM   19  N1  UNL     1     -41.935 -16.212 -13.822  1.00  0.00    -0.057 NA
HETATM   20  O1  UNL     1     -40.846 -16.806 -11.943  1.00  0.00    -0.271 OA
ENDBRANCH   1  18
TORSDOF 1
ENDMDL
MODEL 2
REMARK VINA RESULT: -6.177530391      3.854      5.745
REMARK  1 active torsions:
REMARK  status: ('A' for Active; 'I' for Inactive)
REMARK    1  A    between atoms: C1_2  and  C2_4 
ROOT
HETATM    1  C2  UNL     1     -35.141 -17.367 -15.607  1.00  0.00     0.117 A 
HETATM    2  C3  UNL     1     -35.306 -16.139 -16.308  1.00  0.00     0.276 A 
HETATM    3  O2  UNL     1     -36.019 -15.265 -15.758  1.00  0.00    -0.266 OA
HETATM    4  N2  UNL     1     -34.735 -15.918 -17.489  1.00  0.00    -0.264 N 
ATOM      5  H2  UNL     1     -34.883 -15.020 -17.951  1.00  0.00     0.190 HD
HETATM    6  N3  UNL     1     -33.986 -16.821 -18.078  1.00  0.00    -0.282 N 
ATOM      7  H3  UNL     1     -33.563 -16.616 -18.983  1.00  0.00     0.188 HD
HETATM    8  C4  UNL     1     -33.774 -18.006 -17.500  1.00  0.00     0.141 A 
HETATM    9  N4  UNL     1     -33.010 -18.898 -18.172  1.00  0.00    -0.292 N 
ATOM     10  H4  UNL     1     -32.601 -18.660 -19.075  1.00  0.00     0.172 HD
HETATM   11  C5  UNL     1     -32.806 -20.102 -17.620  1.00  0.00     0.328 A 
HETATM   12  O3  UNL     1     -32.096 -20.936 -18.239  1.00  0.00    -0.247 OA
HETATM   13  N5  UNL     1     -33.350 -20.403 -16.431  1.00  0.00    -0.275 N 
ATOM     14  H5  UNL     1     -33.178 -21.327 -16.034  1.00  0.00     0.173 HD
HETATM   15  C6  UNL     1     -34.124 -19.522 -15.730  1.00  0.00     0.264 A 
HETATM   16  O4  UNL     1     -34.599 -19.876 -14.635  1.00  0.00    -0.267 OA
HETATM   17  C7  UNL     1     -34.347 -18.293 -16.262  1.00  0.00     0.098 A 
ENDROOT
BRANCH   1  18
HETATM   18  C1  UNL     1     -35.800 -17.521 -14.355  1.00  0.00     0.271 C 
HETATM   19  N1  UNL     1     -37.212 -17.890 -14.440  1.00  0.00    -0.057 NA
HETATM   20  O1  UNL     1     -35.378 -17.397 -13.231  1.00  0.00    -0.271 OA
ENDBRANCH   1  18
TORSDOF 1
ENDMDL
MODEL 3
REMARK VINA RESULT: -5.795674709      1.534      2.920
REMARK  1 active torsions:
REMARK  status: ('A' for Active; 'I' for Inactive)
REMARK    1  A    between atoms: C1_2  and  C2_4 
ROOT
HETATM    1  C2  UNL     1     -40.400 -17.338 -14.349  1.00  0.00     0.117 A 
HETATM    2  C3  UNL     1     -40.863 -16.047 -13.967  1.00  0.00     0.276 A 
HETATM    3  O2  UNL     1     -42.072 -15.951 -13.645  1.00  0.00    -0.266 OA
HETATM    4  N2  UNL     1     -40.060 -14.986 -13.949  1.00  0.00    -0.264 N 
ATOM      5  H2  UNL     1     -40.440 -14.082 -13.667  1.00  0.00     0.190 HD
HETATM    6  N3  UNL     1     -38.793 -15.068 -14.281  1.00  0.00    -0.282 N 
ATOM      7  H3  UNL     1     -38.207 -14.234 -14.253  1.00  0.00     0.188 HD
HETATM    8  C4  UNL     1     -38.266 -16.236 -14.656  1.00  0.00     0.141 A 
HETATM    9  N4  UNL     1     -36.960 -16.246 -15.007  1.00  0.00    -0.292 N 
ATOM     10  H4  UNL     1     -36.401 -15.393 -14.966  1.00  0.00     0.172 HD
HETATM   11  C5  UNL     1     -36.418 -17.404 -15.409  1.00  0.00     0.328 A 
HETATM   12  O3  UNL     1     -35.204 -17.419 -15.737  1.00  0.00    -0.247 OA
HETATM   13  N5  UNL     1     -37.163 -18.519 -15.459  1.00  0.00    -0.275 N 
ATOM     14  H5  UNL     1     -36.726 -19.387 -15.769  1.00  0.00     0.173 HD
HETATM   15  C6  UNL     1     -38.484 -18.540 -15.110  1.00  0.00     0.264 A 
HETATM   16  O4  UNL     1     -39.111 -19.612 -15.187  1.00  0.00    -0.267 OA
HETATM   17  C7  UNL     1     -39.060 -17.382 -14.695  1.00  0.00     0.098 A 
ENDROOT
BRANCH   1  18
HETATM   18  C1  UNL     1     -41.333 -18.413 -14.352  1.00  0.00     0.271 C 
HETATM   19  N1  UNL     1     -42.079 -18.580 -15.598  1.00  0.00    -0.057 NA
HETATM   20  O1  UNL     1     -41.605 -19.213 -13.491  1.00  0.00    -0.271 OA
ENDBRANCH   1  18
TORSDOF 1
ENDMDL
MODEL 4
REMARK VINA RESULT: -5.335707044      1.990      4.785
REMARK  1 active torsions:
REMARK  status: ('A' for Active; 'I' for Inactive)
REMARK    1  A    between atoms: C1_2  and  C2_4 
ROOT
HETATM    1  C2  UNL     1     -35.793 -17.802 -15.629  1.00  0.00     0.117 A 
HETATM    2  C3  UNL     1     -34.997 -18.837 -16.194  1.00  0.00     0.276 A 
HETATM    3  O2  UNL     1     -33.800 -18.557 -16.447  1.00  0.00    -0.266 OA
HETATM    4  N2  UNL     1     -35.487 -20.049 -16.444  1.00  0.00    -0.264 N 
ATOM      5  H2  UNL     1     -34.875 -20.757 -16.850  1.00  0.00     0.190 HD
HETATM    6  N3  UNL     1     -36.736 -20.359 -16.185  1.00  0.00    -0.282 N 
ATOM      7  H3  UNL     1     -37.077 -21.298 -16.389  1.00  0.00     0.188 HD
HETATM    8  C4  UNL     1     -37.563 -19.454 -15.657  1.00  0.00     0.141 A 
HETATM    9  N4  UNL     1     -38.842 -19.834 -15.435  1.00  0.00    -0.292 N 
ATOM     10  H4  UNL     1     -39.150 -20.783 -15.649  1.00  0.00     0.172 HD
HETATM   11  C5  UNL     1     -39.693 -18.933 -14.928  1.00  0.00     0.328 A 
HETATM   12  O3  UNL     1     -40.884 -19.280 -14.719  1.00  0.00    -0.247 OA
HETATM   13  N5  UNL     1     -39.276 -17.687 -14.650  1.00  0.00    -0.275 N 
ATOM     14  H5  UNL     1     -39.946 -17.021 -14.264  1.00  0.00     0.173 HD
HETATM   15  C6  UNL     1     -37.991 -17.276 -14.862  1.00  0.00     0.264 A 
HETATM   16  O4  UNL     1     -37.680 -16.103 -14.585  1.00  0.00    -0.267 OA
HETATM   17  C7  UNL     1     -37.103 -18.168 -15.373  1.00  0.00     0.098 A 
ENDROOT
BRANCH   1  18
HETATM   18  C1  UNL     1     -35.188 -16.533 -15.408  1.00  0.00     0.271 C 
HETATM   19  N1  UNL     1     -35.101 -15.675 -16.588  1.00  0.00    -0.057 NA
HETATM   20  O1  UNL     1     -34.737 -16.049 -14.398  1.00  0.00    -0.271 OA
ENDBRANCH   1  18
TORSDOF 1
ENDMDL
MODEL 5
REMARK VINA RESULT: -5.327092525      1.887      3.669
REMARK  1 active torsions:
REMARK  status: ('A' for Active; 'I' for Inactive)
REMARK    1  A    between atoms: C1_2  and  C2_4 
ROOT
HETATM    1  C2  UNL     1     -40.236 -16.705 -13.644  1.00  0.00     0.117 A 
HETATM    2  C3  UNL     1     -39.217 -15.750 -13.919  1.00  0.00     0.276 A 
HETATM    3  O2  UNL     1     -39.379 -14.598 -13.449  1.00  0.00    -0.266 OA
HETATM    4  N2  UNL     1     -38.140 -16.054 -14.639  1.00  0.00    -0.264 N 
ATOM      5  H2  UNL     1     -37.438 -15.334 -14.808  1.00  0.00     0.190 HD
HETATM    6  N3  UNL     1     -37.954 -17.254 -15.137  1.00  0.00    -0.282 N 
ATOM      7  H3  UNL     1     -37.116 -17.451 -15.683  1.00  0.00     0.188 HD
HETATM    8  C4  UNL     1     -38.856 -18.218 -14.935  1.00  0.00     0.141 A 
HETATM    9  N4  UNL     1     -38.613 -19.425 -15.496  1.00  0.00    -0.292 N 
ATOM     10  H4  UNL     1     -37.763 -19.589 -16.035  1.00  0.00     0.172 HD
HETATM   11  C5  UNL     1     -39.518 -20.398 -15.325  1.00  0.00     0.328 A 
HETATM   12  O3  UNL     1     -39.298 -21.523 -15.843  1.00  0.00    -0.247 OA
HETATM   13  N5  UNL     1     -40.633 -20.170 -14.613  1.00  0.00    -0.275 N 
ATOM     14  H5  UNL     1     -41.305 -20.928 -14.499  1.00  0.00     0.173 HD
HETATM   15  C6  UNL     1     -40.904 -18.962 -14.035  1.00  0.00     0.264 A 
HETATM   16  O4  UNL     1     -41.963 -18.824 -13.395  1.00  0.00    -0.267 OA
HETATM   17  C7  UNL     1     -40.005 -17.956 -14.189  1.00  0.00     0.098 A 
ENDROOT
BRANCH   1  18
HETATM   18  C1  UNL     1     -41.359 -16.287 -12.876  1.00  0.00     0.271 C 
HETATM   19  N1  UNL     1     -41.217 -16.452 -11.431  1.00  0.00    -0.057 NA
HETATM   20  O1  UNL     1     -42.412 -15.813 -13.228  1.00  0.00    -0.271 OA
ENDBRANCH   1  18
TORSDOF 1
ENDMDL
