MODEL 1
REMARK VINA RESULT: -7.431950617      0.000      0.000
REMARK  7 active torsions:
REMARK  status: ('A' for Active; 'I' for Inactive)
REMARK    1  A    between atoms: C4_11  and  N4_12 
REMARK    2  A    between atoms: N4_12  and  C5_14 
REMARK    3  A    between atoms: C5_14  and  C6_15 
REMARK    4  A    between atoms: C6_15  and  C7_16 
REMARK    5  A    between atoms: C7_16  and  N5_17 
REMARK    6  A    between atoms: C10_20  and  N6_21 
REMARK    7  A    between atoms: C16_30  and  N8_31 
ROOT
HETATM    1  N1  UNL     1      35.551 -16.325  12.768  1.00  0.00    -0.235 N 
ATOM      2  H11 UNL     1      35.694 -16.901  11.938  1.00  0.00     0.174 HD
ATOM      3  H12 UNL     1      35.629 -15.315  12.644  1.00  0.00     0.174 HD
HETATM    4  C1  UNL     1      35.287 -16.813  13.918  1.00  0.00     0.670 C 
HETATM    5  N2  UNL     1      35.089 -16.018  15.066  1.00  0.00    -0.220 N 
ATOM      6  H2  UNL     1      35.227 -15.012  14.976  1.00  0.00     0.178 HD
HETATM    7  C2  UNL     1      34.703 -16.534  16.364  1.00  0.00     0.121 C 
HETATM    8  C3  UNL     1      35.887 -16.636  17.311  1.00  0.00     0.146 C 
HETATM    9  N3  UNL     1      36.820 -17.664  16.893  1.00  0.00    -0.374 N 
ATOM     10  H3  UNL     1      37.767 -17.640  17.272  1.00  0.00     0.160 HD
HETATM   11  C4  UNL     1      36.514 -18.602  16.072  1.00  0.00     0.131 C 
HETATM   12  C16 UNL     1      35.175 -18.738  15.452  1.00  0.00     0.269 C 
HETATM   13  C17 UNL     1      34.145 -17.919  16.206  1.00  0.00     0.097 C 
HETATM   14  N9  UNL     1      35.179 -18.223  14.091  1.00  0.00    -0.185 N 
ATOM     15  H9  UNL     1      35.106 -18.849  13.289  1.00  0.00     0.180 HD
ENDROOT
BRANCH  11  16
HETATM   16  N4  UNL     1      37.510 -19.550  15.737  1.00  0.00    -0.376 N 
ATOM     17  H4  UNL     1      37.307 -20.533  15.924  1.00  0.00     0.160 HD
BRANCH  16  18
HETATM   18  C5  UNL     1      38.797 -19.234  15.150  1.00  0.00     0.123 C 
BRANCH  18  19
HETATM   19  C6  UNL     1      39.826 -20.024  15.879  1.00  0.00     0.050 C 
BRANCH  19  20
HETATM   20  C7  UNL     1      40.196 -21.340  15.313  1.00  0.00     0.274 C 
BRANCH  20  21
HETATM   21  N5  UNL     1      40.900 -22.246  16.148  1.00  0.00     0.090 N 
HETATM   22  C8  UNL     1      40.798 -21.972  17.554  1.00  0.00     0.274 C 
HETATM   23  C9  UNL     1      39.826 -22.949  18.165  1.00  0.00     0.057 C 
HETATM   24  C10 UNL     1      39.195 -23.575  16.936  1.00  0.00     0.109 C 
HETATM   25  C15 UNL     1      40.316 -23.585  15.963  1.00  0.00     0.297 C 
BRANCH  24  26
HETATM   26  N6  UNL     1      38.675 -24.846  17.274  1.00  0.00    -0.403 N 
HETATM   27  C11 UNL     1      38.508 -25.780  16.216  1.00  0.00     0.144 C 
HETATM   28  C12 UNL     1      37.209 -26.524  16.471  1.00  0.00     0.251 C 
HETATM   29  N7  UNL     1      36.801 -26.358  17.853  1.00  0.00    -0.072 N 
HETATM   30  C13 UNL     1      37.904 -26.489  18.791  1.00  0.00     0.251 C 
ATOM     31  H72 UNL     1      36.313 -25.471  17.985  1.00  0.00     0.277 HD
ATOM     32  H71 UNL     1      36.044 -27.001  18.089  1.00  0.00     0.277 HD
HETATM   33  C14 UNL     1      38.934 -25.368  18.562  1.00  0.00     0.144 C 
ENDBRANCH  24  26
ENDBRANCH  20  21
ENDBRANCH  19  20
ENDBRANCH  18  19
ENDBRANCH  16  18
ENDBRANCH  11  16
BRANCH  12  34
HETATM   34  N8  UNL     1      34.775 -20.109  15.443  1.00  0.00    -0.045 N 
ATOM     35  H83 UNL     1      35.267 -20.655  16.149  1.00  0.00     0.277 HD
ATOM     36  H82 UNL     1      33.825 -20.232  15.795  1.00  0.00     0.277 HD
ATOM     37  H81 UNL     1      34.889 -20.502  14.509  1.00  0.00     0.277 HD
ENDBRANCH  12  34
TORSDOF 7
ENDMDL
MODEL 2
REMARK VINA RESULT: -7.268755835      4.075      6.984
REMARK  7 active torsions:
REMARK  status: ('A' for Active; 'I' for Inactive)
REMARK    1  A    between atoms: C4_11  and  N4_12 
REMARK    2  A    between atoms: N4_12  and  C5_14 
REMARK    3  A    between atoms: C5_14  and  C6_15 
REMARK    4  A    between atoms: C6_15  and  C7_16 
REMARK    5  A    between atoms: C7_16  and  N5_17 
REMARK    6  A    between atoms: C10_20  and  N6_21 
REMARK    7  A    between atoms: C16_30  and  N8_31 
ROOT
HETATM    1  N1  UNL     1      35.535 -16.326  12.736  1.00  0.00    -0.235 N 
ATOM      2  H11 UNL     1      35.624 -16.913  11.907  1.00  0.00     0.174 HD
ATOM      3  H12 UNL     1      35.656 -15.322  12.602  1.00  0.00     0.174 HD
HETATM    4  C1  UNL     1      35.287 -16.793  13.899  1.00  0.00     0.670 C 
HETATM    5  N2  UNL     1      35.164 -15.983  15.046  1.00  0.00    -0.220 N 
ATOM      6  H2  UNL     1      35.346 -14.984  14.943  1.00  0.00     0.178 HD
HETATM    7  C2  UNL     1      34.797 -16.472  16.360  1.00  0.00     0.121 C 
HETATM    8  C3  UNL     1      36.005 -16.623  17.268  1.00  0.00     0.146 C 
HETATM    9  N3  UNL     1      36.875 -17.696  16.829  1.00  0.00    -0.374 N 
ATOM     10  H3  UNL     1      37.835 -17.715  17.176  1.00  0.00     0.160 HD
HETATM   11  C4  UNL     1      36.500 -18.624  16.025  1.00  0.00     0.131 C 
HETATM   12  C16 UNL     1      35.136 -18.701  15.451  1.00  0.00     0.269 C 
HETATM   13  C17 UNL     1      34.170 -17.829  16.231  1.00  0.00     0.097 C 
HETATM   14  N9  UNL     1      35.118 -18.195  14.086  1.00  0.00    -0.185 N 
ATOM     15  H9  UNL     1      34.990 -18.823  13.292  1.00  0.00     0.180 HD
ENDROOT
BRANCH  11  16
HETATM   16  N4  UNL     1      37.438 -19.620  15.666  1.00  0.00    -0.376 N 
ATOM     17  H4  UNL     1      37.087 -20.443  15.175  1.00  0.00     0.160 HD
BRANCH  16  18
HETATM   18  C5  UNL     1      38.861 -19.562  15.941  1.00  0.00     0.123 C 
BRANCH  18  19
HETATM   19  C6  UNL     1      39.550 -19.238  14.662  1.00  0.00     0.050 C 
BRANCH  19  20
HETATM   20  C7  UNL     1      39.639 -17.810  14.285  1.00  0.00     0.274 C 
BRANCH  20  21
HETATM   21  N5  UNL     1      40.932 -17.229  14.192  1.00  0.00     0.090 N 
HETATM   22  C8  UNL     1      42.014 -18.173  14.161  1.00  0.00     0.274 C 
HETATM   23  C9  UNL     1      42.513 -18.286  12.743  1.00  0.00     0.057 C 
HETATM   24  C10 UNL     1      41.431 -17.558  11.969  1.00  0.00     0.109 C 
HETATM   25  C15 UNL     1      41.011 -16.496  12.918  1.00  0.00     0.297 C 
BRANCH  24  26
HETATM   26  N6  UNL     1      41.962 -17.099  10.742  1.00  0.00    -0.403 N 
HETATM   27  C11 UNL     1      41.398 -17.631   9.552  1.00  0.00     0.144 C 
HETATM   28  C12 UNL     1      42.537 -17.851   8.572  1.00  0.00     0.251 C 
HETATM   29  N7  UNL     1      43.703 -17.090   8.980  1.00  0.00    -0.072 N 
HETATM   30  C13 UNL     1      43.376 -15.742   9.417  1.00  0.00     0.251 C 
ATOM     31  H72 UNL     1      44.230 -17.588   9.698  1.00  0.00     0.277 HD
ATOM     32  H71 UNL     1      44.404 -17.072   8.239  1.00  0.00     0.277 HD
HETATM   33  C14 UNL     1      42.494 -15.790  10.677  1.00  0.00     0.144 C 
ENDBRANCH  24  26
ENDBRANCH  20  21
ENDBRANCH  19  20
ENDBRANCH  18  19
ENDBRANCH  16  18
ENDBRANCH  11  16
BRANCH  12  34
HETATM   34  N8  UNL     1      34.672 -20.052  15.466  1.00  0.00    -0.045 N 
ATOM     35  H83 UNL     1      33.921 -20.190  16.141  1.00  0.00     0.277 HD
ATOM     36  H82 UNL     1      34.155 -20.288  14.618  1.00  0.00     0.277 HD
ATOM     37  H81 UNL     1      35.452 -20.690  15.627  1.00  0.00     0.277 HD
ENDBRANCH  12  34
TORSDOF 7
ENDMDL
MODEL 3
REMARK VINA RESULT: -7.250866415      1.896      3.589
REMARK  7 active torsions:
REMARK  status: ('A' for Active; 'I' for Inactive)
REMARK    1  A    between atoms: C4_11  and  N4_12 
REMARK    2  A    between atoms: N4_12  and  C5_14 
REMARK    3  A    between atoms: C5_14  and  C6_15 
REMARK    4  A    between atoms: C6_15  and  C7_16 
REMARK    5  A    between atoms: C7_16  and  N5_17 
REMARK    6  A    between atoms: C10_20  and  N6_21 
REMARK    7  A    between atoms: C16_30  and  N8_31 
ROOT
HETATM    1  N1  UNL     1      34.201 -16.252  18.070  1.00  0.00    -0.235 N 
ATOM      2  H11 UNL     1      34.186 -15.233  18.088  1.00  0.00     0.174 HD
ATOM      3  H12 UNL     1      33.959 -16.729  18.939  1.00  0.00     0.174 HD
HETATM    4  C1  UNL     1      34.504 -16.928  17.030  1.00  0.00     0.670 C 
HETATM    5  N2  UNL     1      34.524 -18.337  17.004  1.00  0.00    -0.220 N 
ATOM      6  H2  UNL     1      34.349 -18.830  17.879  1.00  0.00     0.178 HD
HETATM    7  C2  UNL     1      34.777 -19.133  15.819  1.00  0.00     0.121 C 
HETATM    8  C3  UNL     1      36.202 -19.658  15.780  1.00  0.00     0.146 C 
HETATM    9  N3  UNL     1      37.162 -18.590  15.583  1.00  0.00    -0.374 N 
ATOM     10  H3  UNL     1      38.139 -18.768  15.815  1.00  0.00     0.160 HD
HETATM   11  C4  UNL     1      36.845 -17.432  15.130  1.00  0.00     0.131 C 
HETATM   12  C16 UNL     1      35.460 -17.052  14.762  1.00  0.00     0.269 C 
HETATM   13  C17 UNL     1      34.588 -18.282  14.597  1.00  0.00     0.097 C 
HETATM   14  N9  UNL     1      34.842 -16.262  15.816  1.00  0.00    -0.185 N 
ATOM     15  H9  UNL     1      34.657 -15.267  15.691  1.00  0.00     0.180 HD
ENDROOT
BRANCH  11  16
HETATM   16  N4  UNL     1      37.869 -16.467  14.979  1.00  0.00    -0.376 N 
ATOM     17  H4  UNL     1      37.859 -15.667  15.612  1.00  0.00     0.160 HD
BRANCH  16  18
HETATM   18  C5  UNL     1      38.932 -16.528  13.995  1.00  0.00     0.123 C 
BRANCH  18  19
HETATM   19  C6  UNL     1      40.223 -16.406  14.725  1.00  0.00     0.050 C 
BRANCH  19  20
HETATM   20  C7  UNL     1      40.927 -17.662  15.067  1.00  0.00     0.274 C 
BRANCH  20  21
HETATM   21  N5  UNL     1      40.528 -18.849  14.398  1.00  0.00     0.090 N 
HETATM   22  C8  UNL     1      41.606 -19.609  13.830  1.00  0.00     0.274 C 
HETATM   23  C9  UNL     1      41.875 -20.798  14.718  1.00  0.00     0.057 C 
HETATM   24  C10 UNL     1      41.063 -20.460  15.952  1.00  0.00     0.109 C 
HETATM   25  C15 UNL     1      39.895 -19.738  15.386  1.00  0.00     0.297 C 
BRANCH  24  26
HETATM   26  N6  UNL     1      40.758 -21.650  16.651  1.00  0.00    -0.403 N 
HETATM   27  C11 UNL     1      40.218 -22.726  15.896  1.00  0.00     0.144 C 
HETATM   28  C12 UNL     1      39.148 -23.385  16.749  1.00  0.00     0.251 C 
HETATM   29  N7  UNL     1      39.310 -23.003  18.138  1.00  0.00    -0.072 N 
HETATM   30  C13 UNL     1      40.697 -23.025  18.575  1.00  0.00     0.251 C 
ATOM     31  H72 UNL     1      38.886 -22.092  18.318  1.00  0.00     0.277 HD
ATOM     32  H71 UNL     1      38.728 -23.581  18.746  1.00  0.00     0.277 HD
HETATM   33  C14 UNL     1      41.518 -21.982  17.797  1.00  0.00     0.144 C 
ENDBRANCH  24  26
ENDBRANCH  20  21
ENDBRANCH  19  20
ENDBRANCH  18  19
ENDBRANCH  16  18
ENDBRANCH  11  16
BRANCH  12  34
HETATM   34  N8  UNL     1      35.462 -16.306  13.544  1.00  0.00    -0.045 N 
ATOM     35  H83 UNL     1      36.405 -16.158  13.188  1.00  0.00     0.277 HD
ATOM     36  H82 UNL     1      35.091 -16.849  12.763  1.00  0.00     0.277 HD
ATOM     37  H81 UNL     1      34.959 -15.427  13.670  1.00  0.00     0.277 HD
ENDBRANCH  12  34
TORSDOF 7
ENDMDL
MODEL 4
REMARK VINA RESULT: -7.221548790      3.328      6.332
REMARK  7 active torsions:
REMARK  status: ('A' for Active; 'I' for Inactive)
REMARK    1  A    between atoms: C4_11  and  N4_12 
REMARK    2  A    between atoms: N4_12  and  C5_14 
REMARK    3  A    between atoms: C5_14  and  C6_15 
REMARK    4  A    between atoms: C6_15  and  C7_16 
REMARK    5  A    between atoms: C7_16  and  N5_17 
REMARK    6  A    between atoms: C10_20  and  N6_21 
REMARK    7  A    between atoms: C16_30  and  N8_31 
ROOT
HETATM    1  N1  UNL     1      35.612 -16.256  12.810  1.00  0.00    -0.235 N 
ATOM      2  H11 UNL     1      35.731 -16.831  11.975  1.00  0.00     0.174 HD
ATOM      3  H12 UNL     1      35.737 -15.250  12.695  1.00  0.00     0.174 HD
HETATM    4  C1  UNL     1      35.321 -16.741  13.955  1.00  0.00     0.670 C 
HETATM    5  N2  UNL     1      35.156 -15.948  15.109  1.00  0.00    -0.220 N 
ATOM      6  H2  UNL     1      35.340 -14.948  15.028  1.00  0.00     0.178 HD
HETATM    7  C2  UNL     1      34.740 -16.457  16.401  1.00  0.00     0.121 C 
HETATM    8  C3  UNL     1      35.914 -16.622  17.351  1.00  0.00     0.146 C 
HETATM    9  N3  UNL     1      36.800 -17.688  16.928  1.00  0.00    -0.374 N 
ATOM     10  H3  UNL     1      37.746 -17.712  17.310  1.00  0.00     0.160 HD
HETATM   11  C4  UNL     1      36.455 -18.604  16.097  1.00  0.00     0.131 C 
HETATM   12  C16 UNL     1      35.113 -18.672  15.472  1.00  0.00     0.269 C 
HETATM   13  C17 UNL     1      34.119 -17.812  16.229  1.00  0.00     0.097 C 
HETATM   14  N9  UNL     1      35.146 -18.146  14.115  1.00  0.00    -0.185 N 
ATOM     15  H9  UNL     1      35.048 -18.762  13.308  1.00  0.00     0.180 HD
ENDROOT
BRANCH  11  16
HETATM   16  N4  UNL     1      37.406 -19.594  15.758  1.00  0.00    -0.376 N 
ATOM     17  H4  UNL     1      37.169 -20.566  15.962  1.00  0.00     0.160 HD
BRANCH  16  18
HETATM   18  C5  UNL     1      38.694 -19.336  15.143  1.00  0.00     0.123 C 
BRANCH  18  19
HETATM   19  C6  UNL     1      39.602 -20.452  15.524  1.00  0.00     0.050 C 
BRANCH  19  20
HETATM   20  C7  UNL     1      40.845 -20.097  16.243  1.00  0.00     0.274 C 
BRANCH  20  21
HETATM   21  N5  UNL     1      42.061 -20.110  15.512  1.00  0.00     0.090 N 
HETATM   22  C8  UNL     1      41.915 -20.383  14.109  1.00  0.00     0.274 C 
HETATM   23  C9  UNL     1      42.058 -19.087  13.350  1.00  0.00     0.057 C 
HETATM   24  C10 UNL     1      41.998 -18.061  14.465  1.00  0.00     0.109 C 
HETATM   25  C15 UNL     1      42.657 -18.767  15.593  1.00  0.00     0.297 C 
BRANCH  24  26
HETATM   26  N6  UNL     1      42.633 -16.872  14.041  1.00  0.00    -0.403 N 
HETATM   27  C11 UNL     1      43.874 -16.546  14.652  1.00  0.00     0.144 C 
HETATM   28  C12 UNL     1      43.889 -15.042  14.867  1.00  0.00     0.251 C 
HETATM   29  N7  UNL     1      42.883 -14.408  14.037  1.00  0.00    -0.072 N 
HETATM   30  C13 UNL     1      42.840 -14.943  12.687  1.00  0.00     0.251 C 
ATOM     31  H72 UNL     1      41.964 -14.456  14.478  1.00  0.00     0.277 HD
ATOM     32  H71 UNL     1      43.008 -13.395  14.023  1.00  0.00     0.277 HD
HETATM   33  C14 UNL     1      42.429 -16.426  12.714  1.00  0.00     0.144 C 
ENDBRANCH  24  26
ENDBRANCH  20  21
ENDBRANCH  19  20
ENDBRANCH  18  19
ENDBRANCH  16  18
ENDBRANCH  11  16
BRANCH  12  34
HETATM   34  N8  UNL     1      34.649 -20.023  15.449  1.00  0.00    -0.045 N 
ATOM     35  H83 UNL     1      35.293 -20.655  15.924  1.00  0.00     0.277 HD
ATOM     36  H82 UNL     1      33.837 -20.158  16.051  1.00  0.00     0.277 HD
ATOM     37  H81 UNL     1      34.466 -20.315  14.489  1.00  0.00     0.277 HD
ENDBRANCH  12  34
TORSDOF 7
ENDMDL
MODEL 5
REMARK VINA RESULT: -7.197008336      3.974      7.382
REMARK  7 active torsions:
REMARK  status: ('A' for Active; 'I' for Inactive)
REMARK    1  A    between atoms: C4_11  and  N4_12 
REMARK    2  A    between atoms: N4_12  and  C5_14 
REMARK    3  A    between atoms: C5_14  and  C6_15 
REMARK    4  A    between atoms: C6_15  and  C7_16 
REMARK    5  A    between atoms: C7_16  and  N5_17 
REMARK    6  A    between atoms: C10_20  and  N6_21 
REMARK    7  A    between atoms: C16_30  and  N8_31 
ROOT
HETATM    1  N1  UNL     1      35.456 -16.808  12.496  1.00  0.00    -0.235 N 
ATOM      2  H11 UNL     1      35.432 -17.502  11.749  1.00  0.00     0.174 HD
ATOM      3  H12 UNL     1      35.656 -15.846  12.223  1.00  0.00     0.174 HD
HETATM    4  C1  UNL     1      35.252 -17.098  13.724  1.00  0.00     0.670 C 
HETATM    5  N2  UNL     1      35.286 -16.140  14.757  1.00  0.00    -0.220 N 
ATOM      6  H2  UNL     1      35.547 -15.185  14.512  1.00  0.00     0.178 HD
HETATM    7  C2  UNL     1      34.973 -16.420  16.145  1.00  0.00     0.121 C 
HETATM    8  C3  UNL     1      36.226 -16.572  16.991  1.00  0.00     0.146 C 
HETATM    9  N3  UNL     1      36.962 -17.771  16.647  1.00  0.00    -0.374 N 
ATOM     10  H3  UNL     1      37.939 -17.839  16.935  1.00  0.00     0.160 HD
HETATM   11  C4  UNL     1      36.448 -18.753  15.998  1.00  0.00     0.131 C 
HETATM   12  C16 UNL     1      35.045 -18.769  15.523  1.00  0.00     0.269 C 
HETATM   13  C17 UNL     1      34.220 -17.715  16.237  1.00  0.00     0.097 C 
HETATM   14  N9  UNL     1      34.974 -18.442  14.106  1.00  0.00    -0.185 N 
ATOM     15  H9  UNL     1      34.733 -19.149  13.412  1.00  0.00     0.180 HD
ENDROOT
BRANCH  11  16
HETATM   16  N4  UNL     1      37.266 -19.873  15.719  1.00  0.00    -0.376 N 
ATOM     17  H4  UNL     1      36.840 -20.656  15.222  1.00  0.00     0.160 HD
BRANCH  16  18
HETATM   18  C5  UNL     1      38.664 -19.996  16.085  1.00  0.00     0.123 C 
BRANCH  18  19
HETATM   19  C6  UNL     1      39.471 -19.715  14.867  1.00  0.00     0.050 C 
BRANCH  19  20
HETATM   20  C7  UNL     1      40.055 -18.362  14.740  1.00  0.00     0.274 C 
BRANCH  20  21
HETATM   21  N5  UNL     1      39.646 -17.564  13.639  1.00  0.00     0.090 N 
HETATM   22  C8  UNL     1      38.987 -16.339  13.997  1.00  0.00     0.274 C 
HETATM   23  C9  UNL     1      39.958 -15.200  13.816  1.00  0.00     0.057 C 
HETATM   24  C10 UNL     1      41.270 -15.934  13.617  1.00  0.00     0.109 C 
HETATM   25  C15 UNL     1      40.851 -17.162  12.895  1.00  0.00     0.297 C 
BRANCH  24  26
HETATM   26  N6  UNL     1      42.171 -15.098  12.918  1.00  0.00    -0.403 N 
HETATM   27  C11 UNL     1      41.625 -14.248  11.919  1.00  0.00     0.144 C 
HETATM   28  C12 UNL     1      42.602 -14.231  10.756  1.00  0.00     0.251 C 
HETATM   29  N7  UNL     1      43.901 -14.712  11.187  1.00  0.00    -0.072 N 
HETATM   30  C13 UNL     1      44.305 -14.177  12.477  1.00  0.00     0.251 C 
ATOM     31  H72 UNL     1      43.929 -15.732  11.190  1.00  0.00     0.277 HD
ATOM     32  H71 UNL     1      44.611 -14.527  10.478  1.00  0.00     0.277 HD
HETATM   33  C14 UNL     1      43.340 -14.653  13.578  1.00  0.00     0.144 C 
ENDBRANCH  24  26
ENDBRANCH  20  21
ENDBRANCH  19  20
ENDBRANCH  18  19
ENDBRANCH  16  18
ENDBRANCH  11  16
BRANCH  12  34
HETATM   34  N8  UNL     1      34.465 -20.055  15.746  1.00  0.00    -0.045 N 
ATOM     35  H83 UNL     1      34.646 -20.397  16.689  1.00  0.00     0.277 HD
ATOM     36  H82 UNL     1      33.447 -20.011  15.796  1.00  0.00     0.277 HD
ATOM     37  H81 UNL     1      34.784 -20.713  15.034  1.00  0.00     0.277 HD
ENDBRANCH  12  34
TORSDOF 7
ENDMDL
