MODEL 1
REMARK VINA RESULT: -7.451609168      0.000      0.000
REMARK  5 active torsions:
REMARK  status: ('A' for Active; 'I' for Inactive)
REMARK    1  A    between atoms: C7_18  and  N5_19 
REMARK    2  A    between atoms: N5_19  and  C8_22 
REMARK    3  A    between atoms: C8_22  and  C9_23 
REMARK    4  A    between atoms: C9_23  and  N6_24 
REMARK    5  A    between atoms: C14_32  and  C15_33 
ROOT
HETATM    1  N1  UNL     1      40.061 -14.045  12.941  1.00  0.00    -0.234 N 
ATOM      2  H11 UNL     1      40.446 -13.178  12.566  1.00  0.00     0.174 HD
ATOM      3  H12 UNL     1      39.063 -14.248  12.879  1.00  0.00     0.174 HD
HETATM    4  C1  UNL     1      40.827 -14.910  13.509  1.00  0.00     0.679 A 
HETATM    5  N2  UNL     1      40.311 -16.073  14.011  1.00  0.00    -0.192 N 
ATOM      6  H2  UNL     1      39.309 -16.245  13.933  1.00  0.00     0.184 HD
HETATM    7  C2  UNL     1      41.077 -16.983  14.597  1.00  0.00     0.079 A 
HETATM    8  C3  UNL     1      42.424 -16.756  14.705  1.00  0.00     0.054 A 
HETATM    9  C4  UNL     1      42.931 -15.552  14.181  1.00  0.00     0.269 A 
HETATM   10  O1  UNL     1      44.156 -15.346  14.280  1.00  0.00    -0.267 OA
HETATM   11  N3  UNL     1      42.135 -14.645  13.590  1.00  0.00    -0.156 N 
ATOM     12  H3  UNL     1      42.518 -13.777  13.213  1.00  0.00     0.187 HD
HETATM   13  C5  UNL     1      43.348 -17.708  15.357  1.00  0.00     0.169 C 
HETATM   14  N4  UNL     1      42.893 -19.060  15.116  1.00  0.00    -0.354 N 
ATOM     15  H4  UNL     1      43.526 -19.847  15.253  1.00  0.00     0.162 HD
HETATM   16  C6  UNL     1      41.544 -19.286  14.683  1.00  0.00     0.255 C 
HETATM   17  O2  UNL     1      41.252 -20.264  13.977  1.00  0.00    -0.271 OA
HETATM   18  C7  UNL     1      40.540 -18.270  15.138  1.00  0.00     0.327 C 
ENDROOT
BRANCH  18  19
HETATM   19  N5  UNL     1      39.213 -18.562  14.763  1.00  0.00    -0.055 N 
ATOM     20  H52 UNL     1      38.944 -18.042  13.928  1.00  0.00     0.278 HD
ATOM     21  H51 UNL     1      39.134 -19.511  14.398  1.00  0.00     0.278 HD
BRANCH  19  22
HETATM   22  C8  UNL     1      38.280 -18.341  15.832  1.00  0.00     0.264 C 
BRANCH  22  23
HETATM   23  C9  UNL     1      37.033 -19.183  15.670  1.00  0.00     0.300 C 
BRANCH  23  24
HETATM   24  N6  UNL     1      35.910 -18.581  15.072  1.00  0.00     0.102 N 
HETATM   25  C10 UNL     1      34.641 -19.089  15.514  1.00  0.00     0.300 C 
HETATM   26  C11 UNL     1      34.693 -19.330  16.997  1.00  0.00     0.262 C 
HETATM   27  N7  UNL     1      34.819 -18.102  17.708  1.00  0.00    -0.073 N 
HETATM   28  C12 UNL     1      34.345 -16.985  16.971  1.00  0.00     0.235 C 
ATOM     29  H72 UNL     1      34.363 -18.158  18.618  1.00  0.00     0.277 HD
ATOM     30  H71 UNL     1      35.781 -17.954  18.014  1.00  0.00     0.277 HD
HETATM   31  C13 UNL     1      35.274 -16.348  16.013  1.00  0.00     0.070 C 
HETATM   32  C14 UNL     1      35.940 -17.152  14.979  1.00  0.00     0.285 C 
BRANCH  32  33
HETATM   33  C15 UNL     1      35.445 -16.753  13.629  1.00  0.00     0.267 C 
HETATM   34  O3  UNL     1      35.643 -17.326  12.601  1.00  0.00    -0.305 OA
ENDBRANCH  32  33
ENDBRANCH  23  24
ENDBRANCH  22  23
ENDBRANCH  19  22
ENDBRANCH  18  19
TORSDOF 5
ENDMDL
MODEL 2
REMARK VINA RESULT: -7.440386341      2.926      5.072
REMARK  5 active torsions:
REMARK  status: ('A' for Active; 'I' for Inactive)
REMARK    1  A    between atoms: C7_18  and  N5_19 
REMARK    2  A    between atoms: N5_19  and  C8_22 
REMARK    3  A    between atoms: C8_22  and  C9_23 
REMARK    4  A    between atoms: C9_23  and  N6_24 
REMARK    5  A    between atoms: C14_32  and  C15_33 
ROOT
HETATM    1  N1  UNL     1      38.742 -24.192  17.931  1.00  0.00    -0.234 N 
ATOM      2  H11 UNL     1      38.850 -25.172  18.192  1.00  0.00     0.174 HD
ATOM      3  H12 UNL     1      38.051 -23.598  18.391  1.00  0.00     0.174 HD
HETATM    4  C1  UNL     1      39.475 -23.676  17.007  1.00  0.00     0.679 A 
HETATM    5  N2  UNL     1      39.329 -22.361  16.657  1.00  0.00    -0.192 N 
ATOM      6  H2  UNL     1      38.630 -21.795  17.135  1.00  0.00     0.184 HD
HETATM    7  C2  UNL     1      40.074 -21.803  15.711  1.00  0.00     0.079 A 
HETATM    8  C3  UNL     1      41.014 -22.560  15.064  1.00  0.00     0.054 A 
HETATM    9  C4  UNL     1      41.144 -23.910  15.442  1.00  0.00     0.269 A 
HETATM   10  O1  UNL     1      42.000 -24.599  14.853  1.00  0.00    -0.267 OA
HETATM   11  N3  UNL     1      40.380 -24.454  16.405  1.00  0.00    -0.156 N 
ATOM     12  H3  UNL     1      40.487 -25.434  16.668  1.00  0.00     0.187 HD
HETATM   13  C5  UNL     1      41.874 -22.023  13.988  1.00  0.00     0.169 C 
HETATM   14  N4  UNL     1      42.174 -20.635  14.262  1.00  0.00    -0.354 N 
ATOM     15  H4  UNL     1      42.952 -20.176  13.789  1.00  0.00     0.162 HD
HETATM   16  C6  UNL     1      41.370 -19.909  15.202  1.00  0.00     0.255 C 
HETATM   17  O2  UNL     1      41.843 -18.971  15.861  1.00  0.00    -0.271 OA
HETATM   18  C7  UNL     1      39.947 -20.365  15.322  1.00  0.00     0.327 C 
ENDROOT
BRANCH  18  19
HETATM   19  N5  UNL     1      39.162 -19.582  16.194  1.00  0.00    -0.055 N 
ATOM     20  H52 UNL     1      38.732 -20.158  16.917  1.00  0.00     0.278 HD
ATOM     21  H51 UNL     1      39.747 -18.990  16.783  1.00  0.00     0.278 HD
BRANCH  19  22
HETATM   22  C8  UNL     1      38.177 -18.805  15.497  1.00  0.00     0.264 C 
BRANCH  22  23
HETATM   23  C9  UNL     1      36.780 -19.342  15.719  1.00  0.00     0.300 C 
BRANCH  23  24
HETATM   24  N6  UNL     1      35.708 -18.634  15.142  1.00  0.00     0.102 N 
HETATM   25  C10 UNL     1      34.410 -18.972  15.657  1.00  0.00     0.300 C 
HETATM   26  C11 UNL     1      34.501 -19.162  17.146  1.00  0.00     0.262 C 
HETATM   27  N7  UNL     1      34.802 -17.931  17.798  1.00  0.00    -0.073 N 
HETATM   28  C12 UNL     1      34.428 -16.795  17.035  1.00  0.00     0.235 C 
ATOM     29  H72 UNL     1      34.384 -17.899  18.728  1.00  0.00     0.277 HD
ATOM     30  H71 UNL     1      35.788 -17.887  18.058  1.00  0.00     0.277 HD
HETATM   31  C13 UNL     1      35.380 -16.308  16.013  1.00  0.00     0.070 C 
HETATM   32  C14 UNL     1      35.900 -17.223  14.988  1.00  0.00     0.285 C 
BRANCH  32  33
HETATM   33  C15 UNL     1      35.393 -16.820  13.644  1.00  0.00     0.267 C 
HETATM   34  O3  UNL     1      35.451 -17.462  12.639  1.00  0.00    -0.305 OA
ENDBRANCH  32  33
ENDBRANCH  23  24
ENDBRANCH  22  23
ENDBRANCH  19  22
ENDBRANCH  18  19
TORSDOF 5
ENDMDL
MODEL 3
REMARK VINA RESULT: -7.079062192      1.730      1.742
REMARK  5 active torsions:
REMARK  status: ('A' for Active; 'I' for Inactive)
REMARK    1  A    between atoms: C7_18  and  N5_19 
REMARK    2  A    between atoms: N5_19  and  C8_22 
REMARK    3  A    between atoms: C8_22  and  C9_23 
REMARK    4  A    between atoms: C9_23  and  N6_24 
REMARK    5  A    between atoms: C14_32  and  C15_33 
ROOT
HETATM    1  N1  UNL     1      41.393 -16.591  10.962  1.00  0.00    -0.234 N 
ATOM      2  H11 UNL     1      42.051 -16.262  10.255  1.00  0.00     0.174 HD
ATOM      3  H12 UNL     1      40.396 -16.391  10.886  1.00  0.00     0.174 HD
HETATM    4  C1  UNL     1      41.807 -17.267  11.977  1.00  0.00     0.679 A 
HETATM    5  N2  UNL     1      40.925 -17.708  12.925  1.00  0.00    -0.192 N 
ATOM      6  H2  UNL     1      39.935 -17.491  12.820  1.00  0.00     0.184 HD
HETATM    7  C2  UNL     1      41.323 -18.409  13.978  1.00  0.00     0.079 A 
HETATM    8  C3  UNL     1      42.653 -18.702  14.124  1.00  0.00     0.054 A 
HETATM    9  C4  UNL     1      43.541 -18.237  13.136  1.00  0.00     0.269 A 
HETATM   10  O1  UNL     1      44.751 -18.503  13.270  1.00  0.00    -0.267 OA
HETATM   11  N3  UNL     1      43.115 -17.529  12.076  1.00  0.00    -0.156 N 
ATOM     12  H3  UNL     1      43.771 -17.200  11.366  1.00  0.00     0.187 HD
HETATM   13  C5  UNL     1      43.185 -19.463  15.275  1.00  0.00     0.169 C 
HETATM   14  N4  UNL     1      42.212 -20.450  15.688  1.00  0.00    -0.354 N 
ATOM     15  H4  UNL     1      42.493 -21.232  16.278  1.00  0.00     0.162 HD
HETATM   16  C6  UNL     1      40.847 -20.320  15.263  1.00  0.00     0.255 C 
HETATM   17  O2  UNL     1      40.125 -21.317  15.112  1.00  0.00    -0.271 OA
HETATM   18  C7  UNL     1      40.378 -18.917  15.019  1.00  0.00     0.327 C 
ENDROOT
BRANCH  18  19
HETATM   19  N5  UNL     1      39.013 -18.817  14.679  1.00  0.00    -0.055 N 
ATOM     20  H52 UNL     1      38.871 -18.144  13.927  1.00  0.00     0.278 HD
ATOM     21  H51 UNL     1      38.689 -19.661  14.208  1.00  0.00     0.278 HD
BRANCH  19  22
HETATM   22  C8  UNL     1      38.187 -18.509  15.812  1.00  0.00     0.264 C 
BRANCH  22  23
HETATM   23  C9  UNL     1      36.871 -19.254  15.766  1.00  0.00     0.300 C 
BRANCH  23  24
HETATM   24  N6  UNL     1      35.772 -18.605  15.173  1.00  0.00     0.102 N 
HETATM   25  C10 UNL     1      34.486 -19.013  15.667  1.00  0.00     0.300 C 
HETATM   26  C11 UNL     1      34.564 -19.201  17.157  1.00  0.00     0.262 C 
HETATM   27  N7  UNL     1      34.787 -17.957  17.815  1.00  0.00    -0.073 N 
HETATM   28  C12 UNL     1      34.364 -16.842  17.047  1.00  0.00     0.235 C 
ATOM     29  H72 UNL     1      34.354 -17.950  18.738  1.00  0.00     0.277 HD
ATOM     30  H71 UNL     1      35.765 -17.860  18.090  1.00  0.00     0.277 HD
HETATM   31  C13 UNL     1      35.304 -16.302  16.041  1.00  0.00     0.070 C 
HETATM   32  C14 UNL     1      35.889 -17.185  15.023  1.00  0.00     0.285 C 
BRANCH  32  33
HETATM   33  C15 UNL     1      35.382 -16.807  13.672  1.00  0.00     0.267 C 
HETATM   34  O3  UNL     1      35.406 -17.483  12.688  1.00  0.00    -0.305 OA
ENDBRANCH  32  33
ENDBRANCH  23  24
ENDBRANCH  22  23
ENDBRANCH  19  22
ENDBRANCH  18  19
TORSDOF 5
ENDMDL
MODEL 4
REMARK VINA RESULT: -6.935899497      2.288      7.080
REMARK  5 active torsions:
REMARK  status: ('A' for Active; 'I' for Inactive)
REMARK    1  A    between atoms: C7_18  and  N5_19 
REMARK    2  A    between atoms: N5_19  and  C8_22 
REMARK    3  A    between atoms: C8_22  and  C9_23 
REMARK    4  A    between atoms: C9_23  and  N6_24 
REMARK    5  A    between atoms: C14_32  and  C15_33 
ROOT
HETATM    1  N1  UNL     1      33.550 -20.204  17.870  1.00  0.00    -0.234 N 
ATOM      2  H11 UNL     1      32.647 -20.104  18.333  1.00  0.00     0.174 HD
ATOM      3  H12 UNL     1      33.937 -21.126  17.665  1.00  0.00     0.174 HD
HETATM    4  C1  UNL     1      34.232 -19.165  17.532  1.00  0.00     0.679 A 
HETATM    5  N2  UNL     1      35.443 -19.301  16.911  1.00  0.00    -0.192 N 
ATOM      6  H2  UNL     1      35.802 -20.236  16.721  1.00  0.00     0.184 HD
HETATM    7  C2  UNL     1      36.165 -18.249  16.548  1.00  0.00     0.079 A 
HETATM    8  C3  UNL     1      35.688 -16.989  16.802  1.00  0.00     0.054 A 
HETATM    9  C4  UNL     1      34.440 -16.877  17.443  1.00  0.00     0.269 A 
HETATM   10  O1  UNL     1      34.007 -15.731  17.674  1.00  0.00    -0.267 OA
HETATM   11  N3  UNL     1      33.725 -17.958  17.800  1.00  0.00    -0.156 N 
ATOM     12  H3  UNL     1      32.821 -17.859  18.262  1.00  0.00     0.187 HD
HETATM   13  C5  UNL     1      36.433 -15.763  16.447  1.00  0.00     0.169 C 
HETATM   14  N4  UNL     1      37.173 -15.988  15.225  1.00  0.00    -0.354 N 
ATOM     15  H4  UNL     1      37.527 -15.198  14.687  1.00  0.00     0.162 HD
HETATM   16  C6  UNL     1      37.405 -17.330  14.774  1.00  0.00     0.255 C 
HETATM   17  O2  UNL     1      37.527 -17.589  13.567  1.00  0.00    -0.271 OA
HETATM   18  C7  UNL     1      37.483 -18.369  15.852  1.00  0.00     0.327 C 
ENDROOT
BRANCH  18  19
HETATM   19  N5  UNL     1      37.790 -19.663  15.385  1.00  0.00    -0.055 N 
ATOM     20  H52 UNL     1      37.095 -20.341  15.697  1.00  0.00     0.278 HD
ATOM     21  H51 UNL     1      37.646 -19.734  14.378  1.00  0.00     0.278 HD
BRANCH  19  22
HETATM   22  C8  UNL     1      39.115 -20.078  15.748  1.00  0.00     0.264 C 
BRANCH  22  23
HETATM   23  C9  UNL     1      40.108 -19.815  14.637  1.00  0.00     0.300 C 
BRANCH  23  24
HETATM   24  N6  UNL     1      40.952 -18.696  14.765  1.00  0.00     0.102 N 
HETATM   25  C10 UNL     1      42.283 -18.987  15.219  1.00  0.00     0.300 C 
HETATM   26  C11 UNL     1      42.767 -20.250  14.560  1.00  0.00     0.262 C 
HETATM   27  N7  UNL     1      42.933 -20.061  13.158  1.00  0.00    -0.073 N 
HETATM   28  C12 UNL     1      43.133 -18.702  12.803  1.00  0.00     0.235 C 
ATOM     29  H72 UNL     1      43.686 -20.646  12.798  1.00  0.00     0.277 HD
ATOM     30  H71 UNL     1      42.150 -20.461  12.640  1.00  0.00     0.277 HD
HETATM   31  C13 UNL     1      41.935 -17.855  12.620  1.00  0.00     0.070 C 
HETATM   32  C14 UNL     1      40.923 -17.761  13.680  1.00  0.00     0.285 C 
BRANCH  32  33
HETATM   33  C15 UNL     1      40.904 -16.380  14.244  1.00  0.00     0.267 C 
HETATM   34  O3  UNL     1      40.165 -15.495  13.936  1.00  0.00    -0.305 OA
ENDBRANCH  32  33
ENDBRANCH  23  24
ENDBRANCH  22  23
ENDBRANCH  19  22
ENDBRANCH  18  19
TORSDOF 5
ENDMDL
MODEL 5
REMARK VINA RESULT: -6.815764315      2.543      6.713
REMARK  5 active torsions:
REMARK  status: ('A' for Active; 'I' for Inactive)
REMARK    1  A    between atoms: C7_18  and  N5_19 
REMARK    2  A    between atoms: N5_19  and  C8_22 
REMARK    3  A    between atoms: C8_22  and  C9_23 
REMARK    4  A    between atoms: C9_23  and  N6_24 
REMARK    5  A    between atoms: C14_32  and  C15_33 
ROOT
HETATM    1  N1  UNL     1      35.209 -15.946  15.156  1.00  0.00    -0.234 N 
ATOM      2  H11 UNL     1      34.319 -16.301  15.508  1.00  0.00     0.174 HD
ATOM      3  H12 UNL     1      35.301 -14.982  14.836  1.00  0.00     0.174 HD
HETATM    4  C1  UNL     1      36.243 -16.711  15.102  1.00  0.00     0.679 A 
HETATM    5  N2  UNL     1      37.435 -16.235  14.629  1.00  0.00    -0.192 N 
ATOM      6  H2  UNL     1      37.494 -15.266  14.316  1.00  0.00     0.184 HD
HETATM    7  C2  UNL     1      38.518 -16.999  14.566  1.00  0.00     0.079 A 
HETATM    8  C3  UNL     1      38.444 -18.301  14.984  1.00  0.00     0.054 A 
HETATM    9  C4  UNL     1      37.206 -18.768  15.465  1.00  0.00     0.269 A 
HETATM   10  O1  UNL     1      37.140 -19.953  15.845  1.00  0.00    -0.267 OA
HETATM   11  N3  UNL     1      36.122 -17.975  15.522  1.00  0.00    -0.156 N 
ATOM     12  H3  UNL     1      35.232 -18.327  15.875  1.00  0.00     0.187 HD
HETATM   13  C5  UNL     1      39.596 -19.226  14.932  1.00  0.00     0.169 C 
HETATM   14  N4  UNL     1      40.815 -18.489  15.183  1.00  0.00    -0.354 N 
ATOM     15  H4  UNL     1      41.667 -18.981  15.448  1.00  0.00     0.162 HD
HETATM   16  C6  UNL     1      40.816 -17.060  15.056  1.00  0.00     0.255 C 
HETATM   17  O2  UNL     1      41.585 -16.357  15.729  1.00  0.00    -0.271 OA
HETATM   18  C7  UNL     1      39.836 -16.498  14.070  1.00  0.00     0.327 C 
ENDROOT
BRANCH  18  19
HETATM   19  N5  UNL     1      39.917 -15.100  13.910  1.00  0.00    -0.055 N 
ATOM     20  H52 UNL     1      39.029 -14.652  14.137  1.00  0.00     0.278 HD
ATOM     21  H51 UNL     1      40.501 -14.680  14.633  1.00  0.00     0.278 HD
BRANCH  19  22
HETATM   22  C8  UNL     1      40.365 -14.722  12.600  1.00  0.00     0.264 C 
BRANCH  22  23
HETATM   23  C9  UNL     1      41.872 -14.787  12.483  1.00  0.00     0.300 C 
BRANCH  23  24
HETATM   24  N6  UNL     1      42.415 -15.585  11.457  1.00  0.00     0.102 N 
HETATM   25  C10 UNL     1      43.846 -15.703  11.471  1.00  0.00     0.300 C 
HETATM   26  C11 UNL     1      44.318 -15.841  12.893  1.00  0.00     0.262 C 
HETATM   27  N7  UNL     1      43.883 -17.076  13.455  1.00  0.00    -0.073 N 
HETATM   28  C12 UNL     1      43.609 -18.064  12.474  1.00  0.00     0.235 C 
ATOM     29  H72 UNL     1      44.553 -17.421  14.141  1.00  0.00     0.277 HD
ATOM     30  H71 UNL     1      43.078 -16.935  14.065  1.00  0.00     0.277 HD
HETATM   31  C13 UNL     1      42.271 -18.056  11.844  1.00  0.00     0.070 C 
HETATM   32  C14 UNL     1      41.753 -16.832  11.217  1.00  0.00     0.285 C 
BRANCH  32  33
HETATM   33  C15 UNL     1      41.632 -17.030   9.743  1.00  0.00     0.267 C 
HETATM   34  O3  UNL     1      41.268 -18.020   9.184  1.00  0.00    -0.305 OA
ENDBRANCH  32  33
ENDBRANCH  23  24
ENDBRANCH  22  23
ENDBRANCH  19  22
ENDBRANCH  18  19
TORSDOF 5
ENDMDL
