MODEL 1
REMARK VINA RESULT: -7.596970054      0.000      0.000
REMARK  9 active torsions:
REMARK  status: ('A' for Active; 'I' for Inactive)
REMARK    1  A    between atoms: C2_2  and  N1_3 
REMARK    2  A    between atoms: N1_3  and  C3_5 
REMARK    3  A    between atoms: C6_13  and  C7_14 
REMARK    4  A    between atoms: C7_14  and  O2_15 
REMARK    5  A    between atoms: N4_17  and  C8_18 
REMARK    6  A    between atoms: C8_18  and  C9_19 
REMARK    7  A    between atoms: C9_19  and  N5_20 
REMARK    8  A    between atoms: N5_20  and  C10_22 
REMARK    9  A    between atoms: C11_25  and  N7_26 
ROOT
HETATM    1  C3  UNL     1      39.333 -21.125  15.649  1.00  0.00     0.682 A 
HETATM    2  N2  UNL     1      40.505 -21.536  15.133  1.00  0.00    -0.154 N 
ATOM      3  H2  UNL     1      40.842 -22.486  15.285  1.00  0.00     0.187 HD
HETATM    4  C4  UNL     1      41.216 -20.657  14.412  1.00  0.00     0.290 A 
HETATM    5  O1  UNL     1      42.324 -21.004  13.910  1.00  0.00    -0.265 OA
HETATM    6  C5  UNL     1      40.743 -19.376  14.218  1.00  0.00     0.148 A 
HETATM    7  N3  UNL     1      41.247 -18.314  13.549  1.00  0.00    -0.336 N 
ATOM      8  H3  UNL     1      42.128 -18.281  13.038  1.00  0.00     0.167 HD
HETATM    9  C6  UNL     1      40.353 -17.297  13.689  1.00  0.00     0.109 A 
HETATM   10  N4  UNL     1      39.312 -17.667  14.413  1.00  0.00    -0.317 N 
HETATM   11  C13 UNL     1      39.542 -18.974  14.754  1.00  0.00     0.157 A 
HETATM   12  N10 UNL     1      38.854 -19.860  15.464  1.00  0.00    -0.174 N 
ATOM     13  H10 UNL     1      37.959 -19.594  15.874  1.00  0.00     0.186 HD
ENDROOT
BRANCH  10  14
HETATM   14  C8  UNL     1      38.163 -16.919  14.801  1.00  0.00     0.152 C 
BRANCH  14  15
HETATM   15  C9  UNL     1      37.005 -16.962  13.862  1.00  0.00     0.158 C 
BRANCH  15  16
HETATM   16  N5  UNL     1      35.742 -16.586  14.381  1.00  0.00    -0.224 N 
ATOM     17  H5  UNL     1      35.251 -15.850  13.874  1.00  0.00     0.177 HD
BRANCH  16  18
HETATM   18  C10 UNL     1      35.146 -17.052  15.397  1.00  0.00     0.696 A 
HETATM   19  N6  UNL     1      34.690 -18.312  15.507  1.00  0.00    -0.022 N 
HETATM   20  C11 UNL     1      34.057 -18.735  16.639  1.00  0.00     0.694 A 
ATOM     21  H6  UNL     1      34.821 -18.962  14.732  1.00  0.00     0.203 HD
HETATM   22  N8  UNL     1      33.871 -17.911  17.666  1.00  0.00    -0.141 N 
HETATM   23  C12 UNL     1      34.317 -16.655  17.572  1.00  0.00     0.352 A 
ATOM     24  H8  UNL     1      33.396 -18.231  18.511  1.00  0.00     0.189 HD
HETATM   25  O3  UNL     1      34.158 -15.851  18.524  1.00  0.00    -0.246 OA
HETATM   26  N9  UNL     1      34.946 -16.236  16.448  1.00  0.00    -0.140 N 
ATOM     27  H9  UNL     1      35.279 -15.273  16.397  1.00  0.00     0.189 HD
BRANCH  20  28
HETATM   28  N7  UNL     1      33.622 -19.958  16.733  1.00  0.00    -0.234 N 
ATOM     29  H72 UNL     1      32.706 -20.183  16.344  1.00  0.00     0.174 HD
ATOM     30  H71 UNL     1      34.189 -20.675  17.185  1.00  0.00     0.174 HD
ENDBRANCH  20  28
ENDBRANCH  16  18
ENDBRANCH  15  16
ENDBRANCH  14  15
ENDBRANCH  10  14
BRANCH   9  31
HETATM   31  C7  UNL     1      40.566 -15.955  13.065  1.00  0.00     0.241 C 
BRANCH  31  32
HETATM   32  O2  UNL     1      41.270 -16.098  11.843  1.00  0.00    -0.393 OA
ATOM     33  H2  UNL     1      40.860 -15.568  11.170  1.00  0.00     0.209 HD
ENDBRANCH  31  32
ENDBRANCH   9  31
BRANCH   1  34
HETATM   34  N1  UNL     1      38.642 -21.949  16.338  1.00  0.00    -0.226 N 
ATOM     35  H1  UNL     1      37.731 -21.639  16.677  1.00  0.00     0.177 HD
BRANCH  34  36
HETATM   36  C2  UNL     1      39.059 -23.274  16.666  1.00  0.00     0.133 C 
HETATM   37  C1  UNL     1      39.291 -23.498  18.139  1.00  0.00     0.027 C 
ENDBRANCH  34  36
ENDBRANCH   1  34
TORSDOF 9
ENDMDL
MODEL 2
REMARK VINA RESULT: -7.569796547      2.297      6.132
REMARK  9 active torsions:
REMARK  status: ('A' for Active; 'I' for Inactive)
REMARK    1  A    between atoms: C2_2  and  N1_3 
REMARK    2  A    between atoms: N1_3  and  C3_5 
REMARK    3  A    between atoms: C6_13  and  C7_14 
REMARK    4  A    between atoms: C7_14  and  O2_15 
REMARK    5  A    between atoms: N4_17  and  C8_18 
REMARK    6  A    between atoms: C8_18  and  C9_19 
REMARK    7  A    between atoms: C9_19  and  N5_20 
REMARK    8  A    between atoms: N5_20  and  C10_22 
REMARK    9  A    between atoms: C11_25  and  N7_26 
ROOT
HETATM    1  C3  UNL     1      35.124 -18.680  16.933  1.00  0.00     0.682 A 
HETATM    2  N2  UNL     1      34.594 -17.462  16.726  1.00  0.00    -0.154 N 
ATOM      3  H2  UNL     1      33.683 -17.213  17.109  1.00  0.00     0.187 HD
HETATM    4  C4  UNL     1      35.301 -16.585  15.999  1.00  0.00     0.290 A 
HETATM    5  O1  UNL     1      34.837 -15.429  15.781  1.00  0.00    -0.265 OA
HETATM    6  C5  UNL     1      36.532 -16.941  15.489  1.00  0.00     0.148 A 
HETATM    7  N3  UNL     1      37.434 -16.266  14.739  1.00  0.00    -0.336 N 
ATOM      8  H3  UNL     1      37.346 -15.308  14.400  1.00  0.00     0.167 HD
HETATM    9  C6  UNL     1      38.479 -17.110  14.523  1.00  0.00     0.109 A 
HETATM   10  N4  UNL     1      38.281 -18.282  15.098  1.00  0.00    -0.317 N 
HETATM   11  C13 UNL     1      37.058 -18.192  15.711  1.00  0.00     0.157 A 
HETATM   12  N10 UNL     1      36.341 -19.044  16.433  1.00  0.00    -0.174 N 
ATOM     13  H10 UNL     1      36.704 -19.980  16.617  1.00  0.00     0.186 HD
ENDROOT
BRANCH  10  14
HETATM   14  C8  UNL     1      39.112 -19.438  15.115  1.00  0.00     0.152 C 
BRANCH  14  15
HETATM   15  C9  UNL     1      40.398 -19.310  15.859  1.00  0.00     0.158 C 
BRANCH  15  16
HETATM   16  N5  UNL     1      41.020 -20.512  16.278  1.00  0.00    -0.224 N 
ATOM     17  H5  UNL     1      41.936 -20.706  15.873  1.00  0.00     0.177 HD
BRANCH  16  18
HETATM   18  C10 UNL     1      40.581 -21.376  17.094  1.00  0.00     0.696 A 
HETATM   19  N6  UNL     1      39.840 -22.444  16.753  1.00  0.00    -0.022 N 
HETATM   20  C11 UNL     1      39.405 -23.329  17.696  1.00  0.00     0.694 A 
ATOM     21  H6  UNL     1      39.600 -22.596  15.774  1.00  0.00     0.203 HD
HETATM   22  N8  UNL     1      39.700 -23.157  18.982  1.00  0.00    -0.141 N 
HETATM   23  C12 UNL     1      40.435 -22.100  19.337  1.00  0.00     0.352 A 
ATOM     24  H8  UNL     1      39.372 -23.821  19.684  1.00  0.00     0.189 HD
HETATM   25  O3  UNL     1      40.733 -21.908  20.542  1.00  0.00    -0.246 OA
HETATM   26  N9  UNL     1      40.867 -21.223  18.400  1.00  0.00    -0.140 N 
ATOM     27  H9  UNL     1      41.427 -20.421  18.693  1.00  0.00     0.189 HD
BRANCH  20  28
HETATM   28  N7  UNL     1      38.688 -24.360  17.352  1.00  0.00    -0.234 N 
ATOM     29  H72 UNL     1      38.005 -24.253  16.603  1.00  0.00     0.174 HD
ATOM     30  H71 UNL     1      38.812 -25.256  17.824  1.00  0.00     0.174 HD
ENDBRANCH  20  28
ENDBRANCH  16  18
ENDBRANCH  15  16
ENDBRANCH  14  15
ENDBRANCH  10  14
BRANCH   9  31
HETATM   31  C7  UNL     1      39.685 -16.701  13.737  1.00  0.00     0.241 C 
BRANCH  31  32
HETATM   32  O2  UNL     1      40.283 -15.561  14.330  1.00  0.00    -0.393 OA
ATOM     33  H2  UNL     1      41.178 -15.471  14.026  1.00  0.00     0.209 HD
ENDBRANCH  31  32
ENDBRANCH   9  31
BRANCH   1  34
HETATM   34  N1  UNL     1      34.465 -19.529  17.624  1.00  0.00    -0.226 N 
ATOM     35  H1  UNL     1      34.806 -19.747  18.560  1.00  0.00     0.177 HD
BRANCH  34  36
HETATM   36  C2  UNL     1      33.284 -20.191  17.173  1.00  0.00     0.133 C 
HETATM   37  C1  UNL     1      32.216 -20.329  18.230  1.00  0.00     0.027 C 
ENDBRANCH  34  36
ENDBRANCH   1  34
TORSDOF 9
ENDMDL
MODEL 3
REMARK VINA RESULT: -7.451006990      2.253      6.533
REMARK  9 active torsions:
REMARK  status: ('A' for Active; 'I' for Inactive)
REMARK    1  A    between atoms: C2_2  and  N1_3 
REMARK    2  A    between atoms: N1_3  and  C3_5 
REMARK    3  A    between atoms: C6_13  and  C7_14 
REMARK    4  A    between atoms: C7_14  and  O2_15 
REMARK    5  A    between atoms: N4_17  and  C8_18 
REMARK    6  A    between atoms: C8_18  and  C9_19 
REMARK    7  A    between atoms: C9_19  and  N5_20 
REMARK    8  A    between atoms: N5_20  and  C10_22 
REMARK    9  A    between atoms: C11_25  and  N7_26 
ROOT
HETATM    1  C3  UNL     1      34.837 -18.942  16.143  1.00  0.00     0.682 A 
HETATM    2  N2  UNL     1      34.395 -17.674  16.078  1.00  0.00    -0.154 N 
ATOM      3  H2  UNL     1      33.433 -17.440  16.322  1.00  0.00     0.187 HD
HETATM    4  C4  UNL     1      35.258 -16.728  15.683  1.00  0.00     0.290 A 
HETATM    5  O1  UNL     1      34.881 -15.523  15.608  1.00  0.00    -0.265 OA
HETATM    6  C5  UNL     1      36.555 -17.065  15.357  1.00  0.00     0.148 A 
HETATM    7  N3  UNL     1      37.608 -16.326  14.937  1.00  0.00    -0.336 N 
ATOM      8  H3  UNL     1      37.618 -15.318  14.780  1.00  0.00     0.167 HD
HETATM    9  C6  UNL     1      38.650 -17.184  14.765  1.00  0.00     0.109 A 
HETATM   10  N4  UNL     1      38.307 -18.425  15.055  1.00  0.00    -0.317 N 
HETATM   11  C13 UNL     1      36.989 -18.368  15.429  1.00  0.00     0.157 A 
HETATM   12  N10 UNL     1      36.118 -19.289  15.824  1.00  0.00    -0.174 N 
ATOM     13  H10 UNL     1      36.409 -20.264  15.889  1.00  0.00     0.186 HD
ENDROOT
BRANCH  10  14
HETATM   14  C8  UNL     1      39.084 -19.618  15.006  1.00  0.00     0.152 C 
BRANCH  14  15
HETATM   15  C9  UNL     1      40.094 -19.787  16.090  1.00  0.00     0.158 C 
BRANCH  15  16
HETATM   16  N5  UNL     1      39.973 -20.938  16.907  1.00  0.00    -0.224 N 
ATOM     17  H5  UNL     1      39.835 -20.767  17.903  1.00  0.00     0.177 HD
BRANCH  16  18
HETATM   18  C10 UNL     1      40.014 -22.154  16.554  1.00  0.00     0.696 A 
HETATM   19  N6  UNL     1      40.908 -22.671  15.694  1.00  0.00    -0.022 N 
HETATM   20  C11 UNL     1      40.883 -23.996  15.365  1.00  0.00     0.694 A 
ATOM     21  H6  UNL     1      41.616 -22.065  15.281  1.00  0.00     0.203 HD
HETATM   22  N8  UNL     1      39.971 -24.812  15.886  1.00  0.00    -0.141 N 
HETATM   23  C12 UNL     1      39.076 -24.312  16.742  1.00  0.00     0.352 A 
ATOM     24  H8  UNL     1      39.956 -25.801  15.637  1.00  0.00     0.189 HD
HETATM   25  O3  UNL     1      38.201 -25.055  17.253  1.00  0.00    -0.246 OA
HETATM   26  N9  UNL     1      39.101 -22.998  17.068  1.00  0.00    -0.140 N 
ATOM     27  H9  UNL     1      38.407 -22.637  17.724  1.00  0.00     0.189 HD
BRANCH  20  28
HETATM   28  N7  UNL     1      41.756 -24.484  14.532  1.00  0.00    -0.234 N 
ATOM     29  H72 UNL     1      42.513 -23.883  14.207  1.00  0.00     0.174 HD
ATOM     30  H71 UNL     1      41.680 -25.450  14.213  1.00  0.00     0.174 HD
ENDBRANCH  20  28
ENDBRANCH  16  18
ENDBRANCH  15  16
ENDBRANCH  14  15
ENDBRANCH  10  14
BRANCH   9  31
HETATM   31  C7  UNL     1      39.999 -16.719  14.318  1.00  0.00     0.241 C 
BRANCH  31  32
HETATM   32  O2  UNL     1      40.091 -15.310  14.444  1.00  0.00    -0.393 OA
ATOM     33  H2  UNL     1      39.902 -14.898  13.610  1.00  0.00     0.209 HD
ENDBRANCH  31  32
ENDBRANCH   9  31
BRANCH   1  34
HETATM   34  N1  UNL     1      34.029 -19.857  16.519  1.00  0.00    -0.226 N 
ATOM     35  H1  UNL     1      33.680 -20.503  15.811  1.00  0.00     0.177 HD
BRANCH  34  36
HETATM   36  C2  UNL     1      33.582 -20.036  17.863  1.00  0.00     0.133 C 
HETATM   37  C1  UNL     1      32.125 -20.409  17.981  1.00  0.00     0.027 C 
ENDBRANCH  34  36
ENDBRANCH   1  34
TORSDOF 9
ENDMDL
MODEL 4
REMARK VINA RESULT: -7.444117209      1.924      6.544
REMARK  9 active torsions:
REMARK  status: ('A' for Active; 'I' for Inactive)
REMARK    1  A    between atoms: C2_2  and  N1_3 
REMARK    2  A    between atoms: N1_3  and  C3_5 
REMARK    3  A    between atoms: C6_13  and  C7_14 
REMARK    4  A    between atoms: C7_14  and  O2_15 
REMARK    5  A    between atoms: N4_17  and  C8_18 
REMARK    6  A    between atoms: C8_18  and  C9_19 
REMARK    7  A    between atoms: C9_19  and  N5_20 
REMARK    8  A    between atoms: N5_20  and  C10_22 
REMARK    9  A    between atoms: C11_25  and  N7_26 
ROOT
HETATM    1  C3  UNL     1      35.038 -18.707  16.903  1.00  0.00     0.682 A 
HETATM    2  N2  UNL     1      34.539 -17.473  16.707  1.00  0.00    -0.154 N 
ATOM      3  H2  UNL     1      33.630 -17.208  17.085  1.00  0.00     0.187 HD
HETATM    4  C4  UNL     1      35.275 -16.604  16.001  1.00  0.00     0.290 A 
HETATM    5  O1  UNL     1      34.841 -15.433  15.794  1.00  0.00    -0.265 OA
HETATM    6  C5  UNL     1      36.503 -16.981  15.499  1.00  0.00     0.148 A 
HETATM    7  N3  UNL     1      37.428 -16.318  14.768  1.00  0.00    -0.336 N 
ATOM      8  H3  UNL     1      37.368 -15.353  14.443  1.00  0.00     0.167 HD
HETATM    9  C6  UNL     1      38.456 -17.184  14.551  1.00  0.00     0.109 A 
HETATM   10  N4  UNL     1      38.223 -18.358  15.107  1.00  0.00    -0.317 N 
HETATM   11  C13 UNL     1      36.996 -18.247  15.708  1.00  0.00     0.157 A 
HETATM   12  N10 UNL     1      36.251 -19.093  16.411  1.00  0.00    -0.174 N 
ATOM     13  H10 UNL     1      36.589 -20.039  16.585  1.00  0.00     0.186 HD
ENDROOT
BRANCH  10  14
HETATM   14  C8  UNL     1      39.026 -19.535  15.116  1.00  0.00     0.152 C 
BRANCH  14  15
HETATM   15  C9  UNL     1      40.126 -19.570  16.124  1.00  0.00     0.158 C 
BRANCH  15  16
HETATM   16  N5  UNL     1      40.206 -20.720  16.947  1.00  0.00    -0.224 N 
ATOM     17  H5  UNL     1      40.318 -20.548  17.946  1.00  0.00     0.177 HD
BRANCH  16  18
HETATM   18  C10 UNL     1      40.156 -21.936  16.596  1.00  0.00     0.696 A 
HETATM   19  N6  UNL     1      39.230 -22.816  17.014  1.00  0.00    -0.022 N 
HETATM   20  C11 UNL     1      39.247 -24.112  16.587  1.00  0.00     0.694 A 
ATOM     21  H6  UNL     1      38.502 -22.510  17.660  1.00  0.00     0.203 HD
HETATM   22  N8  UNL     1      40.183 -24.541  15.746  1.00  0.00    -0.141 N 
HETATM   23  C12 UNL     1      41.112 -23.679  15.322  1.00  0.00     0.352 A 
ATOM     24  H8  UNL     1      40.193 -25.512  15.430  1.00  0.00     0.189 HD
HETATM   25  O3  UNL     1      42.010 -24.052  14.527  1.00  0.00    -0.246 OA
HETATM   26  N9  UNL     1      41.093 -22.393  15.746  1.00  0.00    -0.140 N 
ATOM     27  H9  UNL     1      41.812 -21.751  15.410  1.00  0.00     0.189 HD
BRANCH  20  28
HETATM   28  N7  UNL     1      38.343 -24.954  16.999  1.00  0.00    -0.234 N 
ATOM     29  H72 UNL     1      38.009 -25.668  16.352  1.00  0.00     0.174 HD
ATOM     30  H71 UNL     1      37.981 -24.897  17.950  1.00  0.00     0.174 HD
ENDBRANCH  20  28
ENDBRANCH  16  18
ENDBRANCH  15  16
ENDBRANCH  14  15
ENDBRANCH  10  14
BRANCH   9  31
HETATM   31  C7  UNL     1      39.679 -16.793  13.784  1.00  0.00     0.241 C 
BRANCH  31  32
HETATM   32  O2  UNL     1      40.241 -15.616  14.340  1.00  0.00    -0.393 OA
ATOM     33  H2  UNL     1      41.026 -15.377  13.863  1.00  0.00     0.209 HD
ENDBRANCH  31  32
ENDBRANCH   9  31
BRANCH   1  34
HETATM   34  N1  UNL     1      34.351 -19.549  17.574  1.00  0.00    -0.226 N 
ATOM     35  H1  UNL     1      34.697 -19.817  18.496  1.00  0.00     0.177 HD
BRANCH  34  36
HETATM   36  C2  UNL     1      33.134 -20.139  17.121  1.00  0.00     0.133 C 
HETATM   37  C1  UNL     1      32.131 -20.396  18.218  1.00  0.00     0.027 C 
ENDBRANCH  34  36
ENDBRANCH   1  34
TORSDOF 9
ENDMDL
MODEL 5
REMARK VINA RESULT: -7.435883201      2.261      6.325
REMARK  9 active torsions:
REMARK  status: ('A' for Active; 'I' for Inactive)
REMARK    1  A    between atoms: C2_2  and  N1_3 
REMARK    2  A    between atoms: N1_3  and  C3_5 
REMARK    3  A    between atoms: C6_13  and  C7_14 
REMARK    4  A    between atoms: C7_14  and  O2_15 
REMARK    5  A    between atoms: N4_17  and  C8_18 
REMARK    6  A    between atoms: C8_18  and  C9_19 
REMARK    7  A    between atoms: C9_19  and  N5_20 
REMARK    8  A    between atoms: N5_20  and  C10_22 
REMARK    9  A    between atoms: C11_25  and  N7_26 
ROOT
HETATM    1  C3  UNL     1      35.109 -18.713  16.949  1.00  0.00     0.682 A 
HETATM    2  N2  UNL     1      34.611 -17.476  16.771  1.00  0.00    -0.154 N 
ATOM      3  H2  UNL     1      33.710 -17.210  17.167  1.00  0.00     0.187 HD
HETATM    4  C4  UNL     1      35.337 -16.604  16.057  1.00  0.00     0.290 A 
HETATM    5  O1  UNL     1      34.903 -15.431  15.867  1.00  0.00    -0.265 OA
HETATM    6  C5  UNL     1      36.554 -16.983  15.530  1.00  0.00     0.148 A 
HETATM    7  N3  UNL     1      37.468 -16.317  14.788  1.00  0.00    -0.336 N 
ATOM      8  H3  UNL     1      37.405 -15.350  14.470  1.00  0.00     0.167 HD
HETATM    9  C6  UNL     1      38.488 -17.184  14.546  1.00  0.00     0.109 A 
HETATM   10  N4  UNL     1      38.262 -18.362  15.098  1.00  0.00    -0.317 N 
HETATM   11  C13 UNL     1      37.046 -18.252  15.722  1.00  0.00     0.157 A 
HETATM   12  N10 UNL     1      36.312 -19.099  16.432  1.00  0.00    -0.174 N 
ATOM     13  H10 UNL     1      36.650 -20.048  16.594  1.00  0.00     0.186 HD
ENDROOT
BRANCH  10  14
HETATM   14  C8  UNL     1      39.061 -19.541  15.084  1.00  0.00     0.152 C 
BRANCH  14  15
HETATM   15  C9  UNL     1      40.169 -19.594  16.081  1.00  0.00     0.158 C 
BRANCH  15  16
HETATM   16  N5  UNL     1      40.753 -20.861  16.327  1.00  0.00    -0.224 N 
ATOM     17  H5  UNL     1      41.639 -21.043  15.857  1.00  0.00     0.177 HD
BRANCH  16  18
HETATM   18  C10 UNL     1      40.310 -21.796  17.059  1.00  0.00     0.696 A 
HETATM   19  N6  UNL     1      40.505 -21.887  18.386  1.00  0.00    -0.022 N 
HETATM   20  C11 UNL     1      39.993 -22.929  19.103  1.00  0.00     0.694 A 
ATOM     21  H6  UNL     1      41.044 -21.165  18.864  1.00  0.00     0.203 HD
HETATM   22  N8  UNL     1      39.287 -23.886  18.507  1.00  0.00    -0.141 N 
HETATM   23  C12 UNL     1      39.085 -23.810  17.188  1.00  0.00     0.352 A 
ATOM     24  H8  UNL     1      38.907 -24.664  19.046  1.00  0.00     0.189 HD
HETATM   25  O3  UNL     1      38.423 -24.696  16.594  1.00  0.00    -0.246 OA
HETATM   26  N9  UNL     1      39.593 -22.775  16.478  1.00  0.00    -0.140 N 
ATOM     27  H9  UNL     1      39.428 -22.736  15.472  1.00  0.00     0.189 HD
BRANCH  20  28
HETATM   28  N7  UNL     1      40.189 -23.005  20.387  1.00  0.00    -0.234 N 
ATOM     29  H72 UNL     1      40.837 -23.707  20.743  1.00  0.00     0.174 HD
ATOM     30  H71 UNL     1      39.702 -22.372  21.022  1.00  0.00     0.174 HD
ENDBRANCH  20  28
ENDBRANCH  16  18
ENDBRANCH  15  16
ENDBRANCH  14  15
ENDBRANCH  10  14
BRANCH   9  31
HETATM   31  C7  UNL     1      39.699 -16.792  13.760  1.00  0.00     0.241 C 
BRANCH  31  32
HETATM   32  O2  UNL     1      40.234 -15.583  14.269  1.00  0.00    -0.393 OA
ATOM     33  H2  UNL     1      40.883 -15.238  13.668  1.00  0.00     0.209 HD
ENDBRANCH  31  32
ENDBRANCH   9  31
BRANCH   1  34
HETATM   34  N1  UNL     1      34.432 -19.557  17.627  1.00  0.00    -0.226 N 
ATOM     35  H1  UNL     1      34.766 -19.795  18.561  1.00  0.00     0.177 HD
BRANCH  34  36
HETATM   36  C2  UNL     1      33.239 -20.190  17.165  1.00  0.00     0.133 C 
HETATM   37  C1  UNL     1      32.192 -20.381  18.235  1.00  0.00     0.027 C 
ENDBRANCH  34  36
ENDBRANCH   1  34
TORSDOF 9
ENDMDL
