MODEL 1
REMARK VINA RESULT: -7.129558057      0.000      0.000
REMARK  9 active torsions:
REMARK  status: ('A' for Active; 'I' for Inactive)
REMARK    1  A    between atoms: S1_2  and  N1_5 
REMARK    2  A    between atoms: N1_5  and  C2_7 
REMARK    3  A    between atoms: C4_11  and  N3_12 
REMARK    4  A    between atoms: N3_12  and  C5_14 
REMARK    5  A    between atoms: C5_14  and  C6_15 
REMARK    6  A    between atoms: C6_15  and  C7_16 
REMARK    7  A    between atoms: C7_16  and  N4_17 
REMARK    8  A    between atoms: N4_17  and  C8_19 
REMARK    9  A    between atoms: C11_25  and  N7_26 
ROOT
HETATM    1  N3  UNL     1      38.839 -15.673  14.409  1.00  0.00    -0.374 N 
ATOM      2  H3  UNL     1      38.331 -15.053  15.040  1.00  0.00     0.161 HD
ENDROOT
BRANCH   1   3
HETATM    3  C4  UNL     1      39.997 -15.336  14.036  1.00  0.00     0.132 A 
HETATM    4  C3  UNL     1      40.168 -14.586  12.881  1.00  0.00     0.155 A 
HETATM    5  N2  UNL     1      41.391 -14.215  12.461  1.00  0.00    -0.196 N 
HETATM    6  C2  UNL     1      42.475 -14.564  13.156  1.00  0.00     0.706 A 
ATOM      7  H2  UNL     1      41.490 -13.663  11.609  1.00  0.00     0.183 HD
HETATM    8  N10 UNL     1      42.300 -15.289  14.272  1.00  0.00    -0.130 N 
HETATM    9  N9  UNL     1      41.092 -15.677  14.717  1.00  0.00    -0.270 N 
ATOM     10  H10 UNL     1      43.124 -15.560  14.809  1.00  0.00     0.205 HD
ATOM     11  H9  UNL     1      41.012 -16.228  15.572  1.00  0.00     0.189 HD
BRANCH   6  12
HETATM   12  N1  UNL     1      43.682 -14.246  12.820  1.00  0.00    -0.115 N 
ATOM     13  H1  UNL     1      43.899 -14.145  11.829  1.00  0.00     0.197 HD
BRANCH  12  14
HETATM   14  S1  UNL     1      44.936 -13.987  13.962  1.00  0.00     0.240 S 
HETATM   15  C1  UNL     1      46.439 -13.452  13.224  1.00  0.00     0.186 C 
HETATM   16  O1  UNL     1      44.466 -12.924  14.920  1.00  0.00    -0.206 OA
HETATM   17  O2  UNL     1      45.204 -15.244  14.726  1.00  0.00    -0.206 OA
ENDBRANCH  12  14
ENDBRANCH   6  12
ENDBRANCH   1   3
BRANCH   1  18
HETATM   18  C5  UNL     1      38.210 -16.875  13.989  1.00  0.00     0.123 C 
BRANCH  18  19
HETATM   19  C6  UNL     1      38.946 -18.108  14.537  1.00  0.00     0.039 C 
BRANCH  19  20
HETATM   20  C7  UNL     1      38.276 -18.393  15.887  1.00  0.00     0.123 C 
BRANCH  20  21
HETATM   21  N4  UNL     1      37.041 -19.071  15.610  1.00  0.00    -0.376 N 
ATOM     22  H4  UNL     1      37.001 -19.773  14.870  1.00  0.00     0.161 HD
BRANCH  21  23
HETATM   23  C8  UNL     1      35.990 -18.797  16.291  1.00  0.00     0.120 A 
HETATM   24  C9  UNL     1      35.679 -17.467  16.608  1.00  0.00     0.094 A 
HETATM   25  C10 UNL     1      34.565 -17.126  17.335  1.00  0.00     0.135 A 
HETATM   26  N5  UNL     1      34.254 -15.762  17.657  1.00  0.00    -0.082 NA
HETATM   27  N6  UNL     1      33.740 -18.109  17.758  1.00  0.00    -0.179 N 
HETATM   28  C11 UNL     1      34.022 -19.385  17.463  1.00  0.00     0.678 A 
ATOM     29  H6  UNL     1      32.906 -17.881  18.300  1.00  0.00     0.185 HD
HETATM   30  N8  UNL     1      35.119 -19.713  16.748  1.00  0.00    -0.177 N 
ATOM     31  H8  UNL     1      35.295 -20.697  16.546  1.00  0.00     0.185 HD
BRANCH  28  32
HETATM   32  N7  UNL     1      33.207 -20.299  17.887  1.00  0.00    -0.234 N 
ATOM     33  H72 UNL     1      32.198 -20.176  17.811  1.00  0.00     0.174 HD
ATOM     34  H71 UNL     1      33.609 -21.142  18.298  1.00  0.00     0.174 HD
ENDBRANCH  28  32
ENDBRANCH  21  23
ENDBRANCH  20  21
ENDBRANCH  19  20
ENDBRANCH  18  19
ENDBRANCH   1  18
TORSDOF 9
ENDMDL
MODEL 2
REMARK VINA RESULT: -7.096269679      5.400      6.884
REMARK  9 active torsions:
REMARK  status: ('A' for Active; 'I' for Inactive)
REMARK    1  A    between atoms: S1_2  and  N1_5 
REMARK    2  A    between atoms: N1_5  and  C2_7 
REMARK    3  A    between atoms: C4_11  and  N3_12 
REMARK    4  A    between atoms: N3_12  and  C5_14 
REMARK    5  A    between atoms: C5_14  and  C6_15 
REMARK    6  A    between atoms: C6_15  and  C7_16 
REMARK    7  A    between atoms: C7_16  and  N4_17 
REMARK    8  A    between atoms: N4_17  and  C8_19 
REMARK    9  A    between atoms: C11_25  and  N7_26 
ROOT
HETATM    1  N3  UNL     1      39.304 -18.803  14.707  1.00  0.00    -0.374 N 
ATOM      2  H3  UNL     1      39.755 -18.434  13.870  1.00  0.00     0.161 HD
ENDROOT
BRANCH   1   3
HETATM    3  C4  UNL     1      39.580 -19.981  15.070  1.00  0.00     0.132 A 
HETATM    4  C3  UNL     1      40.785 -20.562  14.699  1.00  0.00     0.155 A 
HETATM    5  N2  UNL     1      41.103 -21.814  15.072  1.00  0.00    -0.196 N 
HETATM    6  C2  UNL     1      40.256 -22.530  15.813  1.00  0.00     0.706 A 
ATOM      7  H2  UNL     1      41.995 -22.218  14.787  1.00  0.00     0.183 HD
HETATM    8  N10 UNL     1      39.093 -21.961  16.167  1.00  0.00    -0.130 N 
HETATM    9  N9  UNL     1      38.746 -20.712  15.810  1.00  0.00    -0.270 N 
ATOM     10  H10 UNL     1      38.441 -22.502  16.734  1.00  0.00     0.205 HD
ATOM     11  H9  UNL     1      37.849 -20.325  16.104  1.00  0.00     0.189 HD
BRANCH   6  12
HETATM   12  N1  UNL     1      40.487 -23.738  16.211  1.00  0.00    -0.115 N 
ATOM     13  H1  UNL     1      41.347 -24.194  15.906  1.00  0.00     0.197 HD
BRANCH  12  14
HETATM   14  S1  UNL     1      39.417 -24.612  17.228  1.00  0.00     0.240 S 
HETATM   15  C1  UNL     1      40.088 -26.137  17.786  1.00  0.00     0.186 C 
HETATM   16  O1  UNL     1      39.123 -23.749  18.428  1.00  0.00    -0.206 OA
HETATM   17  O2  UNL     1      38.137 -24.893  16.508  1.00  0.00    -0.206 OA
ENDBRANCH  12  14
ENDBRANCH   6  12
ENDBRANCH   1   3
BRANCH   1  18
HETATM   18  C5  UNL     1      38.395 -17.970  15.411  1.00  0.00     0.123 C 
BRANCH  18  19
HETATM   19  C6  UNL     1      38.085 -16.690  14.618  1.00  0.00     0.039 C 
BRANCH  19  20
HETATM   20  C7  UNL     1      37.007 -17.110  13.611  1.00  0.00     0.123 C 
BRANCH  20  21
HETATM   21  N4  UNL     1      35.767 -16.541  14.061  1.00  0.00    -0.376 N 
ATOM     22  H4  UNL     1      35.345 -15.767  13.546  1.00  0.00     0.161 HD
BRANCH  21  23
HETATM   23  C8  UNL     1      35.190 -17.004  15.108  1.00  0.00     0.120 A 
HETATM   24  C9  UNL     1      34.961 -16.176  16.215  1.00  0.00     0.094 A 
HETATM   25  C10 UNL     1      34.346 -16.628  17.358  1.00  0.00     0.135 A 
HETATM   26  N5  UNL     1      34.116 -15.773  18.487  1.00  0.00    -0.082 NA
HETATM   27  N6  UNL     1      33.950 -17.919  17.413  1.00  0.00    -0.179 N 
HETATM   28  C11 UNL     1      34.161 -18.724  16.364  1.00  0.00     0.678 A 
ATOM     29  H6  UNL     1      33.492 -18.279  18.251  1.00  0.00     0.185 HD
HETATM   30  N8  UNL     1      34.765 -18.272  15.244  1.00  0.00    -0.177 N 
ATOM     31  H8  UNL     1      34.905 -18.920  14.468  1.00  0.00     0.185 HD
BRANCH  28  32
HETATM   32  N7  UNL     1      33.767 -19.955  16.456  1.00  0.00    -0.234 N 
ATOM     33  H72 UNL     1      34.245 -20.697  15.945  1.00  0.00     0.174 HD
ATOM     34  H71 UNL     1      32.966 -20.155  17.055  1.00  0.00     0.174 HD
ENDBRANCH  28  32
ENDBRANCH  21  23
ENDBRANCH  20  21
ENDBRANCH  19  20
ENDBRANCH  18  19
ENDBRANCH   1  18
TORSDOF 9
ENDMDL
MODEL 3
REMARK VINA RESULT: -7.046895771      1.556      1.982
REMARK  9 active torsions:
REMARK  status: ('A' for Active; 'I' for Inactive)
REMARK    1  A    between atoms: S1_2  and  N1_5 
REMARK    2  A    between atoms: N1_5  and  C2_7 
REMARK    3  A    between atoms: C4_11  and  N3_12 
REMARK    4  A    between atoms: N3_12  and  C5_14 
REMARK    5  A    between atoms: C5_14  and  C6_15 
REMARK    6  A    between atoms: C6_15  and  C7_16 
REMARK    7  A    between atoms: C7_16  and  N4_17 
REMARK    8  A    between atoms: N4_17  and  C8_19 
REMARK    9  A    between atoms: C11_25  and  N7_26 
ROOT
HETATM    1  N3  UNL     1      40.479 -16.930  15.067  1.00  0.00    -0.374 N 
ATOM      2  H3  UNL     1      40.497 -17.323  16.008  1.00  0.00     0.161 HD
ENDROOT
BRANCH   1   3
HETATM    3  C4  UNL     1      41.410 -16.148  14.723  1.00  0.00     0.132 A 
HETATM    4  C3  UNL     1      42.684 -16.304  15.251  1.00  0.00     0.155 A 
HETATM    5  N2  UNL     1      43.691 -15.484  14.902  1.00  0.00    -0.196 N 
HETATM    6  C2  UNL     1      43.483 -14.495  14.032  1.00  0.00     0.706 A 
ATOM      7  H2  UNL     1      44.619 -15.620  15.304  1.00  0.00     0.183 HD
HETATM    8  N10 UNL     1      42.248 -14.352  13.526  1.00  0.00    -0.130 N 
HETATM    9  N9  UNL     1      41.220 -15.153  13.855  1.00  0.00    -0.270 N 
ATOM     10  H10 UNL     1      42.081 -13.598  12.860  1.00  0.00     0.205 HD
ATOM     11  H9  UNL     1      40.299 -15.002  13.443  1.00  0.00     0.189 HD
BRANCH   6  12
HETATM   12  N1  UNL     1      44.398 -13.667  13.646  1.00  0.00    -0.115 N 
ATOM     13  H1  UNL     1      44.499 -13.485  12.648  1.00  0.00     0.197 HD
BRANCH  12  14
HETATM   14  S1  UNL     1      45.451 -12.861  14.734  1.00  0.00     0.240 S 
HETATM   15  C1  UNL     1      47.007 -12.465  14.020  1.00  0.00     0.186 C 
HETATM   16  O1  UNL     1      44.777 -11.582  15.156  1.00  0.00    -0.206 OA
HETATM   17  O2  UNL     1      45.687 -13.707  15.945  1.00  0.00    -0.206 OA
ENDBRANCH  12  14
ENDBRANCH   6  12
ENDBRANCH   1   3
BRANCH   1  18
HETATM   18  C5  UNL     1      39.409 -17.285  14.204  1.00  0.00     0.123 C 
BRANCH  18  19
HETATM   19  C6  UNL     1      38.076 -16.705  14.702  1.00  0.00     0.039 C 
BRANCH  19  20
HETATM   20  C7  UNL     1      37.082 -16.988  13.569  1.00  0.00     0.123 C 
BRANCH  20  21
HETATM   21  N4  UNL     1      35.806 -16.482  13.993  1.00  0.00    -0.376 N 
ATOM     22  H4  UNL     1      35.355 -15.732  13.467  1.00  0.00     0.161 HD
BRANCH  21  23
HETATM   23  C8  UNL     1      35.233 -16.971  15.032  1.00  0.00     0.120 A 
HETATM   24  C9  UNL     1      34.993 -16.164  16.153  1.00  0.00     0.094 A 
HETATM   25  C10 UNL     1      34.383 -16.644  17.286  1.00  0.00     0.135 A 
HETATM   26  N5  UNL     1      34.140 -15.812  18.430  1.00  0.00    -0.082 NA
HETATM   27  N6  UNL     1      34.002 -17.941  17.319  1.00  0.00    -0.179 N 
HETATM   28  C11 UNL     1      34.225 -18.725  16.255  1.00  0.00     0.678 A 
ATOM     29  H6  UNL     1      33.548 -18.321  18.149  1.00  0.00     0.185 HD
HETATM   30  N8  UNL     1      34.824 -18.246  15.145  1.00  0.00    -0.177 N 
ATOM     31  H8  UNL     1      34.974 -18.878  14.358  1.00  0.00     0.185 HD
BRANCH  28  32
HETATM   32  N7  UNL     1      33.846 -19.962  16.326  1.00  0.00    -0.234 N 
ATOM     33  H72 UNL     1      34.527 -20.711  16.446  1.00  0.00     0.174 HD
ATOM     34  H71 UNL     1      32.848 -20.159  16.257  1.00  0.00     0.174 HD
ENDBRANCH  28  32
ENDBRANCH  21  23
ENDBRANCH  20  21
ENDBRANCH  19  20
ENDBRANCH  18  19
ENDBRANCH   1  18
TORSDOF 9
ENDMDL
MODEL 4
REMARK VINA RESULT: -7.044308220      4.842      5.915
REMARK  9 active torsions:
REMARK  status: ('A' for Active; 'I' for Inactive)
REMARK    1  A    between atoms: S1_2  and  N1_5 
REMARK    2  A    between atoms: N1_5  and  C2_7 
REMARK    3  A    between atoms: C4_11  and  N3_12 
REMARK    4  A    between atoms: N3_12  and  C5_14 
REMARK    5  A    between atoms: C5_14  and  C6_15 
REMARK    6  A    between atoms: C6_15  and  C7_16 
REMARK    7  A    between atoms: C7_16  and  N4_17 
REMARK    8  A    between atoms: N4_17  and  C8_19 
REMARK    9  A    between atoms: C11_25  and  N7_26 
ROOT
HETATM    1  N3  UNL     1      38.125 -17.365  15.447  1.00  0.00    -0.374 N 
ATOM      2  H3  UNL     1      37.764 -17.004  16.330  1.00  0.00     0.161 HD
ENDROOT
BRANCH   1   3
HETATM    3  C4  UNL     1      38.648 -18.514  15.434  1.00  0.00     0.132 A 
HETATM    4  C3  UNL     1      39.943 -18.687  14.966  1.00  0.00     0.155 A 
HETATM    5  N2  UNL     1      40.523 -19.900  14.942  1.00  0.00    -0.196 N 
HETATM    6  C2  UNL     1      39.857 -20.972  15.373  1.00  0.00     0.706 A 
ATOM      7  H2  UNL     1      41.477 -20.000  14.594  1.00  0.00     0.183 HD
HETATM    8  N10 UNL     1      38.605 -20.796  15.823  1.00  0.00    -0.130 N 
HETATM    9  N9  UNL     1      37.997 -19.597  15.860  1.00  0.00    -0.270 N 
ATOM     10  H10 UNL     1      38.089 -21.611  16.154  1.00  0.00     0.205 HD
ATOM     11  H9  UNL     1      37.043 -19.517  16.211  1.00  0.00     0.189 HD
BRANCH   6  12
HETATM   12  N1  UNL     1      40.344 -22.170  15.382  1.00  0.00    -0.115 N 
ATOM     13  H1  UNL     1      40.895 -22.477  14.580  1.00  0.00     0.197 HD
BRANCH  12  14
HETATM   14  S1  UNL     1      40.108 -23.268  16.678  1.00  0.00     0.240 S 
HETATM   15  C1  UNL     1      41.208 -24.638  16.629  1.00  0.00     0.186 C 
HETATM   16  O1  UNL     1      40.338 -22.513  17.962  1.00  0.00    -0.206 OA
HETATM   17  O2  UNL     1      38.705 -23.787  16.666  1.00  0.00    -0.206 OA
ENDBRANCH  12  14
ENDBRANCH   6  12
ENDBRANCH   1   3
BRANCH   1  18
HETATM   18  C5  UNL     1      38.017 -16.551  14.288  1.00  0.00     0.123 C 
BRANCH  18  19
HETATM   19  C6  UNL     1      37.171 -17.237  13.204  1.00  0.00     0.039 C 
BRANCH  19  20
HETATM   20  C7  UNL     1      35.728 -16.821  13.515  1.00  0.00     0.123 C 
BRANCH  20  21
HETATM   21  N4  UNL     1      35.037 -17.999  13.959  1.00  0.00    -0.376 N 
ATOM     22  H4  UNL     1      34.874 -18.769  13.309  1.00  0.00     0.161 HD
BRANCH  21  23
HETATM   23  C8  UNL     1      34.624 -18.085  15.171  1.00  0.00     0.120 A 
HETATM   24  C9  UNL     1      34.711 -16.979  16.027  1.00  0.00     0.094 A 
HETATM   25  C10 UNL     1      34.282 -17.023  17.332  1.00  0.00     0.135 A 
HETATM   26  N5  UNL     1      34.375 -15.886  18.203  1.00  0.00    -0.082 NA
HETATM   27  N6  UNL     1      33.757 -18.176  17.802  1.00  0.00    -0.179 N 
HETATM   28  C11 UNL     1      33.666 -19.242  16.996  1.00  0.00     0.678 A 
ATOM     29  H6  UNL     1      33.432 -18.235  18.767  1.00  0.00     0.185 HD
HETATM   30  N8  UNL     1      34.090 -19.191  15.715  1.00  0.00    -0.177 N 
ATOM     31  H8  UNL     1      34.001 -20.026  15.137  1.00  0.00     0.185 HD
BRANCH  28  32
HETATM   32  N7  UNL     1      33.158 -20.329  17.485  1.00  0.00    -0.234 N 
ATOM     33  H72 UNL     1      33.666 -20.878  18.178  1.00  0.00     0.174 HD
ATOM     34  H71 UNL     1      32.237 -20.615  17.154  1.00  0.00     0.174 HD
ENDBRANCH  28  32
ENDBRANCH  21  23
ENDBRANCH  20  21
ENDBRANCH  19  20
ENDBRANCH  18  19
ENDBRANCH   1  18
TORSDOF 9
ENDMDL
MODEL 5
REMARK VINA RESULT: -7.010002652      2.023      2.326
REMARK  9 active torsions:
REMARK  status: ('A' for Active; 'I' for Inactive)
REMARK    1  A    between atoms: S1_2  and  N1_5 
REMARK    2  A    between atoms: N1_5  and  C2_7 
REMARK    3  A    between atoms: C4_11  and  N3_12 
REMARK    4  A    between atoms: N3_12  and  C5_14 
REMARK    5  A    between atoms: C5_14  and  C6_15 
REMARK    6  A    between atoms: C6_15  and  C7_16 
REMARK    7  A    between atoms: C7_16  and  N4_17 
REMARK    8  A    between atoms: N4_17  and  C8_19 
REMARK    9  A    between atoms: C11_25  and  N7_26 
ROOT
HETATM    1  N3  UNL     1      40.144 -17.362  15.076  1.00  0.00    -0.374 N 
ATOM      2  H3  UNL     1      39.773 -17.102  15.989  1.00  0.00     0.161 HD
ENDROOT
BRANCH   1   3
HETATM    3  C4  UNL     1      40.418 -16.444  14.253  1.00  0.00     0.132 A 
HETATM    4  C3  UNL     1      41.423 -16.626  13.313  1.00  0.00     0.155 A 
HETATM    5  N2  UNL     1      41.735 -15.664  12.427  1.00  0.00    -0.196 N 
HETATM    6  C2  UNL     1      41.076 -14.504  12.433  1.00  0.00     0.706 A 
ATOM      7  H2  UNL     1      42.478 -15.822  11.746  1.00  0.00     0.183 HD
HETATM    8  N10 UNL     1      40.106 -14.337  13.346  1.00  0.00    -0.130 N 
HETATM    9  N9  UNL     1      39.771 -15.279  14.246  1.00  0.00    -0.270 N 
ATOM     10  H10 UNL     1      39.598 -13.453  13.357  1.00  0.00     0.205 HD
ATOM     11  H9  UNL     1      39.026 -15.102  14.919  1.00  0.00     0.189 HD
BRANCH   6  12
HETATM   12  N1  UNL     1      41.316 -13.532  11.615  1.00  0.00    -0.115 N 
ATOM     13  H1  UNL     1      40.615 -12.799  11.513  1.00  0.00     0.197 HD
BRANCH  12  14
HETATM   14  S1  UNL     1      42.758 -13.417  10.694  1.00  0.00     0.240 S 
HETATM   15  C1  UNL     1      42.821 -11.976   9.690  1.00  0.00     0.186 C 
HETATM   16  O1  UNL     1      43.914 -13.382  11.659  1.00  0.00    -0.206 OA
HETATM   17  O2  UNL     1      42.902 -14.616   9.810  1.00  0.00    -0.206 OA
ENDBRANCH  12  14
ENDBRANCH   6  12
ENDBRANCH   1   3
BRANCH   1  18
HETATM   18  C5  UNL     1      40.329 -18.740  14.787  1.00  0.00     0.123 C 
BRANCH  18  19
HETATM   19  C6  UNL     1      39.226 -19.596  15.430  1.00  0.00     0.039 C 
BRANCH  19  20
HETATM   20  C7  UNL     1      38.142 -18.590  15.837  1.00  0.00     0.123 C 
BRANCH  20  21
HETATM   21  N4  UNL     1      36.873 -19.209  15.575  1.00  0.00    -0.376 N 
ATOM     22  H4  UNL     1      36.789 -19.903  14.831  1.00  0.00     0.161 HD
BRANCH  21  23
HETATM   23  C8  UNL     1      35.845 -18.892  16.275  1.00  0.00     0.120 A 
HETATM   24  C9  UNL     1      35.586 -17.549  16.582  1.00  0.00     0.094 A 
HETATM   25  C10 UNL     1      34.499 -17.163  17.328  1.00  0.00     0.135 A 
HETATM   26  N5  UNL     1      34.240 -15.785  17.639  1.00  0.00    -0.082 NA
HETATM   27  N6  UNL     1      33.651 -18.113  17.780  1.00  0.00    -0.179 N 
HETATM   28  C11 UNL     1      33.885 -19.401  17.495  1.00  0.00     0.678 A 
ATOM     29  H6  UNL     1      32.837 -17.852  18.336  1.00  0.00     0.185 HD
HETATM   30  N8  UNL     1      34.955 -19.774  16.761  1.00  0.00    -0.177 N 
ATOM     31  H8  UNL     1      35.094 -20.766  16.567  1.00  0.00     0.185 HD
BRANCH  28  32
HETATM   32  N7  UNL     1      33.050 -20.282  17.947  1.00  0.00    -0.234 N 
ATOM     33  H72 UNL     1      32.362 -20.035  18.658  1.00  0.00     0.174 HD
ATOM     34  H71 UNL     1      33.104 -21.228  17.569  1.00  0.00     0.174 HD
ENDBRANCH  28  32
ENDBRANCH  21  23
ENDBRANCH  20  21
ENDBRANCH  19  20
ENDBRANCH  18  19
ENDBRANCH   1  18
TORSDOF 9
ENDMDL
