MODEL 1
REMARK VINA RESULT: -7.157829566      0.000      0.000
REMARK  6 active torsions:
REMARK  status: ('A' for Active; 'I' for Inactive)
REMARK    1  A    between atoms: N2_5  and  C4_6 
REMARK    2  A    between atoms: C4_6  and  C5_7 
REMARK    3  A    between atoms: C5_7  and  C6_8 
REMARK    4  A    between atoms: C6_8  and  N3_9 
REMARK    5  A    between atoms: N3_9  and  C7_11 
REMARK    6  A    between atoms: C10_17  and  C11_18 
REMARK       I    between atoms: C11_18  and  N6_20 
REMARK       I    between atoms: N6_20  and  C12_22 
ROOT
HETATM    1  C7  UNL     1      40.455  16.971 -13.999  1.00  0.00     0.680 A 
HETATM    2  N4  UNL     1      40.530  17.432 -12.755  1.00  0.00    -0.181 N 
ATOM      3  H4  UNL     1      39.989  18.264 -12.520  1.00  0.00     0.185 HD
HETATM    4  C8  UNL     1      41.264  16.878 -11.802  1.00  0.00     0.149 A 
HETATM    5  C9  UNL     1      41.293  17.448 -10.486  1.00  0.00     0.119 C 
HETATM    6  N5  UNL     1      41.310  17.939  -9.419  1.00  0.00    -0.190 NA
HETATM    7  C10 UNL     1      42.019  15.721 -12.115  1.00  0.00     0.114 A 
HETATM    8  C13 UNL     1      41.956  15.224 -13.384  1.00  0.00     0.133 A 
HETATM    9  N9  UNL     1      42.523  14.153 -13.734  1.00  0.00    -0.384 N 
ATOM     10  H91 UNL     1      42.477  13.781 -14.683  1.00  0.00     0.157 HD
ATOM     11  H92 UNL     1      43.110  13.670 -13.054  1.00  0.00     0.157 HD
HETATM   12  N10 UNL     1      41.164  15.876 -14.303  1.00  0.00    -0.176 N 
ATOM     13  H10 UNL     1      41.116  15.510 -15.255  1.00  0.00     0.186 HD
ENDROOT
BRANCH   7  14
HETATM   14  C11 UNL     1      42.773  15.151 -11.020  1.00  0.00     0.264 C 
HETATM   15  O1  UNL     1      42.459  13.972 -10.616  1.00  0.00    -0.267 OA
HETATM   16  N6  UNL     1      43.831  15.757 -10.327  1.00  0.00    -0.297 N 
HETATM   17  C12 UNL     1      44.530  15.100  -9.258  1.00  0.00     0.188 C 
ATOM     18  H6  UNL     1      44.115  16.700 -10.593  1.00  0.00     0.171 HD
HETATM   19  N7  UNL     1      45.495  15.726  -8.669  1.00  0.00    -0.373 N 
HETATM   20  N8  UNL     1      44.187  13.794  -8.840  1.00  0.00    -0.064 NA
ATOM     21  H72 UNL     1      45.742  16.669  -8.971  1.00  0.00     0.158 HD
ATOM     22  H71 UNL     1      45.991  15.260  -7.910  1.00  0.00     0.158 HD
ENDBRANCH   7  14
BRANCH   1  23
HETATM   23  N3  UNL     1      39.732  17.531 -14.905  1.00  0.00    -0.226 N 
ATOM     24  H3  UNL     1      40.145  17.753 -15.810  1.00  0.00     0.177 HD
BRANCH  23  25
HETATM   25  C6  UNL     1      38.343  17.851 -14.658  1.00  0.00     0.140 C 
BRANCH  25  26
HETATM   26  C5  UNL     1      37.491  16.596 -14.877  1.00  0.00     0.050 C 
BRANCH  26  27
HETATM   27  C4  UNL     1      36.234  16.737 -14.091  1.00  0.00     0.274 C 
BRANCH  27  28
HETATM   28  N2  UNL     1      35.090  17.207 -14.821  1.00  0.00     0.094 N 
HETATM   29  C3  UNL     1      35.142  16.759 -16.164  1.00  0.00     0.316 C 
HETATM   30  C2  UNL     1      34.305  17.552 -17.134  1.00  0.00     0.087 C 
HETATM   31  N1  UNL     1      34.421  18.953 -17.027  1.00  0.00    -0.394 N 
HETATM   32  C1  UNL     1      33.337  19.710 -17.543  1.00  0.00     0.148 C 
HETATM   33  C15 UNL     1      35.018  19.452 -15.832  1.00  0.00     0.151 C 
HETATM   34  C14 UNL     1      34.800  18.590 -14.622  1.00  0.00     0.292 C 
ENDBRANCH  27  28
ENDBRANCH  26  27
ENDBRANCH  25  26
ENDBRANCH  23  25
ENDBRANCH   1  23
TORSDOF 6
ENDMDL
MODEL 2
REMARK VINA RESULT: -6.973586447      4.223      5.832
REMARK  6 active torsions:
REMARK  status: ('A' for Active; 'I' for Inactive)
REMARK    1  A    between atoms: N2_5  and  C4_6 
REMARK    2  A    between atoms: C4_6  and  C5_7 
REMARK    3  A    between atoms: C5_7  and  C6_8 
REMARK    4  A    between atoms: C6_8  and  N3_9 
REMARK    5  A    between atoms: N3_9  and  C7_11 
REMARK    6  A    between atoms: C10_17  and  C11_18 
REMARK       I    between atoms: C11_18  and  N6_20 
REMARK       I    between atoms: N6_20  and  C12_22 
ROOT
HETATM    1  C7  UNL     1      38.883  19.007 -15.142  1.00  0.00     0.680 A 
HETATM    2  N4  UNL     1      40.056  18.985 -14.517  1.00  0.00    -0.181 N 
ATOM      3  H4  UNL     1      40.332  18.122 -14.049  1.00  0.00     0.185 HD
HETATM    4  C8  UNL     1      40.887  20.014 -14.464  1.00  0.00     0.149 A 
HETATM    5  C9  UNL     1      42.131  19.905 -13.759  1.00  0.00     0.119 C 
HETATM    6  N5  UNL     1      43.141  19.796 -13.167  1.00  0.00    -0.190 NA
HETATM    7  C10 UNL     1      40.515  21.218 -15.111  1.00  0.00     0.114 A 
HETATM    8  C13 UNL     1      39.318  21.266 -15.764  1.00  0.00     0.133 A 
HETATM    9  N9  UNL     1      38.940  22.262 -16.439  1.00  0.00    -0.384 N 
ATOM     10  H91 UNL     1      38.046  22.299 -16.927  1.00  0.00     0.157 HD
ATOM     11  H92 UNL     1      39.528  23.096 -16.444  1.00  0.00     0.157 HD
HETATM   12  N10 UNL     1      38.525  20.141 -15.757  1.00  0.00    -0.176 N 
ATOM     13  H10 UNL     1      37.627  20.172 -16.242  1.00  0.00     0.186 HD
ENDROOT
BRANCH   7  14
HETATM   14  C11 UNL     1      41.483  22.291 -15.040  1.00  0.00     0.264 C 
HETATM   15  O1  UNL     1      41.998  22.718 -16.137  1.00  0.00    -0.267 OA
HETATM   16  N6  UNL     1      41.940  22.931 -13.878  1.00  0.00    -0.297 N 
HETATM   17  C12 UNL     1      42.897  24.001 -13.913  1.00  0.00     0.188 C 
ATOM     18  H6  UNL     1      41.578  22.624 -12.975  1.00  0.00     0.171 HD
HETATM   19  N7  UNL     1      43.267  24.539 -12.797  1.00  0.00    -0.373 N 
HETATM   20  N8  UNL     1      43.437  24.475 -15.130  1.00  0.00    -0.064 NA
ATOM     21  H72 UNL     1      42.877  24.197 -11.919  1.00  0.00     0.158 HD
ATOM     22  H71 UNL     1      43.947  25.299 -12.822  1.00  0.00     0.158 HD
ENDBRANCH   7  14
BRANCH   1  23
HETATM   23  N3  UNL     1      38.096  17.989 -15.175  1.00  0.00    -0.226 N 
ATOM     24  H3  UNL     1      37.595  17.770 -16.036  1.00  0.00     0.177 HD
BRANCH  23  25
HETATM   25  C6  UNL     1      37.909  17.151 -14.011  1.00  0.00     0.140 C 
BRANCH  25  26
HETATM   26  C5  UNL     1      36.410  17.015 -13.723  1.00  0.00     0.050 C 
BRANCH  26  27
HETATM   27  C4  UNL     1      35.772  16.313 -14.872  1.00  0.00     0.274 C 
BRANCH  27  28
HETATM   28  N2  UNL     1      34.676  17.002 -15.493  1.00  0.00     0.094 N 
HETATM   29  C3  UNL     1      34.673  16.768 -16.890  1.00  0.00     0.316 C 
HETATM   30  C2  UNL     1      33.912  17.783 -17.705  1.00  0.00     0.087 C 
HETATM   31  N1  UNL     1      34.167  19.131 -17.383  1.00  0.00    -0.394 N 
HETATM   32  C1  UNL     1      33.160  20.062 -17.749  1.00  0.00     0.148 C 
HETATM   33  C15 UNL     1      34.820  19.374 -16.139  1.00  0.00     0.151 C 
HETATM   34  C14 UNL     1      34.526  18.358 -15.074  1.00  0.00     0.292 C 
ENDBRANCH  27  28
ENDBRANCH  26  27
ENDBRANCH  25  26
ENDBRANCH  23  25
ENDBRANCH   1  23
TORSDOF 6
ENDMDL
MODEL 3
REMARK VINA RESULT: -6.935654894      4.804      6.695
REMARK  6 active torsions:
REMARK  status: ('A' for Active; 'I' for Inactive)
REMARK    1  A    between atoms: N2_5  and  C4_6 
REMARK    2  A    between atoms: C4_6  and  C5_7 
REMARK    3  A    between atoms: C5_7  and  C6_8 
REMARK    4  A    between atoms: C6_8  and  N3_9 
REMARK    5  A    between atoms: N3_9  and  C7_11 
REMARK    6  A    between atoms: C10_17  and  C11_18 
REMARK       I    between atoms: C11_18  and  N6_20 
REMARK       I    between atoms: N6_20  and  C12_22 
ROOT
HETATM    1  C7  UNL     1      39.010  19.722 -15.341  1.00  0.00     0.680 A 
HETATM    2  N4  UNL     1      38.743  20.859 -15.974  1.00  0.00    -0.181 N 
ATOM      3  H4  UNL     1      37.863  20.926 -16.487  1.00  0.00     0.185 HD
HETATM    4  C8  UNL     1      39.547  21.911 -15.982  1.00  0.00     0.149 A 
HETATM    5  C9  UNL     1      39.183  23.097 -16.701  1.00  0.00     0.119 C 
HETATM    6  N5  UNL     1      38.869  24.055 -17.305  1.00  0.00    -0.190 NA
HETATM    7  C10 UNL     1      40.771  21.831 -15.273  1.00  0.00     0.114 A 
HETATM    8  C13 UNL     1      41.068  20.676 -14.610  1.00  0.00     0.133 A 
HETATM    9  N9  UNL     1      42.090  20.542 -13.883  1.00  0.00    -0.384 N 
ATOM     10  H91 UNL     1      42.312  19.679 -13.387  1.00  0.00     0.157 HD
ATOM     11  H92 UNL     1      42.760  21.310 -13.841  1.00  0.00     0.157 HD
HETATM   12  N10 UNL     1      40.164  19.639 -14.666  1.00  0.00    -0.176 N 
ATOM     13  H10 UNL     1      40.382  18.772 -14.175  1.00  0.00     0.186 HD
ENDROOT
BRANCH   7  14
HETATM   14  C11 UNL     1      41.587  23.025 -15.298  1.00  0.00     0.264 C 
HETATM   15  O1  UNL     1      42.621  23.039 -16.061  1.00  0.00    -0.267 OA
HETATM   16  N6  UNL     1      41.376  24.199 -14.560  1.00  0.00    -0.297 N 
HETATM   17  C12 UNL     1      42.239  25.342 -14.665  1.00  0.00     0.188 C 
ATOM     18  H6  UNL     1      40.579  24.242 -13.925  1.00  0.00     0.171 HD
HETATM   19  N7  UNL     1      41.977  26.387 -13.951  1.00  0.00    -0.373 N 
HETATM   20  N8  UNL     1      43.360  25.349 -15.526  1.00  0.00    -0.064 NA
ATOM     21  H72 UNL     1      41.168  26.382 -13.330  1.00  0.00     0.158 HD
ATOM     22  H71 UNL     1      42.590  27.199 -14.025  1.00  0.00     0.158 HD
ENDBRANCH   7  14
BRANCH   1  23
HETATM   23  N3  UNL     1      38.207  18.716 -15.352  1.00  0.00    -0.226 N 
ATOM     24  H3  UNL     1      37.441  18.692 -16.025  1.00  0.00     0.177 HD
BRANCH  23  25
HETATM   25  C6  UNL     1      38.373  17.619 -14.424  1.00  0.00     0.140 C 
BRANCH  25  26
HETATM   26  C5  UNL     1      37.363  16.517 -14.762  1.00  0.00     0.050 C 
BRANCH  26  27
HETATM   27  C4  UNL     1      36.110  16.776 -13.999  1.00  0.00     0.274 C 
BRANCH  27  28
HETATM   28  N2  UNL     1      34.991  17.234 -14.773  1.00  0.00     0.094 N 
HETATM   29  C3  UNL     1      35.100  16.786 -16.113  1.00  0.00     0.316 C 
HETATM   30  C2  UNL     1      34.294  17.571 -17.116  1.00  0.00     0.087 C 
HETATM   31  N1  UNL     1      34.391  18.972 -17.006  1.00  0.00    -0.394 N 
HETATM   32  C1  UNL     1      33.321  19.719 -17.565  1.00  0.00     0.148 C 
HETATM   33  C15 UNL     1      34.936  19.478 -15.789  1.00  0.00     0.151 C 
HETATM   34  C14 UNL     1      34.680  18.614 -14.588  1.00  0.00     0.292 C 
ENDBRANCH  27  28
ENDBRANCH  26  27
ENDBRANCH  25  26
ENDBRANCH  23  25
ENDBRANCH   1  23
TORSDOF 6
ENDMDL
MODEL 4
REMARK VINA RESULT: -6.895138476      2.668      9.137
REMARK  6 active torsions:
REMARK  status: ('A' for Active; 'I' for Inactive)
REMARK    1  A    between atoms: N2_5  and  C4_6 
REMARK    2  A    between atoms: C4_6  and  C5_7 
REMARK    3  A    between atoms: C5_7  and  C6_8 
REMARK    4  A    between atoms: C6_8  and  N3_9 
REMARK    5  A    between atoms: N3_9  and  C7_11 
REMARK    6  A    between atoms: C10_17  and  C11_18 
REMARK       I    between atoms: C11_18  and  N6_20 
REMARK       I    between atoms: N6_20  and  C12_22 
ROOT
HETATM    1  C7  UNL     1      40.812  17.488 -14.216  1.00  0.00     0.680 A 
HETATM    2  N4  UNL     1      40.462  18.677 -14.698  1.00  0.00    -0.181 N 
ATOM      3  H4  UNL     1      41.196  19.370 -14.838  1.00  0.00     0.185 HD
HETATM    4  C8  UNL     1      39.219  19.016 -15.006  1.00  0.00     0.149 A 
HETATM    5  C9  UNL     1      38.930  20.326 -15.512  1.00  0.00     0.119 C 
HETATM    6  N5  UNL     1      38.715  21.408 -15.916  1.00  0.00    -0.190 NA
HETATM    7  C10 UNL     1      38.191  18.060 -14.816  1.00  0.00     0.114 A 
HETATM    8  C13 UNL     1      38.523  16.830 -14.328  1.00  0.00     0.133 A 
HETATM    9  N9  UNL     1      37.693  15.889 -14.207  1.00  0.00    -0.384 N 
ATOM     10  H91 UNL     1      37.941  14.969 -13.842  1.00  0.00     0.157 HD
ATOM     11  H92 UNL     1      36.713  16.075 -14.423  1.00  0.00     0.157 HD
HETATM   12  N10 UNL     1      39.845  16.579 -14.036  1.00  0.00    -0.176 N 
ATOM     13  H10 UNL     1      40.100  15.661 -13.668  1.00  0.00     0.186 HD
ENDROOT
BRANCH   7  14
HETATM   14  C11 UNL     1      36.863  18.486 -15.202  1.00  0.00     0.264 C 
HETATM   15  O1  UNL     1      35.977  18.620 -14.280  1.00  0.00    -0.267 OA
HETATM   16  N6  UNL     1      36.419  18.770 -16.502  1.00  0.00    -0.297 N 
HETATM   17  C12 UNL     1      35.078  19.202 -16.781  1.00  0.00     0.188 C 
ATOM     18  H6  UNL     1      37.074  18.666 -17.277  1.00  0.00     0.171 HD
HETATM   19  N7  UNL     1      34.747  19.445 -18.007  1.00  0.00    -0.373 N 
HETATM   20  N8  UNL     1      34.122  19.367 -15.754  1.00  0.00    -0.064 NA
ATOM     21  H72 UNL     1      35.437  19.326 -18.748  1.00  0.00     0.158 HD
ATOM     22  H71 UNL     1      33.795  19.751 -18.206  1.00  0.00     0.158 HD
ENDBRANCH   7  14
BRANCH   1  23
HETATM   23  N3  UNL     1      42.029  17.188 -13.926  1.00  0.00    -0.226 N 
ATOM     24  H3  UNL     1      42.737  17.198 -14.659  1.00  0.00     0.177 HD
BRANCH  23  25
HETATM   25  C6  UNL     1      42.409  16.837 -12.575  1.00  0.00     0.140 C 
BRANCH  25  26
HETATM   26  C5  UNL     1      42.172  18.041 -11.657  1.00  0.00     0.050 C 
BRANCH  26  27
HETATM   27  C4  UNL     1      41.432  17.575 -10.451  1.00  0.00     0.274 C 
BRANCH  27  28
HETATM   28  N2  UNL     1      42.036  17.890  -9.187  1.00  0.00     0.094 N 
HETATM   29  C3  UNL     1      43.061  18.854  -9.355  1.00  0.00     0.316 C 
HETATM   30  C2  UNL     1      44.074  18.909  -8.240  1.00  0.00     0.087 C 
HETATM   31  N1  UNL     1      44.570  17.661  -7.812  1.00  0.00    -0.394 N 
HETATM   32  C1  UNL     1      45.113  17.621  -6.501  1.00  0.00     0.148 C 
HETATM   33  C15 UNL     1      43.832  16.511  -8.217  1.00  0.00     0.151 C 
HETATM   34  C14 UNL     1      42.360  16.748  -8.395  1.00  0.00     0.292 C 
ENDBRANCH  27  28
ENDBRANCH  26  27
ENDBRANCH  25  26
ENDBRANCH  23  25
ENDBRANCH   1  23
TORSDOF 6
ENDMDL
MODEL 5
REMARK VINA RESULT: -6.823105630      2.156      3.460
REMARK  6 active torsions:
REMARK  status: ('A' for Active; 'I' for Inactive)
REMARK    1  A    between atoms: N2_5  and  C4_6 
REMARK    2  A    between atoms: C4_6  and  C5_7 
REMARK    3  A    between atoms: C5_7  and  C6_8 
REMARK    4  A    between atoms: C6_8  and  N3_9 
REMARK    5  A    between atoms: N3_9  and  C7_11 
REMARK    6  A    between atoms: C10_17  and  C11_18 
REMARK       I    between atoms: C11_18  and  N6_20 
REMARK       I    between atoms: N6_20  and  C12_22 
ROOT
HETATM    1  C7  UNL     1      40.094  17.054 -13.957  1.00  0.00     0.680 A 
HETATM    2  N4  UNL     1      40.876  16.983 -15.029  1.00  0.00    -0.181 N 
ATOM      3  H4  UNL     1      40.591  17.494 -15.863  1.00  0.00     0.185 HD
HETATM    4  C8  UNL     1      42.002  16.288 -15.080  1.00  0.00     0.149 A 
HETATM    5  C9  UNL     1      42.782  16.259 -16.283  1.00  0.00     0.119 C 
HETATM    6  N5  UNL     1      43.400  16.242 -17.282  1.00  0.00    -0.190 NA
HETATM    7  C10 UNL     1      42.409  15.574 -13.926  1.00  0.00     0.114 A 
HETATM    8  C13 UNL     1      41.627  15.634 -12.810  1.00  0.00     0.133 A 
HETATM    9  N9  UNL     1      41.949  15.104 -11.712  1.00  0.00    -0.384 N 
ATOM     10  H91 UNL     1      41.364  15.149 -10.878  1.00  0.00     0.157 HD
ATOM     11  H92 UNL     1      42.804  14.549 -11.674  1.00  0.00     0.157 HD
HETATM   12  N10 UNL     1      40.473  16.384 -12.861  1.00  0.00    -0.176 N 
ATOM     13  H10 UNL     1      39.882  16.430 -12.031  1.00  0.00     0.186 HD
ENDROOT
BRANCH   7  14
HETATM   14  C11 UNL     1      43.664  14.862 -14.041  1.00  0.00     0.264 C 
HETATM   15  O1  UNL     1      44.737  15.457 -13.659  1.00  0.00    -0.267 OA
HETATM   16  N6  UNL     1      43.847  13.565 -14.541  1.00  0.00    -0.297 N 
HETATM   17  C12 UNL     1      45.137  12.937 -14.601  1.00  0.00     0.188 C 
ATOM     18  H6  UNL     1      43.033  13.048 -14.874  1.00  0.00     0.171 HD
HETATM   19  N7  UNL     1      45.223  11.737 -15.076  1.00  0.00    -0.373 N 
HETATM   20  N8  UNL     1      46.305  13.596 -14.157  1.00  0.00    -0.064 NA
ATOM     21  H72 UNL     1      44.380  11.261 -15.397  1.00  0.00     0.158 HD
ATOM     22  H71 UNL     1      46.139  11.291 -15.119  1.00  0.00     0.158 HD
ENDBRANCH   7  14
BRANCH   1  23
HETATM   23  N3  UNL     1      39.004  17.738 -13.938  1.00  0.00    -0.226 N 
ATOM     24  H3  UNL     1      38.727  18.218 -13.082  1.00  0.00     0.177 HD
BRANCH  23  25
HETATM   25  C6  UNL     1      38.164  17.838 -15.112  1.00  0.00     0.140 C 
BRANCH  25  26
HETATM   26  C5  UNL     1      37.281  16.589 -15.207  1.00  0.00     0.050 C 
BRANCH  26  27
HETATM   27  C4  UNL     1      36.066  16.808 -14.374  1.00  0.00     0.274 C 
BRANCH  27  28
HETATM   28  N2  UNL     1      34.912  17.301 -15.072  1.00  0.00     0.094 N 
HETATM   29  C3  UNL     1      34.953  16.911 -16.434  1.00  0.00     0.316 C 
HETATM   30  C2  UNL     1      34.102  17.740 -17.361  1.00  0.00     0.087 C 
HETATM   31  N1  UNL     1      34.210  19.135 -17.196  1.00  0.00    -0.394 N 
HETATM   32  C1  UNL     1      33.117  19.907 -17.668  1.00  0.00     0.148 C 
HETATM   33  C15 UNL     1      34.816  19.586 -15.987  1.00  0.00     0.151 C 
HETATM   34  C14 UNL     1      34.616  18.673 -14.812  1.00  0.00     0.292 C 
ENDBRANCH  27  28
ENDBRANCH  26  27
ENDBRANCH  25  26
ENDBRANCH  23  25
ENDBRANCH   1  23
TORSDOF 6
ENDMDL
