MODEL 1
REMARK VINA RESULT: -7.033702982      0.000      0.000
REMARK  7 active torsions:
REMARK  status: ('A' for Active; 'I' for Inactive)
REMARK    1  A    between atoms: C2_2  and  N1_4 
REMARK    2  A    between atoms: N1_4  and  C4_6 
REMARK    3  A    between atoms: C5_9  and  N3_10 
REMARK    4  A    between atoms: N3_10  and  N4_12 
REMARK       I    between atoms: N4_12  and  C6_14 
REMARK    5  A    between atoms: N9_26  and  C9_28 
REMARK    6  A    between atoms: C9_28  and  C10_29 
REMARK    7  A    between atoms: C10_29  and  N10_30 
ROOT
HETATM    1  C4  UNL     1      37.025  18.080 -15.448  1.00  0.00     0.694 C 
HETATM    2  N2  UNL     1      37.528  16.873 -15.085  1.00  0.00    -0.021 N 
ATOM      3  H2  UNL     1      36.908  16.079 -15.244  1.00  0.00     0.203 HD
HETATM    4  C5  UNL     1      38.742  16.563 -14.539  1.00  0.00     0.713 C 
HETATM    5  N7  UNL     1      39.833  17.353 -14.414  1.00  0.00    -0.171 N 
ATOM      6  H7  UNL     1      40.683  16.914 -14.062  1.00  0.00     0.186 HD
HETATM    7  C7  UNL     1      39.905  18.696 -14.718  1.00  0.00     0.159 C 
HETATM    8  N8  UNL     1      40.722  19.375 -14.046  1.00  0.00    -0.382 N 
ATOM      9  H81 UNL     1      40.776  20.368 -14.270  1.00  0.00     0.157 HD
ATOM     10  H82 UNL     1      41.285  18.902 -13.339  1.00  0.00     0.157 HD
HETATM   11  C8  UNL     1      39.150  19.330 -15.666  1.00  0.00     0.161 C 
HETATM   12  N9  UNL     1      39.667  20.104 -16.483  1.00  0.00    -0.371 N 
ATOM     13  H9  UNL     1      39.012  20.525 -17.142  1.00  0.00     0.161 HD
HETATM   14  N11 UNL     1      37.782  19.148 -15.823  1.00  0.00    -0.173 N 
ATOM     15  H11 UNL     1      37.280  19.912 -16.275  1.00  0.00     0.186 HD
ENDROOT
BRANCH   4  16
HETATM   16  N3  UNL     1      38.908  15.377 -14.071  1.00  0.00    -0.129 N 
ATOM     17  H3  UNL     1      38.080  14.871 -13.757  1.00  0.00     0.205 HD
BRANCH  16  18
HETATM   18  N4  UNL     1      40.124  14.741 -13.964  1.00  0.00    -0.260 N 
HETATM   19  C6  UNL     1      40.775  14.685 -12.700  1.00  0.00     0.201 C 
HETATM   20  N5  UNL     1      40.859  13.556 -12.095  1.00  0.00    -0.372 N 
HETATM   21  N6  UNL     1      41.322  15.854 -12.119  1.00  0.00    -0.062 NA
ATOM     22  H52 UNL     1      40.465  12.714 -12.515  1.00  0.00     0.158 HD
ATOM     23  H51 UNL     1      41.326  13.516 -11.189  1.00  0.00     0.158 HD
ATOM     24  H4  UNL     1      40.554  14.314 -14.784  1.00  0.00     0.190 HD
ENDBRANCH  16  18
ENDBRANCH   4  16
BRANCH   1  25
HETATM   25  N1  UNL     1      35.764  18.282 -15.451  1.00  0.00    -0.222 N 
ATOM     26  H1  UNL     1      35.267  18.335 -14.562  1.00  0.00     0.178 HD
BRANCH  25  27
HETATM   27  C2  UNL     1      35.028  18.438 -16.680  1.00  0.00     0.091 C 
HETATM   28  C1  UNL     1      34.458  17.074 -17.068  1.00  0.00     0.032 C 
HETATM   29  C3  UNL     1      33.923  19.460 -16.533  1.00  0.00     0.032 C 
ENDBRANCH  25  27
ENDBRANCH   1  25
BRANCH  12  30
HETATM   30  C9  UNL     1      40.999  20.499 -16.654  1.00  0.00     0.151 C 
BRANCH  30  31
HETATM   31  C10 UNL     1      40.973  21.880 -17.351  1.00  0.00     0.292 C 
BRANCH  31  32
HETATM   32  N10 UNL     1      39.982  22.725 -16.716  1.00  0.00     0.090 N 
HETATM   33  C11 UNL     1      39.174  23.440 -17.651  1.00  0.00     0.272 C 
HETATM   34  C12 UNL     1      38.744  24.662 -16.870  1.00  0.00     0.032 C 
HETATM   35  C13 UNL     1      40.064  25.032 -16.180  1.00  0.00     0.032 C 
HETATM   36  C14 UNL     1      40.537  23.634 -15.774  1.00  0.00     0.272 C 
ENDBRANCH  31  32
ENDBRANCH  30  31
ENDBRANCH  12  30
TORSDOF 7
ENDMDL
MODEL 2
REMARK VINA RESULT: -6.985385048      2.336      5.967
REMARK  7 active torsions:
REMARK  status: ('A' for Active; 'I' for Inactive)
REMARK    1  A    between atoms: C2_2  and  N1_4 
REMARK    2  A    between atoms: N1_4  and  C4_6 
REMARK    3  A    between atoms: C5_9  and  N3_10 
REMARK    4  A    between atoms: N3_10  and  N4_12 
REMARK       I    between atoms: N4_12  and  C6_14 
REMARK    5  A    between atoms: N9_26  and  C9_28 
REMARK    6  A    between atoms: C9_28  and  C10_29 
REMARK    7  A    between atoms: C10_29  and  N10_30 
ROOT
HETATM    1  C4  UNL     1      41.222  18.574 -13.473  1.00  0.00     0.694 C 
HETATM    2  N2  UNL     1      41.654  17.805 -12.441  1.00  0.00    -0.021 N 
ATOM      3  H2  UNL     1      42.268  18.274 -11.777  1.00  0.00     0.203 HD
HETATM    4  C5  UNL     1      41.387  16.494 -12.161  1.00  0.00     0.713 C 
HETATM    5  N7  UNL     1      40.457  15.688 -12.723  1.00  0.00    -0.171 N 
ATOM      6  H7  UNL     1      40.344  14.760 -12.315  1.00  0.00     0.186 HD
HETATM    7  C7  UNL     1      39.649  16.000 -13.796  1.00  0.00     0.159 C 
HETATM    8  N8  UNL     1      39.299  15.038 -14.526  1.00  0.00    -0.382 N 
ATOM      9  H81 UNL     1      38.701  15.269 -15.319  1.00  0.00     0.157 HD
ATOM     10  H82 UNL     1      39.612  14.099 -14.281  1.00  0.00     0.157 HD
HETATM   11  C8  UNL     1      39.229  17.259 -14.124  1.00  0.00     0.161 C 
HETATM   12  N9  UNL     1      38.043  17.486 -14.400  1.00  0.00    -0.371 N 
ATOM     13  H9  UNL     1      37.841  18.458 -14.633  1.00  0.00     0.161 HD
HETATM   14  N11 UNL     1      40.055  18.376 -14.146  1.00  0.00    -0.173 N 
ATOM     15  H11 UNL     1      39.749  19.144 -14.743  1.00  0.00     0.186 HD
ENDROOT
BRANCH   4  16
HETATM   16  N3  UNL     1      42.089  15.917 -11.252  1.00  0.00    -0.129 N 
ATOM     17  H3  UNL     1      42.079  14.898 -11.222  1.00  0.00     0.205 HD
BRANCH  16  18
HETATM   18  N4  UNL     1      42.853  16.576 -10.317  1.00  0.00    -0.260 N 
HETATM   19  C6  UNL     1      42.245  17.037  -9.116  1.00  0.00     0.201 C 
HETATM   20  N5  UNL     1      42.545  16.460  -8.009  1.00  0.00    -0.372 N 
HETATM   21  N6  UNL     1      41.324  18.112  -9.140  1.00  0.00    -0.062 NA
ATOM     22  H52 UNL     1      43.209  15.686  -7.992  1.00  0.00     0.158 HD
ATOM     23  H51 UNL     1      42.109  16.790  -7.147  1.00  0.00     0.158 HD
ATOM     24  H4  UNL     1      43.847  16.734 -10.484  1.00  0.00     0.190 HD
ENDBRANCH  16  18
ENDBRANCH   4  16
BRANCH   1  25
HETATM   25  N1  UNL     1      41.922  19.561 -13.882  1.00  0.00    -0.222 N 
ATOM     26  H1  UNL     1      42.830  19.739 -13.453  1.00  0.00     0.178 HD
BRANCH  25  27
HETATM   27  C2  UNL     1      41.459  20.428 -14.937  1.00  0.00     0.091 C 
HETATM   28  C1  UNL     1      41.509  21.867 -14.425  1.00  0.00     0.032 C 
HETATM   29  C3  UNL     1      42.300  20.272 -16.185  1.00  0.00     0.032 C 
ENDBRANCH  25  27
ENDBRANCH   1  25
BRANCH  12  30
HETATM   30  C9  UNL     1      36.934  16.634 -14.445  1.00  0.00     0.151 C 
BRANCH  30  31
HETATM   31  C10 UNL     1      35.718  17.450 -13.943  1.00  0.00     0.292 C 
BRANCH  31  32
HETATM   32  N10 UNL     1      34.719  17.523 -14.991  1.00  0.00     0.090 N 
HETATM   33  C11 UNL     1      34.988  16.645 -16.083  1.00  0.00     0.272 C 
HETATM   34  C12 UNL     1      34.302  17.324 -17.247  1.00  0.00     0.032 C 
HETATM   35  C13 UNL     1      34.704  18.784 -16.997  1.00  0.00     0.032 C 
HETATM   36  C14 UNL     1      34.511  18.843 -15.479  1.00  0.00     0.272 C 
ENDBRANCH  31  32
ENDBRANCH  30  31
ENDBRANCH  12  30
TORSDOF 7
ENDMDL
MODEL 3
REMARK VINA RESULT: -6.857126335      0.967      1.553
REMARK  7 active torsions:
REMARK  status: ('A' for Active; 'I' for Inactive)
REMARK    1  A    between atoms: C2_2  and  N1_4 
REMARK    2  A    between atoms: N1_4  and  C4_6 
REMARK    3  A    between atoms: C5_9  and  N3_10 
REMARK    4  A    between atoms: N3_10  and  N4_12 
REMARK       I    between atoms: N4_12  and  C6_14 
REMARK    5  A    between atoms: N9_26  and  C9_28 
REMARK    6  A    between atoms: C9_28  and  C10_29 
REMARK    7  A    between atoms: C10_29  and  N10_30 
ROOT
HETATM    1  C4  UNL     1      37.012  18.066 -15.432  1.00  0.00     0.694 C 
HETATM    2  N2  UNL     1      37.503  16.853 -15.073  1.00  0.00    -0.021 N 
ATOM      3  H2  UNL     1      36.880  16.064 -15.245  1.00  0.00     0.203 HD
HETATM    4  C5  UNL     1      38.708  16.532 -14.515  1.00  0.00     0.713 C 
HETATM    5  N7  UNL     1      39.802  17.314 -14.371  1.00  0.00    -0.171 N 
ATOM      6  H7  UNL     1      40.645  16.866 -14.012  1.00  0.00     0.186 HD
HETATM    7  C7  UNL     1      39.887  18.658 -14.664  1.00  0.00     0.159 C 
HETATM    8  N8  UNL     1      40.700  19.326 -13.977  1.00  0.00    -0.382 N 
ATOM      9  H81 UNL     1      40.763  20.321 -14.193  1.00  0.00     0.157 HD
ATOM     10  H82 UNL     1      41.252  18.845 -13.267  1.00  0.00     0.157 HD
HETATM   11  C8  UNL     1      39.147  19.304 -15.616  1.00  0.00     0.161 C 
HETATM   12  N9  UNL     1      39.679  20.081 -16.421  1.00  0.00    -0.371 N 
ATOM     13  H9  UNL     1      39.035  20.511 -17.084  1.00  0.00     0.161 HD
HETATM   14  N11 UNL     1      37.780  19.133 -15.790  1.00  0.00    -0.173 N 
ATOM     15  H11 UNL     1      37.289  19.903 -16.243  1.00  0.00     0.186 HD
ENDROOT
BRANCH   4  16
HETATM   16  N3  UNL     1      38.861  15.341 -14.054  1.00  0.00    -0.129 N 
ATOM     17  H3  UNL     1      38.027  14.842 -13.743  1.00  0.00     0.205 HD
BRANCH  16  18
HETATM   18  N4  UNL     1      40.069  14.691 -13.951  1.00  0.00    -0.260 N 
HETATM   19  C6  UNL     1      40.725  14.629 -12.689  1.00  0.00     0.201 C 
HETATM   20  N5  UNL     1      40.797  13.500 -12.083  1.00  0.00    -0.372 N 
HETATM   21  N6  UNL     1      41.287  15.793 -12.111  1.00  0.00    -0.062 NA
ATOM     22  H52 UNL     1      40.392  12.662 -12.499  1.00  0.00     0.158 HD
ATOM     23  H51 UNL     1      41.267  13.456 -11.178  1.00  0.00     0.158 HD
ATOM     24  H4  UNL     1      40.491  14.258 -14.771  1.00  0.00     0.190 HD
ENDBRANCH  16  18
ENDBRANCH   4  16
BRANCH   1  25
HETATM   25  N1  UNL     1      35.752  18.277 -15.449  1.00  0.00    -0.222 N 
ATOM     26  H1  UNL     1      35.246  18.337 -14.565  1.00  0.00     0.178 HD
BRANCH  25  27
HETATM   27  C2  UNL     1      35.029  18.432 -16.686  1.00  0.00     0.091 C 
HETATM   28  C1  UNL     1      34.452  17.071 -17.073  1.00  0.00     0.032 C 
HETATM   29  C3  UNL     1      33.931  19.464 -16.555  1.00  0.00     0.032 C 
ENDBRANCH  25  27
ENDBRANCH   1  25
BRANCH  12  30
HETATM   30  C9  UNL     1      41.015  20.468 -16.573  1.00  0.00     0.151 C 
BRANCH  30  31
HETATM   31  C10 UNL     1      41.047  22.014 -16.497  1.00  0.00     0.292 C 
BRANCH  31  32
HETATM   32  N10 UNL     1      41.218  22.561 -17.829  1.00  0.00     0.090 N 
HETATM   33  C11 UNL     1      40.008  23.083 -18.378  1.00  0.00     0.272 C 
HETATM   34  C12 UNL     1      40.226  22.959 -19.870  1.00  0.00     0.032 C 
HETATM   35  C13 UNL     1      40.854  21.560 -19.946  1.00  0.00     0.032 C 
HETATM   36  C14 UNL     1      41.800  21.641 -18.745  1.00  0.00     0.272 C 
ENDBRANCH  31  32
ENDBRANCH  30  31
ENDBRANCH  12  30
TORSDOF 7
ENDMDL
MODEL 4
REMARK VINA RESULT: -6.842543394      2.194      6.287
REMARK  7 active torsions:
REMARK  status: ('A' for Active; 'I' for Inactive)
REMARK    1  A    between atoms: C2_2  and  N1_4 
REMARK    2  A    between atoms: N1_4  and  C4_6 
REMARK    3  A    between atoms: C5_9  and  N3_10 
REMARK    4  A    between atoms: N3_10  and  N4_12 
REMARK       I    between atoms: N4_12  and  C6_14 
REMARK    5  A    between atoms: N9_26  and  C9_28 
REMARK    6  A    between atoms: C9_28  and  C10_29 
REMARK    7  A    between atoms: C10_29  and  N10_30 
ROOT
HETATM    1  C4  UNL     1      37.781  16.747 -14.740  1.00  0.00     0.694 C 
HETATM    2  N2  UNL     1      38.232  17.970 -15.119  1.00  0.00    -0.021 N 
ATOM      3  H2  UNL     1      37.540  18.717 -15.086  1.00  0.00     0.203 HD
HETATM    4  C5  UNL     1      39.477  18.347 -15.537  1.00  0.00     0.713 C 
HETATM    5  N7  UNL     1      40.631  17.644 -15.480  1.00  0.00    -0.171 N 
ATOM      6  H7  UNL     1      41.482  18.131 -15.758  1.00  0.00     0.186 HD
HETATM    7  C7  UNL     1      40.767  16.331 -15.083  1.00  0.00     0.159 C 
HETATM    8  N8  UNL     1      41.708  15.685 -15.609  1.00  0.00    -0.382 N 
ATOM      9  H81 UNL     1      41.809  14.714 -15.315  1.00  0.00     0.157 HD
ATOM     10  H82 UNL     1      42.317  16.163 -16.274  1.00  0.00     0.157 HD
HETATM   11  C8  UNL     1      39.950  15.691 -14.192  1.00  0.00     0.161 C 
HETATM   12  N9  UNL     1      40.420  15.008 -13.270  1.00  0.00    -0.371 N 
ATOM     13  H9  UNL     1      39.723  14.572 -12.668  1.00  0.00     0.161 HD
HETATM   14  N11 UNL     1      38.564  15.767 -14.210  1.00  0.00    -0.173 N 
ATOM     15  H11 UNL     1      38.069  14.991 -13.771  1.00  0.00     0.186 HD
ENDROOT
BRANCH   4  16
HETATM   16  N3  UNL     1      39.610  19.515 -16.058  1.00  0.00    -0.129 N 
ATOM     17  H3  UNL     1      40.246  19.612 -16.849  1.00  0.00     0.205 HD
BRANCH  16  18
HETATM   18  N4  UNL     1      38.953  20.644 -15.625  1.00  0.00    -0.260 N 
HETATM   19  C6  UNL     1      39.450  21.926 -15.992  1.00  0.00     0.201 C 
HETATM   20  N5  UNL     1      38.778  22.637 -16.823  1.00  0.00    -0.372 N 
HETATM   21  N6  UNL     1      40.666  22.410 -15.451  1.00  0.00    -0.062 NA
ATOM     22  H52 UNL     1      37.902  22.288 -17.212  1.00  0.00     0.158 HD
ATOM     23  H51 UNL     1      39.134  23.556 -17.086  1.00  0.00     0.158 HD
ATOM     24  H4  UNL     1      38.118  20.563 -15.046  1.00  0.00     0.190 HD
ENDBRANCH  16  18
ENDBRANCH   4  16
BRANCH   1  25
HETATM   25  N1  UNL     1      36.547  16.442 -14.873  1.00  0.00    -0.222 N 
ATOM     26  H1  UNL     1      36.216  15.545 -14.519  1.00  0.00     0.178 HD
BRANCH  25  27
HETATM   27  C2  UNL     1      35.613  17.335 -15.512  1.00  0.00     0.091 C 
HETATM   28  C1  UNL     1      34.726  16.508 -16.441  1.00  0.00     0.032 C 
HETATM   29  C3  UNL     1      34.779  18.078 -14.492  1.00  0.00     0.032 C 
ENDBRANCH  25  27
ENDBRANCH   1  25
BRANCH  12  30
HETATM   30  C9  UNL     1      41.747  14.735 -12.918  1.00  0.00     0.151 C 
BRANCH  30  31
HETATM   31  C10 UNL     1      41.913  15.148 -11.437  1.00  0.00     0.292 C 
BRANCH  31  32
HETATM   32  N10 UNL     1      42.254  16.555 -11.362  1.00  0.00     0.090 N 
HETATM   33  C11 UNL     1      43.555  16.787 -10.822  1.00  0.00     0.272 C 
HETATM   34  C12 UNL     1      43.438  18.174 -10.229  1.00  0.00     0.032 C 
HETATM   35  C13 UNL     1      42.063  18.075  -9.554  1.00  0.00     0.032 C 
HETATM   36  C14 UNL     1      41.297  17.329 -10.649  1.00  0.00     0.272 C 
ENDBRANCH  31  32
ENDBRANCH  30  31
ENDBRANCH  12  30
TORSDOF 7
ENDMDL
MODEL 5
REMARK VINA RESULT: -6.794979980      1.717      2.814
REMARK  7 active torsions:
REMARK  status: ('A' for Active; 'I' for Inactive)
REMARK    1  A    between atoms: C2_2  and  N1_4 
REMARK    2  A    between atoms: N1_4  and  C4_6 
REMARK    3  A    between atoms: C5_9  and  N3_10 
REMARK    4  A    between atoms: N3_10  and  N4_12 
REMARK       I    between atoms: N4_12  and  C6_14 
REMARK    5  A    between atoms: N9_26  and  C9_28 
REMARK    6  A    between atoms: C9_28  and  C10_29 
REMARK    7  A    between atoms: C10_29  and  N10_30 
ROOT
HETATM    1  C4  UNL     1      37.041  18.147 -15.456  1.00  0.00     0.694 C 
HETATM    2  N2  UNL     1      37.521  16.927 -15.108  1.00  0.00    -0.021 N 
ATOM      3  H2  UNL     1      36.891  16.145 -15.285  1.00  0.00     0.203 HD
HETATM    4  C5  UNL     1      38.725  16.590 -14.554  1.00  0.00     0.713 C 
HETATM    5  N7  UNL     1      39.826  17.361 -14.406  1.00  0.00    -0.171 N 
ATOM      6  H7  UNL     1      40.665  16.903 -14.052  1.00  0.00     0.186 HD
HETATM    7  C7  UNL     1      39.923  18.707 -14.688  1.00  0.00     0.159 C 
HETATM    8  N8  UNL     1      40.743  19.362 -13.996  1.00  0.00    -0.382 N 
ATOM      9  H81 UNL     1      40.814  20.358 -14.205  1.00  0.00     0.157 HD
ATOM     10  H82 UNL     1      41.291  18.870 -13.291  1.00  0.00     0.157 HD
HETATM   11  C8  UNL     1      39.187  19.367 -15.633  1.00  0.00     0.161 C 
HETATM   12  N9  UNL     1      39.725  20.146 -16.433  1.00  0.00    -0.371 N 
ATOM     13  H9  UNL     1      39.083  20.587 -17.091  1.00  0.00     0.161 HD
HETATM   14  N11 UNL     1      37.818  19.210 -15.806  1.00  0.00    -0.173 N 
ATOM     15  H11 UNL     1      37.333  19.988 -16.252  1.00  0.00     0.186 HD
ENDROOT
BRANCH   4  16
HETATM   16  N3  UNL     1      38.867  15.394 -14.103  1.00  0.00    -0.129 N 
ATOM     17  H3  UNL     1      38.028  14.896 -13.808  1.00  0.00     0.205 HD
BRANCH  16  18
HETATM   18  N4  UNL     1      40.072  14.739 -13.992  1.00  0.00    -0.260 N 
HETATM   19  C6  UNL     1      40.713  14.664 -12.723  1.00  0.00     0.201 C 
HETATM   20  N5  UNL     1      40.774  13.529 -12.126  1.00  0.00    -0.372 N 
HETATM   21  N6  UNL     1      41.273  15.820 -12.129  1.00  0.00    -0.062 NA
ATOM     22  H52 UNL     1      40.370  12.696 -12.555  1.00  0.00     0.158 HD
ATOM     23  H51 UNL     1      41.233  13.476 -11.217  1.00  0.00     0.158 HD
ATOM     24  H4  UNL     1      40.502  14.311 -14.812  1.00  0.00     0.190 HD
ENDBRANCH  16  18
ENDBRANCH   4  16
BRANCH   1  25
HETATM   25  N1  UNL     1      35.783  18.370 -15.469  1.00  0.00    -0.222 N 
ATOM     26  H1  UNL     1      35.292  18.497 -14.584  1.00  0.00     0.178 HD
BRANCH  25  27
HETATM   27  C2  UNL     1      35.042  18.444 -16.703  1.00  0.00     0.091 C 
HETATM   28  C1  UNL     1      34.458  17.062 -16.990  1.00  0.00     0.032 C 
HETATM   29  C3  UNL     1      33.948  19.485 -16.624  1.00  0.00     0.032 C 
ENDBRANCH  25  27
ENDBRANCH   1  25
BRANCH  12  30
HETATM   30  C9  UNL     1      41.064  20.523 -16.584  1.00  0.00     0.151 C 
BRANCH  30  31
HETATM   31  C10 UNL     1      41.264  20.886 -18.075  1.00  0.00     0.292 C 
BRANCH  31  32
HETATM   32  N10 UNL     1      42.622  20.570 -18.473  1.00  0.00     0.090 N 
HETATM   33  C11 UNL     1      42.708  20.047 -19.797  1.00  0.00     0.272 C 
HETATM   34  C12 UNL     1      43.967  19.208 -19.754  1.00  0.00     0.032 C 
HETATM   35  C13 UNL     1      43.792  18.511 -18.397  1.00  0.00     0.032 C 
HETATM   36  C14 UNL     1      43.284  19.694 -17.569  1.00  0.00     0.272 C 
ENDBRANCH  31  32
ENDBRANCH  30  31
ENDBRANCH  12  30
TORSDOF 7
ENDMDL
