MODEL 1
REMARK VINA RESULT: -6.779213279      0.000      0.000
REMARK  8 active torsions:
REMARK  status: ('A' for Active; 'I' for Inactive)
REMARK    1  A    between atoms: N1_1  and  C1_4 
REMARK    2  A    between atoms: N4_13  and  C5_14 
REMARK    3  A    between atoms: C5_14  and  C6_15 
REMARK    4  A    between atoms: C6_15  and  N5_16 
REMARK    5  A    between atoms: N5_16  and  C7_18 
REMARK    6  A    between atoms: N7_23  and  N8_24 
REMARK    7  A    between atoms: N9_30  and  C12_31 
REMARK    8  A    between atoms: C12_31  and  C13_32 
ROOT
HETATM    1  C1  UNL     1      39.045  21.161 -15.852  1.00  0.00     0.680 A 
HETATM    2  N2  UNL     1      38.215  20.079 -15.865  1.00  0.00    -0.174 N 
ATOM      3  H2  UNL     1      37.324  20.115 -16.359  1.00  0.00     0.186 HD
HETATM    4  C2  UNL     1      38.592  18.964 -15.215  1.00  0.00     0.152 A 
HETATM    5  C3  UNL     1      39.824  18.932 -14.540  1.00  0.00     0.151 A 
HETATM    6  C4  UNL     1      40.636  20.045 -14.546  1.00  0.00     0.290 A 
HETATM    7  O1  UNL     1      41.720  20.027 -13.953  1.00  0.00    -0.265 OA
HETATM    8  N3  UNL     1      40.232  21.143 -15.204  1.00  0.00    -0.154 N 
ATOM      9  H3  UNL     1      40.826  21.972 -15.215  1.00  0.00     0.187 HD
HETATM   10  N4  UNL     1      40.275  17.760 -13.874  1.00  0.00    -0.307 N 
HETATM   11  C10 UNL     1      39.353  16.645 -13.975  1.00  0.00     0.242 C 
HETATM   12  O2  UNL     1      39.748  15.462 -13.875  1.00  0.00    -0.271 OA
HETATM   13  C11 UNL     1      37.900  16.874 -14.202  1.00  0.00     0.227 C 
HETATM   14  N9  UNL     1      37.687  17.860 -15.237  1.00  0.00    -0.356 N 
ENDROOT
BRANCH  10  15
HETATM   15  C5  UNL     1      41.489  17.609 -13.145  1.00  0.00     0.153 C 
BRANCH  15  16
HETATM   16  C6  UNL     1      41.280  17.340 -11.670  1.00  0.00     0.158 C 
BRANCH  16  17
HETATM   17  N5  UNL     1      41.635  16.003 -11.340  1.00  0.00    -0.223 N 
ATOM     18  H5  UNL     1      40.898  15.417 -10.949  1.00  0.00     0.177 HD
BRANCH  17  19
HETATM   19  C7  UNL     1      42.893  15.410 -11.497  1.00  0.00     0.690 C 
HETATM   20  N6  UNL     1      43.958  15.600 -10.775  1.00  0.00    -0.223 N 
HETATM   21  C8  UNL     1      45.066  14.823 -11.229  1.00  0.00     0.160 C 
ATOM     22  H6  UNL     1      43.998  16.232  -9.976  1.00  0.00     0.177 HD
HETATM   23  C9  UNL     1      44.394  13.735 -12.073  1.00  0.00     0.187 C 
HETATM   24  N7  UNL     1      43.211  14.468 -12.511  1.00  0.00    -0.129 N 
BRANCH  24  25
HETATM   25  N8  UNL     1      42.552  14.260 -13.691  1.00  0.00    -0.329 N 
ATOM     26  H82 UNL     1      41.975  14.953 -14.168  1.00  0.00     0.177 HD
ATOM     27  H81 UNL     1      42.539  13.409 -14.254  1.00  0.00     0.177 HD
ENDBRANCH  24  25
ENDBRANCH  17  19
ENDBRANCH  16  17
ENDBRANCH  15  16
ENDBRANCH  10  15
BRANCH  14  28
HETATM   28  C12 UNL     1      36.650  17.700 -16.203  1.00  0.00     0.129 C 
BRANCH  28  29
HETATM   29  C13 UNL     1      35.247  17.828 -15.798  1.00  0.00     0.004 A 
HETATM   30  C14 UNL     1      34.469  19.085 -15.892  1.00  0.00     0.007 A 
HETATM   31  C15 UNL     1      34.744  18.442 -14.551  1.00  0.00     0.007 A 
ENDBRANCH  28  29
ENDBRANCH  14  28
BRANCH   1  32
HETATM   32  N1  UNL     1      38.658  22.202 -16.480  1.00  0.00    -0.234 N 
ATOM     33  H12 UNL     1      38.661  22.230 -17.500  1.00  0.00     0.174 HD
ATOM     34  H11 UNL     1      38.347  22.997 -15.921  1.00  0.00     0.174 HD
ENDBRANCH   1  32
TORSDOF 8
ENDMDL
MODEL 2
REMARK VINA RESULT: -6.769778177      1.843      2.486
REMARK  8 active torsions:
REMARK  status: ('A' for Active; 'I' for Inactive)
REMARK    1  A    between atoms: N1_1  and  C1_4 
REMARK    2  A    between atoms: N4_13  and  C5_14 
REMARK    3  A    between atoms: C5_14  and  C6_15 
REMARK    4  A    between atoms: C6_15  and  N5_16 
REMARK    5  A    between atoms: N5_16  and  C7_18 
REMARK    6  A    between atoms: N7_23  and  N8_24 
REMARK    7  A    between atoms: N9_30  and  C12_31 
REMARK    8  A    between atoms: C12_31  and  C13_32 
ROOT
HETATM    1  C1  UNL     1      39.257  20.668 -15.556  1.00  0.00     0.680 A 
HETATM    2  N2  UNL     1      38.321  19.679 -15.638  1.00  0.00    -0.174 N 
ATOM      3  H2  UNL     1      37.423  19.851 -16.090  1.00  0.00     0.186 HD
HETATM    4  C2  UNL     1      38.603  18.473 -15.114  1.00  0.00     0.152 A 
HETATM    5  C3  UNL     1      39.846  18.254 -14.496  1.00  0.00     0.151 A 
HETATM    6  C4  UNL     1      40.766  19.277 -14.429  1.00  0.00     0.290 A 
HETATM    7  O1  UNL     1      41.861  19.094 -13.885  1.00  0.00    -0.265 OA
HETATM    8  N3  UNL     1      40.455  20.469 -14.961  1.00  0.00    -0.154 N 
ATOM      9  H3  UNL     1      41.130  21.233 -14.917  1.00  0.00     0.187 HD
HETATM   10  N4  UNL     1      40.195  16.983 -13.965  1.00  0.00    -0.307 N 
HETATM   11  C10 UNL     1      39.163  15.979 -14.135  1.00  0.00     0.242 C 
HETATM   12  O2  UNL     1      39.439  14.760 -14.165  1.00  0.00    -0.271 OA
HETATM   13  C11 UNL     1      37.734  16.371 -14.279  1.00  0.00     0.227 C 
HETATM   14  N9  UNL     1      37.590  17.471 -15.205  1.00  0.00    -0.356 N 
ENDROOT
BRANCH  10  15
HETATM   15  C5  UNL     1      41.410  16.642 -13.304  1.00  0.00     0.153 C 
BRANCH  15  16
HETATM   16  C6  UNL     1      41.235  16.344 -11.830  1.00  0.00     0.158 C 
BRANCH  16  17
HETATM   17  N5  UNL     1      41.213  17.543 -11.066  1.00  0.00    -0.223 N 
ATOM     18  H5  UNL     1      40.305  17.991 -10.943  1.00  0.00     0.177 HD
BRANCH  17  19
HETATM   19  C7  UNL     1      42.311  18.169 -10.465  1.00  0.00     0.690 C 
HETATM   20  N6  UNL     1      43.226  18.893 -11.039  1.00  0.00    -0.223 N 
HETATM   21  C8  UNL     1      44.197  19.374 -10.111  1.00  0.00     0.160 C 
ATOM     22  H6  UNL     1      43.248  19.094 -12.038  1.00  0.00     0.177 HD
HETATM   23  C9  UNL     1      43.479  19.235  -8.765  1.00  0.00     0.187 C 
HETATM   24  N7  UNL     1      42.602  18.111  -9.077  1.00  0.00    -0.129 N 
BRANCH  24  25
HETATM   25  N8  UNL     1      42.161  17.186  -8.171  1.00  0.00    -0.329 N 
ATOM     26  H82 UNL     1      42.619  16.296  -7.974  1.00  0.00     0.177 HD
ATOM     27  H81 UNL     1      41.334  17.245  -7.575  1.00  0.00     0.177 HD
ENDBRANCH  24  25
ENDBRANCH  17  19
ENDBRANCH  16  17
ENDBRANCH  15  16
ENDBRANCH  10  15
BRANCH  14  28
HETATM   28  C12 UNL     1      36.513  17.510 -16.139  1.00  0.00     0.129 C 
BRANCH  28  29
HETATM   29  C13 UNL     1      35.142  17.723 -15.665  1.00  0.00     0.004 A 
HETATM   30  C14 UNL     1      34.417  19.010 -15.779  1.00  0.00     0.007 A 
HETATM   31  C15 UNL     1      34.738  18.416 -14.424  1.00  0.00     0.007 A 
ENDBRANCH  28  29
ENDBRANCH  14  28
BRANCH   1  32
HETATM   32  N1  UNL     1      38.958  21.799 -16.065  1.00  0.00    -0.234 N 
ATOM     33  H12 UNL     1      38.208  22.369 -15.673  1.00  0.00     0.174 HD
ATOM     34  H11 UNL     1      39.499  22.105 -16.873  1.00  0.00     0.174 HD
ENDBRANCH   1  32
TORSDOF 8
ENDMDL
MODEL 3
REMARK VINA RESULT: -6.749433299      1.837      2.294
REMARK  8 active torsions:
REMARK  status: ('A' for Active; 'I' for Inactive)
REMARK    1  A    between atoms: N1_1  and  C1_4 
REMARK    2  A    between atoms: N4_13  and  C5_14 
REMARK    3  A    between atoms: C5_14  and  C6_15 
REMARK    4  A    between atoms: C6_15  and  N5_16 
REMARK    5  A    between atoms: N5_16  and  C7_18 
REMARK    6  A    between atoms: N7_23  and  N8_24 
REMARK    7  A    between atoms: N9_30  and  C12_31 
REMARK    8  A    between atoms: C12_31  and  C13_32 
ROOT
HETATM    1  C1  UNL     1      39.194  20.764 -15.595  1.00  0.00     0.680 A 
HETATM    2  N2  UNL     1      38.267  19.768 -15.678  1.00  0.00    -0.174 N 
ATOM      3  H2  UNL     1      37.368  19.932 -16.131  1.00  0.00     0.186 HD
HETATM    4  C2  UNL     1      38.558  18.565 -15.153  1.00  0.00     0.152 A 
HETATM    5  C3  UNL     1      39.801  18.356 -14.533  1.00  0.00     0.151 A 
HETATM    6  C4  UNL     1      40.713  19.385 -14.466  1.00  0.00     0.290 A 
HETATM    7  O1  UNL     1      41.809  19.211 -13.921  1.00  0.00    -0.265 OA
HETATM    8  N3  UNL     1      40.394  20.574 -15.000  1.00  0.00    -0.154 N 
ATOM      9  H3  UNL     1      41.063  21.343 -14.955  1.00  0.00     0.187 HD
HETATM   10  N4  UNL     1      40.160  17.087 -14.000  1.00  0.00    -0.307 N 
HETATM   11  C10 UNL     1      39.135  16.076 -14.171  1.00  0.00     0.242 C 
HETATM   12  O2  UNL     1      39.420  14.858 -14.200  1.00  0.00    -0.271 OA
HETATM   13  C11 UNL     1      37.703  16.457 -14.317  1.00  0.00     0.227 C 
HETATM   14  N9  UNL     1      37.552  17.554 -15.244  1.00  0.00    -0.356 N 
ENDROOT
BRANCH  10  15
HETATM   15  C5  UNL     1      41.376  16.757 -13.338  1.00  0.00     0.153 C 
BRANCH  15  16
HETATM   16  C6  UNL     1      41.205  16.481 -11.859  1.00  0.00     0.158 C 
BRANCH  16  17
HETATM   17  N5  UNL     1      41.230  17.689 -11.109  1.00  0.00    -0.223 N 
ATOM     18  H5  UNL     1      40.444  18.327 -11.241  1.00  0.00     0.177 HD
BRANCH  17  19
HETATM   19  C7  UNL     1      42.221  18.091 -10.207  1.00  0.00     0.690 C 
HETATM   20  N6  UNL     1      42.192  18.020  -8.908  1.00  0.00    -0.223 N 
HETATM   21  C8  UNL     1      43.386  18.525  -8.312  1.00  0.00     0.160 C 
ATOM     22  H6  UNL     1      41.406  17.647  -8.377  1.00  0.00     0.177 HD
HETATM   23  C9  UNL     1      44.387  18.487  -9.470  1.00  0.00     0.187 C 
HETATM   24  N7  UNL     1      43.465  18.657 -10.589  1.00  0.00    -0.129 N 
BRANCH  24  25
HETATM   25  N8  UNL     1      43.777  19.260 -11.776  1.00  0.00    -0.329 N 
ATOM     26  H82 UNL     1      43.129  19.389 -12.554  1.00  0.00     0.177 HD
ATOM     27  H81 UNL     1      44.675  19.657 -12.055  1.00  0.00     0.177 HD
ENDBRANCH  24  25
ENDBRANCH  17  19
ENDBRANCH  16  17
ENDBRANCH  15  16
ENDBRANCH  10  15
BRANCH  14  28
HETATM   28  C12 UNL     1      36.476  17.585 -16.179  1.00  0.00     0.129 C 
BRANCH  28  29
HETATM   29  C13 UNL     1      35.104  17.805 -15.709  1.00  0.00     0.004 A 
HETATM   30  C14 UNL     1      34.375  19.086 -15.854  1.00  0.00     0.007 A 
HETATM   31  C15 UNL     1      34.700  18.527 -14.485  1.00  0.00     0.007 A 
ENDBRANCH  28  29
ENDBRANCH  14  28
BRANCH   1  32
HETATM   32  N1  UNL     1      38.888  21.893 -16.106  1.00  0.00    -0.234 N 
ATOM     33  H12 UNL     1      39.040  22.078 -17.097  1.00  0.00     0.174 HD
ATOM     34  H11 UNL     1      38.486  22.593 -15.484  1.00  0.00     0.174 HD
ENDBRANCH   1  32
TORSDOF 8
ENDMDL
MODEL 4
REMARK VINA RESULT: -6.644933150      0.811      1.349
REMARK  8 active torsions:
REMARK  status: ('A' for Active; 'I' for Inactive)
REMARK    1  A    between atoms: N1_1  and  C1_4 
REMARK    2  A    between atoms: N4_13  and  C5_14 
REMARK    3  A    between atoms: C5_14  and  C6_15 
REMARK    4  A    between atoms: C6_15  and  N5_16 
REMARK    5  A    between atoms: N5_16  and  C7_18 
REMARK    6  A    between atoms: N7_23  and  N8_24 
REMARK    7  A    between atoms: N9_30  and  C12_31 
REMARK    8  A    between atoms: C12_31  and  C13_32 
ROOT
HETATM    1  C1  UNL     1      39.083  21.129 -15.779  1.00  0.00     0.680 A 
HETATM    2  N2  UNL     1      38.225  20.071 -15.843  1.00  0.00    -0.174 N 
ATOM      3  H2  UNL     1      37.336  20.152 -16.334  1.00  0.00     0.186 HD
HETATM    4  C2  UNL     1      38.573  18.917 -15.246  1.00  0.00     0.152 A 
HETATM    5  C3  UNL     1      39.803  18.822 -14.573  1.00  0.00     0.151 A 
HETATM    6  C4  UNL     1      40.643  19.913 -14.528  1.00  0.00     0.290 A 
HETATM    7  O1  UNL     1      41.726  19.839 -13.936  1.00  0.00    -0.265 OA
HETATM    8  N3  UNL     1      40.268  21.050 -15.133  1.00  0.00    -0.154 N 
ATOM      9  H3  UNL     1      40.884  21.863 -15.106  1.00  0.00     0.187 HD
HETATM   10  N4  UNL     1      40.222  17.609 -13.962  1.00  0.00    -0.307 N 
HETATM   11  C10 UNL     1      39.272  16.524 -14.116  1.00  0.00     0.242 C 
HETATM   12  O2  UNL     1      39.636  15.328 -14.071  1.00  0.00    -0.271 OA
HETATM   13  C11 UNL     1      37.826  16.801 -14.331  1.00  0.00     0.227 C 
HETATM   14  N9  UNL     1      37.639  17.839 -15.319  1.00  0.00    -0.356 N 
ENDROOT
BRANCH  10  15
HETATM   15  C5  UNL     1      41.431  17.393 -13.242  1.00  0.00     0.153 C 
BRANCH  15  16
HETATM   16  C6  UNL     1      41.229  16.691 -11.916  1.00  0.00     0.158 C 
BRANCH  16  17
HETATM   17  N5  UNL     1      41.825  15.400 -11.925  1.00  0.00    -0.223 N 
ATOM     18  H5  UNL     1      41.469  14.727 -11.246  1.00  0.00     0.177 HD
BRANCH  17  19
HETATM   19  C7  UNL     1      42.850  14.960 -12.770  1.00  0.00     0.690 C 
HETATM   20  N6  UNL     1      42.733  14.320 -13.897  1.00  0.00    -0.223 N 
HETATM   21  C8  UNL     1      43.998  14.031 -14.489  1.00  0.00     0.160 C 
ATOM     22  H6  UNL     1      41.838  14.054 -14.309  1.00  0.00     0.177 HD
HETATM   23  C9  UNL     1      44.935  15.021 -13.790  1.00  0.00     0.187 C 
HETATM   24  N7  UNL     1      44.233  15.157 -12.518  1.00  0.00    -0.129 N 
BRANCH  24  25
HETATM   25  N8  UNL     1      44.831  15.425 -11.317  1.00  0.00    -0.329 N 
ATOM     26  H82 UNL     1      45.328  14.741 -10.746  1.00  0.00     0.177 HD
ATOM     27  H81 UNL     1      44.869  16.320 -10.828  1.00  0.00     0.177 HD
ENDBRANCH  24  25
ENDBRANCH  17  19
ENDBRANCH  16  17
ENDBRANCH  15  16
ENDBRANCH  10  15
BRANCH  14  28
HETATM   28  C12 UNL     1      36.599  17.751 -16.291  1.00  0.00     0.129 C 
BRANCH  28  29
HETATM   29  C13 UNL     1      35.198  17.873 -15.877  1.00  0.00     0.004 A 
HETATM   30  C14 UNL     1      34.427  19.137 -15.926  1.00  0.00     0.007 A 
HETATM   31  C15 UNL     1      34.704  18.447 -14.608  1.00  0.00     0.007 A 
ENDBRANCH  28  29
ENDBRANCH  14  28
BRANCH   1  32
HETATM   32  N1  UNL     1      38.723  22.208 -16.358  1.00  0.00    -0.234 N 
ATOM     33  H12 UNL     1      39.338  22.675 -17.025  1.00  0.00     0.174 HD
ATOM     34  H11 UNL     1      37.801  22.578 -16.127  1.00  0.00     0.174 HD
ENDBRANCH   1  32
TORSDOF 8
ENDMDL
MODEL 5
REMARK VINA RESULT: -6.607147701      0.994      1.353
REMARK  8 active torsions:
REMARK  status: ('A' for Active; 'I' for Inactive)
REMARK    1  A    between atoms: N1_1  and  C1_4 
REMARK    2  A    between atoms: N4_13  and  C5_14 
REMARK    3  A    between atoms: C5_14  and  C6_15 
REMARK    4  A    between atoms: C6_15  and  N5_16 
REMARK    5  A    between atoms: N5_16  and  C7_18 
REMARK    6  A    between atoms: N7_23  and  N8_24 
REMARK    7  A    between atoms: N9_30  and  C12_31 
REMARK    8  A    between atoms: C12_31  and  C13_32 
ROOT
HETATM    1  C1  UNL     1      38.984  20.942 -15.772  1.00  0.00     0.680 A 
HETATM    2  N2  UNL     1      38.092  19.915 -15.876  1.00  0.00    -0.174 N 
ATOM      3  H2  UNL     1      37.205  20.046 -16.361  1.00  0.00     0.186 HD
HETATM    4  C2  UNL     1      38.403  18.728 -15.327  1.00  0.00     0.152 A 
HETATM    5  C3  UNL     1      39.631  18.566 -14.662  1.00  0.00     0.151 A 
HETATM    6  C4  UNL     1      40.506  19.626 -14.575  1.00  0.00     0.290 A 
HETATM    7  O1  UNL     1      41.587  19.493 -13.990  1.00  0.00    -0.265 OA
HETATM    8  N3  UNL     1      40.167  20.798 -15.133  1.00  0.00    -0.154 N 
ATOM      9  H3  UNL     1      40.809  21.589 -15.074  1.00  0.00     0.187 HD
HETATM   10  N4  UNL     1      40.011  17.316 -14.102  1.00  0.00    -0.307 N 
HETATM   11  C10 UNL     1      39.026  16.270 -14.297  1.00  0.00     0.242 C 
HETATM   12  O2  UNL     1      39.351  15.062 -14.302  1.00  0.00    -0.271 OA
HETATM   13  C11 UNL     1      37.589  16.602 -14.497  1.00  0.00     0.227 C 
HETATM   14  N9  UNL     1      37.435  17.684 -15.441  1.00  0.00    -0.356 N 
ENDROOT
BRANCH  10  15
HETATM   15  C5  UNL     1      41.214  17.032 -13.395  1.00  0.00     0.153 C 
BRANCH  15  16
HETATM   16  C6  UNL     1      42.303  16.442 -14.265  1.00  0.00     0.158 C 
BRANCH  16  17
HETATM   17  N5  UNL     1      42.402  15.036 -14.077  1.00  0.00    -0.223 N 
ATOM     18  H5  UNL     1      42.174  14.450 -14.880  1.00  0.00     0.177 HD
BRANCH  17  19
HETATM   19  C7  UNL     1      42.780  14.376 -12.902  1.00  0.00     0.690 C 
HETATM   20  N6  UNL     1      43.983  14.078 -12.508  1.00  0.00    -0.223 N 
HETATM   21  C8  UNL     1      43.990  13.400 -11.253  1.00  0.00     0.160 C 
ATOM     22  H6  UNL     1      44.826  14.303 -13.037  1.00  0.00     0.177 HD
HETATM   23  C9  UNL     1      42.614  13.742 -10.675  1.00  0.00     0.187 C 
HETATM   24  N7  UNL     1      41.868  13.913 -11.917  1.00  0.00    -0.129 N 
BRANCH  24  25
HETATM   25  N8  UNL     1      40.532  13.663 -12.071  1.00  0.00    -0.329 N 
ATOM     26  H82 UNL     1      39.957  13.136 -11.412  1.00  0.00     0.177 HD
ATOM     27  H81 UNL     1      39.929  13.956 -12.840  1.00  0.00     0.177 HD
ENDBRANCH  24  25
ENDBRANCH  17  19
ENDBRANCH  16  17
ENDBRANCH  15  16
ENDBRANCH  10  15
BRANCH  14  28
HETATM   28  C12 UNL     1      36.391  17.670 -16.413  1.00  0.00     0.129 C 
BRANCH  28  29
HETATM   29  C13 UNL     1      35.008  17.933 -16.005  1.00  0.00     0.004 A 
HETATM   30  C14 UNL     1      34.278  19.186 -16.310  1.00  0.00     0.007 A 
HETATM   31  C15 UNL     1      34.570  18.785 -14.880  1.00  0.00     0.007 A 
ENDBRANCH  28  29
ENDBRANCH  14  28
BRANCH   1  32
HETATM   32  N1  UNL     1      38.659  22.055 -16.306  1.00  0.00    -0.234 N 
ATOM     33  H12 UNL     1      38.042  22.707 -15.823  1.00  0.00     0.174 HD
ATOM     34  H11 UNL     1      39.042  22.260 -17.229  1.00  0.00     0.174 HD
ENDBRANCH   1  32
TORSDOF 8
ENDMDL
