MODEL 1
REMARK VINA RESULT: -7.972448014      0.000      0.000
REMARK  9 active torsions:
REMARK  status: ('A' for Active; 'I' for Inactive)
REMARK    1  A    between atoms: N1_1  and  C1_4 
REMARK    2  A    between atoms: C5_14  and  N5_15 
REMARK    3  A    between atoms: N5_15  and  C6_17 
REMARK    4  A    between atoms: C8_24  and  N8_25 
REMARK    5  A    between atoms: N8_25  and  C9_27 
REMARK    6  A    between atoms: C9_27  and  C10_28 
REMARK    7  A    between atoms: C10_28  and  C11_29 
REMARK    8  A    between atoms: C11_29  and  C12_30 
REMARK    9  A    between atoms: C12_30  and  N9_31 
ROOT
HETATM    1  C6  UNL     1      38.956  15.927 -14.352  1.00  0.00     0.697 A 
HETATM    2  N6  UNL     1      39.606  15.014 -13.612  1.00  0.00    -0.140 N 
ATOM      3  H6  UNL     1      39.066  14.303 -13.119  1.00  0.00     0.189 HD
HETATM    4  C7  UNL     1      40.955  15.006 -13.498  1.00  0.00     0.352 A 
HETATM    5  O2  UNL     1      41.573  14.152 -12.806  1.00  0.00    -0.246 OA
HETATM    6  N7  UNL     1      41.670  15.952 -14.152  1.00  0.00    -0.140 N 
ATOM      7  H7  UNL     1      42.687  15.963 -14.077  1.00  0.00     0.189 HD
HETATM    8  C8  UNL     1      41.044  16.881 -14.902  1.00  0.00     0.696 A 
HETATM    9  N10 UNL     1      39.687  16.855 -14.991  1.00  0.00    -0.022 N 
ATOM     10  H10 UNL     1      39.212  17.558 -15.558  1.00  0.00     0.203 HD
ENDROOT
BRANCH   1  11
HETATM   11  N5  UNL     1      37.693  15.917 -14.445  1.00  0.00    -0.219 N 
ATOM     12  H5  UNL     1      37.218  15.153 -13.966  1.00  0.00     0.178 HD
BRANCH  11  13
HETATM   13  C5  UNL     1      36.854  16.836 -15.132  1.00  0.00     0.118 C 
HETATM   14  C4  UNL     1      35.577  16.214 -15.651  1.00  0.00     0.161 C 
HETATM   15  N3  UNL     1      34.805  17.280 -16.252  1.00  0.00    -0.286 N 
HETATM   16  C2  UNL     1      34.561  18.364 -15.489  1.00  0.00     0.103 A 
HETATM   17  C3  UNL     1      34.326  17.246 -17.507  1.00  0.00     0.342 A 
HETATM   18  N2  UNL     1      33.854  19.415 -15.941  1.00  0.00    -0.180 N 
HETATM   19  C14 UNL     1      35.117  18.340 -14.111  1.00  0.00     0.079 C 
HETATM   20  C1  UNL     1      33.376  19.374 -17.207  1.00  0.00     0.681 A 
ATOM     21  H2  UNL     1      33.683  20.224 -15.343  1.00  0.00     0.185 HD
HETATM   22  N4  UNL     1      33.610  18.300 -17.982  1.00  0.00    -0.141 N 
ATOM     23  H4  UNL     1      33.247  18.275 -18.935  1.00  0.00     0.189 HD
HETATM   24  C13 UNL     1      36.586  18.011 -14.215  1.00  0.00     0.035 C 
HETATM   25  O1  UNL     1      34.558  16.238 -18.203  1.00  0.00    -0.246 OA
BRANCH  20  26
HETATM   26  N1  UNL     1      32.684  20.383 -17.673  1.00  0.00    -0.234 N 
ATOM     27  H12 UNL     1      32.757  21.300 -17.234  1.00  0.00     0.174 HD
ATOM     28  H11 UNL     1      32.072  20.249 -18.478  1.00  0.00     0.174 HD
ENDBRANCH  20  26
ENDBRANCH  11  13
ENDBRANCH   1  11
BRANCH   8  29
HETATM   29  N8  UNL     1      41.771  17.758 -15.503  1.00  0.00    -0.225 N 
ATOM     30  H8  UNL     1      41.977  17.658 -16.498  1.00  0.00     0.177 HD
BRANCH  29  31
HETATM   31  C9  UNL     1      42.286  18.862 -14.777  1.00  0.00     0.138 C 
BRANCH  31  32
HETATM   32  C10 UNL     1      41.332  19.779 -14.130  1.00  0.00     0.022 C 
BRANCH  32  33
HETATM   33  C11 UNL     1      40.698  20.862 -14.924  1.00  0.00     0.029 C 
BRANCH  33  34
HETATM   34  C12 UNL     1      39.344  20.477 -15.430  1.00  0.00     0.229 C 
BRANCH  34  35
HETATM   35  N9  UNL     1      38.736  21.596 -16.180  1.00  0.00    -0.079 N 
ATOM     36  H93 UNL     1      39.060  22.501 -15.840  1.00  0.00     0.274 HD
ATOM     37  H92 UNL     1      39.097  21.655 -17.132  1.00  0.00     0.274 HD
ATOM     38  H91 UNL     1      37.719  21.524 -16.163  1.00  0.00     0.274 HD
ENDBRANCH  34  35
ENDBRANCH  33  34
ENDBRANCH  32  33
ENDBRANCH  31  32
ENDBRANCH  29  31
ENDBRANCH   8  29
TORSDOF 9
ENDMDL
MODEL 2
REMARK VINA RESULT: -7.493422071      1.878      3.105
REMARK  9 active torsions:
REMARK  status: ('A' for Active; 'I' for Inactive)
REMARK    1  A    between atoms: N1_1  and  C1_4 
REMARK    2  A    between atoms: C5_14  and  N5_15 
REMARK    3  A    between atoms: N5_15  and  C6_17 
REMARK    4  A    between atoms: C8_24  and  N8_25 
REMARK    5  A    between atoms: N8_25  and  C9_27 
REMARK    6  A    between atoms: C9_27  and  C10_28 
REMARK    7  A    between atoms: C10_28  and  C11_29 
REMARK    8  A    between atoms: C11_29  and  C12_30 
REMARK    9  A    between atoms: C12_30  and  N9_31 
ROOT
HETATM    1  C6  UNL     1      39.039  16.071 -14.525  1.00  0.00     0.697 A 
HETATM    2  N6  UNL     1      39.737  17.043 -15.134  1.00  0.00    -0.140 N 
ATOM      3  H6  UNL     1      39.232  17.770 -15.639  1.00  0.00     0.189 HD
HETATM    4  C7  UNL     1      41.090  17.090 -15.098  1.00  0.00     0.352 A 
HETATM    5  O2  UNL     1      41.753  17.999 -15.666  1.00  0.00    -0.246 OA
HETATM    6  N7  UNL     1      41.758  16.121 -14.427  1.00  0.00    -0.140 N 
ATOM      7  H7  UNL     1      42.777  16.140 -14.391  1.00  0.00     0.189 HD
HETATM    8  C8  UNL     1      41.083  15.133 -13.807  1.00  0.00     0.696 A 
HETATM    9  N10 UNL     1      39.724  15.121 -13.865  1.00  0.00    -0.022 N 
ATOM     10  H10 UNL     1      39.212  14.374 -13.397  1.00  0.00     0.203 HD
ENDROOT
BRANCH   1  11
HETATM   11  N5  UNL     1      37.773  16.044 -14.570  1.00  0.00    -0.219 N 
ATOM     12  H5  UNL     1      37.326  15.284 -14.058  1.00  0.00     0.178 HD
BRANCH  11  13
HETATM   13  C5  UNL     1      36.897  16.940 -15.242  1.00  0.00     0.118 C 
HETATM   14  C4  UNL     1      35.614  16.290 -15.708  1.00  0.00     0.161 C 
HETATM   15  N3  UNL     1      34.805  17.335 -16.298  1.00  0.00    -0.286 N 
HETATM   16  C2  UNL     1      34.570  18.427 -15.544  1.00  0.00     0.103 A 
HETATM   17  C3  UNL     1      34.284  17.273 -17.536  1.00  0.00     0.342 A 
HETATM   18  N2  UNL     1      33.832  19.459 -15.988  1.00  0.00    -0.180 N 
HETATM   19  C14 UNL     1      35.173  18.433 -14.186  1.00  0.00     0.079 C 
HETATM   20  C1  UNL     1      33.312  19.392 -17.236  1.00  0.00     0.681 A 
ATOM     21  H2  UNL     1      33.668  20.275 -15.397  1.00  0.00     0.185 HD
HETATM   22  N4  UNL     1      33.536  18.308 -18.002  1.00  0.00    -0.141 N 
ATOM     23  H4  UNL     1      33.141  18.262 -18.941  1.00  0.00     0.189 HD
HETATM   24  C13 UNL     1      36.642  18.125 -14.334  1.00  0.00     0.035 C 
HETATM   25  O1  UNL     1      34.508  16.258 -18.223  1.00  0.00    -0.246 OA
BRANCH  20  26
HETATM   26  N1  UNL     1      32.589  20.382 -17.694  1.00  0.00    -0.234 N 
ATOM     27  H12 UNL     1      32.484  21.236 -17.147  1.00  0.00     0.174 HD
ATOM     28  H11 UNL     1      32.130  20.298 -18.602  1.00  0.00     0.174 HD
ENDBRANCH  20  26
ENDBRANCH  11  13
ENDBRANCH   1  11
BRANCH   8  29
HETATM   29  N8  UNL     1      41.767  14.238 -13.183  1.00  0.00    -0.225 N 
ATOM     30  H8  UNL     1      42.235  13.496 -13.704  1.00  0.00     0.177 HD
BRANCH  29  31
HETATM   31  C9  UNL     1      41.867  14.287 -11.769  1.00  0.00     0.138 C 
BRANCH  31  32
HETATM   32  C10 UNL     1      42.828  15.228 -11.169  1.00  0.00     0.022 C 
BRANCH  32  33
HETATM   33  C11 UNL     1      42.351  16.254 -10.208  1.00  0.00     0.029 C 
BRANCH  33  34
HETATM   34  C12 UNL     1      41.426  17.242 -10.845  1.00  0.00     0.229 C 
BRANCH  34  35
HETATM   35  N9  UNL     1      42.185  18.188 -11.690  1.00  0.00    -0.079 N 
ATOM     36  H93 UNL     1      42.812  18.772 -11.136  1.00  0.00     0.274 HD
ATOM     37  H92 UNL     1      42.884  17.713 -12.259  1.00  0.00     0.274 HD
ATOM     38  H91 UNL     1      41.548  18.747 -12.257  1.00  0.00     0.274 HD
ENDBRANCH  34  35
ENDBRANCH  33  34
ENDBRANCH  32  33
ENDBRANCH  31  32
ENDBRANCH  29  31
ENDBRANCH   8  29
TORSDOF 9
ENDMDL
MODEL 3
REMARK VINA RESULT: -7.401129942      1.203      1.782
REMARK  9 active torsions:
REMARK  status: ('A' for Active; 'I' for Inactive)
REMARK    1  A    between atoms: N1_1  and  C1_4 
REMARK    2  A    between atoms: C5_14  and  N5_15 
REMARK    3  A    between atoms: N5_15  and  C6_17 
REMARK    4  A    between atoms: C8_24  and  N8_25 
REMARK    5  A    between atoms: N8_25  and  C9_27 
REMARK    6  A    between atoms: C9_27  and  C10_28 
REMARK    7  A    between atoms: C10_28  and  C11_29 
REMARK    8  A    between atoms: C11_29  and  C12_30 
REMARK    9  A    between atoms: C12_30  and  N9_31 
ROOT
HETATM    1  C6  UNL     1      38.908  15.871 -14.248  1.00  0.00     0.697 A 
HETATM    2  N6  UNL     1      39.544  14.943 -13.515  1.00  0.00    -0.140 N 
ATOM      3  H6  UNL     1      38.992  14.252 -13.007  1.00  0.00     0.189 HD
HETATM    4  C7  UNL     1      40.894  14.894 -13.427  1.00  0.00     0.352 A 
HETATM    5  O2  UNL     1      41.500  14.026 -12.742  1.00  0.00    -0.246 OA
HETATM    6  N7  UNL     1      41.625  15.814 -14.102  1.00  0.00    -0.140 N 
ATOM      7  H7  UNL     1      42.643  15.793 -14.047  1.00  0.00     0.189 HD
HETATM    8  C8  UNL     1      41.013  16.757 -14.846  1.00  0.00     0.696 A 
HETATM    9  N10 UNL     1      39.654  16.772 -14.908  1.00  0.00    -0.022 N 
ATOM     10  H10 UNL     1      39.190  17.486 -15.471  1.00  0.00     0.203 HD
ENDROOT
BRANCH   1  11
HETATM   11  N5  UNL     1      37.644  15.900 -14.317  1.00  0.00    -0.219 N 
ATOM     12  H5  UNL     1      37.153  15.188 -13.776  1.00  0.00     0.178 HD
BRANCH  11  13
HETATM   13  C5  UNL     1      36.822  16.798 -15.051  1.00  0.00     0.118 C 
HETATM   14  C4  UNL     1      35.506  16.194 -15.484  1.00  0.00     0.161 C 
HETATM   15  N3  UNL     1      34.759  17.242 -16.145  1.00  0.00    -0.286 N 
HETATM   16  C2  UNL     1      34.584  18.392 -15.463  1.00  0.00     0.103 A 
HETATM   17  C3  UNL     1      34.241  17.131 -17.380  1.00  0.00     0.342 A 
HETATM   18  N2  UNL     1      33.907  19.433 -15.977  1.00  0.00    -0.180 N 
HETATM   19  C14 UNL     1      35.181  18.450 -14.104  1.00  0.00     0.079 C 
HETATM   20  C1  UNL     1      33.388  19.316 -17.222  1.00  0.00     0.681 A 
ATOM     21  H2  UNL     1      33.787  20.293 -15.440  1.00  0.00     0.185 HD
HETATM   22  N4  UNL     1      33.554  18.175 -17.916  1.00  0.00    -0.141 N 
ATOM     23  H4  UNL     1      33.161  18.092 -18.854  1.00  0.00     0.189 HD
HETATM   24  C13 UNL     1      36.631  18.051 -14.222  1.00  0.00     0.035 C 
HETATM   25  O1  UNL     1      34.410  16.064 -18.000  1.00  0.00    -0.246 OA
BRANCH  20  26
HETATM   26  N1  UNL     1      32.724  20.314 -17.747  1.00  0.00    -0.234 N 
ATOM     27  H12 UNL     1      32.176  20.175 -18.595  1.00  0.00     0.174 HD
ATOM     28  H11 UNL     1      32.754  21.233 -17.304  1.00  0.00     0.174 HD
ENDBRANCH  20  26
ENDBRANCH  11  13
ENDBRANCH   1  11
BRANCH   8  29
HETATM   29  N8  UNL     1      41.755  17.607 -15.467  1.00  0.00    -0.225 N 
ATOM     30  H8  UNL     1      42.490  17.282 -16.096  1.00  0.00     0.177 HD
BRANCH  29  31
HETATM   31  C9  UNL     1      41.547  18.997 -15.273  1.00  0.00     0.138 C 
BRANCH  31  32
HETATM   32  C10 UNL     1      41.582  19.523 -13.898  1.00  0.00     0.022 C 
BRANCH  32  33
HETATM   33  C11 UNL     1      42.886  19.702 -13.212  1.00  0.00     0.029 C 
BRANCH  33  34
HETATM   34  C12 UNL     1      43.202  18.569 -12.287  1.00  0.00     0.229 C 
BRANCH  34  35
HETATM   35  N9  UNL     1      41.977  18.107 -11.601  1.00  0.00    -0.079 N 
ATOM     36  H93 UNL     1      41.267  18.839 -11.558  1.00  0.00     0.274 HD
ATOM     37  H92 UNL     1      41.461  17.428 -12.160  1.00  0.00     0.274 HD
ATOM     38  H91 UNL     1      42.204  17.744 -10.675  1.00  0.00     0.274 HD
ENDBRANCH  34  35
ENDBRANCH  33  34
ENDBRANCH  32  33
ENDBRANCH  31  32
ENDBRANCH  29  31
ENDBRANCH   8  29
TORSDOF 9
ENDMDL
MODEL 4
REMARK VINA RESULT: -7.332595462      2.132      3.995
REMARK  9 active torsions:
REMARK  status: ('A' for Active; 'I' for Inactive)
REMARK    1  A    between atoms: N1_1  and  C1_4 
REMARK    2  A    between atoms: C5_14  and  N5_15 
REMARK    3  A    between atoms: N5_15  and  C6_17 
REMARK    4  A    between atoms: C8_24  and  N8_25 
REMARK    5  A    between atoms: N8_25  and  C9_27 
REMARK    6  A    between atoms: C9_27  and  C10_28 
REMARK    7  A    between atoms: C10_28  and  C11_29 
REMARK    8  A    between atoms: C11_29  and  C12_30 
REMARK    9  A    between atoms: C12_30  and  N9_31 
ROOT
HETATM    1  C6  UNL     1      38.930  16.159 -14.179  1.00  0.00     0.697 A 
HETATM    2  N6  UNL     1      39.418  17.391 -13.960  1.00  0.00    -0.140 N 
ATOM      3  H6  UNL     1      38.802  18.194 -14.086  1.00  0.00     0.189 HD
HETATM    4  C7  UNL     1      40.699  17.603 -13.578  1.00  0.00     0.352 A 
HETATM    5  O2  UNL     1      41.165  18.755 -13.370  1.00  0.00    -0.246 OA
HETATM    6  N7  UNL     1      41.515  16.534 -13.414  1.00  0.00    -0.140 N 
ATOM      7  H7  UNL     1      42.484  16.674 -13.128  1.00  0.00     0.189 HD
HETATM    8  C8  UNL     1      41.053  15.285 -13.626  1.00  0.00     0.696 A 
HETATM    9  N10 UNL     1      39.759  15.115 -14.009  1.00  0.00    -0.022 N 
ATOM     10  H10 UNL     1      39.408  14.171 -14.171  1.00  0.00     0.203 HD
ENDROOT
BRANCH   1  11
HETATM   11  N5  UNL     1      37.729  15.982 -14.536  1.00  0.00    -0.219 N 
ATOM     12  H5  UNL     1      37.327  15.073 -14.310  1.00  0.00     0.178 HD
BRANCH  11  13
HETATM   13  C5  UNL     1      36.867  16.890 -15.210  1.00  0.00     0.118 C 
HETATM   14  C4  UNL     1      35.592  16.252 -15.711  1.00  0.00     0.161 C 
HETATM   15  N3  UNL     1      34.796  17.308 -16.300  1.00  0.00    -0.286 N 
HETATM   16  C2  UNL     1      34.550  18.388 -15.533  1.00  0.00     0.103 A 
HETATM   17  C3  UNL     1      34.299  17.267 -17.548  1.00  0.00     0.342 A 
HETATM   18  N2  UNL     1      33.823  19.429 -15.974  1.00  0.00    -0.180 N 
HETATM   19  C14 UNL     1      35.126  18.371 -14.163  1.00  0.00     0.079 C 
HETATM   20  C1  UNL     1      33.326  19.383 -17.233  1.00  0.00     0.681 A 
ATOM     21  H2  UNL     1      33.649  20.236 -15.374  1.00  0.00     0.185 HD
HETATM   22  N4  UNL     1      33.563  18.311 -18.012  1.00  0.00    -0.141 N 
ATOM     23  H4  UNL     1      33.186  18.282 -18.959  1.00  0.00     0.189 HD
HETATM   24  C13 UNL     1      36.597  18.062 -14.288  1.00  0.00     0.035 C 
HETATM   25  O1  UNL     1      34.535  16.263 -18.247  1.00  0.00    -0.246 OA
BRANCH  20  26
HETATM   26  N1  UNL     1      32.614  20.382 -17.688  1.00  0.00    -0.234 N 
ATOM     27  H12 UNL     1      33.019  21.037 -18.357  1.00  0.00     0.174 HD
ATOM     28  H11 UNL     1      31.651  20.505 -17.374  1.00  0.00     0.174 HD
ENDBRANCH  20  26
ENDBRANCH  11  13
ENDBRANCH   1  11
BRANCH   8  29
HETATM   29  N8  UNL     1      41.871  14.305 -13.456  1.00  0.00    -0.225 N 
ATOM     30  H8  UNL     1      41.652  13.383 -13.835  1.00  0.00     0.177 HD
BRANCH  29  31
HETATM   31  C9  UNL     1      43.076  14.512 -12.738  1.00  0.00     0.138 C 
BRANCH  31  32
HETATM   32  C10 UNL     1      44.353  14.275 -13.433  1.00  0.00     0.022 C 
BRANCH  32  33
HETATM   33  C11 UNL     1      44.360  14.040 -14.899  1.00  0.00     0.029 C 
BRANCH  33  34
HETATM   34  C12 UNL     1      45.353  12.995 -15.302  1.00  0.00     0.229 C 
BRANCH  34  35
HETATM   35  N9  UNL     1      45.013  11.696 -14.686  1.00  0.00    -0.079 N 
ATOM     36  H93 UNL     1      44.328  11.799 -13.937  1.00  0.00     0.274 HD
ATOM     37  H92 UNL     1      44.463  11.110 -15.314  1.00  0.00     0.274 HD
ATOM     38  H91 UNL     1      45.858  11.222 -14.366  1.00  0.00     0.274 HD
ENDBRANCH  34  35
ENDBRANCH  33  34
ENDBRANCH  32  33
ENDBRANCH  31  32
ENDBRANCH  29  31
ENDBRANCH   8  29
TORSDOF 9
ENDMDL
MODEL 5
REMARK VINA RESULT: -7.328828587      2.242      4.499
REMARK  9 active torsions:
REMARK  status: ('A' for Active; 'I' for Inactive)
REMARK    1  A    between atoms: N1_1  and  C1_4 
REMARK    2  A    between atoms: C5_14  and  N5_15 
REMARK    3  A    between atoms: N5_15  and  C6_17 
REMARK    4  A    between atoms: C8_24  and  N8_25 
REMARK    5  A    between atoms: N8_25  and  C9_27 
REMARK    6  A    between atoms: C9_27  and  C10_28 
REMARK    7  A    between atoms: C10_28  and  C11_29 
REMARK    8  A    between atoms: C11_29  and  C12_30 
REMARK    9  A    between atoms: C12_30  and  N9_31 
ROOT
HETATM    1  C6  UNL     1      39.014  15.988 -14.477  1.00  0.00     0.697 A 
HETATM    2  N6  UNL     1      39.726  16.956 -15.077  1.00  0.00    -0.140 N 
ATOM      3  H6  UNL     1      39.232  17.677 -15.603  1.00  0.00     0.189 HD
HETATM    4  C7  UNL     1      41.077  17.007 -15.008  1.00  0.00     0.352 A 
HETATM    5  O2  UNL     1      41.753  17.912 -15.567  1.00  0.00    -0.246 OA
HETATM    6  N7  UNL     1      41.730  16.046 -14.310  1.00  0.00    -0.140 N 
ATOM      7  H7  UNL     1      42.748  16.067 -14.248  1.00  0.00     0.189 HD
HETATM    8  C8  UNL     1      41.042  15.062 -13.698  1.00  0.00     0.696 A 
HETATM    9  N10 UNL     1      39.685  15.047 -13.791  1.00  0.00    -0.022 N 
ATOM     10  H10 UNL     1      39.163  14.302 -13.329  1.00  0.00     0.203 HD
ENDROOT
BRANCH   1  11
HETATM   11  N5  UNL     1      37.751  15.958 -14.555  1.00  0.00    -0.219 N 
ATOM     12  H5  UNL     1      37.295  15.181 -14.077  1.00  0.00     0.178 HD
BRANCH  11  13
HETATM   13  C5  UNL     1      36.887  16.870 -15.221  1.00  0.00     0.118 C 
HETATM   14  C4  UNL     1      35.603  16.237 -15.708  1.00  0.00     0.161 C 
HETATM   15  N3  UNL     1      34.807  17.296 -16.290  1.00  0.00    -0.286 N 
HETATM   16  C2  UNL     1      34.574  18.379 -15.521  1.00  0.00     0.103 A 
HETATM   17  C3  UNL     1      34.298  17.257 -17.533  1.00  0.00     0.342 A 
HETATM   18  N2  UNL     1      33.848  19.423 -15.956  1.00  0.00    -0.180 N 
HETATM   19  C14 UNL     1      35.164  18.360 -14.157  1.00  0.00     0.079 C 
HETATM   20  C1  UNL     1      33.338  19.378 -17.209  1.00  0.00     0.681 A 
ATOM     21  H2  UNL     1      33.684  20.231 -15.354  1.00  0.00     0.185 HD
HETATM   22  N4  UNL     1      33.561  18.305 -17.990  1.00  0.00    -0.141 N 
ATOM     23  H4  UNL     1      33.175  18.276 -18.933  1.00  0.00     0.189 HD
HETATM   24  C13 UNL     1      36.632  18.043 -14.297  1.00  0.00     0.035 C 
HETATM   25  O1  UNL     1      34.521  16.251 -18.233  1.00  0.00    -0.246 OA
BRANCH  20  26
HETATM   26  N1  UNL     1      32.627  20.380 -17.659  1.00  0.00    -0.234 N 
ATOM     27  H12 UNL     1      31.616  20.289 -17.753  1.00  0.00     0.174 HD
ATOM     28  H11 UNL     1      33.086  21.255 -17.913  1.00  0.00     0.174 HD
ENDBRANCH  20  26
ENDBRANCH  11  13
ENDBRANCH   1  11
BRANCH   8  29
HETATM   29  N8  UNL     1      41.712  14.175 -13.048  1.00  0.00    -0.225 N 
ATOM     30  H8  UNL     1      42.052  13.339 -13.525  1.00  0.00     0.177 HD
BRANCH  29  31
HETATM   31  C9  UNL     1      41.975  14.363 -11.667  1.00  0.00     0.138 C 
BRANCH  31  32
HETATM   32  C10 UNL     1      43.003  13.523 -11.030  1.00  0.00     0.022 C 
BRANCH  32  33
HETATM   33  C11 UNL     1      42.700  12.834  -9.750  1.00  0.00     0.029 C 
BRANCH  33  34
HETATM   34  C12 UNL     1      41.946  11.558  -9.957  1.00  0.00     0.229 C 
BRANCH  34  35
HETATM   35  N9  UNL     1      42.823  10.533 -10.560  1.00  0.00    -0.079 N 
ATOM     36  H93 UNL     1      42.344  10.006 -11.291  1.00  0.00     0.274 HD
ATOM     37  H92 UNL     1      43.557  10.950 -11.132  1.00  0.00     0.274 HD
ATOM     38  H91 UNL     1      43.204   9.922  -9.839  1.00  0.00     0.274 HD
ENDBRANCH  34  35
ENDBRANCH  33  34
ENDBRANCH  32  33
ENDBRANCH  31  32
ENDBRANCH  29  31
ENDBRANCH   8  29
TORSDOF 9
ENDMDL
