MODEL 1
REMARK VINA RESULT: -6.412385670      0.000      0.000
REMARK  4 active torsions:
REMARK  status: ('A' for Active; 'I' for Inactive)
REMARK    1  A    between atoms: C2_7  and  N3_8 
REMARK    2  A    between atoms: N3_8  and  C3_10 
REMARK    3  A    between atoms: C3_10  and  C4_11 
REMARK    4  A    between atoms: N6_17  and  O3_18 
ROOT
HETATM    1  N3  UNL     1      37.907  17.971 -16.034  1.00  0.00    -0.219 N 
ATOM      2  H3  UNL     1      38.284  18.147 -16.965  1.00  0.00     0.178 HD
ENDROOT
BRANCH   1   3
HETATM    3  C2  UNL     1      38.616  17.347 -15.172  1.00  0.00     0.697 A 
HETATM    4  N2  UNL     1      39.503  17.947 -14.367  1.00  0.00    -0.128 N 
HETATM    5  N1  UNL     1      40.032  16.990 -13.626  1.00  0.00    -0.237 N 
ATOM      6  H2  UNL     1      39.725  18.942 -14.332  1.00  0.00     0.205 HD
HETATM    7  C1  UNL     1      39.497  15.803 -13.950  1.00  0.00     0.353 A 
ATOM      8  H1  UNL     1      40.745  17.132 -12.911  1.00  0.00     0.192 HD
HETATM    9  O1  UNL     1      39.761  14.667 -13.451  1.00  0.00    -0.245 OA
HETATM   10  N7  UNL     1      38.614  16.034 -14.917  1.00  0.00    -0.139 N 
ATOM     11  H7  UNL     1      38.036  15.334 -15.381  1.00  0.00     0.189 HD
ENDBRANCH   1   3
BRANCH   1  12
HETATM   12  C3  UNL     1      36.589  18.427 -15.705  1.00  0.00     0.205 C 
BRANCH  12  13
HETATM   13  C4  UNL     1      35.554  17.702 -16.493  1.00  0.00     0.143 A 
HETATM   14  C5  UNL     1      34.683  18.283 -17.391  1.00  0.00     0.286 A 
HETATM   15  O2  UNL     1      34.651  19.494 -17.656  1.00  0.00    -0.265 OA
HETATM   16  N4  UNL     1      33.916  17.327 -17.891  1.00  0.00    -0.246 N 
HETATM   17  N5  UNL     1      34.283  16.186 -17.337  1.00  0.00     0.009 NA
ATOM     18  H4  UNL     1      33.174  17.451 -18.581  1.00  0.00     0.187 HD
HETATM   19  N6  UNL     1      35.284  16.387 -16.477  1.00  0.00    -0.144 N 
BRANCH  19  20
HETATM   20  O3  UNL     1      35.916  15.414 -15.718  1.00  0.00    -0.269 OA
ATOM     21  H3  UNL     1      36.515  14.745 -16.029  1.00  0.00     0.246 HD
ENDBRANCH  19  20
ENDBRANCH  12  13
ENDBRANCH   1  12
TORSDOF 4
ENDMDL
MODEL 2
REMARK VINA RESULT: -6.385811438      0.923      1.216
REMARK  4 active torsions:
REMARK  status: ('A' for Active; 'I' for Inactive)
REMARK    1  A    between atoms: C2_7  and  N3_8 
REMARK    2  A    between atoms: N3_8  and  C3_10 
REMARK    3  A    between atoms: C3_10  and  C4_11 
REMARK    4  A    between atoms: N6_17  and  O3_18 
ROOT
HETATM    1  N3  UNL     1      37.884  17.953 -16.060  1.00  0.00    -0.219 N 
ATOM      2  H3  UNL     1      38.234  18.039 -17.014  1.00  0.00     0.178 HD
ENDROOT
BRANCH   1   3
HETATM    3  C2  UNL     1      38.622  17.420 -15.161  1.00  0.00     0.697 A 
HETATM    4  N2  UNL     1      38.506  16.146 -14.766  1.00  0.00    -0.128 N 
HETATM    5  N1  UNL     1      39.427  15.965 -13.836  1.00  0.00    -0.237 N 
ATOM      6  H2  UNL     1      37.840  15.455 -15.112  1.00  0.00     0.205 HD
HETATM    7  C1  UNL     1      40.117  17.097 -13.640  1.00  0.00     0.353 A 
ATOM      8  H1  UNL     1      39.589  15.089 -13.339  1.00  0.00     0.192 HD
HETATM    9  O1  UNL     1      41.072  17.298 -12.830  1.00  0.00    -0.245 OA
HETATM   10  N7  UNL     1      39.609  18.003 -14.471  1.00  0.00    -0.139 N 
ATOM     11  H7  UNL     1      39.917  18.970 -14.566  1.00  0.00     0.189 HD
ENDBRANCH   1   3
BRANCH   1  12
HETATM   12  C3  UNL     1      36.571  18.429 -15.741  1.00  0.00     0.205 C 
BRANCH  12  13
HETATM   13  C4  UNL     1      35.530  17.707 -16.523  1.00  0.00     0.143 A 
HETATM   14  C5  UNL     1      34.613  18.299 -17.367  1.00  0.00     0.286 A 
HETATM   15  O2  UNL     1      34.540  19.518 -17.583  1.00  0.00    -0.265 OA
HETATM   16  N4  UNL     1      33.855  17.342 -17.880  1.00  0.00    -0.246 N 
HETATM   17  N5  UNL     1      34.271  16.190 -17.385  1.00  0.00     0.009 NA
ATOM     18  H4  UNL     1      33.087  17.472 -18.539  1.00  0.00     0.187 HD
HETATM   19  N6  UNL     1      35.295  16.386 -16.551  1.00  0.00    -0.144 N 
BRANCH  19  20
HETATM   20  O3  UNL     1      35.978  15.401 -15.853  1.00  0.00    -0.269 OA
ATOM     21  H3  UNL     1      35.863  14.461 -15.930  1.00  0.00     0.246 HD
ENDBRANCH  19  20
ENDBRANCH  12  13
ENDBRANCH   1  12
TORSDOF 4
ENDMDL
MODEL 3
REMARK VINA RESULT: -6.324904873      2.957      5.256
REMARK  4 active torsions:
REMARK  status: ('A' for Active; 'I' for Inactive)
REMARK    1  A    between atoms: C2_7  and  N3_8 
REMARK    2  A    between atoms: N3_8  and  C3_10 
REMARK    3  A    between atoms: C3_10  and  C4_11 
REMARK    4  A    between atoms: N6_17  and  O3_18 
ROOT
HETATM    1  N3  UNL     1      36.234  19.454 -16.624  1.00  0.00    -0.219 N 
ATOM      2  H3  UNL     1      36.861  19.947 -17.259  1.00  0.00     0.178 HD
ENDROOT
BRANCH   1   3
HETATM    3  C2  UNL     1      34.969  19.591 -16.751  1.00  0.00     0.697 A 
HETATM    4  N2  UNL     1      34.134  19.763 -15.718  1.00  0.00    -0.128 N 
HETATM    5  N1  UNL     1      32.924  19.866 -16.238  1.00  0.00    -0.237 N 
ATOM      6  H2  UNL     1      34.382  19.806 -14.730  1.00  0.00     0.205 HD
HETATM    7  C1  UNL     1      32.982  19.761 -17.574  1.00  0.00     0.353 A 
ATOM      8  H1  UNL     1      32.068  20.004 -15.700  1.00  0.00     0.192 HD
HETATM    9  O1  UNL     1      32.023  19.812 -18.402  1.00  0.00    -0.245 OA
HETATM   10  N7  UNL     1      34.263  19.590 -17.887  1.00  0.00    -0.139 N 
ATOM     11  H7  UNL     1      34.640  19.477 -18.828  1.00  0.00     0.189 HD
ENDBRANCH   1   3
BRANCH   1  12
HETATM   12  C3  UNL     1      36.779  18.616 -15.597  1.00  0.00     0.205 C 
BRANCH  12  13
HETATM   13  C4  UNL     1      36.015  17.345 -15.475  1.00  0.00     0.143 A 
HETATM   14  C5  UNL     1      35.658  16.739 -14.288  1.00  0.00     0.286 A 
HETATM   15  O2  UNL     1      35.933  17.182 -13.162  1.00  0.00    -0.265 OA
HETATM   16  N4  UNL     1      34.991  15.633 -14.579  1.00  0.00    -0.246 N 
HETATM   17  N5  UNL     1      34.925  15.538 -15.895  1.00  0.00     0.009 NA
ATOM     18  H4  UNL     1      34.600  14.973 -13.907  1.00  0.00     0.187 HD
HETATM   19  N6  UNL     1      35.544  16.573 -16.467  1.00  0.00    -0.144 N 
BRANCH  19  20
HETATM   20  O3  UNL     1      35.669  16.796 -17.830  1.00  0.00    -0.269 OA
ATOM     21  H3  UNL     1      35.244  16.313 -18.530  1.00  0.00     0.246 HD
ENDBRANCH  19  20
ENDBRANCH  12  13
ENDBRANCH   1  12
TORSDOF 4
ENDMDL
MODEL 4
REMARK VINA RESULT: -6.321902487      2.216      5.652
REMARK  4 active torsions:
REMARK  status: ('A' for Active; 'I' for Inactive)
REMARK    1  A    between atoms: C2_7  and  N3_8 
REMARK    2  A    between atoms: N3_8  and  C3_10 
REMARK    3  A    between atoms: C3_10  and  C4_11 
REMARK    4  A    between atoms: N6_17  and  O3_18 
ROOT
HETATM    1  N3  UNL     1      36.061  18.467 -16.826  1.00  0.00    -0.219 N 
ATOM      2  H3  UNL     1      36.889  19.015 -17.059  1.00  0.00     0.178 HD
ENDROOT
BRANCH   1   3
HETATM    3  C2  UNL     1      34.905  19.009 -16.889  1.00  0.00     0.697 A 
HETATM    4  N2  UNL     1      34.156  19.285 -15.813  1.00  0.00    -0.128 N 
HETATM    5  N1  UNL     1      33.045  19.834 -16.270  1.00  0.00    -0.237 N 
ATOM      6  H2  UNL     1      34.396  19.107 -14.837  1.00  0.00     0.205 HD
HETATM    7  C1  UNL     1      33.081  19.908 -17.608  1.00  0.00     0.353 A 
ATOM      8  H1  UNL     1      32.271  20.156 -15.688  1.00  0.00     0.192 HD
HETATM    9  O1  UNL     1      32.195  20.374 -18.387  1.00  0.00    -0.245 OA
HETATM   10  N7  UNL     1      34.245  19.391 -17.988  1.00  0.00    -0.139 N 
ATOM     11  H7  UNL     1      34.577  19.301 -18.948  1.00  0.00     0.189 HD
ENDBRANCH   1   3
BRANCH   1  12
HETATM   12  C3  UNL     1      36.206  17.097 -16.432  1.00  0.00     0.205 C 
BRANCH  12  13
HETATM   13  C4  UNL     1      37.072  16.969 -15.228  1.00  0.00     0.143 A 
HETATM   14  C5  UNL     1      38.405  17.320 -15.162  1.00  0.00     0.286 A 
HETATM   15  O2  UNL     1      39.056  17.789 -16.108  1.00  0.00    -0.265 OA
HETATM   16  N4  UNL     1      38.834  17.063 -13.936  1.00  0.00    -0.246 N 
HETATM   17  N5  UNL     1      37.818  16.572 -13.250  1.00  0.00     0.009 NA
ATOM     18  H4  UNL     1      39.779  17.218 -13.586  1.00  0.00     0.187 HD
HETATM   19  N6  UNL     1      36.728  16.503 -14.017  1.00  0.00    -0.144 N 
BRANCH  19  20
HETATM   20  O3  UNL     1      35.482  16.037 -13.624  1.00  0.00    -0.269 OA
ATOM     21  H3  UNL     1      34.680  16.541 -13.549  1.00  0.00     0.246 HD
ENDBRANCH  19  20
ENDBRANCH  12  13
ENDBRANCH   1  12
TORSDOF 4
ENDMDL
MODEL 5
REMARK VINA RESULT: -6.298776457      2.156      5.739
REMARK  4 active torsions:
REMARK  status: ('A' for Active; 'I' for Inactive)
REMARK    1  A    between atoms: C2_7  and  N3_8 
REMARK    2  A    between atoms: N3_8  and  C3_10 
REMARK    3  A    between atoms: C3_10  and  C4_11 
REMARK    4  A    between atoms: N6_17  and  O3_18 
ROOT
HETATM    1  N3  UNL     1      36.064  18.461 -16.806  1.00  0.00    -0.219 N 
ATOM      2  H3  UNL     1      36.307  17.695 -17.434  1.00  0.00     0.178 HD
ENDROOT
BRANCH   1   3
HETATM    3  C2  UNL     1      34.900  18.988 -16.871  1.00  0.00     0.697 A 
HETATM    4  N2  UNL     1      34.126  19.207 -15.800  1.00  0.00    -0.128 N 
HETATM    5  N1  UNL     1      33.015  19.757 -16.257  1.00  0.00    -0.237 N 
ATOM      6  H2  UNL     1      34.349  18.992 -14.828  1.00  0.00     0.205 HD
HETATM    7  C1  UNL     1      33.077  19.887 -17.590  1.00  0.00     0.353 A 
ATOM      8  H1  UNL     1      32.224  20.041 -15.678  1.00  0.00     0.192 HD
HETATM    9  O1  UNL     1      32.199  20.371 -18.367  1.00  0.00    -0.245 OA
HETATM   10  N7  UNL     1      34.257  19.404 -17.967  1.00  0.00    -0.139 N 
ATOM     11  H7  UNL     1      34.610  19.359 -18.922  1.00  0.00     0.189 HD
ENDBRANCH   1   3
BRANCH   1  12
HETATM   12  C3  UNL     1      37.031  18.936 -15.862  1.00  0.00     0.205 C 
BRANCH  12  13
HETATM   13  C4  UNL     1      37.637  17.812 -15.096  1.00  0.00     0.143 A 
HETATM   14  C5  UNL     1      36.940  16.904 -14.325  1.00  0.00     0.286 A 
HETATM   15  O2  UNL     1      35.710  16.911 -14.171  1.00  0.00    -0.265 OA
HETATM   16  N4  UNL     1      37.814  16.058 -13.803  1.00  0.00    -0.246 N 
HETATM   17  N5  UNL     1      39.016  16.410 -14.223  1.00  0.00     0.009 NA
ATOM     18  H4  UNL     1      37.598  15.275 -13.186  1.00  0.00     0.187 HD
HETATM   19  N6  UNL     1      38.936  17.481 -15.016  1.00  0.00    -0.144 N 
BRANCH  19  20
HETATM   20  O3  UNL     1      40.000  18.120 -15.634  1.00  0.00    -0.269 OA
ATOM     21  H3  UNL     1      40.917  18.070 -15.390  1.00  0.00     0.246 HD
ENDBRANCH  19  20
ENDBRANCH  12  13
ENDBRANCH   1  12
TORSDOF 4
ENDMDL
