MODEL 1
REMARK VINA RESULT: -6.700452135      0.000      0.000
REMARK  5 active torsions:
REMARK  status: ('A' for Active; 'I' for Inactive)
REMARK    1  A    between atoms: N1_1  and  C1_4 
REMARK    2  A    between atoms: C3_11  and  N4_12 
REMARK       I    between atoms: N4_12  and  C4_14 
REMARK    3  A    between atoms: C4_14  and  C5_16 
REMARK    4  A    between atoms: C5_16  and  N5_17 
REMARK    5  A    between atoms: C5_16  and  C6_21 
ROOT
HETATM    1  C1  UNL     1      39.066  15.918 -14.547  1.00  0.00     0.694 A 
HETATM    2  N2  UNL     1      39.846  16.942 -14.944  1.00  0.00    -0.141 N 
ATOM      3  H2  UNL     1      40.858  16.834 -15.020  1.00  0.00     0.189 HD
HETATM    4  C2  UNL     1      39.251  18.112 -15.237  1.00  0.00     0.352 A 
HETATM    5  O1  UNL     1      39.957  19.100 -15.614  1.00  0.00    -0.246 OA
HETATM    6  N3  UNL     1      37.918  18.260 -15.139  1.00  0.00    -0.140 N 
ATOM      7  H3  UNL     1      37.494  19.159 -15.368  1.00  0.00     0.189 HD
HETATM    8  C3  UNL     1      37.133  17.237 -14.742  1.00  0.00     0.703 A 
HETATM    9  N6  UNL     1      37.736  16.081 -14.454  1.00  0.00    -0.022 N 
ATOM     10  H6  UNL     1      37.165  15.292 -14.151  1.00  0.00     0.203 HD
ENDROOT
BRANCH   8  11
HETATM   11  N4  UNL     1      35.833  17.377 -14.645  1.00  0.00    -0.157 N 
HETATM   12  C4  UNL     1      34.968  16.872 -15.635  1.00  0.00     0.273 C 
HETATM   13  O2  UNL     1      34.807  15.647 -15.729  1.00  0.00    -0.270 OA
ATOM     14  H4  UNL     1      35.440  17.862 -13.839  1.00  0.00     0.187 HD
BRANCH  12  15
HETATM   15  C5  UNL     1      34.277  17.803 -16.533  1.00  0.00     0.336 C 
BRANCH  15  16
HETATM   16  N5  UNL     1      34.945  17.744 -17.831  1.00  0.00    -0.060 N 
ATOM     17  H53 UNL     1      35.083  16.790 -18.164  1.00  0.00     0.275 HD
ATOM     18  H52 UNL     1      34.353  18.068 -18.597  1.00  0.00     0.275 HD
ATOM     19  H51 UNL     1      35.816  18.267 -17.754  1.00  0.00     0.275 HD
ENDBRANCH  15  16
BRANCH  15  20
HETATM   20  C6  UNL     1      34.273  19.196 -16.018  1.00  0.00     0.273 C 
HETATM   21  O3  UNL     1      33.293  19.879 -16.226  1.00  0.00    -0.304 OA
ENDBRANCH  15  20
ENDBRANCH  12  15
ENDBRANCH   8  11
BRANCH   1  22
HETATM   22  N1  UNL     1      39.638  14.782 -14.261  1.00  0.00    -0.234 N 
ATOM     23  H12 UNL     1      40.340  14.706 -13.524  1.00  0.00     0.174 HD
ATOM     24  H11 UNL     1      39.367  13.956 -14.796  1.00  0.00     0.174 HD
ENDBRANCH   1  22
TORSDOF 5
ENDMDL
MODEL 2
REMARK VINA RESULT: -6.642201680      1.319      2.057
REMARK  5 active torsions:
REMARK  status: ('A' for Active; 'I' for Inactive)
REMARK    1  A    between atoms: N1_1  and  C1_4 
REMARK    2  A    between atoms: C3_11  and  N4_12 
REMARK       I    between atoms: N4_12  and  C4_14 
REMARK    3  A    between atoms: C4_14  and  C5_16 
REMARK    4  A    between atoms: C5_16  and  N5_17 
REMARK    5  A    between atoms: C5_16  and  C6_21 
ROOT
HETATM    1  C1  UNL     1      39.140  18.312 -15.392  1.00  0.00     0.694 A 
HETATM    2  N2  UNL     1      39.762  17.225 -14.897  1.00  0.00    -0.141 N 
ATOM      3  H2  UNL     1      40.779  17.146 -14.919  1.00  0.00     0.189 HD
HETATM    4  C2  UNL     1      39.004  16.247 -14.371  1.00  0.00     0.352 A 
HETATM    5  O1  UNL     1      39.559  15.206 -13.895  1.00  0.00    -0.246 OA
HETATM    6  N3  UNL     1      37.663  16.346 -14.338  1.00  0.00    -0.140 N 
ATOM      7  H3  UNL     1      37.113  15.588 -13.933  1.00  0.00     0.189 HD
HETATM    8  C3  UNL     1      37.035  17.433 -14.833  1.00  0.00     0.703 A 
HETATM    9  N6  UNL     1      37.800  18.396 -15.352  1.00  0.00    -0.022 N 
ATOM     10  H6  UNL     1      37.349  19.228 -15.733  1.00  0.00     0.203 HD
ENDROOT
BRANCH   8  11
HETATM   11  N4  UNL     1      35.728  17.533 -14.803  1.00  0.00    -0.157 N 
HETATM   12  C4  UNL     1      34.925  16.923 -15.787  1.00  0.00     0.273 C 
HETATM   13  O2  UNL     1      34.809  15.691 -15.793  1.00  0.00    -0.270 OA
ATOM     14  H4  UNL     1      35.284  18.062 -14.053  1.00  0.00     0.187 HD
BRANCH  12  15
HETATM   15  C5  UNL     1      34.245  17.759 -16.782  1.00  0.00     0.336 C 
BRANCH  15  16
HETATM   16  N5  UNL     1      34.791  17.417 -18.094  1.00  0.00    -0.060 N 
ATOM     17  H53 UNL     1      35.316  18.183 -18.517  1.00  0.00     0.275 HD
ATOM     18  H52 UNL     1      35.556  16.743 -18.042  1.00  0.00     0.275 HD
ATOM     19  H51 UNL     1      34.018  17.097 -18.676  1.00  0.00     0.275 HD
ENDBRANCH  15  16
BRANCH  15  20
HETATM   20  C6  UNL     1      34.410  19.211 -16.517  1.00  0.00     0.273 C 
HETATM   21  O3  UNL     1      33.614  19.750 -15.778  1.00  0.00    -0.304 OA
ENDBRANCH  15  20
ENDBRANCH  12  15
ENDBRANCH   8  11
BRANCH   1  22
HETATM   22  N1  UNL     1      39.870  19.262 -15.903  1.00  0.00    -0.234 N 
ATOM     23  H12 UNL     1      40.040  19.327 -16.907  1.00  0.00     0.174 HD
ATOM     24  H11 UNL     1      40.277  19.952 -15.271  1.00  0.00     0.174 HD
ENDBRANCH   1  22
TORSDOF 5
ENDMDL
MODEL 3
REMARK VINA RESULT: -6.248385823      2.191      5.353
REMARK  5 active torsions:
REMARK  status: ('A' for Active; 'I' for Inactive)
REMARK    1  A    between atoms: N1_1  and  C1_4 
REMARK    2  A    between atoms: C3_11  and  N4_12 
REMARK       I    between atoms: N4_12  and  C4_14 
REMARK    3  A    between atoms: C4_14  and  C5_16 
REMARK    4  A    between atoms: C5_16  and  N5_17 
REMARK    5  A    between atoms: C5_16  and  C6_21 
ROOT
HETATM    1  C1  UNL     1      34.574  18.696 -16.194  1.00  0.00     0.694 A 
HETATM    2  N2  UNL     1      33.934  17.728 -16.877  1.00  0.00    -0.141 N 
ATOM      3  H2  UNL     1      32.932  17.789 -17.061  1.00  0.00     0.189 HD
HETATM    4  C2  UNL     1      34.655  16.679 -17.311  1.00  0.00     0.352 A 
HETATM    5  O1  UNL     1      34.082  15.746 -17.959  1.00  0.00    -0.246 OA
HETATM    6  N3  UNL     1      35.975  16.594 -17.073  1.00  0.00    -0.140 N 
ATOM      7  H3  UNL     1      36.497  15.786 -17.414  1.00  0.00     0.189 HD
HETATM    8  C3  UNL     1      36.621  17.562 -16.389  1.00  0.00     0.703 A 
HETATM    9  N6  UNL     1      35.894  18.597 -15.964  1.00  0.00    -0.022 N 
ATOM     10  H6  UNL     1      36.359  19.342 -15.445  1.00  0.00     0.203 HD
ENDROOT
BRANCH   8  11
HETATM   11  N4  UNL     1      37.909  17.483 -16.155  1.00  0.00    -0.157 N 
HETATM   12  C4  UNL     1      38.462  17.954 -14.949  1.00  0.00     0.273 C 
HETATM   13  O2  UNL     1      38.255  17.326 -13.902  1.00  0.00    -0.270 OA
ATOM     14  H4  UNL     1      38.521  17.072 -16.859  1.00  0.00     0.187 HD
BRANCH  12  15
HETATM   15  C5  UNL     1      39.271  19.178 -14.956  1.00  0.00     0.336 C 
BRANCH  15  16
HETATM   16  N5  UNL     1      38.492  20.219 -15.624  1.00  0.00    -0.060 N 
ATOM     17  H53 UNL     1      38.287  19.998 -16.598  1.00  0.00     0.275 HD
ATOM     18  H52 UNL     1      37.528  20.267 -15.292  1.00  0.00     0.275 HD
ATOM     19  H51 UNL     1      38.994  21.099 -15.513  1.00  0.00     0.275 HD
ENDBRANCH  15  16
BRANCH  15  20
HETATM   20  C6  UNL     1      40.578  18.995 -15.638  1.00  0.00     0.273 C 
HETATM   21  O3  UNL     1      41.066  17.886 -15.648  1.00  0.00    -0.304 OA
ENDBRANCH  15  20
ENDBRANCH  12  15
ENDBRANCH   8  11
BRANCH   1  22
HETATM   22  N1  UNL     1      33.880  19.715 -15.771  1.00  0.00    -0.234 N 
ATOM     23  H12 UNL     1      33.850  20.594 -16.288  1.00  0.00     0.174 HD
ATOM     24  H11 UNL     1      33.360  19.616 -14.899  1.00  0.00     0.174 HD
ENDBRANCH   1  22
TORSDOF 5
ENDMDL
MODEL 4
REMARK VINA RESULT: -6.185343031      1.390      2.087
REMARK  5 active torsions:
REMARK  status: ('A' for Active; 'I' for Inactive)
REMARK    1  A    between atoms: N1_1  and  C1_4 
REMARK    2  A    between atoms: C3_11  and  N4_12 
REMARK       I    between atoms: N4_12  and  C4_14 
REMARK    3  A    between atoms: C4_14  and  C5_16 
REMARK    4  A    between atoms: C5_16  and  N5_17 
REMARK    5  A    between atoms: C5_16  and  C6_21 
ROOT
HETATM    1  C1  UNL     1      38.521  16.919 -14.527  1.00  0.00     0.694 A 
HETATM    2  N2  UNL     1      39.628  17.656 -14.317  1.00  0.00    -0.141 N 
ATOM      3  H2  UNL     1      40.446  17.256 -13.856  1.00  0.00     0.189 HD
HETATM    4  C2  UNL     1      39.625  18.934 -14.734  1.00  0.00     0.352 A 
HETATM    5  O1  UNL     1      40.655  19.659 -14.552  1.00  0.00    -0.246 OA
HETATM    6  N3  UNL     1      38.551  19.466 -15.343  1.00  0.00    -0.140 N 
ATOM      7  H3  UNL     1      38.577  20.439 -15.649  1.00  0.00     0.189 HD
HETATM    8  C3  UNL     1      37.439  18.732 -15.555  1.00  0.00     0.703 A 
HETATM    9  N6  UNL     1      37.455  17.464 -15.136  1.00  0.00    -0.022 N 
ATOM     10  H6  UNL     1      36.627  16.888 -15.285  1.00  0.00     0.203 HD
ENDROOT
BRANCH   8  11
HETATM   11  N4  UNL     1      36.389  19.246 -16.149  1.00  0.00    -0.157 N 
HETATM   12  C4  UNL     1      35.145  18.587 -16.135  1.00  0.00     0.273 C 
HETATM   13  O2  UNL     1      34.498  18.538 -15.081  1.00  0.00    -0.270 OA
ATOM     14  H4  UNL     1      36.475  20.142 -16.630  1.00  0.00     0.187 HD
BRANCH  12  15
HETATM   15  C5  UNL     1      34.642  17.970 -17.368  1.00  0.00     0.336 C 
BRANCH  15  16
HETATM   16  N5  UNL     1      33.408  18.661 -17.736  1.00  0.00    -0.060 N 
ATOM     17  H53 UNL     1      33.563  19.434 -18.383  1.00  0.00     0.275 HD
ATOM     18  H52 UNL     1      32.804  18.102 -18.339  1.00  0.00     0.275 HD
ATOM     19  H51 UNL     1      32.948  18.952 -16.873  1.00  0.00     0.275 HD
ENDBRANCH  15  16
BRANCH  15  20
HETATM   20  C6  UNL     1      34.393  16.514 -17.218  1.00  0.00     0.273 C 
HETATM   21  O3  UNL     1      35.180  15.865 -16.565  1.00  0.00    -0.304 OA
ENDBRANCH  15  20
ENDBRANCH  12  15
ENDBRANCH   8  11
BRANCH   1  22
HETATM   22  N1  UNL     1      38.519  15.680 -14.124  1.00  0.00    -0.234 N 
ATOM     23  H12 UNL     1      39.297  15.288 -13.593  1.00  0.00     0.174 HD
ATOM     24  H11 UNL     1      37.712  15.099 -14.353  1.00  0.00     0.174 HD
ENDBRANCH   1  22
TORSDOF 5
ENDMDL
MODEL 5
REMARK VINA RESULT: -6.181971892      2.175      5.093
REMARK  5 active torsions:
REMARK  status: ('A' for Active; 'I' for Inactive)
REMARK    1  A    between atoms: N1_1  and  C1_4 
REMARK    2  A    between atoms: C3_11  and  N4_12 
REMARK       I    between atoms: N4_12  and  C4_14 
REMARK    3  A    between atoms: C4_14  and  C5_16 
REMARK    4  A    between atoms: C5_16  and  N5_17 
REMARK    5  A    between atoms: C5_16  and  C6_21 
ROOT
HETATM    1  C1  UNL     1      35.858  16.484 -14.195  1.00  0.00     0.694 A 
HETATM    2  N2  UNL     1      34.956  16.078 -15.109  1.00  0.00    -0.141 N 
ATOM      3  H2  UNL     1      34.099  15.603 -14.826  1.00  0.00     0.189 HD
HETATM    4  C2  UNL     1      35.219  16.319 -16.406  1.00  0.00     0.352 A 
HETATM    5  O1  UNL     1      34.388  15.948 -17.295  1.00  0.00    -0.246 OA
HETATM    6  N3  UNL     1      36.347  16.945 -16.784  1.00  0.00    -0.140 N 
ATOM      7  H3  UNL     1      36.520  17.114 -17.776  1.00  0.00     0.189 HD
HETATM    8  C3  UNL     1      37.253  17.353 -15.872  1.00  0.00     0.703 A 
HETATM    9  N6  UNL     1      36.981  17.108 -14.588  1.00  0.00    -0.022 N 
ATOM     10  H6  UNL     1      37.651  17.407 -13.879  1.00  0.00     0.203 HD
ENDROOT
BRANCH   8  11
HETATM   11  N4  UNL     1      38.355  17.965 -16.237  1.00  0.00    -0.157 N 
HETATM   12  C4  UNL     1      39.473  18.029 -15.383  1.00  0.00     0.273 C 
HETATM   13  O2  UNL     1      40.136  17.004 -15.177  1.00  0.00    -0.270 OA
ATOM     14  H4  UNL     1      38.403  18.402 -17.157  1.00  0.00     0.187 HD
BRANCH  12  15
HETATM   15  C5  UNL     1      39.828  19.306 -14.755  1.00  0.00     0.336 C 
BRANCH  15  16
HETATM   16  N5  UNL     1      39.154  20.368 -15.500  1.00  0.00    -0.060 N 
ATOM     17  H53 UNL     1      39.767  20.835 -16.168  1.00  0.00     0.275 HD
ATOM     18  H52 UNL     1      38.472  20.011 -16.170  1.00  0.00     0.275 HD
ATOM     19  H51 UNL     1      38.744  21.009 -14.821  1.00  0.00     0.275 HD
ENDBRANCH  15  16
BRANCH  15  20
HETATM   20  C6  UNL     1      41.294  19.543 -14.731  1.00  0.00     0.273 C 
HETATM   21  O3  UNL     1      41.868  19.457 -13.668  1.00  0.00    -0.304 OA
ENDBRANCH  15  20
ENDBRANCH  12  15
ENDBRANCH   8  11
BRANCH   1  22
HETATM   22  N1  UNL     1      35.609  16.253 -12.937  1.00  0.00    -0.234 N 
ATOM     23  H12 UNL     1      34.922  15.557 -12.646  1.00  0.00     0.174 HD
ATOM     24  H11 UNL     1      36.122  16.789 -12.236  1.00  0.00     0.174 HD
ENDBRANCH   1  22
TORSDOF 5
ENDMDL
