MODEL 1
REMARK VINA RESULT: -6.177691883      0.000      0.000
REMARK  1 active torsions:
REMARK  status: ('A' for Active; 'I' for Inactive)
REMARK    1  A    between atoms: C5_14  and  C6_15 
ROOT
HETATM    1  N1  UNL     1      39.618  14.587 -14.271  1.00  0.00    -0.234 N 
ATOM      2  H11 UNL     1      38.977  13.856 -14.580  1.00  0.00     0.174 HD
ATOM      3  H12 UNL     1      40.552  14.506 -13.870  1.00  0.00     0.174 HD
HETATM    4  C1  UNL     1      39.210  15.826 -14.395  1.00  0.00     0.680 C 
HETATM    5  N2  UNL     1      40.104  16.845 -13.965  1.00  0.00    -0.152 N 
ATOM      6  H2  UNL     1      40.874  16.534 -13.374  1.00  0.00     0.188 HD
HETATM    7  C2  UNL     1      40.069  18.239 -14.248  1.00  0.00     0.328 C 
HETATM    8  O1  UNL     1      40.973  18.960 -13.767  1.00  0.00    -0.261 OA
HETATM    9  C3  UNL     1      39.062  18.952 -15.067  1.00  0.00     0.315 C 
HETATM   10  O2  UNL     1      39.215  20.190 -15.218  1.00  0.00    -0.262 OA
HETATM   11  N3  UNL     1      37.913  18.370 -15.715  1.00  0.00    -0.304 N 
ATOM     12  H3  UNL     1      37.552  18.868 -16.530  1.00  0.00     0.171 HD
HETATM   13  C4  UNL     1      37.224  17.176 -15.345  1.00  0.00     0.128 C 
HETATM   14  C5  UNL     1      35.935  17.167 -15.328  1.00  0.00     0.120 C 
HETATM   15  N5  UNL     1      37.896  15.939 -14.960  1.00  0.00    -0.177 N 
ATOM     16  H5  UNL     1      37.381  15.070 -15.106  1.00  0.00     0.185 HD
ENDROOT
BRANCH  14  17
HETATM   17  C6  UNL     1      35.047  18.244 -15.640  1.00  0.00     0.258 C 
HETATM   18  N4  UNL     1      35.256  19.088 -16.794  1.00  0.00    -0.058 NA
HETATM   19  O3  UNL     1      34.023  18.543 -14.947  1.00  0.00    -0.272 OA
ENDBRANCH  14  17
TORSDOF 1
ENDMDL
MODEL 2
REMARK VINA RESULT: -5.885452368      2.147      3.133
REMARK  1 active torsions:
REMARK  status: ('A' for Active; 'I' for Inactive)
REMARK    1  A    between atoms: C5_14  and  C6_15 
ROOT
HETATM    1  N1  UNL     1      39.600  20.504 -15.407  1.00  0.00    -0.234 N 
ATOM      2  H11 UNL     1      38.837  21.174 -15.500  1.00  0.00     0.174 HD
ATOM      3  H12 UNL     1      40.603  20.667 -15.325  1.00  0.00     0.174 HD
HETATM    4  C1  UNL     1      39.275  19.235 -15.383  1.00  0.00     0.680 C 
HETATM    5  N2  UNL     1      40.339  18.300 -15.252  1.00  0.00    -0.152 N 
ATOM      6  H2  UNL     1      41.273  18.666 -15.435  1.00  0.00     0.188 HD
HETATM    7  C2  UNL     1      40.277  16.923 -14.900  1.00  0.00     0.328 C 
HETATM    8  O1  UNL     1      41.351  16.282 -14.835  1.00  0.00    -0.261 OA
HETATM    9  C3  UNL     1      39.057  16.140 -14.595  1.00  0.00     0.315 C 
HETATM   10  O2  UNL     1      39.211  14.932 -14.284  1.00  0.00    -0.262 OA
HETATM   11  N3  UNL     1      37.698  16.622 -14.618  1.00  0.00    -0.304 N 
ATOM     12  H3  UNL     1      37.030  16.122 -14.030  1.00  0.00     0.171 HD
HETATM   13  C4  UNL     1      37.183  17.721 -15.370  1.00  0.00     0.128 C 
HETATM   14  C5  UNL     1      36.063  17.592 -15.993  1.00  0.00     0.120 C 
HETATM   15  N5  UNL     1      37.864  19.006 -15.497  1.00  0.00    -0.177 N 
ATOM     16  H5  UNL     1      37.279  19.820 -15.686  1.00  0.00     0.185 HD
ENDROOT
BRANCH  14  17
HETATM   17  C6  UNL     1      35.216  16.441 -16.045  1.00  0.00     0.258 C 
HETATM   18  N4  UNL     1      34.596  16.011 -17.277  1.00  0.00    -0.058 NA
HETATM   19  O3  UNL     1      34.944  15.714 -15.036  1.00  0.00    -0.272 OA
ENDBRANCH  14  17
TORSDOF 1
ENDMDL
MODEL 3
REMARK VINA RESULT: -5.762563120      2.494      5.462
REMARK  1 active torsions:
REMARK  status: ('A' for Active; 'I' for Inactive)
REMARK    1  A    between atoms: C5_14  and  C6_15 
ROOT
HETATM    1  N1  UNL     1      33.547  15.697 -18.760  1.00  0.00    -0.234 N 
ATOM      2  H11 UNL     1      34.006  14.789 -18.689  1.00  0.00     0.174 HD
ATOM      3  H12 UNL     1      32.777  15.991 -19.360  1.00  0.00     0.174 HD
HETATM    4  C1  UNL     1      33.990  16.650 -17.978  1.00  0.00     0.680 C 
HETATM    5  N2  UNL     1      33.351  17.916 -18.077  1.00  0.00    -0.152 N 
ATOM      6  H2  UNL     1      32.776  18.055 -18.908  1.00  0.00     0.188 HD
HETATM    7  C2  UNL     1      33.403  19.015 -17.175  1.00  0.00     0.328 C 
HETATM    8  O1  UNL     1      32.748  20.043 -17.459  1.00  0.00    -0.261 OA
HETATM    9  C3  UNL     1      34.164  19.083 -15.906  1.00  0.00     0.315 C 
HETATM   10  O2  UNL     1      34.067  20.141 -15.233  1.00  0.00    -0.262 OA
HETATM   11  N3  UNL     1      35.013  18.056 -15.355  1.00  0.00    -0.304 N 
ATOM     12  H3  UNL     1      35.145  18.071 -14.344  1.00  0.00     0.171 HD
HETATM   13  C4  UNL     1      35.688  17.020 -16.067  1.00  0.00     0.128 C 
HETATM   14  C5  UNL     1      36.917  16.752 -15.782  1.00  0.00     0.120 C 
HETATM   15  N5  UNL     1      35.074  16.235 -17.134  1.00  0.00    -0.177 N 
ATOM     16  H5  UNL     1      35.452  15.301 -17.295  1.00  0.00     0.185 HD
ENDROOT
BRANCH  14  17
HETATM   17  C6  UNL     1      37.746  17.381 -14.802  1.00  0.00     0.258 C 
HETATM   18  N4  UNL     1      38.316  18.691 -15.020  1.00  0.00    -0.058 NA
HETATM   19  O3  UNL     1      38.045  16.856 -13.682  1.00  0.00    -0.272 OA
ENDBRANCH  14  17
TORSDOF 1
ENDMDL
MODEL 4
REMARK VINA RESULT: -5.589644171      3.199      4.076
REMARK  1 active torsions:
REMARK  status: ('A' for Active; 'I' for Inactive)
REMARK    1  A    between atoms: C5_14  and  C6_15 
ROOT
HETATM    1  N1  UNL     1      35.258  17.092 -12.256  1.00  0.00    -0.234 N 
ATOM      2  H11 UNL     1      34.470  17.593 -11.846  1.00  0.00     0.174 HD
ATOM      3  H12 UNL     1      35.959  16.503 -11.808  1.00  0.00     0.174 HD
HETATM    4  C1  UNL     1      35.422  17.201 -13.551  1.00  0.00     0.680 C 
HETATM    5  N2  UNL     1      36.520  16.503 -14.124  1.00  0.00    -0.152 N 
ATOM      6  H2  UNL     1      37.230  16.182 -13.465  1.00  0.00     0.188 HD
HETATM    7  C2  UNL     1      36.765  16.192 -15.490  1.00  0.00     0.328 C 
HETATM    8  O1  UNL     1      37.804  15.554 -15.773  1.00  0.00    -0.261 OA
HETATM    9  C3  UNL     1      35.909  16.546 -16.646  1.00  0.00     0.315 C 
HETATM   10  O2  UNL     1      36.288  16.162 -17.781  1.00  0.00    -0.262 OA
HETATM   11  N3  UNL     1      34.675  17.292 -16.607  1.00  0.00    -0.304 N 
ATOM     12  H3  UNL     1      34.020  17.125 -17.371  1.00  0.00     0.171 HD
HETATM   13  C4  UNL     1      34.268  18.236 -15.617  1.00  0.00     0.128 C 
HETATM   14  C5  UNL     1      33.734  19.350 -15.986  1.00  0.00     0.120 C 
HETATM   15  N5  UNL     1      34.435  18.030 -14.182  1.00  0.00    -0.177 N 
ATOM     16  H5  UNL     1      33.786  18.523 -13.567  1.00  0.00     0.185 HD
ENDROOT
BRANCH  14  17
HETATM   17  C6  UNL     1      33.480  19.800 -17.319  1.00  0.00     0.258 C 
HETATM   18  N4  UNL     1      32.178  20.283 -17.722  1.00  0.00    -0.058 NA
HETATM   19  O3  UNL     1      34.356  19.816 -18.242  1.00  0.00    -0.272 OA
ENDBRANCH  14  17
TORSDOF 1
ENDMDL
MODEL 5
REMARK VINA RESULT: -5.179217596      1.383      1.413
REMARK  1 active torsions:
REMARK  status: ('A' for Active; 'I' for Inactive)
REMARK    1  A    between atoms: C5_14  and  C6_15 
ROOT
HETATM    1  N1  UNL     1      41.084  15.090 -14.365  1.00  0.00    -0.234 N 
ATOM      2  H11 UNL     1      40.625  14.179 -14.373  1.00  0.00     0.174 HD
ATOM      3  H12 UNL     1      42.078  15.318 -14.356  1.00  0.00     0.174 HD
HETATM    4  C1  UNL     1      40.308  16.146 -14.365  1.00  0.00     0.680 C 
HETATM    5  N2  UNL     1      40.947  17.416 -14.354  1.00  0.00    -0.152 N 
ATOM      6  H2  UNL     1      41.934  17.410 -14.098  1.00  0.00     0.188 HD
HETATM    7  C2  UNL     1      40.397  18.694 -14.651  1.00  0.00     0.328 C 
HETATM    8  O1  UNL     1      41.152  19.690 -14.586  1.00  0.00    -0.261 OA
HETATM    9  C3  UNL     1      38.998  18.987 -15.039  1.00  0.00     0.315 C 
HETATM   10  O2  UNL     1      38.708  20.186 -15.282  1.00  0.00    -0.262 OA
HETATM   11  N3  UNL     1      37.923  18.035 -15.167  1.00  0.00    -0.304 N 
ATOM     12  H3  UNL     1      37.161  18.293 -15.794  1.00  0.00     0.171 HD
HETATM   13  C4  UNL     1      37.807  16.770 -14.516  1.00  0.00     0.128 C 
HETATM   14  C5  UNL     1      36.678  16.426 -13.998  1.00  0.00     0.120 C 
HETATM   15  N5  UNL     1      38.910  15.824 -14.377  1.00  0.00    -0.177 N 
ATOM     16  H5  UNL     1      38.663  14.839 -14.280  1.00  0.00     0.185 HD
ENDROOT
BRANCH  14  17
HETATM   17  C6  UNL     1      35.458  17.172 -13.979  1.00  0.00     0.258 C 
HETATM   18  N4  UNL     1      34.745  17.491 -15.195  1.00  0.00    -0.058 NA
HETATM   19  O3  UNL     1      34.910  17.608 -12.916  1.00  0.00    -0.272 OA
ENDBRANCH  14  17
TORSDOF 1
ENDMDL
