MODEL 1
REMARK VINA RESULT: -7.512564222      0.000      0.000
REMARK  3 active torsions:
REMARK  status: ('A' for Active; 'I' for Inactive)
REMARK    1  A    between atoms: C3_7  and  C4_8 
REMARK    2  A    between atoms: C4_8  and  N2_9 
REMARK    3  A    between atoms: N2_9  and  C5_11 
ROOT
HETATM    1  C4  UNL     1      36.349  16.726 -16.665  1.00  0.00     0.129 C 
ENDROOT
BRANCH   1   2
HETATM    2  C3  UNL     1      37.341  16.253 -15.924  1.00  0.00     0.116 A 
HETATM    3  C2  UNL     1      37.407  16.590 -14.515  1.00  0.00     0.266 A 
HETATM    4  N1  UNL     1      38.472  16.084 -13.710  1.00  0.00    -0.275 N 
HETATM    5  O2  UNL     1      36.525  17.321 -14.025  1.00  0.00    -0.267 OA
HETATM    6  C1  UNL     1      39.487  15.248 -14.250  1.00  0.00     0.329 A 
ATOM      7  H1  UNL     1      38.505  16.329 -12.721  1.00  0.00     0.173 HD
HETATM    8  O1  UNL     1      40.410  14.823 -13.507  1.00  0.00    -0.246 OA
HETATM    9  N6  UNL     1      39.431  14.913 -15.630  1.00  0.00    -0.275 N 
HETATM   10  C7  UNL     1      38.382  15.398 -16.471  1.00  0.00     0.266 A 
ATOM     11  H6  UNL     1      40.155  14.314 -16.029  1.00  0.00     0.173 HD
HETATM   12  O4  UNL     1      38.337  15.097 -17.696  1.00  0.00    -0.267 OA
ENDBRANCH   1   2
BRANCH   1  13
HETATM   13  N2  UNL     1      36.298  18.104 -17.013  1.00  0.00    -0.199 N 
ATOM     14  H2  UNL     1      37.126  18.586 -17.362  1.00  0.00     0.183 HD
BRANCH  13  15
HETATM   15  C5  UNL     1      35.172  18.731 -16.876  1.00  0.00     0.700 A 
HETATM   16  N3  UNL     1      34.490  19.045 -15.768  1.00  0.00    -0.128 N 
HETATM   17  N4  UNL     1      33.374  19.693 -16.060  1.00  0.00    -0.237 N 
ATOM     18  H3  UNL     1      34.791  18.815 -14.822  1.00  0.00     0.205 HD
HETATM   19  C6  UNL     1      33.315  19.812 -17.406  1.00  0.00     0.353 A 
ATOM     20  H4  UNL     1      32.685  20.040 -15.393  1.00  0.00     0.192 HD
HETATM   21  O3  UNL     1      32.369  20.385 -18.017  1.00  0.00    -0.245 OA
HETATM   22  N5  UNL     1      34.419  19.221 -17.899  1.00  0.00    -0.139 N 
ATOM     23  H5  UNL     1      34.655  19.150 -18.889  1.00  0.00     0.189 HD
ENDBRANCH  13  15
ENDBRANCH   1  13
TORSDOF 3
ENDMDL
MODEL 2
REMARK VINA RESULT: -7.461485063      2.191      6.160
REMARK  3 active torsions:
REMARK  status: ('A' for Active; 'I' for Inactive)
REMARK    1  A    between atoms: C3_7  and  C4_8 
REMARK    2  A    between atoms: C4_8  and  N2_9 
REMARK    3  A    between atoms: N2_9  and  C5_11 
ROOT
HETATM    1  C4  UNL     1      36.634  16.273 -16.364  1.00  0.00     0.129 C 
ENDROOT
BRANCH   1   2
HETATM    2  C3  UNL     1      35.762  17.249 -16.576  1.00  0.00     0.116 A 
HETATM    3  C2  UNL     1      34.511  16.959 -17.249  1.00  0.00     0.266 A 
HETATM    4  N1  UNL     1      33.567  18.005 -17.481  1.00  0.00    -0.275 N 
HETATM    5  O2  UNL     1      34.277  15.792 -17.616  1.00  0.00    -0.267 OA
HETATM    6  C1  UNL     1      33.815  19.343 -17.070  1.00  0.00     0.329 A 
ATOM      7  H1  UNL     1      32.692  17.786 -17.956  1.00  0.00     0.173 HD
HETATM    8  O1  UNL     1      32.958  20.237 -17.293  1.00  0.00    -0.246 OA
HETATM    9  N6  UNL     1      35.040  19.637 -16.409  1.00  0.00    -0.275 N 
HETATM   10  C7  UNL     1      36.011  18.619 -16.157  1.00  0.00     0.266 A 
ATOM     11  H6  UNL     1      35.228  20.594 -16.109  1.00  0.00     0.173 HD
HETATM   12  O4  UNL     1      37.097  18.886 -15.570  1.00  0.00    -0.267 OA
ENDBRANCH   1   2
BRANCH   1  13
HETATM   13  N2  UNL     1      37.707  16.049 -17.271  1.00  0.00    -0.199 N 
ATOM     14  H2  UNL     1      37.528  15.733 -18.224  1.00  0.00     0.183 HD
BRANCH  13  15
HETATM   15  C5  UNL     1      38.916  16.257 -16.855  1.00  0.00     0.700 A 
HETATM   16  N3  UNL     1      39.869  15.387 -16.504  1.00  0.00    -0.128 N 
HETATM   17  N4  UNL     1      40.975  16.010 -16.133  1.00  0.00    -0.237 N 
ATOM     18  H3  UNL     1      39.758  14.373 -16.519  1.00  0.00     0.205 HD
HETATM   19  C6  UNL     1      40.747  17.339 -16.243  1.00  0.00     0.353 A 
ATOM     20  H4  UNL     1      41.841  15.570 -15.822  1.00  0.00     0.192 HD
HETATM   21  O3  UNL     1      41.607  18.221 -15.964  1.00  0.00    -0.245 OA
HETATM   22  N5  UNL     1      39.485  17.483 -16.685  1.00  0.00    -0.139 N 
ATOM     23  H5  UNL     1      39.024  18.375 -16.865  1.00  0.00     0.189 HD
ENDBRANCH  13  15
ENDBRANCH   1  13
TORSDOF 3
ENDMDL
MODEL 3
REMARK VINA RESULT: -7.458199422      0.063      1.998
REMARK  3 active torsions:
REMARK  status: ('A' for Active; 'I' for Inactive)
REMARK    1  A    between atoms: C3_7  and  C4_8 
REMARK    2  A    between atoms: C4_8  and  N2_9 
REMARK    3  A    between atoms: N2_9  and  C5_11 
ROOT
HETATM    1  C4  UNL     1      36.392  16.788 -16.673  1.00  0.00     0.129 C 
ENDROOT
BRANCH   1   2
HETATM    2  C3  UNL     1      37.346  16.298 -15.894  1.00  0.00     0.116 A 
HETATM    3  C2  UNL     1      38.364  15.436 -16.462  1.00  0.00     0.266 A 
HETATM    4  N1  UNL     1      39.395  14.905 -15.630  1.00  0.00    -0.275 N 
HETATM    5  O2  UNL     1      38.322  15.170 -17.679  1.00  0.00    -0.267 OA
HETATM    6  C1  UNL     1      39.460  15.196 -14.240  1.00  0.00     0.329 A 
ATOM      7  H1  UNL     1      40.104  14.300 -16.044  1.00  0.00     0.173 HD
HETATM    8  O1  UNL     1      40.385  14.708 -13.540  1.00  0.00    -0.246 OA
HETATM    9  N6  UNL     1      38.466  16.041 -13.673  1.00  0.00    -0.275 N 
HETATM   10  C7  UNL     1      37.418  16.593 -14.472  1.00  0.00     0.266 A 
ATOM     11  H6  UNL     1      38.503  16.257 -12.677  1.00  0.00     0.173 HD
HETATM   12  O4  UNL     1      36.537  17.342 -13.963  1.00  0.00    -0.267 OA
ENDBRANCH   1   2
BRANCH   1  13
HETATM   13  N2  UNL     1      36.326  18.181 -16.949  1.00  0.00    -0.199 N 
ATOM     14  H2  UNL     1      37.159  18.699 -17.229  1.00  0.00     0.183 HD
BRANCH  13  15
HETATM   15  C5  UNL     1      35.181  18.777 -16.836  1.00  0.00     0.700 A 
HETATM   16  N3  UNL     1      34.455  19.050 -15.746  1.00  0.00    -0.128 N 
HETATM   17  N4  UNL     1      33.333  19.676 -16.061  1.00  0.00    -0.237 N 
ATOM     18  H3  UNL     1      34.731  18.808 -14.795  1.00  0.00     0.205 HD
HETATM   19  C6  UNL     1      33.315  19.821 -17.405  1.00  0.00     0.353 A 
ATOM     20  H4  UNL     1      32.614  19.990 -15.410  1.00  0.00     0.192 HD
HETATM   21  O3  UNL     1      32.374  20.383 -18.035  1.00  0.00    -0.245 OA
HETATM   22  N5  UNL     1      34.448  19.269 -17.874  1.00  0.00    -0.139 N 
ATOM     23  H5  UNL     1      34.718  19.225 -18.857  1.00  0.00     0.189 HD
ENDBRANCH  13  15
ENDBRANCH   1  13
TORSDOF 3
ENDMDL
MODEL 4
REMARK VINA RESULT: -7.436285312      2.199      6.020
REMARK  3 active torsions:
REMARK  status: ('A' for Active; 'I' for Inactive)
REMARK    1  A    between atoms: C3_7  and  C4_8 
REMARK    2  A    between atoms: C4_8  and  N2_9 
REMARK    3  A    between atoms: N2_9  and  C5_11 
ROOT
HETATM    1  C4  UNL     1      36.656  16.262 -16.397  1.00  0.00     0.129 C 
ENDROOT
BRANCH   1   2
HETATM    2  C3  UNL     1      35.754  17.210 -16.612  1.00  0.00     0.116 A 
HETATM    3  C2  UNL     1      36.018  18.565 -16.168  1.00  0.00     0.266 A 
HETATM    4  N1  UNL     1      35.052  19.591 -16.396  1.00  0.00    -0.275 N 
HETATM    5  O2  UNL     1      37.094  18.815 -15.591  1.00  0.00    -0.267 OA
HETATM    6  C1  UNL     1      33.820  19.327 -17.052  1.00  0.00     0.329 A 
ATOM      7  H1  UNL     1      35.252  20.539 -16.078  1.00  0.00     0.173 HD
HETATM    8  O1  UNL     1      32.994  20.259 -17.234  1.00  0.00    -0.246 OA
HETATM    9  N6  UNL     1      33.551  18.002 -17.492  1.00  0.00    -0.275 N 
HETATM   10  C7  UNL     1      34.492  16.946 -17.284  1.00  0.00     0.266 A 
ATOM     11  H6  UNL     1      32.670  17.801 -17.964  1.00  0.00     0.173 HD
HETATM   12  O4  UNL     1      34.248  15.770 -17.675  1.00  0.00    -0.267 OA
ENDBRANCH   1   2
BRANCH   1  13
HETATM   13  N2  UNL     1      37.743  16.080 -17.297  1.00  0.00    -0.199 N 
ATOM     14  H2  UNL     1      37.581  15.797 -18.263  1.00  0.00     0.183 HD
BRANCH  13  15
HETATM   15  C5  UNL     1      38.945  16.283 -16.856  1.00  0.00     0.700 A 
HETATM   16  N3  UNL     1      39.883  15.408 -16.475  1.00  0.00    -0.128 N 
HETATM   17  N4  UNL     1      40.986  16.026 -16.086  1.00  0.00    -0.237 N 
ATOM     18  H3  UNL     1      39.763  14.395 -16.484  1.00  0.00     0.205 HD
HETATM   19  C6  UNL     1      40.771  17.355 -16.213  1.00  0.00     0.353 A 
ATOM     20  H4  UNL     1      41.841  15.581 -15.752  1.00  0.00     0.192 HD
HETATM   21  O3  UNL     1      41.632  18.233 -15.924  1.00  0.00    -0.245 OA
HETATM   22  N5  UNL     1      39.520  17.505 -16.685  1.00  0.00    -0.139 N 
ATOM     23  H5  UNL     1      39.070  18.400 -16.884  1.00  0.00     0.189 HD
ENDBRANCH  13  15
ENDBRANCH   1  13
TORSDOF 3
ENDMDL
MODEL 5
REMARK VINA RESULT: -7.230126559      1.997      5.828
REMARK  3 active torsions:
REMARK  status: ('A' for Active; 'I' for Inactive)
REMARK    1  A    between atoms: C3_7  and  C4_8 
REMARK    2  A    between atoms: C4_8  and  N2_9 
REMARK    3  A    between atoms: N2_9  and  C5_11 
ROOT
HETATM    1  C4  UNL     1      35.561  16.036 -15.405  1.00  0.00     0.129 C 
ENDROOT
BRANCH   1   2
HETATM    2  C3  UNL     1      34.869  17.063 -15.877  1.00  0.00     0.116 A 
HETATM    3  C2  UNL     1      34.496  18.145 -14.987  1.00  0.00     0.266 A 
HETATM    4  N1  UNL     1      33.751  19.256 -15.487  1.00  0.00    -0.275 N 
HETATM    5  O2  UNL     1      34.835  18.089 -13.789  1.00  0.00    -0.267 OA
HETATM    6  C1  UNL     1      33.355  19.339 -16.850  1.00  0.00     0.329 A 
ATOM      7  H1  UNL     1      33.496  20.009 -14.850  1.00  0.00     0.173 HD
HETATM    8  O1  UNL     1      32.698  20.334 -17.253  1.00  0.00    -0.246 OA
HETATM    9  N6  UNL     1      33.716  18.282 -17.731  1.00  0.00    -0.275 N 
HETATM   10  C7  UNL     1      34.462  17.154 -17.270  1.00  0.00     0.266 A 
ATOM     11  H6  UNL     1      33.437  18.331 -18.711  1.00  0.00     0.173 HD
HETATM   12  O4  UNL     1      34.780  16.218 -18.056  1.00  0.00    -0.267 OA
ENDBRANCH   1   2
BRANCH   1  13
HETATM   13  N2  UNL     1      36.926  16.190 -15.034  1.00  0.00    -0.199 N 
ATOM     14  H2  UNL     1      37.180  16.622 -14.146  1.00  0.00     0.183 HD
BRANCH  13  15
HETATM   15  C5  UNL     1      37.837  15.768 -15.853  1.00  0.00     0.700 A 
HETATM   16  N3  UNL     1      38.932  15.035 -15.621  1.00  0.00    -0.128 N 
HETATM   17  N4  UNL     1      39.608  14.816 -16.736  1.00  0.00    -0.237 N 
ATOM     18  H3  UNL     1      39.209  14.688 -14.703  1.00  0.00     0.205 HD
HETATM   19  C6  UNL     1      38.938  15.425 -17.741  1.00  0.00     0.353 A 
ATOM     20  H4  UNL     1      40.475  14.285 -16.823  1.00  0.00     0.192 HD
HETATM   21  O3  UNL     1      39.319  15.409 -18.946  1.00  0.00    -0.245 OA
HETATM   22  N5  UNL     1      37.855  16.006 -17.194  1.00  0.00    -0.139 N 
ATOM     23  H5  UNL     1      37.155  16.543 -17.705  1.00  0.00     0.189 HD
ENDBRANCH  13  15
ENDBRANCH   1  13
TORSDOF 3
ENDMDL
