MODEL 1
REMARK VINA RESULT: -6.510243678      0.000      0.000
REMARK  3 active torsions:
REMARK  status: ('A' for Active; 'I' for Inactive)
REMARK    1  A    between atoms: C5_7  and  C6_8 
REMARK    2  A    between atoms: N3_13  and  N4_14 
REMARK    3  A    between atoms: C8_17  and  N5_18 
ROOT
HETATM    1  C6  UNL     1      37.413  17.661 -15.938  1.00  0.00     0.118 C 
HETATM    2  N2  UNL     1      38.595  18.409 -15.830  1.00  0.00    -0.317 N 
ATOM      3  H2  UNL     1      38.544  19.408 -15.628  1.00  0.00     0.170 HD
HETATM    4  C7  UNL     1      39.883  17.779 -16.002  1.00  0.00     0.197 C 
HETATM    5  S1  UNL     1      41.204  18.739 -15.848  1.00  0.00    -0.039 SA
HETATM    6  N3  UNL     1      39.994  16.406 -16.284  1.00  0.00    -0.224 N 
HETATM    7  C8  UNL     1      38.837  15.751 -16.828  1.00  0.00     0.411 C 
HETATM    8  N6  UNL     1      37.624  16.245 -16.225  1.00  0.00    -0.331 N 
ATOM      9  H6  UNL     1      36.886  15.581 -15.991  1.00  0.00     0.165 HD
ENDROOT
BRANCH   1  10
HETATM   10  C5  UNL     1      36.184  18.096 -15.806  1.00  0.00     0.035 A 
HETATM   11  C2  UNL     1      35.144  17.780 -14.994  1.00  0.00     0.036 A 
HETATM   12  C1  UNL     1      35.097  16.867 -14.066  1.00  0.00     0.044 C 
HETATM   13  N1  UNL     1      34.054  18.589 -15.275  1.00  0.00    -0.366 N 
HETATM   14  C3  UNL     1      34.388  19.413 -16.258  1.00  0.00     0.089 A 
ATOM     15  H1  UNL     1      33.149  18.555 -14.806  1.00  0.00     0.165 HD
HETATM   16  C4  UNL     1      35.685  19.144 -16.612  1.00  0.00     0.034 A 
ENDBRANCH   1  10
BRANCH   7  17
HETATM   17  N5  UNL     1      38.940  14.344 -16.503  1.00  0.00    -0.039 N 
ATOM     18  H53 UNL     1      39.455  13.810 -17.203  1.00  0.00     0.279 HD
ATOM     19  H52 UNL     1      39.560  14.162 -15.714  1.00  0.00     0.279 HD
ATOM     20  H51 UNL     1      37.993  13.993 -16.353  1.00  0.00     0.279 HD
ENDBRANCH   7  17
BRANCH   6  21
HETATM   21  N4  UNL     1      41.154  15.687 -16.064  1.00  0.00    -0.337 N 
ATOM     22  H42 UNL     1      41.975  16.151 -15.674  1.00  0.00     0.177 HD
ATOM     23  H41 UNL     1      41.237  14.692 -16.272  1.00  0.00     0.177 HD
ENDBRANCH   6  21
TORSDOF 3
ENDMDL
MODEL 2
REMARK VINA RESULT: -6.405987229      1.325      1.420
REMARK  3 active torsions:
REMARK  status: ('A' for Active; 'I' for Inactive)
REMARK    1  A    between atoms: C5_7  and  C6_8 
REMARK    2  A    between atoms: N3_13  and  N4_14 
REMARK    3  A    between atoms: C8_17  and  N5_18 
ROOT
HETATM    1  C6  UNL     1      36.933  17.656 -16.220  1.00  0.00     0.118 C 
HETATM    2  N2  UNL     1      37.928  18.365 -15.530  1.00  0.00    -0.317 N 
ATOM      3  H2  UNL     1      37.766  19.338 -15.269  1.00  0.00     0.170 HD
HETATM    4  C7  UNL     1      39.179  17.731 -15.187  1.00  0.00     0.197 C 
HETATM    5  S1  UNL     1      40.274  18.643 -14.374  1.00  0.00    -0.039 SA
HETATM    6  N3  UNL     1      39.441  16.393 -15.531  1.00  0.00    -0.224 N 
HETATM    7  C8  UNL     1      38.655  15.821 -16.590  1.00  0.00     0.411 C 
HETATM    8  N6  UNL     1      37.288  16.274 -16.530  1.00  0.00    -0.331 N 
ATOM      9  H6  UNL     1      36.540  15.604 -16.710  1.00  0.00     0.165 HD
ENDROOT
BRANCH   1  10
HETATM   10  C5  UNL     1      35.757  18.099 -16.593  1.00  0.00     0.035 A 
HETATM   11  C2  UNL     1      34.631  17.519 -17.077  1.00  0.00     0.036 A 
HETATM   12  C1  UNL     1      34.422  16.259 -17.333  1.00  0.00     0.044 C 
HETATM   13  N1  UNL     1      33.652  18.477 -17.289  1.00  0.00    -0.366 N 
HETATM   14  C3  UNL     1      34.144  19.659 -16.947  1.00  0.00     0.089 A 
ATOM     15  H1  UNL     1      32.714  18.302 -17.648  1.00  0.00     0.165 HD
HETATM   16  C4  UNL     1      35.431  19.472 -16.515  1.00  0.00     0.034 A 
ENDBRANCH   1  10
BRANCH   7  17
HETATM   17  N5  UNL     1      38.645  14.386 -16.399  1.00  0.00    -0.039 N 
ATOM     18  H53 UNL     1      39.419  14.055 -15.822  1.00  0.00     0.279 HD
ATOM     19  H52 UNL     1      37.885  14.070 -15.796  1.00  0.00     0.279 HD
ATOM     20  H51 UNL     1      38.625  13.954 -17.323  1.00  0.00     0.279 HD
ENDBRANCH   7  17
BRANCH   6  21
HETATM   21  N4  UNL     1      40.408  15.632 -14.902  1.00  0.00    -0.337 N 
ATOM     22  H42 UNL     1      40.185  14.691 -14.576  1.00  0.00     0.177 HD
ATOM     23  H41 UNL     1      41.358  15.966 -14.743  1.00  0.00     0.177 HD
ENDBRANCH   6  21
TORSDOF 3
ENDMDL
MODEL 3
REMARK VINA RESULT: -6.236334408      1.955      2.635
REMARK  3 active torsions:
REMARK  status: ('A' for Active; 'I' for Inactive)
REMARK    1  A    between atoms: C5_7  and  C6_8 
REMARK    2  A    between atoms: N3_13  and  N4_14 
REMARK    3  A    between atoms: C8_17  and  N5_18 
ROOT
HETATM    1  C6  UNL     1      36.661  17.697 -16.446  1.00  0.00     0.118 C 
HETATM    2  N2  UNL     1      37.204  16.470 -16.856  1.00  0.00    -0.317 N 
ATOM      3  H2  UNL     1      36.651  15.844 -17.442  1.00  0.00     0.170 HD
HETATM    4  C7  UNL     1      38.538  16.086 -16.458  1.00  0.00     0.197 C 
HETATM    5  S1  UNL     1      39.083  14.635 -16.996  1.00  0.00    -0.039 SA
HETATM    6  N3  UNL     1      39.330  16.921 -15.650  1.00  0.00    -0.224 N 
HETATM    7  C8  UNL     1      38.651  17.925 -14.879  1.00  0.00     0.411 C 
HETATM    8  N6  UNL     1      37.555  18.501 -15.617  1.00  0.00    -0.331 N 
ATOM      9  H6  UNL     1      37.399  19.507 -15.560  1.00  0.00     0.165 HD
ENDROOT
BRANCH   1  10
HETATM   10  C5  UNL     1      35.474  18.174 -16.730  1.00  0.00     0.035 A 
HETATM   11  C2  UNL     1      34.329  17.645 -17.230  1.00  0.00     0.036 A 
HETATM   12  C1  UNL     1      34.108  16.417 -17.606  1.00  0.00     0.044 C 
HETATM   13  N1  UNL     1      33.346  18.619 -17.309  1.00  0.00    -0.366 N 
HETATM   14  C3  UNL     1      33.853  19.761 -16.866  1.00  0.00     0.089 A 
ATOM     15  H1  UNL     1      32.395  18.480 -17.649  1.00  0.00     0.165 HD
HETATM   16  C4  UNL     1      35.154  19.532 -16.502  1.00  0.00     0.034 A 
ENDBRANCH   1  10
BRANCH   7  17
HETATM   17  N5  UNL     1      39.599  18.986 -14.614  1.00  0.00    -0.039 N 
ATOM     18  H53 UNL     1      40.563  18.655 -14.561  1.00  0.00     0.279 HD
ATOM     19  H52 UNL     1      39.718  19.620 -15.404  1.00  0.00     0.279 HD
ATOM     20  H51 UNL     1      39.297  19.463 -13.764  1.00  0.00     0.279 HD
ENDBRANCH   7  17
BRANCH   6  21
HETATM   21  N4  UNL     1      40.705  16.806 -15.575  1.00  0.00    -0.337 N 
ATOM     22  H42 UNL     1      41.251  17.519 -15.091  1.00  0.00     0.177 HD
ATOM     23  H41 UNL     1      41.218  16.025 -15.985  1.00  0.00     0.177 HD
ENDBRANCH   6  21
TORSDOF 3
ENDMDL
MODEL 4
REMARK VINA RESULT: -6.208609622      1.991      2.111
REMARK  3 active torsions:
REMARK  status: ('A' for Active; 'I' for Inactive)
REMARK    1  A    between atoms: C5_7  and  C6_8 
REMARK    2  A    between atoms: N3_13  and  N4_14 
REMARK    3  A    between atoms: C8_17  and  N5_18 
ROOT
HETATM    1  C6  UNL     1      36.672  18.400 -15.791  1.00  0.00     0.118 C 
HETATM    2  N2  UNL     1      37.708  19.346 -15.754  1.00  0.00    -0.317 N 
ATOM      3  H2  UNL     1      37.575  20.258 -16.191  1.00  0.00     0.170 HD
HETATM    4  C7  UNL     1      38.961  19.040 -15.104  1.00  0.00     0.197 C 
HETATM    5  S1  UNL     1      40.104  20.216 -15.110  1.00  0.00    -0.039 SA
HETATM    6  N3  UNL     1      39.183  17.793 -14.493  1.00  0.00    -0.224 N 
HETATM    7  C8  UNL     1      38.343  16.702 -14.903  1.00  0.00     0.411 C 
HETATM    8  N6  UNL     1      36.988  17.139 -15.126  1.00  0.00    -0.331 N 
ATOM      9  H6  UNL     1      36.222  16.546 -14.809  1.00  0.00     0.165 HD
ENDROOT
BRANCH   1  10
HETATM   10  C5  UNL     1      35.490  18.539 -16.340  1.00  0.00     0.035 A 
HETATM   11  C2  UNL     1      34.650  17.714 -17.013  1.00  0.00     0.036 A 
HETATM   12  C1  UNL     1      34.833  16.464 -17.329  1.00  0.00     0.044 C 
HETATM   13  N1  UNL     1      33.490  18.390 -17.359  1.00  0.00    -0.366 N 
HETATM   14  C3  UNL     1      33.584  19.635 -16.915  1.00  0.00     0.089 A 
ATOM     15  H1  UNL     1      32.700  17.996 -17.869  1.00  0.00     0.165 HD
HETATM   16  C4  UNL     1      34.794  19.768 -16.284  1.00  0.00     0.034 A 
ENDBRANCH   1  10
BRANCH   7  17
HETATM   17  N5  UNL     1      38.315  15.743 -13.818  1.00  0.00    -0.039 N 
ATOM     18  H53 UNL     1      39.047  15.904 -13.125  1.00  0.00     0.279 HD
ATOM     19  H52 UNL     1      37.515  15.867 -13.198  1.00  0.00     0.279 HD
ATOM     20  H51 UNL     1      38.357  14.811 -14.231  1.00  0.00     0.279 HD
ENDBRANCH   7  17
BRANCH   6  21
HETATM   21  N4  UNL     1      40.162  17.591 -13.539  1.00  0.00    -0.337 N 
ATOM     22  H42 UNL     1      40.664  16.704 -13.504  1.00  0.00     0.177 HD
ATOM     23  H41 UNL     1      40.418  18.299 -12.851  1.00  0.00     0.177 HD
ENDBRANCH   6  21
TORSDOF 3
ENDMDL
MODEL 5
REMARK VINA RESULT: -6.152750783      1.903      2.232
REMARK  3 active torsions:
REMARK  status: ('A' for Active; 'I' for Inactive)
REMARK    1  A    between atoms: C5_7  and  C6_8 
REMARK    2  A    between atoms: N3_13  and  N4_14 
REMARK    3  A    between atoms: C8_17  and  N5_18 
ROOT
HETATM    1  C6  UNL     1      37.065  17.623 -15.798  1.00  0.00     0.118 C 
HETATM    2  N2  UNL     1      37.909  18.741 -15.726  1.00  0.00    -0.317 N 
ATOM      3  H2  UNL     1      37.625  19.618 -16.163  1.00  0.00     0.170 HD
HETATM    4  C7  UNL     1      39.176  18.664 -15.038  1.00  0.00     0.197 C 
HETATM    5  S1  UNL     1      40.086  20.028 -15.003  1.00  0.00    -0.039 SA
HETATM    6  N3  UNL     1      39.604  17.473 -14.424  1.00  0.00    -0.224 N 
HETATM    7  C8  UNL     1      38.991  16.251 -14.863  1.00  0.00     0.411 C 
HETATM    8  N6  UNL     1      37.586  16.435 -15.128  1.00  0.00    -0.331 N 
ATOM      9  H6  UNL     1      36.932  15.709 -14.836  1.00  0.00     0.165 HD
ENDROOT
BRANCH   1  10
HETATM   10  C5  UNL     1      35.895  17.548 -16.383  1.00  0.00     0.035 A 
HETATM   11  C2  UNL     1      34.889  18.428 -16.617  1.00  0.00     0.036 A 
HETATM   12  C1  UNL     1      34.821  19.682 -16.270  1.00  0.00     0.044 C 
HETATM   13  N1  UNL     1      33.864  17.808 -17.315  1.00  0.00    -0.366 N 
HETATM   14  C3  UNL     1      34.206  16.545 -17.525  1.00  0.00     0.089 A 
ATOM     15  H1  UNL     1      32.995  18.250 -17.615  1.00  0.00     0.165 HD
HETATM   16  C4  UNL     1      35.443  16.345 -16.970  1.00  0.00     0.034 A 
ENDBRANCH   1  10
BRANCH   7  17
HETATM   17  N5  UNL     1      39.106  15.293 -13.782  1.00  0.00    -0.039 N 
ATOM     18  H53 UNL     1      38.946  15.708 -12.864  1.00  0.00     0.279 HD
ATOM     19  H52 UNL     1      38.336  14.623 -13.762  1.00  0.00     0.279 HD
ATOM     20  H51 UNL     1      40.019  14.847 -13.864  1.00  0.00     0.279 HD
ENDBRANCH   7  17
BRANCH   6  21
HETATM   21  N4  UNL     1      40.574  17.444 -13.439  1.00  0.00    -0.337 N 
ATOM     22  H42 UNL     1      40.648  18.214 -12.774  1.00  0.00     0.177 HD
ATOM     23  H41 UNL     1      41.235  16.675 -13.337  1.00  0.00     0.177 HD
ENDBRANCH   6  21
TORSDOF 3
ENDMDL
