MODEL 1
REMARK VINA RESULT: -6.539213130      0.000      0.000
REMARK  7 active torsions:
REMARK  status: ('A' for Active; 'I' for Inactive)
REMARK    1  A    between atoms: C2_2  and  C3_3 
REMARK    2  A    between atoms: C3_3  and  C4_4 
REMARK    3  A    between atoms: C4_4  and  C5_5 
REMARK    4  A    between atoms: C5_5  and  C6_6 
REMARK    5  A    between atoms: C6_6  and  N1_7 
REMARK    6  A    between atoms: C10_11  and  C11_12 
REMARK    7  A    between atoms: C15_22  and  N4_23 
ROOT
HETATM    1  C11 UNL     1      18.887 -14.629  22.740  1.00  0.00     0.139 C 
HETATM    2  C12 UNL     1      17.676 -15.533  22.602  1.00  0.00     0.041 C 
HETATM    3  C13 UNL     1      20.087 -15.525  22.753  1.00  0.00     0.245 C 
HETATM    4  O1  UNL     1      21.161 -15.411  22.167  1.00  0.00    -0.271 OA
HETATM    5  N2  UNL     1      19.886 -16.689  23.620  1.00  0.00    -0.302 N 
ATOM      6  H2  UNL     1      20.235 -17.606  23.340  1.00  0.00     0.171 HD
HETATM    7  C14 UNL     1      19.199 -16.530  24.856  1.00  0.00     0.179 C 
HETATM    8  S1  UNL     1      18.921 -17.753  25.879  1.00  0.00    -0.040 SA
HETATM    9  N3  UNL     1      18.762 -15.172  25.135  1.00  0.00    -0.322 N 
ATOM     10  H3  UNL     1      18.260 -14.953  25.995  1.00  0.00     0.169 HD
HETATM   11  C15 UNL     1      19.052 -14.151  24.179  1.00  0.00     0.103 C 
ENDROOT
BRANCH   1  12
HETATM   12  C10 UNL     1      18.933 -13.612  21.723  1.00  0.00     0.053 A 
HETATM   13  C9  UNL     1      20.045 -13.442  20.923  1.00  0.00     0.030 A 
HETATM   14  C8  UNL     1      20.119 -12.498  19.903  1.00  0.00     0.021 A 
HETATM   15  C7  UNL     1      19.007 -11.728  19.726  1.00  0.00     0.110 A 
HETATM   16  N1  UNL     1      17.906 -11.873  20.487  1.00  0.00    -0.301 N 
HETATM   17  N5  UNL     1      17.880 -12.788  21.449  1.00  0.00    -0.297 N 
HETATM   18  C17 UNL     1      16.632 -12.898  22.146  1.00  0.00     0.178 C 
BRANCH  16  19
HETATM   19  C6  UNL     1      16.787 -10.965  20.230  1.00  0.00     0.148 C 
BRANCH  19  20
HETATM   20  C5  UNL     1      15.838 -11.425  19.188  1.00  0.00     0.022 C 
BRANCH  20  21
HETATM   21  C4  UNL     1      14.399 -11.139  19.593  1.00  0.00     0.002 C 
BRANCH  21  22
HETATM   22  C3  UNL     1      14.308 -10.203  20.766  1.00  0.00    -0.000 C 
BRANCH  22  23
HETATM   23  C2  UNL     1      13.281 -10.775  21.733  1.00  0.00    -0.005 C 
HETATM   24  C1  UNL     1      12.177  -9.760  21.939  1.00  0.00     0.005 C 
ENDBRANCH  22  23
ENDBRANCH  21  22
ENDBRANCH  20  21
ENDBRANCH  19  20
ENDBRANCH  16  19
ENDBRANCH   1  12
BRANCH  11  25
HETATM   25  N4  UNL     1      19.480 -13.013  24.503  1.00  0.00    -0.383 N 
HETATM   26  C16 UNL     1      20.436 -12.792  25.540  1.00  0.00     0.147 C 
ATOM     27  H4  UNL     1      19.122 -12.203  23.997  1.00  0.00     0.160 HD
ENDBRANCH  11  25
TORSDOF 7
ENDMDL
MODEL 2
REMARK VINA RESULT: -6.440509104      1.409      1.493
REMARK  7 active torsions:
REMARK  status: ('A' for Active; 'I' for Inactive)
REMARK    1  A    between atoms: C2_2  and  C3_3 
REMARK    2  A    between atoms: C3_3  and  C4_4 
REMARK    3  A    between atoms: C4_4  and  C5_5 
REMARK    4  A    between atoms: C5_5  and  C6_6 
REMARK    5  A    between atoms: C6_6  and  N1_7 
REMARK    6  A    between atoms: C10_11  and  C11_12 
REMARK    7  A    between atoms: C15_22  and  N4_23 
ROOT
HETATM    1  C11 UNL     1      19.840 -14.451  22.715  1.00  0.00     0.139 C 
HETATM    2  C12 UNL     1      18.663 -14.791  23.611  1.00  0.00     0.041 C 
HETATM    3  C13 UNL     1      20.375 -15.754  22.206  1.00  0.00     0.245 C 
HETATM    4  O1  UNL     1      20.727 -16.071  21.071  1.00  0.00    -0.271 OA
HETATM    5  N2  UNL     1      20.477 -16.753  23.272  1.00  0.00    -0.302 N 
ATOM      6  H2  UNL     1      20.240 -17.728  23.087  1.00  0.00     0.171 HD
HETATM    7  C14 UNL     1      20.909 -16.352  24.567  1.00  0.00     0.179 C 
HETATM    8  S1  UNL     1      21.047 -17.377  25.812  1.00  0.00    -0.040 SA
HETATM    9  N3  UNL     1      21.221 -14.938  24.690  1.00  0.00    -0.322 N 
ATOM     10  H3  UNL     1      21.538 -14.550  25.577  1.00  0.00     0.169 HD
HETATM   11  C15 UNL     1      21.074 -14.104  23.539  1.00  0.00     0.103 C 
ENDROOT
BRANCH   1  12
HETATM   12  C10 UNL     1      19.487 -13.522  21.674  1.00  0.00     0.053 A 
HETATM   13  C9  UNL     1      20.448 -12.793  21.002  1.00  0.00     0.030 A 
HETATM   14  C8  UNL     1      20.156 -11.912  19.964  1.00  0.00     0.021 A 
HETATM   15  C7  UNL     1      18.837 -11.803  19.633  1.00  0.00     0.110 A 
HETATM   16  N1  UNL     1      17.878 -12.504  20.266  1.00  0.00    -0.301 N 
HETATM   17  N5  UNL     1      18.202 -13.333  21.251  1.00  0.00    -0.297 N 
HETATM   18  C17 UNL     1      17.108 -14.075  21.803  1.00  0.00     0.178 C 
BRANCH  16  19
HETATM   19  C6  UNL     1      16.493 -12.276  19.850  1.00  0.00     0.148 C 
BRANCH  19  20
HETATM   20  C5  UNL     1      15.959 -10.931  20.169  1.00  0.00     0.022 C 
BRANCH  20  21
HETATM   21  C4  UNL     1      14.665 -11.030  20.963  1.00  0.00     0.002 C 
BRANCH  21  22
HETATM   22  C3  UNL     1      14.051  -9.684  21.230  1.00  0.00    -0.000 C 
BRANCH  22  23
HETATM   23  C2  UNL     1      12.552  -9.888  21.405  1.00  0.00    -0.005 C 
HETATM   24  C1  UNL     1      12.163  -9.505  22.816  1.00  0.00     0.005 C 
ENDBRANCH  22  23
ENDBRANCH  21  22
ENDBRANCH  20  21
ENDBRANCH  19  20
ENDBRANCH  16  19
ENDBRANCH   1  12
BRANCH  11  25
HETATM   25  N4  UNL     1      21.926 -13.238  23.210  1.00  0.00    -0.383 N 
HETATM   26  C16 UNL     1      23.060 -12.899  24.008  1.00  0.00     0.147 C 
ATOM     27  H4  UNL     1      21.799 -12.752  22.323  1.00  0.00     0.160 HD
ENDBRANCH  11  25
TORSDOF 7
ENDMDL
MODEL 3
REMARK VINA RESULT: -6.400031910      1.571      1.803
REMARK  7 active torsions:
REMARK  status: ('A' for Active; 'I' for Inactive)
REMARK    1  A    between atoms: C2_2  and  C3_3 
REMARK    2  A    between atoms: C3_3  and  C4_4 
REMARK    3  A    between atoms: C4_4  and  C5_5 
REMARK    4  A    between atoms: C5_5  and  C6_6 
REMARK    5  A    between atoms: C6_6  and  N1_7 
REMARK    6  A    between atoms: C10_11  and  C11_12 
REMARK    7  A    between atoms: C15_22  and  N4_23 
ROOT
HETATM    1  C11 UNL     1      19.895 -14.677  22.168  1.00  0.00     0.139 C 
HETATM    2  C12 UNL     1      20.104 -16.000  21.455  1.00  0.00     0.041 C 
HETATM    3  C13 UNL     1      21.229 -14.275  22.718  1.00  0.00     0.245 C 
HETATM    4  O1  UNL     1      21.788 -13.180  22.706  1.00  0.00    -0.271 OA
HETATM    5  N2  UNL     1      21.914 -15.400  23.359  1.00  0.00    -0.302 N 
ATOM      6  H2  UNL     1      22.922 -15.518  23.250  1.00  0.00     0.171 HD
HETATM    7  C14 UNL     1      21.162 -16.327  24.134  1.00  0.00     0.179 C 
HETATM    8  S1  UNL     1      21.823 -17.604  24.875  1.00  0.00    -0.040 SA
HETATM    9  N3  UNL     1      19.740 -16.036  24.211  1.00  0.00    -0.322 N 
ATOM     10  H3  UNL     1      19.113 -16.640  24.742  1.00  0.00     0.169 HD
HETATM   11  C15 UNL     1      19.239 -14.885  23.529  1.00  0.00     0.103 C 
ENDROOT
BRANCH   1  12
HETATM   12  C10 UNL     1      19.295 -13.683  21.318  1.00  0.00     0.053 A 
HETATM   13  C9  UNL     1      20.009 -12.590  20.870  1.00  0.00     0.030 A 
HETATM   14  C8  UNL     1      19.480 -11.626  20.017  1.00  0.00     0.021 A 
HETATM   15  C7  UNL     1      18.186 -11.820  19.632  1.00  0.00     0.110 A 
HETATM   16  N1  UNL     1      17.465 -12.878  20.049  1.00  0.00    -0.301 N 
HETATM   17  N5  UNL     1      18.010 -13.774  20.863  1.00  0.00    -0.297 N 
HETATM   18  C17 UNL     1      17.172 -14.891  21.184  1.00  0.00     0.178 C 
BRANCH  16  19
HETATM   19  C6  UNL     1      16.074 -12.961  19.602  1.00  0.00     0.148 C 
BRANCH  19  20
HETATM   20  C5  UNL     1      15.219 -11.819  20.005  1.00  0.00     0.022 C 
BRANCH  20  21
HETATM   21  C4  UNL     1      14.437 -12.139  21.269  1.00  0.00     0.002 C 
BRANCH  21  22
HETATM   22  C3  UNL     1      13.040 -11.585  21.236  1.00  0.00    -0.000 C 
BRANCH  22  23
HETATM   23  C2  UNL     1      13.122 -10.109  21.604  1.00  0.00    -0.005 C 
HETATM   24  C1  UNL     1      12.064  -9.799  22.641  1.00  0.00     0.005 C 
ENDBRANCH  22  23
ENDBRANCH  21  22
ENDBRANCH  20  21
ENDBRANCH  19  20
ENDBRANCH  16  19
ENDBRANCH   1  12
BRANCH  11  25
HETATM   25  N4  UNL     1      18.410 -14.092  24.046  1.00  0.00    -0.383 N 
HETATM   26  C16 UNL     1      17.778 -14.315  25.306  1.00  0.00     0.147 C 
ATOM     27  H4  UNL     1      18.177 -13.240  23.535  1.00  0.00     0.160 HD
ENDBRANCH  11  25
TORSDOF 7
ENDMDL
MODEL 4
REMARK VINA RESULT: -6.309970703      1.891      2.161
REMARK  7 active torsions:
REMARK  status: ('A' for Active; 'I' for Inactive)
REMARK    1  A    between atoms: C2_2  and  C3_3 
REMARK    2  A    between atoms: C3_3  and  C4_4 
REMARK    3  A    between atoms: C4_4  and  C5_5 
REMARK    4  A    between atoms: C5_5  and  C6_6 
REMARK    5  A    between atoms: C6_6  and  N1_7 
REMARK    6  A    between atoms: C10_11  and  C11_12 
REMARK    7  A    between atoms: C15_22  and  N4_23 
ROOT
HETATM    1  C11 UNL     1      20.735 -14.436  23.442  1.00  0.00     0.139 C 
HETATM    2  C12 UNL     1      20.590 -15.908  23.098  1.00  0.00     0.041 C 
HETATM    3  C13 UNL     1      22.203 -14.142  23.441  1.00  0.00     0.245 C 
HETATM    4  O1  UNL     1      22.816 -13.191  22.961  1.00  0.00    -0.271 OA
HETATM    5  N2  UNL     1      22.966 -15.179  24.141  1.00  0.00    -0.302 N 
ATOM      6  H2  UNL     1      23.869 -15.486  23.780  1.00  0.00     0.171 HD
HETATM    7  C14 UNL     1      22.434 -15.756  25.329  1.00  0.00     0.179 C 
HETATM    8  S1  UNL     1      23.194 -16.911  26.170  1.00  0.00    -0.040 SA
HETATM    9  N3  UNL     1      21.144 -15.223  25.735  1.00  0.00    -0.322 N 
ATOM     10  H3  UNL     1      20.678 -15.570  26.572  1.00  0.00     0.169 HD
HETATM   11  C15 UNL     1      20.545 -14.201  24.936  1.00  0.00     0.103 C 
ENDROOT
BRANCH   1  12
HETATM   12  C10 UNL     1      19.973 -13.589  22.562  1.00  0.00     0.053 A 
HETATM   13  C9  UNL     1      20.588 -12.789  21.620  1.00  0.00     0.030 A 
HETATM   14  C8  UNL     1      19.890 -11.983  20.726  1.00  0.00     0.021 A 
HETATM   15  C7  UNL     1      18.530 -12.026  20.826  1.00  0.00     0.110 A 
HETATM   16  N1  UNL     1      17.901 -12.800  21.731  1.00  0.00    -0.301 N 
HETATM   17  N5  UNL     1      18.608 -13.553  22.565  1.00  0.00    -0.297 N 
HETATM   18  C17 UNL     1      17.831 -14.385  23.436  1.00  0.00     0.178 C 
BRANCH  16  19
HETATM   19  C6  UNL     1      16.440 -12.735  21.771  1.00  0.00     0.148 C 
BRANCH  19  20
HETATM   20  C5  UNL     1      15.845 -11.603  21.021  1.00  0.00     0.022 C 
BRANCH  20  21
HETATM   21  C4  UNL     1      14.379 -11.415  21.384  1.00  0.00     0.002 C 
BRANCH  21  22
HETATM   22  C3  UNL     1      13.973  -9.968  21.402  1.00  0.00    -0.000 C 
BRANCH  22  23
HETATM   23  C2  UNL     1      12.454  -9.917  21.496  1.00  0.00    -0.005 C 
HETATM   24  C1  UNL     1      12.060  -9.522  22.903  1.00  0.00     0.005 C 
ENDBRANCH  22  23
ENDBRANCH  21  22
ENDBRANCH  20  21
ENDBRANCH  19  20
ENDBRANCH  16  19
ENDBRANCH   1  12
BRANCH  11  25
HETATM   25  N4  UNL     1      19.998 -13.181  25.430  1.00  0.00    -0.383 N 
HETATM   26  C16 UNL     1      20.723 -12.070  25.957  1.00  0.00     0.147 C 
ATOM     27  H4  UNL     1      18.979 -13.146  25.455  1.00  0.00     0.160 HD
ENDBRANCH  11  25
TORSDOF 7
ENDMDL
MODEL 5
REMARK VINA RESULT: -6.268124621      2.093      2.971
REMARK  7 active torsions:
REMARK  status: ('A' for Active; 'I' for Inactive)
REMARK    1  A    between atoms: C2_2  and  C3_3 
REMARK    2  A    between atoms: C3_3  and  C4_4 
REMARK    3  A    between atoms: C4_4  and  C5_5 
REMARK    4  A    between atoms: C5_5  and  C6_6 
REMARK    5  A    between atoms: C6_6  and  N1_7 
REMARK    6  A    between atoms: C10_11  and  C11_12 
REMARK    7  A    between atoms: C15_22  and  N4_23 
ROOT
HETATM    1  C11 UNL     1      20.531 -14.094  23.500  1.00  0.00     0.139 C 
HETATM    2  C12 UNL     1      19.601 -14.160  24.698  1.00  0.00     0.041 C 
HETATM    3  C13 UNL     1      20.804 -15.511  23.097  1.00  0.00     0.245 C 
HETATM    4  O1  UNL     1      20.823 -16.022  21.979  1.00  0.00    -0.271 OA
HETATM    5  N2  UNL     1      21.092 -16.360  24.256  1.00  0.00    -0.302 N 
ATOM      6  H2  UNL     1      20.734 -17.314  24.296  1.00  0.00     0.171 HD
HETATM    7  C14 UNL     1      21.877 -15.841  25.324  1.00  0.00     0.179 C 
HETATM    8  S1  UNL     1      22.244 -16.695  26.649  1.00  0.00    -0.040 SA
HETATM    9  N3  UNL     1      22.329 -14.473  25.134  1.00  0.00    -0.322 N 
ATOM     10  H3  UNL     1      22.896 -14.008  25.842  1.00  0.00     0.169 HD
HETATM   11  C15 UNL     1      21.961 -13.792  23.932  1.00  0.00     0.103 C 
ENDROOT
BRANCH   1  12
HETATM   12  C10 UNL     1      20.002 -13.281  22.437  1.00  0.00     0.053 A 
HETATM   13  C9  UNL     1      20.819 -12.747  21.462  1.00  0.00     0.030 A 
HETATM   14  C8  UNL     1      20.346 -11.986  20.396  1.00  0.00     0.021 A 
HETATM   15  C7  UNL     1      18.997 -11.790  20.361  1.00  0.00     0.110 A 
HETATM   16  N1  UNL     1      18.173 -12.301  21.295  1.00  0.00    -0.301 N 
HETATM   17  N5  UNL     1      18.668 -13.021  22.295  1.00  0.00    -0.297 N 
HETATM   18  C17 UNL     1      17.692 -13.570  23.188  1.00  0.00     0.178 C 
BRANCH  16  19
HETATM   19  C6  UNL     1      16.747 -11.993  21.175  1.00  0.00     0.148 C 
BRANCH  19  20
HETATM   20  C5  UNL     1      16.410 -11.004  20.124  1.00  0.00     0.022 C 
BRANCH  20  21
HETATM   21  C4  UNL     1      15.490 -11.611  19.075  1.00  0.00     0.002 C 
BRANCH  21  22
HETATM   22  C3  UNL     1      16.244 -12.133  17.884  1.00  0.00    -0.000 C 
BRANCH  22  23
HETATM   23  C2  UNL     1      15.741 -11.384  16.657  1.00  0.00    -0.005 C 
HETATM   24  C1  UNL     1      16.929 -10.902  15.852  1.00  0.00     0.005 C 
ENDBRANCH  22  23
ENDBRANCH  21  22
ENDBRANCH  20  21
ENDBRANCH  19  20
ENDBRANCH  16  19
ENDBRANCH   1  12
BRANCH  11  25
HETATM   25  N4  UNL     1      22.770 -13.093  23.269  1.00  0.00    -0.383 N 
HETATM   26  C16 UNL     1      24.136 -12.898  23.636  1.00  0.00     0.147 C 
ATOM     27  H4  UNL     1      22.430 -12.638  22.422  1.00  0.00     0.160 HD
ENDBRANCH  11  25
TORSDOF 7
ENDMDL
