MODEL 1
REMARK VINA RESULT: -7.100184918      0.000      0.000
REMARK  6 active torsions:
REMARK  status: ('A' for Active; 'I' for Inactive)
REMARK    1  A    between atoms: C6_6  and  C7_7 
REMARK       I    between atoms: N1_8  and  C8_10 
REMARK    2  A    between atoms: C8_10  and  C9_12 
REMARK    3  A    between atoms: C9_12  and  N2_13 
REMARK    4  A    between atoms: C11_18  and  C12_19 
REMARK    5  A    between atoms: C12_19  and  C13_20 
REMARK    6  A    between atoms: C13_20  and  N4_21 
ROOT
HETATM    1  N2  UNL     1      17.895 -12.611  20.534  1.00  0.00    -0.260 N 
HETATM    2  C10 UNL     1      17.672 -12.716  21.947  1.00  0.00     0.326 C 
HETATM    3  O2  UNL     1      16.576 -12.844  22.557  1.00  0.00    -0.247 OA
HETATM    4  N3  UNL     1      18.960 -12.647  22.547  1.00  0.00    -0.329 N 
ATOM      5  H3  UNL     1      19.152 -12.418  23.523  1.00  0.00     0.165 HD
HETATM    6  C11 UNL     1      19.948 -12.955  21.544  1.00  0.00     0.180 C 
HETATM    7  C17 UNL     1      19.293 -12.482  20.299  1.00  0.00     0.251 C 
HETATM    8  O3  UNL     1      19.791 -12.049  19.233  1.00  0.00    -0.271 OA
ENDROOT
BRANCH   1   9
HETATM    9  C9  UNL     1      16.862 -12.635  19.518  1.00  0.00     0.240 C 
BRANCH   9  10
HETATM   10  C8  UNL     1      16.305 -11.265  19.415  1.00  0.00     0.240 C 
HETATM   11  N1  UNL     1      15.503 -10.679  20.426  1.00  0.00    -0.334 N 
HETATM   12  C7  UNL     1      14.273 -10.982  20.522  1.00  0.00     0.121 C 
ATOM     13  H1  UNL     1      15.915 -10.012  21.079  1.00  0.00     0.168 HD
HETATM   14  O1  UNL     1      16.526 -10.547  18.401  1.00  0.00    -0.271 OA
BRANCH  12  15
HETATM   15  C6  UNL     1      13.422 -10.398  21.550  1.00  0.00     0.054 A 
HETATM   16  C4  UNL     1      12.319 -10.962  22.139  1.00  0.00    -0.032 A 
HETATM   17  C3  UNL     1      11.815 -10.060  23.062  1.00  0.00     0.033 A 
HETATM   18  C5  UNL     1      11.799 -12.315  21.805  1.00  0.00     0.050 C 
HETATM   19  C2  UNL     1      12.622  -8.959  23.018  1.00  0.00     0.006 A 
HETATM   20  C1  UNL     1      12.522  -7.697  23.810  1.00  0.00     0.068 C 
HETATM   21  N5  UNL     1      13.586  -9.192  22.094  1.00  0.00    -0.358 N 
ATOM     22  H5  UNL     1      14.331  -8.539  21.850  1.00  0.00     0.166 HD
ENDBRANCH  12  15
ENDBRANCH   9  10
ENDBRANCH   1   9
BRANCH   6  23
HETATM   23  C12 UNL     1      20.231 -14.415  21.423  1.00  0.00     0.063 C 
BRANCH  23  24
HETATM   24  C13 UNL     1      20.202 -15.107  22.770  1.00  0.00     0.238 C 
BRANCH  24  25
HETATM   25  N4  UNL     1      19.227 -16.151  22.819  1.00  0.00    -0.079 N 
HETATM   26  C14 UNL     1      18.218 -15.963  23.826  1.00  0.00     0.271 C 
HETATM   27  C15 UNL     1      19.913 -17.410  23.094  1.00  0.00     0.271 C 
HETATM   28  C16 UNL     1      18.541 -16.335  21.538  1.00  0.00     0.271 C 
ENDBRANCH  24  25
ENDBRANCH  23  24
ENDBRANCH   6  23
TORSDOF 6
ENDMDL
MODEL 2
REMARK VINA RESULT: -7.084923997      1.866      7.651
REMARK  6 active torsions:
REMARK  status: ('A' for Active; 'I' for Inactive)
REMARK    1  A    between atoms: C6_6  and  C7_7 
REMARK       I    between atoms: N1_8  and  C8_10 
REMARK    2  A    between atoms: C8_10  and  C9_12 
REMARK    3  A    between atoms: C9_12  and  N2_13 
REMARK    4  A    between atoms: C11_18  and  C12_19 
REMARK    5  A    between atoms: C12_19  and  C13_20 
REMARK    6  A    between atoms: C13_20  and  N4_21 
ROOT
HETATM    1  N2  UNL     1      17.266 -11.710  20.595  1.00  0.00    -0.260 N 
HETATM    2  C10 UNL     1      16.570 -12.571  21.506  1.00  0.00     0.326 C 
HETATM    3  O2  UNL     1      16.978 -13.044  22.600  1.00  0.00    -0.247 OA
HETATM    4  N3  UNL     1      15.291 -12.795  20.924  1.00  0.00    -0.329 N 
ATOM      5  H3  UNL     1      14.655 -13.559  21.155  1.00  0.00     0.165 HD
HETATM    6  C11 UNL     1      15.044 -11.760  19.951  1.00  0.00     0.180 C 
HETATM    7  C17 UNL     1      16.415 -11.427  19.489  1.00  0.00     0.251 C 
HETATM    8  O3  UNL     1      16.816 -10.990  18.385  1.00  0.00    -0.271 OA
ENDROOT
BRANCH   1   9
HETATM    9  C9  UNL     1      18.614 -11.212  20.777  1.00  0.00     0.240 C 
BRANCH   9  10
HETATM   10  C8  UNL     1      19.543 -12.349  20.568  1.00  0.00     0.240 C 
HETATM   11  N1  UNL     1      19.945 -13.220  21.611  1.00  0.00    -0.334 N 
HETATM   12  C7  UNL     1      20.848 -12.863  22.429  1.00  0.00     0.121 C 
ATOM     13  H1  UNL     1      19.507 -14.137  21.704  1.00  0.00     0.168 HD
HETATM   14  O1  UNL     1      20.024 -12.595  19.427  1.00  0.00    -0.271 OA
BRANCH  12  15
HETATM   15  C6  UNL     1      21.283 -13.735  23.512  1.00  0.00     0.054 A 
HETATM   16  C4  UNL     1      21.282 -13.459  24.857  1.00  0.00    -0.032 A 
HETATM   17  C3  UNL     1      21.777 -14.568  25.524  1.00  0.00     0.033 A 
HETATM   18  C5  UNL     1      20.818 -12.172  25.441  1.00  0.00     0.050 C 
HETATM   19  C2  UNL     1      22.072 -15.502  24.571  1.00  0.00     0.006 A 
HETATM   20  C1  UNL     1      22.633 -16.873  24.752  1.00  0.00     0.068 C 
HETATM   21  N5  UNL     1      21.762 -14.970  23.363  1.00  0.00    -0.358 N 
ATOM     22  H5  UNL     1      21.878 -15.446  22.468  1.00  0.00     0.166 HD
ENDBRANCH  12  15
ENDBRANCH   9  10
ENDBRANCH   1   9
BRANCH   6  23
HETATM   23  C12 UNL     1      14.415 -10.540  20.534  1.00  0.00     0.063 C 
BRANCH  23  24
HETATM   24  C13 UNL     1      13.866 -10.798  21.922  1.00  0.00     0.238 C 
BRANCH  24  25
HETATM   25  N4  UNL     1      12.464 -10.534  22.006  1.00  0.00    -0.079 N 
HETATM   26  C14 UNL     1      11.635 -11.647  21.632  1.00  0.00     0.271 C 
HETATM   27  C15 UNL     1      12.152  -9.417  21.120  1.00  0.00     0.271 C 
HETATM   28  C16 UNL     1      12.055 -10.113  23.348  1.00  0.00     0.271 C 
ENDBRANCH  24  25
ENDBRANCH  23  24
ENDBRANCH   6  23
TORSDOF 6
ENDMDL
MODEL 3
REMARK VINA RESULT: -6.965369181      1.608      2.133
REMARK  6 active torsions:
REMARK  status: ('A' for Active; 'I' for Inactive)
REMARK    1  A    between atoms: C6_6  and  C7_7 
REMARK       I    between atoms: N1_8  and  C8_10 
REMARK    2  A    between atoms: C8_10  and  C9_12 
REMARK    3  A    between atoms: C9_12  and  N2_13 
REMARK    4  A    between atoms: C11_18  and  C12_19 
REMARK    5  A    between atoms: C12_19  and  C13_20 
REMARK    6  A    between atoms: C13_20  and  N4_21 
ROOT
HETATM    1  N2  UNL     1      17.192 -12.871  20.791  1.00  0.00    -0.260 N 
HETATM    2  C10 UNL     1      16.665 -13.820  21.728  1.00  0.00     0.326 C 
HETATM    3  O2  UNL     1      15.788 -14.704  21.535  1.00  0.00    -0.247 OA
HETATM    4  N3  UNL     1      17.342 -13.568  22.954  1.00  0.00    -0.329 N 
ATOM      5  H3  UNL     1      17.030 -13.863  23.879  1.00  0.00     0.165 HD
HETATM    6  C11 UNL     1      18.545 -12.827  22.667  1.00  0.00     0.180 C 
HETATM    7  C17 UNL     1      18.166 -12.068  21.449  1.00  0.00     0.251 C 
HETATM    8  O3  UNL     1      18.569 -10.959  21.025  1.00  0.00    -0.271 OA
ENDROOT
BRANCH   1   9
HETATM    9  C9  UNL     1      16.794 -12.754  19.403  1.00  0.00     0.240 C 
BRANCH   9  10
HETATM   10  C8  UNL     1      16.169 -11.421  19.227  1.00  0.00     0.240 C 
HETATM   11  N1  UNL     1      15.402 -10.789  20.236  1.00  0.00    -0.334 N 
HETATM   12  C7  UNL     1      14.194 -11.133  20.431  1.00  0.00     0.121 C 
ATOM     13  H1  UNL     1      15.820 -10.055  20.808  1.00  0.00     0.168 HD
HETATM   14  O1  UNL     1      16.298 -10.779  18.148  1.00  0.00    -0.271 OA
BRANCH  12  15
HETATM   15  C6  UNL     1      13.378 -10.502  21.461  1.00  0.00     0.054 A 
HETATM   16  C4  UNL     1      12.264 -11.018  22.073  1.00  0.00    -0.032 A 
HETATM   17  C3  UNL     1      11.805 -10.084  22.988  1.00  0.00     0.033 A 
HETATM   18  C5  UNL     1      11.691 -12.356  21.767  1.00  0.00     0.050 C 
HETATM   19  C2  UNL     1      12.650  -9.013  22.916  1.00  0.00     0.006 A 
HETATM   20  C1  UNL     1      12.607  -7.737  23.689  1.00  0.00     0.068 C 
HETATM   21  N5  UNL     1      13.593  -9.295  21.983  1.00  0.00    -0.358 N 
ATOM     22  H5  UNL     1      14.358  -8.673  21.719  1.00  0.00     0.166 HD
ENDBRANCH  12  15
ENDBRANCH   9  10
ENDBRANCH   1   9
BRANCH   6  23
HETATM   23  C12 UNL     1      19.715 -13.699  22.355  1.00  0.00     0.063 C 
BRANCH  23  24
HETATM   24  C13 UNL     1      21.029 -12.998  22.632  1.00  0.00     0.238 C 
BRANCH  24  25
HETATM   25  N4  UNL     1      21.522 -13.273  23.945  1.00  0.00    -0.079 N 
HETATM   26  C14 UNL     1      21.102 -12.323  24.939  1.00  0.00     0.271 C 
HETATM   27  C15 UNL     1      22.980 -13.268  23.900  1.00  0.00     0.271 C 
HETATM   28  C16 UNL     1      21.135 -14.604  24.419  1.00  0.00     0.271 C 
ENDBRANCH  24  25
ENDBRANCH  23  24
ENDBRANCH   6  23
TORSDOF 6
ENDMDL
MODEL 4
REMARK VINA RESULT: -6.908225271      1.955      2.837
REMARK  6 active torsions:
REMARK  status: ('A' for Active; 'I' for Inactive)
REMARK    1  A    between atoms: C6_6  and  C7_7 
REMARK       I    between atoms: N1_8  and  C8_10 
REMARK    2  A    between atoms: C8_10  and  C9_12 
REMARK    3  A    between atoms: C9_12  and  N2_13 
REMARK    4  A    between atoms: C11_18  and  C12_19 
REMARK    5  A    between atoms: C12_19  and  C13_20 
REMARK    6  A    between atoms: C13_20  and  N4_21 
ROOT
HETATM    1  N2  UNL     1      18.154 -13.456  20.761  1.00  0.00    -0.260 N 
HETATM    2  C10 UNL     1      19.538 -13.265  20.437  1.00  0.00     0.326 C 
HETATM    3  O2  UNL     1      20.033 -12.591  19.494  1.00  0.00    -0.247 OA
HETATM    4  N3  UNL     1      20.268 -14.001  21.412  1.00  0.00    -0.329 N 
ATOM      5  H3  UNL     1      21.237 -14.306  21.326  1.00  0.00     0.165 HD
HETATM    6  C11 UNL     1      19.405 -14.243  22.541  1.00  0.00     0.180 C 
HETATM    7  C17 UNL     1      18.063 -14.293  21.909  1.00  0.00     0.251 C 
HETATM    8  O3  UNL     1      17.027 -14.911  22.250  1.00  0.00    -0.271 OA
ENDROOT
BRANCH   1   9
HETATM    9  C9  UNL     1      17.037 -12.888  20.034  1.00  0.00     0.240 C 
BRANCH   9  10
HETATM   10  C8  UNL     1      16.876 -11.485  20.486  1.00  0.00     0.240 C 
HETATM   11  N1  UNL     1      15.843 -11.069  21.361  1.00  0.00    -0.334 N 
HETATM   12  C7  UNL     1      14.669 -10.873  20.916  1.00  0.00     0.121 C 
ATOM     13  H1  UNL     1      16.042 -10.926  22.352  1.00  0.00     0.168 HD
HETATM   14  O1  UNL     1      17.672 -10.583  20.103  1.00  0.00    -0.271 OA
BRANCH  12  15
HETATM   15  C6  UNL     1      13.584 -10.445  21.790  1.00  0.00     0.054 A 
HETATM   16  C4  UNL     1      12.491 -11.177  22.182  1.00  0.00    -0.032 A 
HETATM   17  C3  UNL     1      11.716 -10.383  23.011  1.00  0.00     0.033 A 
HETATM   18  C5  UNL     1      12.234 -12.579  21.757  1.00  0.00     0.050 C 
HETATM   19  C2  UNL     1      12.353  -9.178  23.110  1.00  0.00     0.006 A 
HETATM   20  C1  UNL     1      11.943  -7.967  23.880  1.00  0.00     0.068 C 
HETATM   21  N5  UNL     1      13.481  -9.245  22.360  1.00  0.00    -0.358 N 
ATOM     22  H5  UNL     1      14.154  -8.487  22.248  1.00  0.00     0.166 HD
ENDBRANCH  12  15
ENDBRANCH   9  10
ENDBRANCH   1   9
BRANCH   6  23
HETATM   23  C12 UNL     1      19.430 -13.143  23.549  1.00  0.00     0.063 C 
BRANCH  23  24
HETATM   24  C13 UNL     1      19.711 -13.663  24.943  1.00  0.00     0.238 C 
BRANCH  24  25
HETATM   25  N4  UNL     1      20.980 -13.228  25.436  1.00  0.00    -0.079 N 
HETATM   26  C14 UNL     1      21.783 -12.542  24.461  1.00  0.00     0.271 C 
HETATM   27  C15 UNL     1      21.724 -14.398  25.893  1.00  0.00     0.271 C 
HETATM   28  C16 UNL     1      20.855 -12.348  26.600  1.00  0.00     0.271 C 
ENDBRANCH  24  25
ENDBRANCH  23  24
ENDBRANCH   6  23
TORSDOF 6
ENDMDL
MODEL 5
REMARK VINA RESULT: -6.634022856      3.068      6.683
REMARK  6 active torsions:
REMARK  status: ('A' for Active; 'I' for Inactive)
REMARK    1  A    between atoms: C6_6  and  C7_7 
REMARK       I    between atoms: N1_8  and  C8_10 
REMARK    2  A    between atoms: C8_10  and  C9_12 
REMARK    3  A    between atoms: C9_12  and  N2_13 
REMARK    4  A    between atoms: C11_18  and  C12_19 
REMARK    5  A    between atoms: C12_19  and  C13_20 
REMARK    6  A    between atoms: C13_20  and  N4_21 
ROOT
HETATM    1  N2  UNL     1      17.464 -11.949  20.697  1.00  0.00    -0.260 N 
HETATM    2  C10 UNL     1      16.545 -11.811  19.605  1.00  0.00     0.326 C 
HETATM    3  O2  UNL     1      16.673 -11.119  18.559  1.00  0.00    -0.247 OA
HETATM    4  N3  UNL     1      15.429 -12.630  19.934  1.00  0.00    -0.329 N 
ATOM      5  H3  UNL     1      14.497 -12.559  19.528  1.00  0.00     0.165 HD
HETATM    6  C11 UNL     1      15.840 -13.578  20.940  1.00  0.00     0.180 C 
HETATM    7  C17 UNL     1      16.904 -12.834  21.660  1.00  0.00     0.251 C 
HETATM    8  O3  UNL     1      17.284 -12.912  22.852  1.00  0.00    -0.271 OA
ENDROOT
BRANCH   1   9
HETATM    9  C9  UNL     1      18.752 -11.291  20.797  1.00  0.00     0.240 C 
BRANCH   9  10
HETATM   10  C8  UNL     1      19.798 -12.324  20.603  1.00  0.00     0.240 C 
HETATM   11  N1  UNL     1      20.203 -13.215  21.628  1.00  0.00    -0.334 N 
HETATM   12  C7  UNL     1      21.005 -12.825  22.532  1.00  0.00     0.121 C 
ATOM     13  H1  UNL     1      19.849 -14.172  21.638  1.00  0.00     0.168 HD
HETATM   14  O1  UNL     1      20.383 -12.456  19.493  1.00  0.00    -0.271 OA
BRANCH  12  15
HETATM   15  C6  UNL     1      21.441 -13.716  23.600  1.00  0.00     0.054 A 
HETATM   16  C4  UNL     1      21.357 -13.500  24.953  1.00  0.00    -0.032 A 
HETATM   17  C3  UNL     1      21.887 -14.605  25.599  1.00  0.00     0.033 A 
HETATM   18  C5  UNL     1      20.786 -12.270  25.564  1.00  0.00     0.050 C 
HETATM   19  C2  UNL     1      22.286 -15.477  24.625  1.00  0.00     0.006 A 
HETATM   20  C1  UNL     1      22.921 -16.819  24.778  1.00  0.00     0.068 C 
HETATM   21  N5  UNL     1      22.002 -14.912  23.425  1.00  0.00    -0.358 N 
ATOM     22  H5  UNL     1      22.191 -15.340  22.519  1.00  0.00     0.166 HD
ENDBRANCH  12  15
ENDBRANCH   9  10
ENDBRANCH   1   9
BRANCH   6  23
HETATM   23  C12 UNL     1      16.419 -14.830  20.370  1.00  0.00     0.063 C 
BRANCH  23  24
HETATM   24  C13 UNL     1      16.003 -16.053  21.160  1.00  0.00     0.238 C 
BRANCH  24  25
HETATM   25  N4  UNL     1      17.109 -16.672  21.819  1.00  0.00    -0.079 N 
HETATM   26  C14 UNL     1      18.393 -16.267  21.314  1.00  0.00     0.271 C 
HETATM   27  C15 UNL     1      16.993 -18.118  21.657  1.00  0.00     0.271 C 
HETATM   28  C16 UNL     1      17.108 -16.425  23.263  1.00  0.00     0.271 C 
ENDBRANCH  24  25
ENDBRANCH  23  24
ENDBRANCH   6  23
TORSDOF 6
ENDMDL
