MODEL 1
REMARK VINA RESULT: -6.787610579      0.000      0.000
REMARK  9 active torsions:
REMARK  status: ('A' for Active; 'I' for Inactive)
REMARK    1  A    between atoms: N1_1  and  C1_5 
REMARK    2  A    between atoms: C1_5  and  C2_6 
REMARK    3  A    between atoms: C1_5  and  C4_10 
REMARK    4  A    between atoms: C2_6  and  C3_7 
REMARK    5  A    between atoms: C3_7  and  O1_8 
REMARK    6  A    between atoms: C4_10  and  N4_21 
REMARK    7  A    between atoms: N2_11  and  C5_13 
REMARK    8  A    between atoms: C5_13  and  C6_14 
REMARK    9  A    between atoms: C6_14  and  N3_15 
ROOT
HETATM    1  C4  UNL     1      17.009 -13.658  21.187  1.00  0.00     0.106 C 
HETATM    2  N2  UNL     1      16.724 -12.440  20.892  1.00  0.00    -0.376 N 
ATOM      3  H2  UNL     1      17.360 -11.721  21.236  1.00  0.00     0.160 HD
ENDROOT
BRANCH   1   4
HETATM    4  C1  UNL     1      16.173 -14.782  20.753  1.00  0.00     0.252 C 
BRANCH   4   5
HETATM    5  N1  UNL     1      15.139 -15.032  21.765  1.00  0.00    -0.068 N 
ATOM      6  H13 UNL     1      15.346 -15.836  22.358  1.00  0.00     0.275 HD
ATOM      7  H12 UNL     1      15.122 -14.326  22.502  1.00  0.00     0.275 HD
ATOM      8  H11 UNL     1      14.249 -15.116  21.274  1.00  0.00     0.275 HD
ENDBRANCH   4   5
BRANCH   4   9
HETATM    9  C2  UNL     1      16.979 -16.062  20.608  1.00  0.00     0.067 C 
BRANCH   9  10
HETATM   10  C3  UNL     1      16.269 -16.978  19.633  1.00  0.00     0.166 C 
BRANCH  10  11
HETATM   11  O1  UNL     1      15.509 -16.154  18.789  1.00  0.00    -0.401 OA
ATOM     12  H1  UNL     1      14.870 -16.714  18.365  1.00  0.00     0.209 HD
ENDBRANCH  10  11
ENDBRANCH   9  10
ENDBRANCH   4   9
ENDBRANCH   1   4
BRANCH   1  13
HETATM   13  N4  UNL     1      18.195 -13.863  21.957  1.00  0.00    -0.366 N 
HETATM   14  C12 UNL     1      19.518 -13.759  21.330  1.00  0.00     0.152 C 
HETATM   15  C13 UNL     1      20.406 -12.877  22.219  1.00  0.00     0.257 C 
HETATM   16  N5  UNL     1      20.532 -13.431  23.552  1.00  0.00    -0.064 N 
HETATM   17  C14 UNL     1      20.335 -12.467  24.597  1.00  0.00     0.237 C 
HETATM   18  C17 UNL     1      21.875 -13.964  23.692  1.00  0.00     0.237 C 
HETATM   19  C18 UNL     1      19.611 -14.514  23.759  1.00  0.00     0.257 C 
HETATM   20  C15 UNL     1      21.478 -12.604  25.565  1.00  0.00     0.029 C 
HETATM   21  C16 UNL     1      22.590 -13.129  24.705  1.00  0.00     0.029 C 
HETATM   22  C19 UNL     1      18.189 -14.174  23.366  1.00  0.00     0.152 C 
ENDBRANCH   1  13
BRANCH   2  23
HETATM   23  C5  UNL     1      15.595 -11.995  20.124  1.00  0.00     0.151 C 
BRANCH  23  24
HETATM   24  C6  UNL     1      15.277 -10.514  20.357  1.00  0.00     0.292 C 
BRANCH  24  25
HETATM   25  N3  UNL     1      13.876 -10.434  20.713  1.00  0.00     0.090 N 
HETATM   26  C7  UNL     1      13.237 -11.704  20.784  1.00  0.00     0.272 C 
HETATM   27  C8  UNL     1      12.597 -12.005  22.122  1.00  0.00     0.030 C 
HETATM   28  C9  UNL     1      11.708 -10.919  22.623  1.00  0.00     0.003 C 
HETATM   29  C10 UNL     1      12.095  -9.582  22.046  1.00  0.00     0.030 C 
HETATM   30  C11 UNL     1      13.582  -9.530  21.775  1.00  0.00     0.272 C 
ENDBRANCH  24  25
ENDBRANCH  23  24
ENDBRANCH   2  23
TORSDOF 9
ENDMDL
MODEL 2
REMARK VINA RESULT: -6.611179562      1.976      2.645
REMARK  9 active torsions:
REMARK  status: ('A' for Active; 'I' for Inactive)
REMARK    1  A    between atoms: N1_1  and  C1_5 
REMARK    2  A    between atoms: C1_5  and  C2_6 
REMARK    3  A    between atoms: C1_5  and  C4_10 
REMARK    4  A    between atoms: C2_6  and  C3_7 
REMARK    5  A    between atoms: C3_7  and  O1_8 
REMARK    6  A    between atoms: C4_10  and  N4_21 
REMARK    7  A    between atoms: N2_11  and  C5_13 
REMARK    8  A    between atoms: C5_13  and  C6_14 
REMARK    9  A    between atoms: C6_14  and  N3_15 
ROOT
HETATM    1  C4  UNL     1      16.553 -12.517  21.281  1.00  0.00     0.106 C 
HETATM    2  N2  UNL     1      15.380 -12.648  21.789  1.00  0.00    -0.376 N 
ATOM      3  H2  UNL     1      15.306 -13.203  22.641  1.00  0.00     0.160 HD
ENDROOT
BRANCH   1   4
HETATM    4  C1  UNL     1      16.792 -11.746  20.057  1.00  0.00     0.252 C 
BRANCH   4   5
HETATM    5  N1  UNL     1      16.147 -10.433  20.182  1.00  0.00    -0.068 N 
ATOM      6  H13 UNL     1      16.733  -9.742  20.651  1.00  0.00     0.275 HD
ATOM      7  H12 UNL     1      16.058  -9.945  19.290  1.00  0.00     0.275 HD
ATOM      8  H11 UNL     1      15.251 -10.579  20.647  1.00  0.00     0.275 HD
ENDBRANCH   4   5
BRANCH   4   9
HETATM    9  C2  UNL     1      16.197 -12.425  18.835  1.00  0.00     0.067 C 
BRANCH   9  10
HETATM   10  C3  UNL     1      16.432 -11.547  17.625  1.00  0.00     0.166 C 
BRANCH  10  11
HETATM   11  O1  UNL     1      15.191 -10.978  17.297  1.00  0.00    -0.401 OA
ATOM     12  H1  UNL     1      15.369 -10.276  16.681  1.00  0.00     0.209 HD
ENDBRANCH  10  11
ENDBRANCH   9  10
ENDBRANCH   4   9
ENDBRANCH   1   4
BRANCH   1  13
HETATM   13  N4  UNL     1      17.621 -13.158  21.980  1.00  0.00    -0.366 N 
HETATM   14  C12 UNL     1      18.874 -13.489  21.289  1.00  0.00     0.152 C 
HETATM   15  C13 UNL     1      20.046 -13.013  22.159  1.00  0.00     0.257 C 
HETATM   16  N5  UNL     1      20.021 -13.641  23.465  1.00  0.00    -0.064 N 
HETATM   17  C14 UNL     1      20.213 -12.720  24.548  1.00  0.00     0.237 C 
HETATM   18  C17 UNL     1      21.098 -14.613  23.517  1.00  0.00     0.237 C 
HETATM   19  C18 UNL     1      18.789 -14.346  23.684  1.00  0.00     0.257 C 
HETATM   20  C15 UNL     1      21.271 -13.292  25.451  1.00  0.00     0.029 C 
HETATM   21  C16 UNL     1      22.097 -14.127  24.517  1.00  0.00     0.029 C 
HETATM   22  C19 UNL     1      17.560 -13.515  23.378  1.00  0.00     0.152 C 
ENDBRANCH   1  13
BRANCH   2  23
HETATM   23  C5  UNL     1      14.164 -12.088  21.270  1.00  0.00     0.151 C 
BRANCH  23  24
HETATM   24  C6  UNL     1      12.934 -12.505  22.084  1.00  0.00     0.292 C 
BRANCH  24  25
HETATM   25  N3  UNL     1      12.160 -11.305  22.322  1.00  0.00     0.090 N 
HETATM   26  C7  UNL     1      11.167 -11.462  23.331  1.00  0.00     0.272 C 
HETATM   27  C8  UNL     1      11.289 -10.488  24.482  1.00  0.00     0.030 C 
HETATM   28  C9  UNL     1      11.412  -9.064  24.056  1.00  0.00     0.003 C 
HETATM   29  C10 UNL     1      11.984  -8.954  22.667  1.00  0.00     0.030 C 
HETATM   30  C11 UNL     1      12.926 -10.105  22.386  1.00  0.00     0.272 C 
ENDBRANCH  24  25
ENDBRANCH  23  24
ENDBRANCH   2  23
TORSDOF 9
ENDMDL
MODEL 3
REMARK VINA RESULT: -6.524476037      0.906      1.552
REMARK  9 active torsions:
REMARK  status: ('A' for Active; 'I' for Inactive)
REMARK    1  A    between atoms: N1_1  and  C1_5 
REMARK    2  A    between atoms: C1_5  and  C2_6 
REMARK    3  A    between atoms: C1_5  and  C4_10 
REMARK    4  A    between atoms: C2_6  and  C3_7 
REMARK    5  A    between atoms: C3_7  and  O1_8 
REMARK    6  A    between atoms: C4_10  and  N4_21 
REMARK    7  A    between atoms: N2_11  and  C5_13 
REMARK    8  A    between atoms: C5_13  and  C6_14 
REMARK    9  A    between atoms: C6_14  and  N3_15 
ROOT
HETATM    1  C4  UNL     1      16.950 -13.153  21.499  1.00  0.00     0.106 C 
HETATM    2  N2  UNL     1      16.569 -11.963  21.198  1.00  0.00    -0.376 N 
ATOM      3  H2  UNL     1      17.075 -11.193  21.634  1.00  0.00     0.160 HD
ENDROOT
BRANCH   1   4
HETATM    4  C1  UNL     1      16.302 -14.345  20.940  1.00  0.00     0.252 C 
BRANCH   4   5
HETATM    5  N1  UNL     1      15.228 -14.777  21.843  1.00  0.00    -0.068 N 
ATOM      6  H13 UNL     1      15.573 -15.126  22.737  1.00  0.00     0.275 HD
ATOM      7  H12 UNL     1      14.677 -14.000  22.209  1.00  0.00     0.275 HD
ATOM      8  H11 UNL     1      14.665 -15.461  21.337  1.00  0.00     0.275 HD
ENDBRANCH   4   5
BRANCH   4   9
HETATM    9  C2  UNL     1      17.273 -15.506  20.809  1.00  0.00     0.067 C 
BRANCH   9  10
HETATM   10  C3  UNL     1      16.551 -16.678  20.180  1.00  0.00     0.166 C 
BRANCH  10  11
HETATM   11  O1  UNL     1      15.724 -16.148  19.177  1.00  0.00    -0.401 OA
ATOM     12  H1  UNL     1      16.011 -16.533  18.357  1.00  0.00     0.209 HD
ENDBRANCH  10  11
ENDBRANCH   9  10
ENDBRANCH   4   9
ENDBRANCH   1   4
BRANCH   1  13
HETATM   13  N4  UNL     1      18.049 -13.256  22.404  1.00  0.00    -0.366 N 
HETATM   14  C12 UNL     1      17.830 -13.632  23.807  1.00  0.00     0.152 C 
HETATM   15  C13 UNL     1      18.837 -14.730  24.176  1.00  0.00     0.257 C 
HETATM   16  N5  UNL     1      20.201 -14.276  23.994  1.00  0.00    -0.064 N 
HETATM   17  C14 UNL     1      21.030 -15.214  23.292  1.00  0.00     0.237 C 
HETATM   18  C17 UNL     1      20.785 -14.069  25.307  1.00  0.00     0.237 C 
HETATM   19  C18 UNL     1      20.247 -13.021  23.295  1.00  0.00     0.257 C 
HETATM   20  C15 UNL     1      22.299 -15.381  24.082  1.00  0.00     0.029 C 
HETATM   21  C16 UNL     1      21.864 -15.087  25.488  1.00  0.00     0.029 C 
HETATM   22  C19 UNL     1      19.421 -13.012  22.026  1.00  0.00     0.152 C 
ENDBRANCH   1  13
BRANCH   2  23
HETATM   23  C5  UNL     1      15.498 -11.616  20.306  1.00  0.00     0.151 C 
BRANCH  23  24
HETATM   24  C6  UNL     1      15.009 -10.178  20.513  1.00  0.00     0.292 C 
BRANCH  24  25
HETATM   25  N3  UNL     1      13.626 -10.261  20.936  1.00  0.00     0.090 N 
HETATM   26  C7  UNL     1      13.090 -11.578  20.863  1.00  0.00     0.272 C 
HETATM   27  C8  UNL     1      12.546 -12.102  22.174  1.00  0.00     0.030 C 
HETATM   28  C9  UNL     1      11.604 -11.167  22.853  1.00  0.00     0.003 C 
HETATM   29  C10 UNL     1      11.858  -9.740  22.445  1.00  0.00     0.030 C 
HETATM   30  C11 UNL     1      13.321  -9.531  22.121  1.00  0.00     0.272 C 
ENDBRANCH  24  25
ENDBRANCH  23  24
ENDBRANCH   2  23
TORSDOF 9
ENDMDL
MODEL 4
REMARK VINA RESULT: -6.408117819      2.174      3.101
REMARK  9 active torsions:
REMARK  status: ('A' for Active; 'I' for Inactive)
REMARK    1  A    between atoms: N1_1  and  C1_5 
REMARK    2  A    between atoms: C1_5  and  C2_6 
REMARK    3  A    between atoms: C1_5  and  C4_10 
REMARK    4  A    between atoms: C2_6  and  C3_7 
REMARK    5  A    between atoms: C3_7  and  O1_8 
REMARK    6  A    between atoms: C4_10  and  N4_21 
REMARK    7  A    between atoms: N2_11  and  C5_13 
REMARK    8  A    between atoms: C5_13  and  C6_14 
REMARK    9  A    between atoms: C6_14  and  N3_15 
ROOT
HETATM    1  C4  UNL     1      16.498 -12.756  21.478  1.00  0.00     0.106 C 
HETATM    2  N2  UNL     1      15.260 -12.869  21.804  1.00  0.00    -0.376 N 
ATOM      3  H2  UNL     1      15.019 -13.626  22.443  1.00  0.00     0.160 HD
ENDROOT
BRANCH   1   4
HETATM    4  C1  UNL     1      16.973 -11.710  20.567  1.00  0.00     0.252 C 
BRANCH   4   5
HETATM    5  N1  UNL     1      16.851 -12.185  19.183  1.00  0.00    -0.068 N 
ATOM      6  H13 UNL     1      16.184 -11.644  18.632  1.00  0.00     0.275 HD
ATOM      7  H12 UNL     1      17.678 -11.989  18.619  1.00  0.00     0.275 HD
ATOM      8  H11 UNL     1      16.623 -13.179  19.224  1.00  0.00     0.275 HD
ENDBRANCH   4   5
BRANCH   4   9
HETATM    9  C2  UNL     1      18.437 -11.379  20.801  1.00  0.00     0.067 C 
BRANCH   9  10
HETATM   10  C3  UNL     1      19.231 -11.775  19.574  1.00  0.00     0.166 C 
BRANCH  10  11
HETATM   11  O1  UNL     1      20.582 -11.776  19.953  1.00  0.00    -0.401 OA
ATOM     12  H1  UNL     1      20.865 -12.683  19.945  1.00  0.00     0.209 HD
ENDBRANCH  10  11
ENDBRANCH   9  10
ENDBRANCH   4   9
ENDBRANCH   1   4
BRANCH   1  13
HETATM   13  N4  UNL     1      17.395 -13.702  22.061  1.00  0.00    -0.366 N 
HETATM   14  C12 UNL     1      17.887 -14.844  21.280  1.00  0.00     0.152 C 
HETATM   15  C13 UNL     1      19.409 -14.934  21.461  1.00  0.00     0.257 C 
HETATM   16  N5  UNL     1      19.764 -15.099  22.856  1.00  0.00    -0.064 N 
HETATM   17  C14 UNL     1      20.819 -14.227  23.287  1.00  0.00     0.237 C 
HETATM   18  C17 UNL     1      20.218 -16.466  23.046  1.00  0.00     0.237 C 
HETATM   19  C18 UNL     1      18.630 -14.895  23.714  1.00  0.00     0.257 C 
HETATM   20  C15 UNL     1      21.837 -15.066  24.011  1.00  0.00     0.029 C 
HETATM   21  C16 UNL     1      21.673 -16.417  23.380  1.00  0.00     0.029 C 
HETATM   22  C19 UNL     1      17.880 -13.613  23.418  1.00  0.00     0.152 C 
ENDBRANCH   1  13
BRANCH   2  23
HETATM   23  C5  UNL     1      14.185 -12.030  21.354  1.00  0.00     0.151 C 
BRANCH  23  24
HETATM   24  C6  UNL     1      12.836 -12.433  21.961  1.00  0.00     0.292 C 
BRANCH  24  25
HETATM   25  N3  UNL     1      12.127 -11.208  22.263  1.00  0.00     0.090 N 
HETATM   26  C7  UNL     1      11.123 -11.366  23.259  1.00  0.00     0.272 C 
HETATM   27  C8  UNL     1      11.292 -10.463  24.462  1.00  0.00     0.030 C 
HETATM   28  C9  UNL     1      11.494  -9.028  24.115  1.00  0.00     0.003 C 
HETATM   29  C10 UNL     1      12.078  -8.873  22.736  1.00  0.00     0.030 C 
HETATM   30  C11 UNL     1      12.957 -10.057  22.394  1.00  0.00     0.272 C 
ENDBRANCH  24  25
ENDBRANCH  23  24
ENDBRANCH   2  23
TORSDOF 9
ENDMDL
MODEL 5
REMARK VINA RESULT: -6.329043950      2.396      3.615
REMARK  9 active torsions:
REMARK  status: ('A' for Active; 'I' for Inactive)
REMARK    1  A    between atoms: N1_1  and  C1_5 
REMARK    2  A    between atoms: C1_5  and  C2_6 
REMARK    3  A    between atoms: C1_5  and  C4_10 
REMARK    4  A    between atoms: C2_6  and  C3_7 
REMARK    5  A    between atoms: C3_7  and  O1_8 
REMARK    6  A    between atoms: C4_10  and  N4_21 
REMARK    7  A    between atoms: N2_11  and  C5_13 
REMARK    8  A    between atoms: C5_13  and  C6_14 
REMARK    9  A    between atoms: C6_14  and  N3_15 
ROOT
HETATM    1  C4  UNL     1      17.433 -12.662  21.487  1.00  0.00     0.106 C 
HETATM    2  N2  UNL     1      16.218 -12.303  21.701  1.00  0.00    -0.376 N 
ATOM      3  H2  UNL     1      15.692 -12.842  22.389  1.00  0.00     0.160 HD
ENDROOT
BRANCH   1   4
HETATM    4  C1  UNL     1      18.294 -11.969  20.523  1.00  0.00     0.252 C 
BRANCH   4   5
HETATM    5  N1  UNL     1      17.679 -12.039  19.192  1.00  0.00    -0.068 N 
ATOM      6  H13 UNL     1      17.975 -11.282  18.575  1.00  0.00     0.275 HD
ATOM      7  H12 UNL     1      18.032 -12.813  18.629  1.00  0.00     0.275 HD
ATOM      8  H11 UNL     1      16.668 -12.073  19.327  1.00  0.00     0.275 HD
ENDBRANCH   4   5
BRANCH   4   9
HETATM    9  C2  UNL     1      19.664 -12.617  20.420  1.00  0.00     0.067 C 
BRANCH   9  10
HETATM   10  C3  UNL     1      20.636 -11.616  19.833  1.00  0.00     0.166 C 
BRANCH  10  11
HETATM   11  O1  UNL     1      20.536 -11.732  18.437  1.00  0.00    -0.401 OA
ATOM     12  H1  UNL     1      21.383 -11.488  18.083  1.00  0.00     0.209 HD
ENDBRANCH  10  11
ENDBRANCH   9  10
ENDBRANCH   4   9
ENDBRANCH   1   4
BRANCH   1  13
HETATM   13  N4  UNL     1      17.910 -13.772  22.250  1.00  0.00    -0.366 N 
HETATM   14  C12 UNL     1      18.604 -13.558  23.526  1.00  0.00     0.152 C 
HETATM   15  C13 UNL     1      17.996 -14.503  24.571  1.00  0.00     0.257 C 
HETATM   16  N5  UNL     1      18.122 -15.889  24.165  1.00  0.00    -0.064 N 
HETATM   17  C14 UNL     1      16.909 -16.643  24.313  1.00  0.00     0.237 C 
HETATM   18  C17 UNL     1      19.132 -16.512  25.001  1.00  0.00     0.237 C 
HETATM   19  C18 UNL     1      18.558 -15.998  22.801  1.00  0.00     0.257 C 
HETATM   20  C15 UNL     1      17.250 -17.915  25.040  1.00  0.00     0.029 C 
HETATM   21  C16 UNL     1      18.449 -17.529  25.856  1.00  0.00     0.029 C 
HETATM   22  C19 UNL     1      17.749 -15.148  21.844  1.00  0.00     0.152 C 
ENDBRANCH   1  13
BRANCH   2  23
HETATM   23  C5  UNL     1      15.530 -11.215  21.064  1.00  0.00     0.151 C 
BRANCH  23  24
HETATM   24  C6  UNL     1      14.264 -11.673  20.333  1.00  0.00     0.292 C 
BRANCH  24  25
HETATM   25  N3  UNL     1      13.154 -10.950  20.918  1.00  0.00     0.090 N 
HETATM   26  C7  UNL     1      12.151 -11.798  21.466  1.00  0.00     0.272 C 
HETATM   27  C8  UNL     1      11.865 -11.558  22.932  1.00  0.00     0.030 C 
HETATM   28  C9  UNL     1      11.614 -10.129  23.272  1.00  0.00     0.003 C 
HETATM   29  C10 UNL     1      12.271  -9.205  22.279  1.00  0.00     0.030 C 
HETATM   30  C11 UNL     1      13.529  -9.833  21.720  1.00  0.00     0.272 C 
ENDBRANCH  24  25
ENDBRANCH  23  24
ENDBRANCH   2  23
TORSDOF 9
ENDMDL
