MODEL 1
REMARK VINA RESULT: -6.211275356      0.000      0.000
REMARK  6 active torsions:
REMARK  status: ('A' for Active; 'I' for Inactive)
REMARK    1  A    between atoms: C2_2  and  C3_3 
REMARK    2  A    between atoms: C5_5  and  C6_6 
REMARK    3  A    between atoms: C6_6  and  O1_8 
REMARK    4  A    between atoms: O1_8  and  C8_9 
REMARK    5  A    between atoms: C8_9  and  C10_11 
REMARK    6  A    between atoms: C10_11  and  N1_12 
ROOT
HETATM    1  C3  UNL     1      24.070  -5.364   9.068  1.00  0.00     0.060 C 
HETATM    2  C4  UNL     1      24.131  -5.205   7.560  1.00  0.00     0.027 C 
HETATM    3  C5  UNL     1      24.458  -6.533   6.897  1.00  0.00     0.107 C 
HETATM    4  C11 UNL     1      25.599  -7.202   7.546  1.00  0.00     0.224 C 
HETATM    5  O2  UNL     1      25.878  -8.326   7.068  1.00  0.00    -0.273 OA
HETATM    6  N2  UNL     1      26.378  -6.710   8.619  1.00  0.00    -0.355 N 
ATOM      7  H2  UNL     1      26.896  -7.410   9.150  1.00  0.00     0.162 HD
HETATM    8  C12 UNL     1      26.532  -5.353   9.052  1.00  0.00     0.202 C 
HETATM    9  C13 UNL     1      25.301  -4.734   9.638  1.00  0.00     0.262 C 
HETATM   10  F1  UNL     1      25.296  -4.774  11.019  1.00  0.00    -0.204 F 
HETATM   11  F2  UNL     1      25.314  -3.384   9.287  1.00  0.00    -0.204 F 
ENDROOT
BRANCH   3  12
HETATM   12  C6  UNL     1      24.711  -6.292   5.417  1.00  0.00     0.131 C 
HETATM   13  C7  UNL     1      23.397  -6.275   4.680  1.00  0.00     0.040 C 
BRANCH  12  14
HETATM   14  O1  UNL     1      25.353  -5.059   5.317  1.00  0.00    -0.379 OA
BRANCH  14  15
HETATM   15  C8  UNL     1      26.726  -5.194   5.135  1.00  0.00     0.143 C 
HETATM   16  C9  UNL     1      26.967  -6.311   4.116  1.00  0.00     0.041 C 
BRANCH  15  17
HETATM   17  C10 UNL     1      27.210  -3.913   4.461  1.00  0.00     0.261 C 
BRANCH  17  18
HETATM   18  N1  UNL     1      27.571  -2.896   5.396  1.00  0.00    -0.077 N 
ATOM     19  H13 UNL     1      26.807  -2.710   6.045  1.00  0.00     0.274 HD
ATOM     20  H12 UNL     1      28.271  -3.238   6.055  1.00  0.00     0.274 HD
ATOM     21  H11 UNL     1      27.884  -2.037   4.945  1.00  0.00     0.274 HD
ENDBRANCH  17  18
ENDBRANCH  15  17
ENDBRANCH  14  15
ENDBRANCH  12  14
ENDBRANCH   3  12
BRANCH   1  22
HETATM   22  C2  UNL     1      22.804  -4.726   9.592  1.00  0.00     0.006 C 
HETATM   23  C1  UNL     1      21.560  -5.221   8.928  1.00  0.00     0.006 C 
ENDBRANCH   1  22
TORSDOF 6
ENDMDL
MODEL 2
REMARK VINA RESULT: -6.061773149      2.207      3.478
REMARK  6 active torsions:
REMARK  status: ('A' for Active; 'I' for Inactive)
REMARK    1  A    between atoms: C2_2  and  C3_3 
REMARK    2  A    between atoms: C5_5  and  C6_6 
REMARK    3  A    between atoms: C6_6  and  O1_8 
REMARK    4  A    between atoms: O1_8  and  C8_9 
REMARK    5  A    between atoms: C8_9  and  C10_11 
REMARK    6  A    between atoms: C10_11  and  N1_12 
ROOT
HETATM    1  C3  UNL     1      26.217  -4.933   8.860  1.00  0.00     0.060 C 
HETATM    2  C4  UNL     1      25.623  -5.219   7.493  1.00  0.00     0.027 C 
HETATM    3  C5  UNL     1      26.687  -5.091   6.414  1.00  0.00     0.107 C 
HETATM    4  C11 UNL     1      27.468  -3.851   6.559  1.00  0.00     0.224 C 
HETATM    5  O2  UNL     1      28.392  -3.723   5.723  1.00  0.00    -0.273 OA
HETATM    6  N2  UNL     1      27.278  -2.831   7.520  1.00  0.00    -0.355 N 
ATOM      7  H2  UNL     1      28.080  -2.225   7.690  1.00  0.00     0.162 HD
HETATM    8  C12 UNL     1      26.101  -2.543   8.284  1.00  0.00     0.202 C 
HETATM    9  C13 UNL     1      25.730  -3.586   9.291  1.00  0.00     0.262 C 
HETATM   10  F1  UNL     1      26.170  -3.272  10.563  1.00  0.00    -0.204 F 
HETATM   11  F2  UNL     1      24.337  -3.616   9.357  1.00  0.00    -0.204 F 
ENDROOT
BRANCH   3  12
HETATM   12  C6  UNL     1      26.015  -5.182   5.052  1.00  0.00     0.131 C 
HETATM   13  C7  UNL     1      26.722  -6.212   4.212  1.00  0.00     0.040 C 
BRANCH  12  14
HETATM   14  O1  UNL     1      24.692  -5.551   5.284  1.00  0.00    -0.379 OA
BRANCH  14  15
HETATM   15  C8  UNL     1      24.334  -6.697   4.581  1.00  0.00     0.143 C 
HETATM   16  C9  UNL     1      24.148  -7.837   5.584  1.00  0.00     0.041 C 
BRANCH  15  17
HETATM   17  C10 UNL     1      22.950  -6.440   3.991  1.00  0.00     0.261 C 
BRANCH  17  18
HETATM   18  N1  UNL     1      22.497  -7.505   3.154  1.00  0.00    -0.077 N 
ATOM     19  H13 UNL     1      22.811  -8.408   3.510  1.00  0.00     0.274 HD
ATOM     20  H12 UNL     1      21.488  -7.633   3.241  1.00  0.00     0.274 HD
ATOM     21  H11 UNL     1      22.767  -7.385   2.178  1.00  0.00     0.274 HD
ENDBRANCH  17  18
ENDBRANCH  15  17
ENDBRANCH  14  15
ENDBRANCH  12  14
ENDBRANCH   3  12
BRANCH   1  22
HETATM   22  C2  UNL     1      25.811  -6.025   9.825  1.00  0.00     0.006 C 
HETATM   23  C1  UNL     1      25.005  -7.115   9.196  1.00  0.00     0.006 C 
ENDBRANCH   1  22
TORSDOF 6
ENDMDL
MODEL 3
REMARK VINA RESULT: -5.829652399      2.202      3.713
REMARK  6 active torsions:
REMARK  status: ('A' for Active; 'I' for Inactive)
REMARK    1  A    between atoms: C2_2  and  C3_3 
REMARK    2  A    between atoms: C5_5  and  C6_6 
REMARK    3  A    between atoms: C6_6  and  O1_8 
REMARK    4  A    between atoms: O1_8  and  C8_9 
REMARK    5  A    between atoms: C8_9  and  C10_11 
REMARK    6  A    between atoms: C10_11  and  N1_12 
ROOT
HETATM    1  C3  UNL     1      26.095  -4.457   8.225  1.00  0.00     0.060 C 
HETATM    2  C4  UNL     1      24.655  -4.915   8.098  1.00  0.00     0.027 C 
HETATM    3  C5  UNL     1      24.563  -6.427   8.227  1.00  0.00     0.107 C 
HETATM    4  C11 UNL     1      25.559  -7.109   7.383  1.00  0.00     0.224 C 
HETATM    5  O2  UNL     1      25.559  -8.357   7.490  1.00  0.00    -0.273 OA
HETATM    6  N2  UNL     1      26.480  -6.507   6.495  1.00  0.00    -0.355 N 
ATOM      7  H2  UNL     1      27.293  -7.071   6.247  1.00  0.00     0.162 HD
HETATM    8  C12 UNL     1      26.416  -5.204   5.901  1.00  0.00     0.202 C 
HETATM    9  C13 UNL     1      26.566  -4.064   6.860  1.00  0.00     0.262 C 
HETATM   10  F1  UNL     1      27.855  -3.568   6.893  1.00  0.00    -0.204 F 
HETATM   11  F2  UNL     1      25.760  -3.027   6.393  1.00  0.00    -0.204 F 
ENDROOT
BRANCH   3  12
HETATM   12  C6  UNL     1      23.144  -6.862   7.892  1.00  0.00     0.131 C 
HETATM   13  C7  UNL     1      22.230  -6.516   9.038  1.00  0.00     0.040 C 
BRANCH  12  14
HETATM   14  O1  UNL     1      22.778  -6.172   6.738  1.00  0.00    -0.379 OA
BRANCH  14  15
HETATM   15  C8  UNL     1      22.388  -7.030   5.713  1.00  0.00     0.143 C 
HETATM   16  C9  UNL     1      20.880  -6.876   5.506  1.00  0.00     0.041 C 
BRANCH  15  17
HETATM   17  C10 UNL     1      23.033  -6.509   4.432  1.00  0.00     0.261 C 
BRANCH  17  18
HETATM   18  N1  UNL     1      24.121  -7.322   3.989  1.00  0.00    -0.077 N 
ATOM     19  H13 UNL     1      24.826  -7.418   4.720  1.00  0.00     0.274 HD
ATOM     20  H12 UNL     1      23.837  -8.297   3.903  1.00  0.00     0.274 HD
ATOM     21  H11 UNL     1      24.539  -6.985   3.121  1.00  0.00     0.274 HD
ENDBRANCH  17  18
ENDBRANCH  15  17
ENDBRANCH  14  15
ENDBRANCH  12  14
ENDBRANCH   3  12
BRANCH   1  22
HETATM   22  C2  UNL     1      26.177  -3.313   9.210  1.00  0.00     0.006 C 
HETATM   23  C1  UNL     1      25.822  -3.698  10.610  1.00  0.00     0.006 C 
ENDBRANCH   1  22
TORSDOF 6
ENDMDL
MODEL 4
REMARK VINA RESULT: -5.825566375      2.269      3.293
REMARK  6 active torsions:
REMARK  status: ('A' for Active; 'I' for Inactive)
REMARK    1  A    between atoms: C2_2  and  C3_3 
REMARK    2  A    between atoms: C5_5  and  C6_6 
REMARK    3  A    between atoms: C6_6  and  O1_8 
REMARK    4  A    between atoms: O1_8  and  C8_9 
REMARK    5  A    between atoms: C8_9  and  C10_11 
REMARK    6  A    between atoms: C10_11  and  N1_12 
ROOT
HETATM    1  C3  UNL     1      25.588  -4.588   8.428  1.00  0.00     0.060 C 
HETATM    2  C4  UNL     1      26.317  -4.811   7.117  1.00  0.00     0.027 C 
HETATM    3  C5  UNL     1      25.336  -5.189   6.019  1.00  0.00     0.107 C 
HETATM    4  C11 UNL     1      24.406  -6.244   6.455  1.00  0.00     0.224 C 
HETATM    5  O2  UNL     1      23.543  -6.557   5.603  1.00  0.00    -0.273 OA
HETATM    6  N2  UNL     1      24.398  -6.912   7.702  1.00  0.00    -0.355 N 
ATOM      7  H2  UNL     1      23.520  -7.360   7.961  1.00  0.00     0.162 HD
HETATM    8  C12 UNL     1      25.469  -7.038   8.645  1.00  0.00     0.202 C 
HETATM    9  C13 UNL     1      25.878  -5.761   9.311  1.00  0.00     0.262 C 
HETATM   10  F1  UNL     1      25.304  -5.608  10.559  1.00  0.00    -0.204 F 
HETATM   11  F2  UNL     1      27.254  -5.830   9.521  1.00  0.00    -0.204 F 
ENDROOT
BRANCH   3  12
HETATM   12  C6  UNL     1      26.119  -5.601   4.782  1.00  0.00     0.131 C 
HETATM   13  C7  UNL     1      27.044  -4.483   4.378  1.00  0.00     0.040 C 
BRANCH  12  14
HETATM   14  O1  UNL     1      26.840  -6.742   5.129  1.00  0.00    -0.379 OA
BRANCH  14  15
HETATM   15  C8  UNL     1      26.658  -7.778   4.217  1.00  0.00     0.143 C 
HETATM   16  C9  UNL     1      27.979  -8.007   3.480  1.00  0.00     0.041 C 
BRANCH  15  17
HETATM   17  C10 UNL     1      26.418  -9.046   5.031  1.00  0.00     0.261 C 
BRANCH  17  18
HETATM   18  N1  UNL     1      25.040  -9.419   5.084  1.00  0.00    -0.077 N 
ATOM     19  H13 UNL     1      24.437  -8.598   5.042  1.00  0.00     0.274 HD
ATOM     20  H12 UNL     1      24.753  -9.880   4.220  1.00  0.00     0.274 HD
ATOM     21  H11 UNL     1      24.816  -9.995   5.896  1.00  0.00     0.274 HD
ENDBRANCH  17  18
ENDBRANCH  15  17
ENDBRANCH  14  15
ENDBRANCH  12  14
ENDBRANCH   3  12
BRANCH   1  22
HETATM   22  C2  UNL     1      26.040  -3.283   9.042  1.00  0.00     0.006 C 
HETATM   23  C1  UNL     1      26.417  -2.243   8.036  1.00  0.00     0.006 C 
ENDBRANCH   1  22
TORSDOF 6
ENDMDL
MODEL 5
REMARK VINA RESULT: -5.810918074      1.318      1.545
REMARK  6 active torsions:
REMARK  status: ('A' for Active; 'I' for Inactive)
REMARK    1  A    between atoms: C2_2  and  C3_3 
REMARK    2  A    between atoms: C5_5  and  C6_6 
REMARK    3  A    between atoms: C6_6  and  O1_8 
REMARK    4  A    between atoms: O1_8  and  C8_9 
REMARK    5  A    between atoms: C8_9  and  C10_11 
REMARK    6  A    between atoms: C10_11  and  N1_12 
ROOT
HETATM    1  C3  UNL     1      23.980  -5.371   9.101  1.00  0.00     0.060 C 
HETATM    2  C4  UNL     1      24.055  -5.362   7.586  1.00  0.00     0.027 C 
HETATM    3  C5  UNL     1      24.394  -6.748   7.061  1.00  0.00     0.107 C 
HETATM    4  C11 UNL     1      25.531  -7.343   7.783  1.00  0.00     0.224 C 
HETATM    5  O2  UNL     1      25.819  -8.508   7.422  1.00  0.00    -0.273 OA
HETATM    6  N2  UNL     1      26.298  -6.744   8.809  1.00  0.00    -0.355 N 
ATOM      7  H2  UNL     1      26.813  -7.384   9.412  1.00  0.00     0.162 HD
HETATM    8  C12 UNL     1      26.442  -5.349   9.107  1.00  0.00     0.202 C 
HETATM    9  C13 UNL     1      25.204  -4.681   9.617  1.00  0.00     0.262 C 
HETATM   10  F1  UNL     1      25.185  -4.584  10.996  1.00  0.00    -0.204 F 
HETATM   11  F2  UNL     1      25.214  -3.373   9.134  1.00  0.00    -0.204 F 
ENDROOT
BRANCH   3  12
HETATM   12  C6  UNL     1      24.660  -6.653   5.566  1.00  0.00     0.131 C 
HETATM   13  C7  UNL     1      23.411  -6.190   4.863  1.00  0.00     0.040 C 
BRANCH  12  14
HETATM   14  O1  UNL     1      25.694  -5.733   5.402  1.00  0.00    -0.379 OA
BRANCH  14  15
HETATM   15  C8  UNL     1      26.477  -6.014   4.286  1.00  0.00     0.143 C 
HETATM   16  C9  UNL     1      27.800  -5.258   4.426  1.00  0.00     0.041 C 
BRANCH  15  17
HETATM   17  C10 UNL     1      26.840  -7.494   4.363  1.00  0.00     0.261 C 
BRANCH  17  18
HETATM   18  N1  UNL     1      27.992  -7.824   3.587  1.00  0.00    -0.077 N 
ATOM     19  H13 UNL     1      27.871  -7.540   2.615  1.00  0.00     0.274 HD
ATOM     20  H12 UNL     1      28.783  -7.230   3.836  1.00  0.00     0.274 HD
ATOM     21  H11 UNL     1      28.243  -8.810   3.649  1.00  0.00     0.274 HD
ENDBRANCH  17  18
ENDBRANCH  15  17
ENDBRANCH  14  15
ENDBRANCH  12  14
ENDBRANCH   3  12
BRANCH   1  22
HETATM   22  C2  UNL     1      22.707  -4.690   9.548  1.00  0.00     0.006 C 
HETATM   23  C1  UNL     1      21.475  -5.230   8.897  1.00  0.00     0.006 C 
ENDBRANCH   1  22
TORSDOF 6
ENDMDL
