MODEL 1
REMARK VINA RESULT: -6.045570119      0.000      0.000
REMARK  6 active torsions:
REMARK  status: ('A' for Active; 'I' for Inactive)
REMARK    1  A    between atoms: O1_1  and  C1_3 
REMARK    2  A    between atoms: C1_3  and  C2_4 
REMARK    3  A    between atoms: C1_3  and  C14_20 
REMARK    4  A    between atoms: C2_4  and  C3_5 
REMARK    5  A    between atoms: N1_8  and  C6_9 
REMARK    6  A    between atoms: C6_9  and  C7_10 
ROOT
HETATM    1  C3  UNL     1      25.646  -6.508   8.183  1.00  0.00    -0.009 C 
HETATM    2  C4  UNL     1      24.904  -6.110   6.952  1.00  0.00     0.035 C 
HETATM    3  C5  UNL     1      23.455  -6.598   6.930  1.00  0.00     0.272 C 
HETATM    4  N1  UNL     1      22.693  -6.067   7.992  1.00  0.00     0.088 N 
HETATM    5  C12 UNL     1      23.476  -5.789   9.184  1.00  0.00     0.272 C 
HETATM    6  C13 UNL     1      24.634  -6.764   9.295  1.00  0.00     0.035 C 
ENDROOT
BRANCH   4   7
HETATM    7  C6  UNL     1      21.497  -6.744   8.300  1.00  0.00     0.278 C 
BRANCH   7   8
HETATM    8  C7  UNL     1      21.214  -7.068   9.734  1.00  0.00     0.039 C 
HETATM    9  C8  UNL     1      19.952  -6.557  10.315  1.00  0.00     0.010 C 
HETATM   10  C9  UNL     1      19.376  -7.511  11.366  1.00  0.00     0.028 C 
HETATM   11  C10 UNL     1      19.038  -8.851  10.785  1.00  0.00     0.232 C 
HETATM   12  N2  UNL     1      19.818  -8.994   9.546  1.00  0.00    -0.075 N 
HETATM   13  C11 UNL     1      21.178  -8.601   9.911  1.00  0.00     0.238 C 
ATOM     14  H22 UNL     1      19.755  -9.919   9.122  1.00  0.00     0.277 HD
ATOM     15  H21 UNL     1      19.436  -8.476   8.755  1.00  0.00     0.277 HD
ENDBRANCH   7   8
ENDBRANCH   4   7
BRANCH   1  16
HETATM   16  C2  UNL     1      26.597  -5.436   8.666  1.00  0.00     0.042 C 
BRANCH  16  17
HETATM   17  C1  UNL     1      26.423  -4.149   7.896  1.00  0.00     0.183 C 
BRANCH  17  18
HETATM   18  O1  UNL     1      27.594  -3.740   7.282  1.00  0.00    -0.390 OA
ATOM     19  H1  UNL     1      27.446  -3.054   6.641  1.00  0.00     0.210 HD
ENDBRANCH  17  18
BRANCH  17  20
HETATM   20  C14 UNL     1      25.970  -3.020   8.803  1.00  0.00     0.381 C 
HETATM   21  F1  UNL     1      26.189  -3.386  10.113  1.00  0.00    -0.212 F 
HETATM   22  F2  UNL     1      26.607  -1.829   8.505  1.00  0.00    -0.212 F 
ENDBRANCH  17  20
ENDBRANCH  16  17
ENDBRANCH   1  16
TORSDOF 6
ENDMDL
MODEL 2
REMARK VINA RESULT: -5.954662934      3.452      6.593
REMARK  6 active torsions:
REMARK  status: ('A' for Active; 'I' for Inactive)
REMARK    1  A    between atoms: O1_1  and  C1_3 
REMARK    2  A    between atoms: C1_3  and  C2_4 
REMARK    3  A    between atoms: C1_3  and  C14_20 
REMARK    4  A    between atoms: C2_4  and  C3_5 
REMARK    5  A    between atoms: N1_8  and  C6_9 
REMARK    6  A    between atoms: C6_9  and  C7_10 
ROOT
HETATM    1  C3  UNL     1      22.037  -5.828   8.485  1.00  0.00    -0.009 C 
HETATM    2  C4  UNL     1      21.858  -6.407   7.123  1.00  0.00     0.035 C 
HETATM    3  C5  UNL     1      23.127  -6.362   6.271  1.00  0.00     0.272 C 
HETATM    4  N1  UNL     1      24.182  -7.108   6.838  1.00  0.00     0.088 N 
HETATM    5  C12 UNL     1      24.137  -7.163   8.289  1.00  0.00     0.272 C 
HETATM    6  C13 UNL     1      23.517  -5.894   8.847  1.00  0.00     0.035 C 
ENDROOT
BRANCH   4   7
HETATM    7  C6  UNL     1      25.476  -6.812   6.368  1.00  0.00     0.278 C 
BRANCH   7   8
HETATM    8  C7  UNL     1      25.811  -5.387   6.058  1.00  0.00     0.039 C 
HETATM    9  C8  UNL     1      26.639  -4.649   7.039  1.00  0.00     0.010 C 
HETATM   10  C9  UNL     1      27.553  -3.623   6.361  1.00  0.00     0.028 C 
HETATM   11  C10 UNL     1      28.524  -4.268   5.419  1.00  0.00     0.232 C 
HETATM   12  N2  UNL     1      27.970  -5.583   5.063  1.00  0.00    -0.075 N 
HETATM   13  C11 UNL     1      26.573  -5.323   4.718  1.00  0.00     0.238 C 
ATOM     14  H22 UNL     1      28.492  -6.068   4.333  1.00  0.00     0.277 HD
ATOM     15  H21 UNL     1      28.093  -6.292   5.785  1.00  0.00     0.277 HD
ENDBRANCH   7   8
ENDBRANCH   4   7
BRANCH   1  16
HETATM   16  C2  UNL     1      21.271  -6.584   9.547  1.00  0.00     0.042 C 
BRANCH  16  17
HETATM   17  C1  UNL     1      20.413  -5.661  10.380  1.00  0.00     0.183 C 
BRANCH  17  18
HETATM   18  O1  UNL     1      19.144  -5.502   9.852  1.00  0.00    -0.390 OA
ATOM     19  H1  UNL     1      18.682  -4.766  10.238  1.00  0.00     0.210 HD
ENDBRANCH  17  18
BRANCH  17  20
HETATM   20  C14 UNL     1      21.034  -4.281  10.491  1.00  0.00     0.381 C 
HETATM   21  F1  UNL     1      20.189  -3.363   9.907  1.00  0.00    -0.212 F 
HETATM   22  F2  UNL     1      21.307  -3.941  11.804  1.00  0.00    -0.212 F 
ENDBRANCH  17  20
ENDBRANCH  16  17
ENDBRANCH   1  16
TORSDOF 6
ENDMDL
MODEL 3
REMARK VINA RESULT: -5.920422497      1.253      1.369
REMARK  6 active torsions:
REMARK  status: ('A' for Active; 'I' for Inactive)
REMARK    1  A    between atoms: O1_1  and  C1_3 
REMARK    2  A    between atoms: C1_3  and  C2_4 
REMARK    3  A    between atoms: C1_3  and  C14_20 
REMARK    4  A    between atoms: C2_4  and  C3_5 
REMARK    5  A    between atoms: N1_8  and  C6_9 
REMARK    6  A    between atoms: C6_9  and  C7_10 
ROOT
HETATM    1  C3  UNL     1      24.792  -6.353   8.539  1.00  0.00    -0.009 C 
HETATM    2  C4  UNL     1      24.591  -7.611   7.764  1.00  0.00     0.035 C 
HETATM    3  C5  UNL     1      23.310  -8.358   8.135  1.00  0.00     0.272 C 
HETATM    4  N1  UNL     1      22.150  -7.595   7.881  1.00  0.00     0.088 N 
HETATM    5  C12 UNL     1      22.362  -6.163   8.000  1.00  0.00     0.272 C 
HETATM    6  C13 UNL     1      23.433  -5.871   9.036  1.00  0.00     0.035 C 
ENDROOT
BRANCH   4   7
HETATM    7  C6  UNL     1      20.977  -8.005   8.543  1.00  0.00     0.278 C 
BRANCH   7   8
HETATM    8  C7  UNL     1      20.949  -7.948  10.038  1.00  0.00     0.039 C 
HETATM    9  C8  UNL     1      19.786  -7.290  10.676  1.00  0.00     0.010 C 
HETATM   10  C9  UNL     1      19.425  -7.936  12.018  1.00  0.00     0.028 C 
HETATM   11  C10 UNL     1      19.038  -9.376  11.862  1.00  0.00     0.232 C 
HETATM   12  N2  UNL     1      19.604  -9.840  10.587  1.00  0.00    -0.075 N 
HETATM   13  C11 UNL     1      20.993  -9.383  10.603  1.00  0.00     0.238 C 
ATOM     14  H22 UNL     1      19.501 -10.843  10.429  1.00  0.00     0.277 HD
ATOM     15  H21 UNL     1      19.078  -9.538   9.767  1.00  0.00     0.277 HD
ENDBRANCH   7   8
ENDBRANCH   4   7
BRANCH   1  16
HETATM   16  C2  UNL     1      25.396  -5.244   7.708  1.00  0.00     0.042 C 
BRANCH  16  17
HETATM   17  C1  UNL     1      26.457  -4.489   8.471  1.00  0.00     0.183 C 
BRANCH  17  18
HETATM   18  O1  UNL     1      26.938  -5.206   9.553  1.00  0.00    -0.390 OA
ATOM     19  H1  UNL     1      26.574  -4.904  10.378  1.00  0.00     0.210 HD
ENDBRANCH  17  18
BRANCH  17  20
HETATM   20  C14 UNL     1      25.925  -3.171   9.002  1.00  0.00     0.381 C 
HETATM   21  F1  UNL     1      26.029  -3.169  10.375  1.00  0.00    -0.212 F 
HETATM   22  F2  UNL     1      26.584  -2.088   8.449  1.00  0.00    -0.212 F 
ENDBRANCH  17  20
ENDBRANCH  16  17
ENDBRANCH   1  16
TORSDOF 6
ENDMDL
MODEL 4
REMARK VINA RESULT: -5.885056917      2.704      3.628
REMARK  6 active torsions:
REMARK  status: ('A' for Active; 'I' for Inactive)
REMARK    1  A    between atoms: O1_1  and  C1_3 
REMARK    2  A    between atoms: C1_3  and  C2_4 
REMARK    3  A    between atoms: C1_3  and  C14_20 
REMARK    4  A    between atoms: C2_4  and  C3_5 
REMARK    5  A    between atoms: N1_8  and  C6_9 
REMARK    6  A    between atoms: C6_9  and  C7_10 
ROOT
HETATM    1  C3  UNL     1      26.196  -4.148   6.967  1.00  0.00    -0.009 C 
HETATM    2  C4  UNL     1      26.030  -3.972   8.438  1.00  0.00     0.035 C 
HETATM    3  C5  UNL     1      24.823  -4.716   9.009  1.00  0.00     0.272 C 
HETATM    4  N1  UNL     1      24.916  -6.112   8.826  1.00  0.00     0.088 N 
HETATM    5  C12 UNL     1      25.662  -6.492   7.639  1.00  0.00     0.272 C 
HETATM    6  C13 UNL     1      25.500  -5.441   6.555  1.00  0.00     0.035 C 
ENDROOT
BRANCH   4   7
HETATM    7  C6  UNL     1      23.713  -6.836   8.940  1.00  0.00     0.278 C 
BRANCH   7   8
HETATM    8  C7  UNL     1      22.438  -6.161   8.546  1.00  0.00     0.039 C 
HETATM    9  C8  UNL     1      21.972  -6.336   7.151  1.00  0.00     0.010 C 
HETATM   10  C9  UNL     1      20.443  -6.352   7.053  1.00  0.00     0.028 C 
HETATM   11  C10 UNL     1      19.841  -7.488   7.825  1.00  0.00     0.232 C 
HETATM   12  N2  UNL     1      20.838  -7.909   8.820  1.00  0.00    -0.075 N 
HETATM   13  C11 UNL     1      21.293  -6.669   9.447  1.00  0.00     0.238 C 
ATOM     14  H22 UNL     1      20.493  -8.604   9.482  1.00  0.00     0.277 HD
ATOM     15  H21 UNL     1      21.591  -8.479   8.435  1.00  0.00     0.277 HD
ENDBRANCH   7   8
ENDBRANCH   4   7
BRANCH   1  16
HETATM   16  C2  UNL     1      27.645  -4.253   6.549  1.00  0.00     0.042 C 
BRANCH  16  17
HETATM   17  C1  UNL     1      27.918  -3.477   5.283  1.00  0.00     0.183 C 
BRANCH  17  18
HETATM   18  O1  UNL     1      26.755  -3.104   4.632  1.00  0.00    -0.390 OA
ATOM     19  H1  UNL     1      26.810  -2.228   4.268  1.00  0.00     0.210 HD
ENDBRANCH  17  18
BRANCH  17  20
HETATM   20  C14 UNL     1      28.744  -4.290   4.304  1.00  0.00     0.381 C 
HETATM   21  F1  UNL     1      27.897  -5.067   3.544  1.00  0.00    -0.212 F 
HETATM   22  F2  UNL     1      29.537  -3.487   3.504  1.00  0.00    -0.212 F 
ENDBRANCH  17  20
ENDBRANCH  16  17
ENDBRANCH   1  16
TORSDOF 6
ENDMDL
MODEL 5
REMARK VINA RESULT: -5.856020262      1.702      2.402
REMARK  6 active torsions:
REMARK  status: ('A' for Active; 'I' for Inactive)
REMARK    1  A    between atoms: O1_1  and  C1_3 
REMARK    2  A    between atoms: C1_3  and  C2_4 
REMARK    3  A    between atoms: C1_3  and  C14_20 
REMARK    4  A    between atoms: C2_4  and  C3_5 
REMARK    5  A    between atoms: N1_8  and  C6_9 
REMARK    6  A    between atoms: C6_9  and  C7_10 
ROOT
HETATM    1  C3  UNL     1      25.884  -6.371   8.259  1.00  0.00    -0.009 C 
HETATM    2  C4  UNL     1      24.928  -6.079   7.153  1.00  0.00     0.035 C 
HETATM    3  C5  UNL     1      23.507  -6.571   7.430  1.00  0.00     0.272 C 
HETATM    4  N1  UNL     1      22.937  -5.955   8.564  1.00  0.00     0.088 N 
HETATM    5  C12 UNL     1      23.914  -5.576   9.570  1.00  0.00     0.272 C 
HETATM    6  C13 UNL     1      25.091  -6.536   9.551  1.00  0.00     0.035 C 
ENDROOT
BRANCH   4   7
HETATM    7  C6  UNL     1      21.827  -6.607   9.136  1.00  0.00     0.278 C 
BRANCH   7   8
HETATM    8  C7  UNL     1      20.647  -5.779   9.537  1.00  0.00     0.039 C 
HETATM    9  C8  UNL     1      20.807  -4.307   9.525  1.00  0.00     0.010 C 
HETATM   10  C9  UNL     1      19.506  -3.590   9.150  1.00  0.00     0.028 C 
HETATM   11  C10 UNL     1      19.038  -3.956   7.774  1.00  0.00     0.232 C 
HETATM   12  N2  UNL     1      19.673  -5.237   7.428  1.00  0.00    -0.075 N 
HETATM   13  C11 UNL     1      19.464  -6.089   8.597  1.00  0.00     0.238 C 
ATOM     14  H22 UNL     1      19.338  -5.642   6.555  1.00  0.00     0.277 HD
ATOM     15  H21 UNL     1      20.650  -5.150   7.149  1.00  0.00     0.277 HD
ENDBRANCH   7   8
ENDBRANCH   4   7
BRANCH   1  16
HETATM   16  C2  UNL     1      26.886  -5.260   8.474  1.00  0.00     0.042 C 
BRANCH  16  17
HETATM   17  C1  UNL     1      26.798  -4.211   7.393  1.00  0.00     0.183 C 
BRANCH  17  18
HETATM   18  O1  UNL     1      27.953  -4.137   6.634  1.00  0.00    -0.390 OA
ATOM     19  H1  UNL     1      28.651  -3.673   7.082  1.00  0.00     0.210 HD
ENDBRANCH  17  18
BRANCH  17  20
HETATM   20  C14 UNL     1      26.551  -2.833   7.978  1.00  0.00     0.381 C 
HETATM   21  F1  UNL     1      25.966  -2.039   7.017  1.00  0.00    -0.212 F 
HETATM   22  F2  UNL     1      25.774  -2.888   9.121  1.00  0.00    -0.212 F 
ENDBRANCH  17  20
ENDBRANCH  16  17
ENDBRANCH   1  16
TORSDOF 6
ENDMDL
