MODEL 1
REMARK VINA RESULT: -5.515448167      0.000      0.000
REMARK  6 active torsions:
REMARK  status: ('A' for Active; 'I' for Inactive)
REMARK    1  A    between atoms: C2_2  and  C3_3 
REMARK    2  A    between atoms: C3_3  and  N1_6 
REMARK    3  A    between atoms: N1_6  and  S1_7 
REMARK    4  A    between atoms: S1_7  and  O1_8 
REMARK    5  A    between atoms: S1_7  and  C6_12 
REMARK    6  A    between atoms: C6_12  and  C7_13 
ROOT
HETATM    1  S1  UNL     1      27.174  -4.200   6.829  1.00  0.00     0.149 SA
HETATM    2  F1  UNL     1      27.989  -4.845   7.037  1.00  0.00    -0.127 F 
HETATM    3  F2  UNL     1      26.204  -2.164   6.199  1.00  0.00    -0.127 F 
ENDROOT
BRANCH   1   4
HETATM    4  N1  UNL     1      26.629  -3.292   8.420  1.00  0.00    -0.125 NA
BRANCH   4   5
HETATM    5  C3  UNL     1      25.998  -4.232   9.326  1.00  0.00     0.037 C 
HETATM    6  C4  UNL     1      25.925  -3.729  10.728  1.00  0.00     0.034 C 
HETATM    7  C5  UNL     1      26.573  -5.605   9.278  1.00  0.00     0.034 C 
BRANCH   5   8
HETATM    8  C2  UNL     1      24.548  -4.334   8.819  1.00  0.00     0.022 C 
HETATM    9  C1  UNL     1      23.875  -5.586   9.279  1.00  0.00     0.007 C 
ENDBRANCH   5   8
ENDBRANCH   4   5
ENDBRANCH   1   4
BRANCH   1  10
HETATM   10  O1  UNL     1      28.466  -2.863   5.843  1.00  0.00    -0.300 OA
ATOM     11  H1  UNL     1      28.609  -3.241   4.983  1.00  0.00     0.231 HD
ENDBRANCH   1  10
BRANCH   1  12
HETATM   12  C6  UNL     1      25.883  -4.777   5.603  1.00  0.00     0.153 C 
BRANCH  12  13
HETATM   13  C7  UNL     1      25.589  -6.288   5.809  1.00  0.00     0.003 C 
HETATM   14  C8  UNL     1      24.078  -6.490   5.778  1.00  0.00     0.033 C 
HETATM   15  C9  UNL     1      23.681  -6.690   4.339  1.00  0.00     0.232 C 
HETATM   16  N2  UNL     1      24.075  -8.036   3.915  1.00  0.00    -0.075 N 
HETATM   17  C10 UNL     1      25.358  -8.377   4.460  1.00  0.00     0.232 C 
ATOM     18  H22 UNL     1      23.366  -8.731   4.149  1.00  0.00     0.277 HD
ATOM     19  H21 UNL     1      24.056  -8.135   2.900  1.00  0.00     0.277 HD
HETATM   20  C11 UNL     1      26.187  -7.114   4.731  1.00  0.00     0.033 C 
ENDBRANCH  12  13
ENDBRANCH   1  12
TORSDOF 6
ENDMDL
MODEL 2
REMARK VINA RESULT: -5.504204608      3.130      4.017
REMARK  6 active torsions:
REMARK  status: ('A' for Active; 'I' for Inactive)
REMARK    1  A    between atoms: C2_2  and  C3_3 
REMARK    2  A    between atoms: C3_3  and  N1_6 
REMARK    3  A    between atoms: N1_6  and  S1_7 
REMARK    4  A    between atoms: S1_7  and  O1_8 
REMARK    5  A    between atoms: S1_7  and  C6_12 
REMARK    6  A    between atoms: C6_12  and  C7_13 
ROOT
HETATM    1  S1  UNL     1      25.537  -5.651   8.083  1.00  0.00     0.149 SA
HETATM    2  F1  UNL     1      25.880  -6.650   8.163  1.00  0.00    -0.127 F 
HETATM    3  F2  UNL     1      25.334  -3.427   8.790  1.00  0.00    -0.127 F 
ENDROOT
BRANCH   1   4
HETATM    4  N1  UNL     1      23.844  -5.462   8.950  1.00  0.00    -0.125 NA
BRANCH   4   5
HETATM    5  C3  UNL     1      22.903  -6.416   8.396  1.00  0.00     0.037 C 
HETATM    6  C4  UNL     1      23.003  -7.765   9.024  1.00  0.00     0.034 C 
HETATM    7  C5  UNL     1      22.937  -6.513   6.911  1.00  0.00     0.034 C 
BRANCH   5   8
HETATM    8  C2  UNL     1      21.522  -5.853   8.778  1.00  0.00     0.022 C 
HETATM    9  C1  UNL     1      21.622  -4.744   9.776  1.00  0.00     0.007 C 
ENDBRANCH   5   8
ENDBRANCH   4   5
ENDBRANCH   1   4
BRANCH   1  10
HETATM   10  O1  UNL     1      26.960  -5.032   9.504  1.00  0.00    -0.300 OA
ATOM     11  H1  UNL     1      27.607  -4.540   9.012  1.00  0.00     0.231 HD
ENDBRANCH   1  10
BRANCH   1  12
HETATM   12  C6  UNL     1      25.867  -4.731   6.486  1.00  0.00     0.153 C 
BRANCH  12  13
HETATM   13  C7  UNL     1      27.375  -4.812   6.125  1.00  0.00     0.003 C 
HETATM   14  C8  UNL     1      27.507  -5.493   4.768  1.00  0.00     0.033 C 
HETATM   15  C9  UNL     1      27.394  -4.422   3.715  1.00  0.00     0.232 C 
HETATM   16  N2  UNL     1      28.640  -3.652   3.678  1.00  0.00    -0.075 N 
HETATM   17  C10 UNL     1      29.136  -3.438   5.008  1.00  0.00     0.232 C 
ATOM     18  H22 UNL     1      29.339  -4.090   3.078  1.00  0.00     0.277 HD
ATOM     19  H21 UNL     1      28.530  -2.776   3.168  1.00  0.00     0.277 HD
HETATM   20  C11 UNL     1      27.988  -3.464   6.026  1.00  0.00     0.033 C 
ENDBRANCH  12  13
ENDBRANCH   1  12
TORSDOF 6
ENDMDL
MODEL 3
REMARK VINA RESULT: -5.271314307      4.476      6.230
REMARK  6 active torsions:
REMARK  status: ('A' for Active; 'I' for Inactive)
REMARK    1  A    between atoms: C2_2  and  C3_3 
REMARK    2  A    between atoms: C3_3  and  N1_6 
REMARK    3  A    between atoms: N1_6  and  S1_7 
REMARK    4  A    between atoms: S1_7  and  O1_8 
REMARK    5  A    between atoms: S1_7  and  C6_12 
REMARK    6  A    between atoms: C6_12  and  C7_13 
ROOT
HETATM    1  S1  UNL     1      21.958  -6.216   8.023  1.00  0.00     0.149 SA
HETATM    2  F1  UNL     1      21.462  -5.303   7.816  1.00  0.00    -0.127 F 
HETATM    3  F2  UNL     1      22.286  -8.527   7.838  1.00  0.00    -0.127 F 
ENDROOT
BRANCH   1   4
HETATM    4  N1  UNL     1      21.203  -7.042   9.572  1.00  0.00    -0.125 NA
BRANCH   4   5
HETATM    5  C3  UNL     1      20.138  -6.209  10.098  1.00  0.00     0.037 C 
HETATM    6  C4  UNL     1      19.038  -5.982   9.117  1.00  0.00     0.034 C 
HETATM    7  C5  UNL     1      20.604  -4.924  10.688  1.00  0.00     0.034 C 
BRANCH   5   8
HETATM    8  C2  UNL     1      19.539  -7.040  11.247  1.00  0.00     0.022 C 
HETATM    9  C1  UNL     1      20.194  -8.377  11.378  1.00  0.00     0.007 C 
ENDBRANCH   5   8
ENDBRANCH   4   5
ENDBRANCH   1   4
BRANCH   1  10
HETATM   10  O1  UNL     1      20.999  -7.126   6.386  1.00  0.00    -0.300 OA
ATOM     11  H1  UNL     1      20.740  -7.987   6.695  1.00  0.00     0.231 HD
ENDBRANCH   1  10
BRANCH   1  12
HETATM   12  C6  UNL     1      23.807  -6.299   7.737  1.00  0.00     0.153 C 
BRANCH  12  13
HETATM   13  C7  UNL     1      24.565  -5.992   9.057  1.00  0.00     0.003 C 
HETATM   14  C8  UNL     1      26.048  -5.846   8.736  1.00  0.00     0.033 C 
HETATM   15  C9  UNL     1      26.286  -4.408   8.357  1.00  0.00     0.232 C 
HETATM   16  N2  UNL     1      26.258  -3.583   9.567  1.00  0.00    -0.075 N 
HETATM   17  C10 UNL     1      25.223  -4.030  10.456  1.00  0.00     0.232 C 
ATOM     18  H22 UNL     1      27.167  -3.554  10.028  1.00  0.00     0.277 HD
ATOM     19  H21 UNL     1      26.167  -2.590   9.349  1.00  0.00     0.277 HD
HETATM   20  C11 UNL     1      24.100  -4.725   9.674  1.00  0.00     0.033 C 
ENDBRANCH  12  13
ENDBRANCH   1  12
TORSDOF 6
ENDMDL
MODEL 4
REMARK VINA RESULT: -5.265163270      2.890      4.812
REMARK  6 active torsions:
REMARK  status: ('A' for Active; 'I' for Inactive)
REMARK    1  A    between atoms: C2_2  and  C3_3 
REMARK    2  A    between atoms: C3_3  and  N1_6 
REMARK    3  A    between atoms: N1_6  and  S1_7 
REMARK    4  A    between atoms: S1_7  and  O1_8 
REMARK    5  A    between atoms: S1_7  and  C6_12 
REMARK    6  A    between atoms: C6_12  and  C7_13 
ROOT
HETATM    1  S1  UNL     1      25.842  -4.265   8.629  1.00  0.00     0.149 SA
HETATM    2  F1  UNL     1      25.398  -3.303   8.598  1.00  0.00    -0.127 F 
HETATM    3  F2  UNL     1      27.272  -5.901   9.504  1.00  0.00    -0.127 F 
ENDROOT
BRANCH   1   4
HETATM    4  N1  UNL     1      27.423  -4.298   7.556  1.00  0.00    -0.125 NA
BRANCH   4   5
HETATM    5  C3  UNL     1      27.060  -4.301   6.152  1.00  0.00     0.037 C 
HETATM    6  C4  UNL     1      26.511  -2.994   5.690  1.00  0.00     0.034 C 
HETATM    7  C5  UNL     1      26.170  -5.426   5.756  1.00  0.00     0.034 C 
BRANCH   5   8
HETATM    8  C2  UNL     1      28.396  -4.503   5.415  1.00  0.00     0.022 C 
HETATM    9  C1  UNL     1      28.248  -5.368   4.205  1.00  0.00     0.007 C 
ENDBRANCH   5   8
ENDBRANCH   4   5
ENDBRANCH   1   4
BRANCH   1  10
HETATM   10  O1  UNL     1      26.512  -3.909  10.592  1.00  0.00    -0.300 OA
ATOM     11  H1  UNL     1      26.239  -3.021  10.792  1.00  0.00     0.231 HD
ENDBRANCH   1  10
BRANCH   1  12
HETATM   12  C6  UNL     1      24.712  -5.757   8.659  1.00  0.00     0.153 C 
BRANCH  12  13
HETATM   13  C7  UNL     1      23.246  -5.322   8.385  1.00  0.00     0.003 C 
HETATM   14  C8  UNL     1      22.479  -6.528   7.856  1.00  0.00     0.033 C 
HETATM   15  C9  UNL     1      21.949  -7.282   9.048  1.00  0.00     0.232 C 
HETATM   16  N2  UNL     1      20.813  -6.549   9.613  1.00  0.00    -0.075 N 
HETATM   17  C10 UNL     1      21.066  -5.137   9.589  1.00  0.00     0.232 C 
ATOM     18  H22 UNL     1      19.939  -6.786   9.144  1.00  0.00     0.277 HD
ATOM     19  H21 UNL     1      20.577  -6.877  10.549  1.00  0.00     0.277 HD
HETATM   20  C11 UNL     1      22.574  -4.855   9.623  1.00  0.00     0.033 C 
ENDBRANCH  12  13
ENDBRANCH   1  12
TORSDOF 6
ENDMDL
MODEL 5
REMARK VINA RESULT: -5.183745685      3.186      4.632
REMARK  6 active torsions:
REMARK  status: ('A' for Active; 'I' for Inactive)
REMARK    1  A    between atoms: C2_2  and  C3_3 
REMARK    2  A    between atoms: C3_3  and  N1_6 
REMARK    3  A    between atoms: N1_6  and  S1_7 
REMARK    4  A    between atoms: S1_7  and  O1_8 
REMARK    5  A    between atoms: S1_7  and  C6_12 
REMARK    6  A    between atoms: C6_12  and  C7_13 
ROOT
HETATM    1  S1  UNL     1      24.556  -6.706   5.737  1.00  0.00     0.149 SA
HETATM    2  F1  UNL     1      23.809  -6.069   5.338  1.00  0.00    -0.127 F 
HETATM    3  F2  UNL     1      25.890  -8.631   5.770  1.00  0.00    -0.127 F 
ENDROOT
BRANCH   1   4
HETATM    4  N1  UNL     1      23.779  -7.939   6.974  1.00  0.00    -0.125 NA
BRANCH   4   5
HETATM    5  C3  UNL     1      23.612  -7.295   8.264  1.00  0.00     0.037 C 
HETATM    6  C4  UNL     1      22.655  -8.015   9.153  1.00  0.00     0.034 C 
HETATM    7  C5  UNL     1      23.282  -5.846   8.183  1.00  0.00     0.034 C 
BRANCH   5   8
HETATM    8  C2  UNL     1      24.997  -7.406   8.926  1.00  0.00     0.022 C 
HETATM    9  C1  UNL     1      25.407  -6.132   9.592  1.00  0.00     0.007 C 
ENDBRANCH   5   8
ENDBRANCH   4   5
ENDBRANCH   1   4
BRANCH   1  10
HETATM   10  O1  UNL     1      24.665  -7.748   3.912  1.00  0.00    -0.300 OA
ATOM     11  H1  UNL     1      23.857  -7.542   3.458  1.00  0.00     0.231 HD
ENDBRANCH   1  10
BRANCH   1  12
HETATM   12  C6  UNL     1      26.241  -5.974   6.094  1.00  0.00     0.153 C 
BRANCH  12  13
HETATM   13  C7  UNL     1      26.657  -5.009   4.950  1.00  0.00     0.003 C 
HETATM   14  C8  UNL     1      26.567  -3.580   5.472  1.00  0.00     0.033 C 
HETATM   15  C9  UNL     1      27.887  -3.254   6.120  1.00  0.00     0.232 C 
HETATM   16  N2  UNL     1      28.890  -3.027   5.076  1.00  0.00    -0.075 N 
HETATM   17  C10 UNL     1      28.719  -3.966   4.004  1.00  0.00     0.232 C 
ATOM     18  H22 UNL     1      28.879  -2.063   4.742  1.00  0.00     0.277 HD
ATOM     19  H21 UNL     1      29.839  -3.047   5.450  1.00  0.00     0.277 HD
HETATM   20  C11 UNL     1      28.053  -5.252   4.510  1.00  0.00     0.033 C 
ENDBRANCH  12  13
ENDBRANCH   1  12
TORSDOF 6
ENDMDL
