MODEL 1
REMARK VINA RESULT: -6.715721664      0.000      0.000
REMARK  8 active torsions:
REMARK  status: ('A' for Active; 'I' for Inactive)
REMARK    1  A    between atoms: N1_2  and  C2_3 
REMARK    2  A    between atoms: N1_2  and  C8_13 
REMARK    3  A    between atoms: C2_3  and  C3_4 
REMARK    4  A    between atoms: C3_4  and  N2_5 
REMARK    5  A    between atoms: C8_13  and  O1_14 
REMARK    6  A    between atoms: C8_13  and  C9_16 
REMARK    7  A    between atoms: C17_24  and  C18_25 
REMARK    8  A    between atoms: C18_25  and  C19_26 
ROOT
HETATM    1  C9  UNL     1      56.325  51.704  35.119  1.00  0.00     0.049 C 
HETATM    2  C10 UNL     1      57.739  52.264  35.431  1.00  0.00     0.027 C 
HETATM    3  C11 UNL     1      58.811  51.369  34.919  1.00  0.00    -0.012 C 
HETATM    4  C12 UNL     1      58.791  51.448  33.390  1.00  0.00     0.009 C 
HETATM    5  C13 UNL     1      57.417  50.996  32.981  1.00  0.00    -0.012 C 
HETATM    6  C14 UNL     1      57.264  49.560  33.419  1.00  0.00     0.013 C 
HETATM    7  C15 UNL     1      57.260  49.447  34.895  1.00  0.00     0.016 C 
HETATM    8  C16 UNL     1      58.636  49.930  35.331  1.00  0.00     0.013 C 
HETATM    9  C17 UNL     1      56.250  50.324  35.627  1.00  0.00    -0.054 C 
HETATM   10  C20 UNL     1      56.331  51.793  33.590  1.00  0.00     0.027 C 
ENDROOT
BRANCH   1  11
HETATM   11  C8  UNL     1      55.402  52.701  35.640  1.00  0.00     0.126 C 
BRANCH  11  12
HETATM   12  N1  UNL     1      54.236  53.306  35.186  1.00  0.00    -0.364 N 
HETATM   13  C1  UNL     1      52.975  52.664  35.039  1.00  0.00     0.152 C 
BRANCH  12  14
HETATM   14  C2  UNL     1      54.350  54.740  34.813  1.00  0.00     0.168 C 
BRANCH  14  15
HETATM   15  C3  UNL     1      53.541  55.647  35.645  1.00  0.00     0.083 C 
BRANCH  15  16
HETATM   16  N2  UNL     1      52.955  56.784  35.071  1.00  0.00    -0.369 N 
HETATM   17  C4  UNL     1      53.760  57.597  34.221  1.00  0.00     0.154 C 
HETATM   18  C5  UNL     1      54.455  58.716  34.988  1.00  0.00     0.252 C 
HETATM   19  N3  UNL     1      53.445  59.537  35.571  1.00  0.00    -0.069 N 
HETATM   20  C6  UNL     1      52.559  58.808  36.417  1.00  0.00     0.277 C 
ATOM     21  H32 UNL     1      53.858  60.326  36.069  1.00  0.00     0.277 HD
ATOM     22  H31 UNL     1      52.929  60.045  34.854  1.00  0.00     0.277 HD
HETATM   23  C7  UNL     1      52.047  57.513  35.864  1.00  0.00     0.090 C 
ENDBRANCH  15  16
ENDBRANCH  14  15
ENDBRANCH  12  14
ENDBRANCH  11  12
BRANCH  11  24
HETATM   24  O1  UNL     1      55.767  53.126  36.845  1.00  0.00    -0.349 OA
ATOM     25  H1  UNL     1      56.593  52.755  37.131  1.00  0.00     0.219 HD
ENDBRANCH  11  24
ENDBRANCH   1  11
BRANCH   9  26
HETATM   26  C18 UNL     1      54.995  49.657  35.944  1.00  0.00     0.093 C 
BRANCH  26  27
HETATM   27  C19 UNL     1      54.052  49.049  35.024  1.00  0.00     0.408 C 
HETATM   28  F1  UNL     1      53.789  49.633  33.824  1.00  0.00    -0.167 F 
HETATM   29  F2  UNL     1      52.783  49.173  35.667  1.00  0.00    -0.167 F 
HETATM   30  F3  UNL     1      54.132  47.662  34.929  1.00  0.00    -0.167 F 
ENDBRANCH  26  27
ENDBRANCH   9  26
TORSDOF 8
ENDMDL
MODEL 2
REMARK VINA RESULT: -6.544478159      2.317      3.548
REMARK  8 active torsions:
REMARK  status: ('A' for Active; 'I' for Inactive)
REMARK    1  A    between atoms: N1_2  and  C2_3 
REMARK    2  A    between atoms: N1_2  and  C8_13 
REMARK    3  A    between atoms: C2_3  and  C3_4 
REMARK    4  A    between atoms: C3_4  and  N2_5 
REMARK    5  A    between atoms: C8_13  and  O1_14 
REMARK    6  A    between atoms: C8_13  and  C9_16 
REMARK    7  A    between atoms: C17_24  and  C18_25 
REMARK    8  A    between atoms: C18_25  and  C19_26 
ROOT
HETATM    1  C9  UNL     1      55.109  51.367  35.285  1.00  0.00     0.049 C 
HETATM    2  C10 UNL     1      54.113  51.289  34.098  1.00  0.00     0.027 C 
HETATM    3  C11 UNL     1      53.865  49.884  33.678  1.00  0.00    -0.012 C 
HETATM    4  C12 UNL     1      53.058  49.203  34.787  1.00  0.00     0.009 C 
HETATM    5  C13 UNL     1      53.911  49.296  36.021  1.00  0.00    -0.012 C 
HETATM    6  C14 UNL     1      55.175  48.513  35.757  1.00  0.00     0.013 C 
HETATM    7  C15 UNL     1      55.991  49.153  34.701  1.00  0.00     0.016 C 
HETATM    8  C16 UNL     1      55.129  49.096  33.448  1.00  0.00     0.013 C 
HETATM    9  C17 UNL     1      56.326  50.625  34.919  1.00  0.00    -0.054 C 
HETATM   10  C20 UNL     1      54.281  50.683  36.377  1.00  0.00     0.027 C 
ENDROOT
BRANCH   1  11
HETATM   11  C8  UNL     1      55.212  52.784  35.598  1.00  0.00     0.126 C 
BRANCH  11  12
HETATM   12  N1  UNL     1      55.093  53.969  34.883  1.00  0.00    -0.364 N 
HETATM   13  C1  UNL     1      55.997  54.425  33.883  1.00  0.00     0.152 C 
BRANCH  12  14
HETATM   14  C2  UNL     1      53.924  54.822  35.223  1.00  0.00     0.168 C 
BRANCH  14  15
HETATM   15  C3  UNL     1      54.060  56.228  34.808  1.00  0.00     0.083 C 
BRANCH  15  16
HETATM   16  N2  UNL     1      52.937  57.068  34.813  1.00  0.00    -0.369 N 
HETATM   17  C4  UNL     1      52.929  58.183  33.925  1.00  0.00     0.154 C 
HETATM   18  C5  UNL     1      53.495  59.440  34.579  1.00  0.00     0.252 C 
HETATM   19  N3  UNL     1      52.674  59.753  35.702  1.00  0.00    -0.069 N 
HETATM   20  C6  UNL     1      52.586  58.683  36.639  1.00  0.00     0.277 C 
ATOM     21  H32 UNL     1      52.989  60.611  36.156  1.00  0.00     0.277 HD
ATOM     22  H31 UNL     1      51.747  60.055  35.404  1.00  0.00     0.277 HD
HETATM   23  C7  UNL     1      52.329  57.326  36.058  1.00  0.00     0.090 C 
ENDBRANCH  15  16
ENDBRANCH  14  15
ENDBRANCH  12  14
ENDBRANCH  11  12
BRANCH  11  24
HETATM   24  O1  UNL     1      55.480  52.985  36.884  1.00  0.00    -0.349 OA
ATOM     25  H1  UNL     1      56.350  53.336  37.027  1.00  0.00     0.219 HD
ENDBRANCH  11  24
ENDBRANCH   1  11
BRANCH   9  26
HETATM   26  C18 UNL     1      57.622  50.858  35.542  1.00  0.00     0.093 C 
BRANCH  26  27
HETATM   27  C19 UNL     1      58.624  51.841  35.174  1.00  0.00     0.408 C 
HETATM   28  F1  UNL     1      58.555  53.108  35.663  1.00  0.00    -0.167 F 
HETATM   29  F2  UNL     1      58.409  52.078  33.782  1.00  0.00    -0.167 F 
HETATM   30  F3  UNL     1      59.931  51.363  35.132  1.00  0.00    -0.167 F 
ENDBRANCH  26  27
ENDBRANCH   9  26
TORSDOF 8
ENDMDL
MODEL 3
REMARK VINA RESULT: -6.515406646      8.304      9.897
REMARK  8 active torsions:
REMARK  status: ('A' for Active; 'I' for Inactive)
REMARK    1  A    between atoms: N1_2  and  C2_3 
REMARK    2  A    between atoms: N1_2  and  C8_13 
REMARK    3  A    between atoms: C2_3  and  C3_4 
REMARK    4  A    between atoms: C3_4  and  N2_5 
REMARK    5  A    between atoms: C8_13  and  O1_14 
REMARK    6  A    between atoms: C8_13  and  C9_16 
REMARK    7  A    between atoms: C17_24  and  C18_25 
REMARK    8  A    between atoms: C18_25  and  C19_26 
ROOT
HETATM    1  C9  UNL     1      47.779  47.230  32.296  1.00  0.00     0.049 C 
HETATM    2  C10 UNL     1      47.693  45.716  32.627  1.00  0.00     0.027 C 
HETATM    3  C11 UNL     1      48.425  44.891  31.628  1.00  0.00    -0.012 C 
HETATM    4  C12 UNL     1      49.922  45.152  31.819  1.00  0.00     0.009 C 
HETATM    5  C13 UNL     1      50.106  46.627  31.596  1.00  0.00    -0.012 C 
HETATM    6  C14 UNL     1      49.715  46.921  30.168  1.00  0.00     0.013 C 
HETATM    7  C15 UNL     1      48.268  46.697  29.951  1.00  0.00     0.016 C 
HETATM    8  C16 UNL     1      48.057  45.211  30.202  1.00  0.00     0.013 C 
HETATM    9  C17 UNL     1      47.331  47.428  30.907  1.00  0.00    -0.054 C 
HETATM   10  C20 UNL     1      49.280  47.464  32.493  1.00  0.00     0.027 C 
ENDROOT
BRANCH   1  11
HETATM   11  C8  UNL     1      47.059  47.892  33.372  1.00  0.00     0.126 C 
BRANCH  11  12
HETATM   12  N1  UNL     1      46.514  49.155  33.570  1.00  0.00    -0.364 N 
HETATM   13  C1  UNL     1      45.125  49.450  33.664  1.00  0.00     0.152 C 
BRANCH  12  14
HETATM   14  C2  UNL     1      47.485  50.276  33.670  1.00  0.00     0.168 C 
BRANCH  14  15
HETATM   15  C3  UNL     1      48.217  50.330  34.946  1.00  0.00     0.083 C 
BRANCH  15  16
HETATM   16  N2  UNL     1      47.601  50.874  36.082  1.00  0.00    -0.369 N 
HETATM   17  C4  UNL     1      48.088  52.118  36.580  1.00  0.00     0.154 C 
HETATM   18  C5  UNL     1      49.174  51.926  37.634  1.00  0.00     0.252 C 
HETATM   19  N3  UNL     1      48.602  51.200  38.720  1.00  0.00    -0.069 N 
HETATM   20  C6  UNL     1      48.049  49.948  38.319  1.00  0.00     0.277 C 
ATOM     21  H32 UNL     1      49.279  51.076  39.472  1.00  0.00     0.277 HD
ATOM     22  H31 UNL     1      47.910  51.764  39.212  1.00  0.00     0.277 HD
HETATM   23  C7  UNL     1      47.194  49.976  37.089  1.00  0.00     0.090 C 
ENDBRANCH  15  16
ENDBRANCH  14  15
ENDBRANCH  12  14
ENDBRANCH  11  12
BRANCH  11  24
HETATM   24  O1  UNL     1      46.879  47.086  34.412  1.00  0.00    -0.349 OA
ATOM     25  H1  UNL     1      47.686  46.680  34.706  1.00  0.00     0.219 HD
ENDBRANCH  11  24
ENDBRANCH   1  11
BRANCH   9  26
HETATM   26  C18 UNL     1      46.832  48.699  30.402  1.00  0.00     0.093 C 
BRANCH  26  27
HETATM   27  C19 UNL     1      45.631  48.938  29.623  1.00  0.00     0.408 C 
HETATM   28  F1  UNL     1      45.329  48.141  28.564  1.00  0.00    -0.167 F 
HETATM   29  F2  UNL     1      45.866  50.183  28.963  1.00  0.00    -0.167 F 
HETATM   30  F3  UNL     1      44.503  49.276  30.366  1.00  0.00    -0.167 F 
ENDBRANCH  26  27
ENDBRANCH   9  26
TORSDOF 8
ENDMDL
MODEL 4
REMARK VINA RESULT: -6.432309676      9.033     11.693
REMARK  8 active torsions:
REMARK  status: ('A' for Active; 'I' for Inactive)
REMARK    1  A    between atoms: N1_2  and  C2_3 
REMARK    2  A    between atoms: N1_2  and  C8_13 
REMARK    3  A    between atoms: C2_3  and  C3_4 
REMARK    4  A    between atoms: C3_4  and  N2_5 
REMARK    5  A    between atoms: C8_13  and  O1_14 
REMARK    6  A    between atoms: C8_13  and  C9_16 
REMARK    7  A    between atoms: C17_24  and  C18_25 
REMARK    8  A    between atoms: C18_25  and  C19_26 
ROOT
HETATM    1  C9  UNL     1      46.882  49.354  34.299  1.00  0.00     0.049 C 
HETATM    2  C10 UNL     1      48.326  49.892  34.122  1.00  0.00     0.027 C 
HETATM    3  C11 UNL     1      48.479  51.259  34.688  1.00  0.00    -0.012 C 
HETATM    4  C12 UNL     1      48.391  51.143  36.212  1.00  0.00     0.009 C 
HETATM    5  C13 UNL     1      47.040  50.548  36.494  1.00  0.00    -0.012 C 
HETATM    6  C14 UNL     1      46.002  51.526  35.997  1.00  0.00     0.013 C 
HETATM    7  C15 UNL     1      46.046  51.650  34.523  1.00  0.00     0.016 C 
HETATM    8  C16 UNL     1      47.421  52.224  34.216  1.00  0.00     0.013 C 
HETATM    9  C17 UNL     1      45.946  50.344  33.742  1.00  0.00    -0.054 C 
HETATM   10  C20 UNL     1      46.820  49.247  35.826  1.00  0.00     0.027 C 
ENDROOT
BRANCH   1  11
HETATM   11  C8  UNL     1      46.908  48.012  33.739  1.00  0.00     0.126 C 
BRANCH  11  12
HETATM   12  N1  UNL     1      47.312  47.447  32.535  1.00  0.00    -0.364 N 
HETATM   13  C1  UNL     1      47.173  48.047  31.253  1.00  0.00     0.152 C 
BRANCH  12  14
HETATM   14  C2  UNL     1      47.923  46.095  32.622  1.00  0.00     0.168 C 
BRANCH  14  15
HETATM   15  C3  UNL     1      48.316  45.524  31.323  1.00  0.00     0.083 C 
BRANCH  15  16
HETATM   16  N2  UNL     1      49.639  45.651  30.876  1.00  0.00    -0.369 N 
HETATM   17  C4  UNL     1      49.923  45.328  29.518  1.00  0.00     0.154 C 
HETATM   18  C5  UNL     1      50.327  43.867  29.349  1.00  0.00     0.252 C 
HETATM   19  N3  UNL     1      51.508  43.650  30.120  1.00  0.00    -0.069 N 
HETATM   20  C6  UNL     1      51.339  43.981  31.496  1.00  0.00     0.277 C 
ATOM     21  H32 UNL     1      51.843  42.693  30.012  1.00  0.00     0.277 HD
ATOM     22  H31 UNL     1      52.301  44.150  29.719  1.00  0.00     0.277 HD
HETATM   23  C7  UNL     1      50.662  45.288  31.775  1.00  0.00     0.090 C 
ENDBRANCH  15  16
ENDBRANCH  14  15
ENDBRANCH  12  14
ENDBRANCH  11  12
BRANCH  11  24
HETATM   24  O1  UNL     1      46.434  47.113  34.594  1.00  0.00    -0.349 OA
ATOM     25  H1  UNL     1      46.702  47.281  35.490  1.00  0.00     0.219 HD
ENDBRANCH  11  24
ENDBRANCH   1  11
BRANCH   9  26
HETATM   26  C18 UNL     1      44.598  50.010  33.302  1.00  0.00     0.093 C 
BRANCH  26  27
HETATM   27  C19 UNL     1      43.814  50.655  32.264  1.00  0.00     0.408 C 
HETATM   28  F1  UNL     1      43.800  52.010  32.155  1.00  0.00    -0.167 F 
HETATM   29  F2  UNL     1      42.455  50.401  32.622  1.00  0.00    -0.167 F 
HETATM   30  F3  UNL     1      43.851  50.026  31.022  1.00  0.00    -0.167 F 
ENDBRANCH  26  27
ENDBRANCH   9  26
TORSDOF 8
ENDMDL
MODEL 5
REMARK VINA RESULT: -6.404703777      7.839     11.428
REMARK  8 active torsions:
REMARK  status: ('A' for Active; 'I' for Inactive)
REMARK    1  A    between atoms: N1_2  and  C2_3 
REMARK    2  A    between atoms: N1_2  and  C8_13 
REMARK    3  A    between atoms: C2_3  and  C3_4 
REMARK    4  A    between atoms: C3_4  and  N2_5 
REMARK    5  A    between atoms: C8_13  and  O1_14 
REMARK    6  A    between atoms: C8_13  and  C9_16 
REMARK    7  A    between atoms: C17_24  and  C18_25 
REMARK    8  A    between atoms: C18_25  and  C19_26 
ROOT
HETATM    1  C9  UNL     1      47.145  49.505  33.285  1.00  0.00     0.049 C 
HETATM    2  C10 UNL     1      45.959  48.960  32.446  1.00  0.00     0.027 C 
HETATM    3  C11 UNL     1      44.840  49.938  32.373  1.00  0.00    -0.012 C 
HETATM    4  C12 UNL     1      45.305  51.110  31.503  1.00  0.00     0.009 C 
HETATM    5  C13 UNL     1      46.517  51.669  32.194  1.00  0.00    -0.012 C 
HETATM    6  C14 UNL     1      46.073  52.180  33.543  1.00  0.00     0.013 C 
HETATM    7  C15 UNL     1      45.634  51.071  34.419  1.00  0.00     0.016 C 
HETATM    8  C16 UNL     1      44.423  50.472  33.719  1.00  0.00     0.013 C 
HETATM    9  C17 UNL     1      46.630  49.930  34.597  1.00  0.00    -0.054 C 
HETATM   10  C20 UNL     1      47.590  50.672  32.397  1.00  0.00     0.027 C 
ENDROOT
BRANCH   1  11
HETATM   11  C8  UNL     1      48.158  48.463  33.227  1.00  0.00     0.126 C 
BRANCH  11  12
HETATM   12  N1  UNL     1      49.456  48.368  32.739  1.00  0.00    -0.364 N 
HETATM   13  C1  UNL     1      50.614  48.919  33.355  1.00  0.00     0.152 C 
BRANCH  12  14
HETATM   14  C2  UNL     1      49.617  47.639  31.453  1.00  0.00     0.168 C 
BRANCH  14  15
HETATM   15  C3  UNL     1      50.426  46.412  31.551  1.00  0.00     0.083 C 
BRANCH  15  16
HETATM   16  N2  UNL     1      49.800  45.158  31.499  1.00  0.00    -0.369 N 
HETATM   17  C4  UNL     1      50.493  44.087  30.863  1.00  0.00     0.154 C 
HETATM   18  C5  UNL     1      50.148  43.982  29.381  1.00  0.00     0.252 C 
HETATM   19  N3  UNL     1      48.747  43.736  29.278  1.00  0.00    -0.069 N 
HETATM   20  C6  UNL     1      47.959  44.737  29.919  1.00  0.00     0.277 C 
ATOM     21  H32 UNL     1      48.468  43.620  28.304  1.00  0.00     0.277 HD
ATOM     22  H31 UNL     1      48.513  42.807  29.628  1.00  0.00     0.277 HD
HETATM   23  C7  UNL     1      48.406  45.139  31.291  1.00  0.00     0.090 C 
ENDBRANCH  15  16
ENDBRANCH  14  15
ENDBRANCH  12  14
ENDBRANCH  11  12
BRANCH  11  24
HETATM   24  O1  UNL     1      47.734  47.333  33.781  1.00  0.00    -0.349 OA
ATOM     25  H1  UNL     1      47.962  47.267  34.701  1.00  0.00     0.219 HD
ENDBRANCH  11  24
ENDBRANCH   1  11
BRANCH   9  26
HETATM   26  C18 UNL     1      47.465  50.043  35.785  1.00  0.00     0.093 C 
BRANCH  26  27
HETATM   27  C19 UNL     1      47.068  49.878  37.172  1.00  0.00     0.408 C 
HETATM   28  F1  UNL     1      45.953  50.495  37.645  1.00  0.00    -0.167 F 
HETATM   29  F2  UNL     1      48.083  50.547  37.923  1.00  0.00    -0.167 F 
HETATM   30  F3  UNL     1      47.213  48.589  37.677  1.00  0.00    -0.167 F 
ENDBRANCH  26  27
ENDBRANCH   9  26
TORSDOF 8
ENDMDL
