MODEL 1
REMARK VINA RESULT: -8.211169195      0.000      0.000
REMARK  5 active torsions:
REMARK  status: ('A' for Active; 'I' for Inactive)
REMARK    1  A    between atoms: C3_3  and  N1_4 
REMARK       I    between atoms: N1_4  and  C4_6 
REMARK    2  A    between atoms: C4_6  and  C5_8 
REMARK    3  A    between atoms: N2_11  and  C8_12 
REMARK    4  A    between atoms: C9_13  and  C10_14 
REMARK    5  A    between atoms: C18_23  and  C19_24 
ROOT
HETATM    1  C1  UNL     1      47.030  49.677  37.954  1.00  0.00     0.015 C 
HETATM    2  C2  UNL     1      47.262  49.941  36.804  1.00  0.00    -0.086 C 
HETATM    3  C3  UNL     1      47.549  50.236  35.406  1.00  0.00     0.096 C 
HETATM    4  C16 UNL     1      46.962  49.167  34.526  1.00  0.00     0.045 C 
HETATM    5  C17 UNL     1      46.506  49.685  33.197  1.00  0.00     0.013 C 
HETATM    6  C18 UNL     1      45.505  50.791  33.285  1.00  0.00     0.051 C 
HETATM    7  C20 UNL     1      45.533  51.390  34.653  1.00  0.00     0.013 C 
HETATM    8  C21 UNL     1      46.995  51.608  35.055  1.00  0.00     0.045 C 
ENDROOT
BRANCH   3   9
HETATM    9  N1  UNL     1      48.999  50.214  35.231  1.00  0.00    -0.341 N 
HETATM   10  C4  UNL     1      49.821  51.233  35.777  1.00  0.00     0.225 C 
HETATM   11  O1  UNL     1      49.313  52.181  36.422  1.00  0.00    -0.273 OA
ATOM     12  H1  UNL     1      49.429  49.452  34.707  1.00  0.00     0.164 HD
BRANCH  10  13
HETATM   13  C5  UNL     1      51.263  51.162  35.579  1.00  0.00     0.101 C 
HETATM   14  C6  UNL     1      51.776  51.664  34.271  1.00  0.00     0.060 C 
HETATM   15  C7  UNL     1      53.137  51.031  34.137  1.00  0.00     0.064 C 
HETATM   16  N2  UNL     1      53.145  49.916  34.998  1.00  0.00    -0.370 N 
HETATM   17  C15 UNL     1      51.794  49.714  35.523  1.00  0.00     0.141 C 
BRANCH  16  18
HETATM   18  C8  UNL     1      54.147  49.722  35.935  1.00  0.00     0.086 C 
HETATM   19  C9  UNL     1      54.704  48.446  36.289  1.00  0.00    -0.005 C 
BRANCH  19  20
HETATM   20  C10 UNL     1      55.363  47.447  35.474  1.00  0.00     0.013 C 
HETATM   21  C11 UNL     1      56.496  47.745  34.593  1.00  0.00     0.035 C 
HETATM   22  C12 UNL     1      57.666  46.780  34.820  1.00  0.00     0.168 C 
HETATM   23  O2  UNL     1      57.287  45.475  34.578  1.00  0.00    -0.391 OA
HETATM   24  C13 UNL     1      56.110  45.138  35.251  1.00  0.00     0.168 C 
HETATM   25  C14 UNL     1      55.754  46.189  36.281  1.00  0.00     0.035 C 
ENDBRANCH  19  20
ENDBRANCH  16  18
ENDBRANCH  10  13
ENDBRANCH   3   9
BRANCH   6  26
HETATM   26  C19 UNL     1      44.097  50.317  33.004  1.00  0.00     0.357 C 
HETATM   27  F1  UNL     1      43.885  49.995  31.692  1.00  0.00    -0.214 F 
HETATM   28  F2  UNL     1      43.816  49.258  33.824  1.00  0.00    -0.214 F 
ENDBRANCH   6  26
TORSDOF 5
ENDMDL
MODEL 2
REMARK VINA RESULT: -8.157904229      1.072      1.191
REMARK  5 active torsions:
REMARK  status: ('A' for Active; 'I' for Inactive)
REMARK    1  A    between atoms: C3_3  and  N1_4 
REMARK       I    between atoms: N1_4  and  C4_6 
REMARK    2  A    between atoms: C4_6  and  C5_8 
REMARK    3  A    between atoms: N2_11  and  C8_12 
REMARK    4  A    between atoms: C9_13  and  C10_14 
REMARK    5  A    between atoms: C18_23  and  C19_24 
ROOT
HETATM    1  C1  UNL     1      47.062  49.260  39.149  1.00  0.00     0.015 C 
HETATM    2  C2  UNL     1      47.411  49.656  38.068  1.00  0.00    -0.086 C 
HETATM    3  C3  UNL     1      47.841  50.110  36.752  1.00  0.00     0.096 C 
HETATM    4  C16 UNL     1      47.348  49.158  35.696  1.00  0.00     0.045 C 
HETATM    5  C17 UNL     1      47.032  49.835  34.398  1.00  0.00     0.013 C 
HETATM    6  C18 UNL     1      46.026  50.935  34.514  1.00  0.00     0.051 C 
HETATM    7  C20 UNL     1      45.912  51.367  35.939  1.00  0.00     0.013 C 
HETATM    8  C21 UNL     1      47.326  51.520  36.512  1.00  0.00     0.045 C 
ENDROOT
BRANCH   3   9
HETATM    9  N1  UNL     1      49.301  50.091  36.725  1.00  0.00    -0.341 N 
HETATM   10  C4  UNL     1      50.035  51.054  35.986  1.00  0.00     0.225 C 
HETATM   11  O1  UNL     1      49.439  51.943  35.333  1.00  0.00    -0.273 OA
ATOM     12  H1  UNL     1      49.803  49.373  37.249  1.00  0.00     0.164 HD
BRANCH  10  13
HETATM   13  C5  UNL     1      51.491  50.995  35.996  1.00  0.00     0.101 C 
HETATM   14  C6  UNL     1      52.198  51.952  35.096  1.00  0.00     0.060 C 
HETATM   15  C7  UNL     1      53.572  51.359  34.926  1.00  0.00     0.064 C 
HETATM   16  N2  UNL     1      53.461  49.994  35.255  1.00  0.00    -0.370 N 
HETATM   17  C15 UNL     1      52.046  49.666  35.442  1.00  0.00     0.141 C 
BRANCH  16  18
HETATM   18  C8  UNL     1      54.304  49.391  36.174  1.00  0.00     0.086 C 
HETATM   19  C9  UNL     1      54.882  48.084  36.025  1.00  0.00    -0.005 C 
BRANCH  19  20
HETATM   20  C10 UNL     1      55.735  47.545  34.987  1.00  0.00     0.013 C 
HETATM   21  C11 UNL     1      57.187  47.407  35.127  1.00  0.00     0.035 C 
HETATM   22  C12 UNL     1      57.667  45.998  34.760  1.00  0.00     0.168 C 
HETATM   23  O2  UNL     1      57.347  45.689  33.454  1.00  0.00    -0.391 OA
HETATM   24  C13 UNL     1      56.004  45.944  33.169  1.00  0.00     0.168 C 
HETATM   25  C14 UNL     1      55.218  46.196  34.439  1.00  0.00     0.035 C 
ENDBRANCH  19  20
ENDBRANCH  16  18
ENDBRANCH  10  13
ENDBRANCH   3   9
BRANCH   6  26
HETATM   26  C19 UNL     1      44.655  50.514  34.036  1.00  0.00     0.357 C 
HETATM   27  F1  UNL     1      44.188  51.267  32.995  1.00  0.00    -0.214 F 
HETATM   28  F2  UNL     1      44.691  49.185  33.707  1.00  0.00    -0.214 F 
ENDBRANCH   6  26
TORSDOF 5
ENDMDL
MODEL 3
REMARK VINA RESULT: -7.919567320      1.646      1.991
REMARK  5 active torsions:
REMARK  status: ('A' for Active; 'I' for Inactive)
REMARK    1  A    between atoms: C3_3  and  N1_4 
REMARK       I    between atoms: N1_4  and  C4_6 
REMARK    2  A    between atoms: C4_6  and  C5_8 
REMARK    3  A    between atoms: N2_11  and  C8_12 
REMARK    4  A    between atoms: C9_13  and  C10_14 
REMARK    5  A    between atoms: C18_23  and  C19_24 
ROOT
HETATM    1  C1  UNL     1      46.928  49.658  38.202  1.00  0.00     0.015 C 
HETATM    2  C2  UNL     1      47.230  49.919  37.067  1.00  0.00    -0.086 C 
HETATM    3  C3  UNL     1      47.603  50.208  35.688  1.00  0.00     0.096 C 
HETATM    4  C16 UNL     1      47.071  49.135  34.778  1.00  0.00     0.045 C 
HETATM    5  C17 UNL     1      46.698  49.649  33.421  1.00  0.00     0.013 C 
HETATM    6  C18 UNL     1      45.693  50.755  33.443  1.00  0.00     0.051 C 
HETATM    7  C20 UNL     1      45.637  51.359  34.808  1.00  0.00     0.013 C 
HETATM    8  C21 UNL     1      47.072  51.579  35.299  1.00  0.00     0.045 C 
ENDROOT
BRANCH   3   9
HETATM    9  N1  UNL     1      49.061  50.185  35.603  1.00  0.00    -0.341 N 
HETATM   10  C4  UNL     1      49.843  51.259  36.099  1.00  0.00     0.225 C 
HETATM   11  O1  UNL     1      49.293  52.258  36.622  1.00  0.00    -0.273 OA
ATOM     12  H1  UNL     1      49.525  49.382  35.178  1.00  0.00     0.164 HD
BRANCH  10  13
HETATM   13  C5  UNL     1      51.295  51.185  35.995  1.00  0.00     0.101 C 
HETATM   14  C6  UNL     1      51.923  52.006  34.920  1.00  0.00     0.060 C 
HETATM   15  C7  UNL     1      53.277  51.379  34.715  1.00  0.00     0.064 C 
HETATM   16  N2  UNL     1      53.193  50.070  35.229  1.00  0.00    -0.370 N 
HETATM   17  C15 UNL     1      51.799  49.787  35.577  1.00  0.00     0.141 C 
BRANCH  16  18
HETATM   18  C8  UNL     1      54.111  49.583  36.146  1.00  0.00     0.086 C 
HETATM   19  C9  UNL     1      55.380  49.001  35.808  1.00  0.00    -0.005 C 
BRANCH  19  20
HETATM   20  C10 UNL     1      56.501  49.549  35.074  1.00  0.00     0.013 C 
HETATM   21  C11 UNL     1      56.837  50.976  35.061  1.00  0.00     0.035 C 
HETATM   22  C12 UNL     1      58.314  51.221  35.390  1.00  0.00     0.168 C 
HETATM   23  O2  UNL     1      59.136  50.595  34.475  1.00  0.00    -0.391 OA
HETATM   24  C13 UNL     1      58.790  49.255  34.291  1.00  0.00     0.168 C 
HETATM   25  C14 UNL     1      57.819  48.793  35.356  1.00  0.00     0.035 C 
ENDBRANCH  19  20
ENDBRANCH  16  18
ENDBRANCH  10  13
ENDBRANCH   3   9
BRANCH   6  26
HETATM   26  C19 UNL     1      44.305  50.280  33.078  1.00  0.00     0.357 C 
HETATM   27  F1  UNL     1      44.161  49.998  31.748  1.00  0.00    -0.214 F 
HETATM   28  F2  UNL     1      43.993  49.193  33.850  1.00  0.00    -0.214 F 
ENDBRANCH   6  26
TORSDOF 5
ENDMDL
MODEL 4
REMARK VINA RESULT: -7.871982442      1.095      1.223
REMARK  5 active torsions:
REMARK  status: ('A' for Active; 'I' for Inactive)
REMARK    1  A    between atoms: C3_3  and  N1_4 
REMARK       I    between atoms: N1_4  and  C4_6 
REMARK    2  A    between atoms: C4_6  and  C5_8 
REMARK    3  A    between atoms: N2_11  and  C8_12 
REMARK    4  A    between atoms: C9_13  and  C10_14 
REMARK    5  A    between atoms: C18_23  and  C19_24 
ROOT
HETATM    1  C1  UNL     1      47.037  50.027  37.376  1.00  0.00     0.015 C 
HETATM    2  C2  UNL     1      47.189  50.052  36.182  1.00  0.00    -0.086 C 
HETATM    3  C3  UNL     1      47.372  50.055  34.737  1.00  0.00     0.096 C 
HETATM    4  C16 UNL     1      46.443  49.057  34.101  1.00  0.00     0.045 C 
HETATM    5  C17 UNL     1      45.973  49.475  32.742  1.00  0.00     0.013 C 
HETATM    6  C18 UNL     1      45.288  50.803  32.716  1.00  0.00     0.051 C 
HETATM    7  C20 UNL     1      45.621  51.567  33.956  1.00  0.00     0.013 C 
HETATM    8  C21 UNL     1      47.130  51.457  34.200  1.00  0.00     0.045 C 
ENDROOT
BRANCH   3   9
HETATM    9  N1  UNL     1      48.742  49.634  34.457  1.00  0.00    -0.341 N 
HETATM   10  C4  UNL     1      49.828  50.539  34.574  1.00  0.00     0.225 C 
HETATM   11  O1  UNL     1      49.630  51.728  34.920  1.00  0.00    -0.273 OA
ATOM     12  H1  UNL     1      48.922  48.671  34.171  1.00  0.00     0.164 HD
BRANCH  10  13
HETATM   13  C5  UNL     1      51.177  50.067  34.289  1.00  0.00     0.101 C 
HETATM   14  C6  UNL     1      51.282  48.801  33.507  1.00  0.00     0.060 C 
HETATM   15  C7  UNL     1      52.676  48.303  33.790  1.00  0.00     0.064 C 
HETATM   16  N2  UNL     1      53.089  48.929  34.982  1.00  0.00    -0.370 N 
HETATM   17  C15 UNL     1      51.952  49.650  35.557  1.00  0.00     0.141 C 
BRANCH  16  18
HETATM   18  C8  UNL     1      54.291  49.613  35.072  1.00  0.00     0.086 C 
HETATM   19  C9  UNL     1      55.504  49.073  35.622  1.00  0.00    -0.005 C 
BRANCH  19  20
HETATM   20  C10 UNL     1      56.271  47.905  35.242  1.00  0.00     0.013 C 
HETATM   21  C11 UNL     1      57.736  47.868  35.242  1.00  0.00     0.035 C 
HETATM   22  C12 UNL     1      58.278  46.651  36.001  1.00  0.00     0.168 C 
HETATM   23  O2  UNL     1      57.835  45.474  35.433  1.00  0.00    -0.391 OA
HETATM   24  C13 UNL     1      56.452  45.475  35.238  1.00  0.00     0.168 C 
HETATM   25  C14 UNL     1      55.801  46.627  35.972  1.00  0.00     0.035 C 
ENDBRANCH  19  20
ENDBRANCH  16  18
ENDBRANCH  10  13
ENDBRANCH   3   9
BRANCH   6  26
HETATM   26  C19 UNL     1      43.783  50.672  32.631  1.00  0.00     0.357 C 
HETATM   27  F1  UNL     1      43.358  50.042  31.495  1.00  0.00    -0.214 F 
HETATM   28  F2  UNL     1      43.332  50.029  33.752  1.00  0.00    -0.214 F 
ENDBRANCH   6  26
TORSDOF 5
ENDMDL
MODEL 5
REMARK VINA RESULT: -7.578496335      3.044      3.340
REMARK  5 active torsions:
REMARK  status: ('A' for Active; 'I' for Inactive)
REMARK    1  A    between atoms: C3_3  and  N1_4 
REMARK       I    between atoms: N1_4  and  C4_6 
REMARK    2  A    between atoms: C4_6  and  C5_8 
REMARK    3  A    between atoms: N2_11  and  C8_12 
REMARK    4  A    between atoms: C9_13  and  C10_14 
REMARK    5  A    between atoms: C18_23  and  C19_24 
ROOT
HETATM    1  C1  UNL     1      47.135  50.010  37.426  1.00  0.00     0.015 C 
HETATM    2  C2  UNL     1      47.253  50.049  36.229  1.00  0.00    -0.086 C 
HETATM    3  C3  UNL     1      47.396  50.069  34.779  1.00  0.00     0.096 C 
HETATM    4  C16 UNL     1      46.482  49.047  34.161  1.00  0.00     0.045 C 
HETATM    5  C17 UNL     1      45.962  49.461  32.819  1.00  0.00     0.013 C 
HETATM    6  C18 UNL     1      45.234  50.766  32.823  1.00  0.00     0.051 C 
HETATM    7  C20 UNL     1      45.577  51.531  34.059  1.00  0.00     0.013 C 
HETATM    8  C21 UNL     1      47.095  51.467  34.262  1.00  0.00     0.045 C 
ENDROOT
BRANCH   3   9
HETATM    9  N1  UNL     1      48.770  49.694  34.459  1.00  0.00    -0.341 N 
HETATM   10  C4  UNL     1      49.854  50.565  34.736  1.00  0.00     0.225 C 
HETATM   11  O1  UNL     1      49.651  51.685  35.263  1.00  0.00    -0.273 OA
ATOM     12  H1  UNL     1      48.954  48.787  34.027  1.00  0.00     0.164 HD
BRANCH  10  13
HETATM   13  C5  UNL     1      51.208  50.141  34.401  1.00  0.00     0.101 C 
HETATM   14  C6  UNL     1      52.071  51.154  33.728  1.00  0.00     0.060 C 
HETATM   15  C7  UNL     1      53.157  50.342  33.072  1.00  0.00     0.064 C 
HETATM   16  N2  UNL     1      52.658  49.030  32.955  1.00  0.00    -0.370 N 
HETATM   17  C15 UNL     1      51.245  49.025  33.336  1.00  0.00     0.141 C 
BRANCH  16  18
HETATM   18  C8  UNL     1      53.368  47.933  33.415  1.00  0.00     0.086 C 
HETATM   19  C9  UNL     1      52.923  46.570  33.325  1.00  0.00    -0.005 C 
BRANCH  19  20
HETATM   20  C10 UNL     1      52.563  45.771  32.172  1.00  0.00     0.013 C 
HETATM   21  C11 UNL     1      53.098  44.430  31.921  1.00  0.00     0.035 C 
HETATM   22  C12 UNL     1      51.986  43.415  31.627  1.00  0.00     0.168 C 
HETATM   23  O2  UNL     1      51.260  43.786  30.513  1.00  0.00    -0.391 OA
HETATM   24  C13 UNL     1      50.838  45.115  30.581  1.00  0.00     0.168 C 
HETATM   25  C14 UNL     1      51.034  45.677  31.973  1.00  0.00     0.035 C 
ENDBRANCH  19  20
ENDBRANCH  16  18
ENDBRANCH  10  13
ENDBRANCH   3   9
BRANCH   6  26
HETATM   26  C19 UNL     1      43.733  50.589  32.777  1.00  0.00     0.357 C 
HETATM   27  F1  UNL     1      43.277  50.140  31.569  1.00  0.00    -0.214 F 
HETATM   28  F2  UNL     1      43.357  49.749  33.791  1.00  0.00    -0.214 F 
ENDBRANCH   6  26
TORSDOF 5
ENDMDL
