MODEL 1
REMARK VINA RESULT: -7.590630448      0.000      0.000
REMARK  6 active torsions:
REMARK  status: ('A' for Active; 'I' for Inactive)
REMARK       I    between atoms: N1_2  and  C2_3 
REMARK    1  A    between atoms: N1_2  and  C13_22 
REMARK    2  A    between atoms: C2_3  and  C3_5 
REMARK    3  A    between atoms: C3_5  and  C4_6 
REMARK    4  A    between atoms: C4_6  and  C5_7 
REMARK       I    between atoms: C5_7  and  N2_9 
REMARK    5  A    between atoms: N2_9  and  C6_11 
REMARK       I    between atoms: N3_14  and  C9_15 
REMARK    6  A    between atoms: C9_15  and  C10_17 
ROOT
HETATM    1  C5  UNL     1      51.982  51.195  34.500  1.00  0.00     0.218 C 
HETATM    2  O2  UNL     1      52.053  52.446  34.423  1.00  0.00    -0.274 OA
HETATM    3  N2  UNL     1      50.840  50.618  35.101  1.00  0.00    -0.355 N 
ATOM      4  H2  UNL     1      50.763  49.604  35.172  1.00  0.00     0.162 HD
ENDROOT
BRANCH   1   5
HETATM    5  C4  UNL     1      53.046  50.331  33.985  1.00  0.00     0.112 C 
BRANCH   5   6
HETATM    6  C3  UNL     1      52.914  48.940  34.517  1.00  0.00     0.112 C 
BRANCH   6   7
HETATM    7  C2  UNL     1      54.120  48.601  35.302  1.00  0.00     0.220 C 
HETATM    8  N1  UNL     1      55.033  47.575  34.890  1.00  0.00    -0.352 N 
HETATM    9  C1  UNL     1      54.837  46.807  33.686  1.00  0.00     0.153 C 
HETATM   10  O1  UNL     1      54.315  49.253  36.354  1.00  0.00    -0.273 OA
BRANCH   8  11
HETATM   11  C13 UNL     1      56.174  47.304  35.698  1.00  0.00     0.086 C 
HETATM   12  C14 UNL     1      57.458  47.200  34.915  1.00  0.00     0.025 C 
HETATM   13  C15 UNL     1      58.544  46.828  35.938  1.00  0.00     0.002 C 
HETATM   14  C16 UNL     1      58.371  45.318  36.150  1.00  0.00     0.000 C 
HETATM   15  C17 UNL     1      56.923  44.919  35.978  1.00  0.00     0.002 C 
HETATM   16  C18 UNL     1      55.979  46.001  36.444  1.00  0.00     0.025 C 
ENDBRANCH   8  11
ENDBRANCH   6   7
ENDBRANCH   5   6
ENDBRANCH   1   5
BRANCH   3  17
HETATM   17  C6  UNL     1      49.786  51.452  35.612  1.00  0.00     0.104 C 
HETATM   18  C7  UNL     1      48.474  51.205  34.876  1.00  0.00     0.046 C 
HETATM   19  C8  UNL     1      47.475  51.643  35.956  1.00  0.00     0.128 C 
HETATM   20  N3  UNL     1      48.009  50.942  37.101  1.00  0.00    -0.345 N 
HETATM   21  C9  UNL     1      47.249  50.225  38.054  1.00  0.00     0.292 C 
HETATM   22  C12 UNL     1      49.436  51.135  37.051  1.00  0.00     0.151 C 
HETATM   23  O3  UNL     1      45.988  50.154  37.948  1.00  0.00    -0.267 OA
BRANCH  21  24
HETATM   24  C10 UNL     1      47.922  49.539  39.199  1.00  0.00     0.319 C 
HETATM   25  C11 UNL     1      46.906  48.748  39.985  1.00  0.00     0.101 C 
HETATM   26  F1  UNL     1      48.885  48.653  38.759  1.00  0.00    -0.196 F 
HETATM   27  F2  UNL     1      48.498  50.455  40.037  1.00  0.00    -0.196 F 
ENDBRANCH  21  24
ENDBRANCH   3  17
TORSDOF 6
ENDMDL
MODEL 2
REMARK VINA RESULT: -7.462601610      6.115      8.777
REMARK  6 active torsions:
REMARK  status: ('A' for Active; 'I' for Inactive)
REMARK       I    between atoms: N1_2  and  C2_3 
REMARK    1  A    between atoms: N1_2  and  C13_22 
REMARK    2  A    between atoms: C2_3  and  C3_5 
REMARK    3  A    between atoms: C3_5  and  C4_6 
REMARK    4  A    between atoms: C4_6  and  C5_7 
REMARK       I    between atoms: C5_7  and  N2_9 
REMARK    5  A    between atoms: N2_9  and  C6_11 
REMARK       I    between atoms: N3_14  and  C9_15 
REMARK    6  A    between atoms: C9_15  and  C10_17 
ROOT
HETATM    1  C5  UNL     1      45.269  49.893  33.795  1.00  0.00     0.218 C 
HETATM    2  O2  UNL     1      46.019  49.010  33.313  1.00  0.00    -0.274 OA
HETATM    3  N2  UNL     1      45.786  50.747  34.795  1.00  0.00    -0.355 N 
ATOM      4  H2  UNL     1      45.192  51.472  35.198  1.00  0.00     0.162 HD
ENDROOT
BRANCH   1   5
HETATM    5  C4  UNL     1      43.885  50.055  33.346  1.00  0.00     0.112 C 
BRANCH   5   6
HETATM    6  C3  UNL     1      43.802  50.069  31.852  1.00  0.00     0.112 C 
BRANCH   6   7
HETATM    7  C2  UNL     1      44.330  51.354  31.347  1.00  0.00     0.220 C 
HETATM    8  N1  UNL     1      45.504  51.425  30.526  1.00  0.00    -0.352 N 
HETATM    9  C1  UNL     1      46.246  50.252  30.140  1.00  0.00     0.153 C 
HETATM   10  O1  UNL     1      43.703  52.391  31.667  1.00  0.00    -0.273 OA
BRANCH   8  11
HETATM   11  C13 UNL     1      45.953  52.700  30.076  1.00  0.00     0.086 C 
HETATM   12  C14 UNL     1      46.460  52.695  28.656  1.00  0.00     0.025 C 
HETATM   13  C15 UNL     1      46.968  54.121  28.388  1.00  0.00     0.002 C 
HETATM   14  C16 UNL     1      48.354  54.166  29.045  1.00  0.00     0.000 C 
HETATM   15  C17 UNL     1      48.400  53.254  30.251  1.00  0.00     0.002 C 
HETATM   16  C18 UNL     1      47.072  53.195  30.967  1.00  0.00     0.025 C 
ENDBRANCH   8  11
ENDBRANCH   6   7
ENDBRANCH   5   6
ENDBRANCH   1   5
BRANCH   3  17
HETATM   17  C6  UNL     1      47.142  50.602  35.248  1.00  0.00     0.104 C 
HETATM   18  C7  UNL     1      47.694  51.918  35.787  1.00  0.00     0.046 C 
HETATM   19  C8  UNL     1      48.770  51.385  36.743  1.00  0.00     0.128 C 
HETATM   20  N3  UNL     1      48.014  50.373  37.444  1.00  0.00    -0.345 N 
HETATM   21  C9  UNL     1      48.032  50.152  38.841  1.00  0.00     0.292 C 
HETATM   22  C12 UNL     1      47.266  49.668  36.434  1.00  0.00     0.151 C 
HETATM   23  O3  UNL     1      48.754  50.871  39.595  1.00  0.00    -0.267 OA
BRANCH  21  24
HETATM   24  C10 UNL     1      47.202  49.069  39.448  1.00  0.00     0.319 C 
HETATM   25  C11 UNL     1      47.597  48.873  40.891  1.00  0.00     0.101 C 
HETATM   26  F1  UNL     1      45.859  49.393  39.428  1.00  0.00    -0.196 F 
HETATM   27  F2  UNL     1      47.391  47.887  38.785  1.00  0.00    -0.196 F 
ENDBRANCH  21  24
ENDBRANCH   3  17
TORSDOF 6
ENDMDL
MODEL 3
REMARK VINA RESULT: -7.194796597      3.744      8.942
REMARK  6 active torsions:
REMARK  status: ('A' for Active; 'I' for Inactive)
REMARK       I    between atoms: N1_2  and  C2_3 
REMARK    1  A    between atoms: N1_2  and  C13_22 
REMARK    2  A    between atoms: C2_3  and  C3_5 
REMARK    3  A    between atoms: C3_5  and  C4_6 
REMARK    4  A    between atoms: C4_6  and  C5_7 
REMARK       I    between atoms: C5_7  and  N2_9 
REMARK    5  A    between atoms: N2_9  and  C6_11 
REMARK       I    between atoms: N3_14  and  C9_15 
REMARK    6  A    between atoms: C9_15  and  C10_17 
ROOT
HETATM    1  C5  UNL     1      49.428  51.155  36.718  1.00  0.00     0.218 C 
HETATM    2  O2  UNL     1      49.820  52.282  36.330  1.00  0.00    -0.274 OA
HETATM    3  N2  UNL     1      50.082  50.003  36.224  1.00  0.00    -0.355 N 
ATOM      4  H2  UNL     1      49.778  49.079  36.529  1.00  0.00     0.162 HD
ENDROOT
BRANCH   1   5
HETATM    5  C4  UNL     1      48.317  51.011  37.662  1.00  0.00     0.112 C 
BRANCH   5   6
HETATM    6  C3  UNL     1      47.319  50.012  37.170  1.00  0.00     0.112 C 
BRANCH   6   7
HETATM    7  C2  UNL     1      46.468  50.640  36.137  1.00  0.00     0.220 C 
HETATM    8  N1  UNL     1      46.229  50.018  34.867  1.00  0.00    -0.352 N 
HETATM    9  C1  UNL     1      46.800  48.743  34.514  1.00  0.00     0.153 C 
HETATM   10  O1  UNL     1      45.958  51.749  36.418  1.00  0.00    -0.273 OA
BRANCH   8  11
HETATM   11  C13 UNL     1      45.397  50.683  33.922  1.00  0.00     0.086 C 
HETATM   12  C14 UNL     1      44.110  49.954  33.630  1.00  0.00     0.025 C 
HETATM   13  C15 UNL     1      43.400  50.775  32.542  1.00  0.00     0.002 C 
HETATM   14  C16 UNL     1      44.102  50.374  31.238  1.00  0.00     0.000 C 
HETATM   15  C17 UNL     1      45.549  50.024  31.499  1.00  0.00     0.002 C 
HETATM   16  C18 UNL     1      46.140  50.854  32.614  1.00  0.00     0.025 C 
ENDBRANCH   8  11
ENDBRANCH   6   7
ENDBRANCH   5   6
ENDBRANCH   1   5
BRANCH   3  17
HETATM   17  C6  UNL     1      51.173  50.127  35.297  1.00  0.00     0.104 C 
HETATM   18  C7  UNL     1      52.429  49.437  35.819  1.00  0.00     0.046 C 
HETATM   19  C8  UNL     1      53.140  49.137  34.492  1.00  0.00     0.128 C 
HETATM   20  N3  UNL     1      52.049  48.565  33.738  1.00  0.00    -0.345 N 
HETATM   21  C9  UNL     1      52.125  47.407  32.930  1.00  0.00     0.292 C 
HETATM   22  C12 UNL     1      50.910  49.413  33.987  1.00  0.00     0.151 C 
HETATM   23  O3  UNL     1      53.217  46.772  32.819  1.00  0.00    -0.267 OA
BRANCH  21  24
HETATM   24  C10 UNL     1      50.920  46.914  32.196  1.00  0.00     0.319 C 
HETATM   25  C11 UNL     1      51.097  45.457  31.850  1.00  0.00     0.101 C 
HETATM   26  F1  UNL     1      49.782  47.020  32.971  1.00  0.00    -0.196 F 
HETATM   27  F2  UNL     1      50.743  47.615  31.034  1.00  0.00    -0.196 F 
ENDBRANCH  21  24
ENDBRANCH   3  17
TORSDOF 6
ENDMDL
MODEL 4
REMARK VINA RESULT: -7.159427806      1.297      1.771
REMARK  6 active torsions:
REMARK  status: ('A' for Active; 'I' for Inactive)
REMARK       I    between atoms: N1_2  and  C2_3 
REMARK    1  A    between atoms: N1_2  and  C13_22 
REMARK    2  A    between atoms: C2_3  and  C3_5 
REMARK    3  A    between atoms: C3_5  and  C4_6 
REMARK    4  A    between atoms: C4_6  and  C5_7 
REMARK       I    between atoms: C5_7  and  N2_9 
REMARK    5  A    between atoms: N2_9  and  C6_11 
REMARK       I    between atoms: N3_14  and  C9_15 
REMARK    6  A    between atoms: C9_15  and  C10_17 
ROOT
HETATM    1  C5  UNL     1      51.590  49.508  33.700  1.00  0.00     0.218 C 
HETATM    2  O2  UNL     1      51.766  50.655  33.220  1.00  0.00    -0.274 OA
HETATM    3  N2  UNL     1      50.577  49.328  34.668  1.00  0.00    -0.355 N 
ATOM      4  H2  UNL     1      50.418  48.404  35.069  1.00  0.00     0.162 HD
ENDROOT
BRANCH   1   5
HETATM    5  C4  UNL     1      52.406  48.367  33.280  1.00  0.00     0.112 C 
BRANCH   5   6
HETATM    6  C3  UNL     1      53.826  48.776  33.050  1.00  0.00     0.112 C 
BRANCH   6   7
HETATM    7  C2  UNL     1      54.721  47.654  33.404  1.00  0.00     0.220 C 
HETATM    8  N1  UNL     1      55.304  47.529  34.709  1.00  0.00    -0.352 N 
HETATM    9  C1  UNL     1      55.057  48.486  35.758  1.00  0.00     0.153 C 
HETATM   10  O1  UNL     1      54.952  46.807  32.511  1.00  0.00    -0.273 OA
BRANCH   8  11
HETATM   11  C13 UNL     1      56.156  46.420  34.977  1.00  0.00     0.086 C 
HETATM   12  C14 UNL     1      55.998  45.859  36.368  1.00  0.00     0.025 C 
HETATM   13  C15 UNL     1      57.045  44.741  36.490  1.00  0.00     0.002 C 
HETATM   14  C16 UNL     1      58.362  45.475  36.771  1.00  0.00     0.000 C 
HETATM   15  C17 UNL     1      58.364  46.835  36.109  1.00  0.00     0.002 C 
HETATM   16  C18 UNL     1      57.603  46.830  34.804  1.00  0.00     0.025 C 
ENDBRANCH   8  11
ENDBRANCH   6   7
ENDBRANCH   5   6
ENDBRANCH   1   5
BRANCH   3  17
HETATM   17  C6  UNL     1      49.768  50.438  35.092  1.00  0.00     0.104 C 
HETATM   18  C7  UNL     1      48.369  50.370  34.491  1.00  0.00     0.046 C 
HETATM   19  C8  UNL     1      47.588  51.176  35.538  1.00  0.00     0.128 C 
HETATM   20  N3  UNL     1      48.076  50.562  36.752  1.00  0.00    -0.345 N 
HETATM   21  C9  UNL     1      47.282  50.183  37.858  1.00  0.00     0.292 C 
HETATM   22  C12 UNL     1      49.501  50.432  36.583  1.00  0.00     0.151 C 
HETATM   23  O3  UNL     1      46.028  50.371  37.844  1.00  0.00    -0.267 OA
BRANCH  21  24
HETATM   24  C10 UNL     1      47.908  49.554  39.061  1.00  0.00     0.319 C 
HETATM   25  C11 UNL     1      46.846  48.876  39.890  1.00  0.00     0.101 C 
HETATM   26  F1  UNL     1      48.830  48.592  38.702  1.00  0.00    -0.196 F 
HETATM   27  F2  UNL     1      48.520  50.502  39.836  1.00  0.00    -0.196 F 
ENDBRANCH  21  24
ENDBRANCH   3  17
TORSDOF 6
ENDMDL
MODEL 5
REMARK VINA RESULT: -7.132338992      1.209      1.555
REMARK  6 active torsions:
REMARK  status: ('A' for Active; 'I' for Inactive)
REMARK       I    between atoms: N1_2  and  C2_3 
REMARK    1  A    between atoms: N1_2  and  C13_22 
REMARK    2  A    between atoms: C2_3  and  C3_5 
REMARK    3  A    between atoms: C3_5  and  C4_6 
REMARK    4  A    between atoms: C4_6  and  C5_7 
REMARK       I    between atoms: C5_7  and  N2_9 
REMARK    5  A    between atoms: N2_9  and  C6_11 
REMARK       I    between atoms: N3_14  and  C9_15 
REMARK    6  A    between atoms: C9_15  and  C10_17 
ROOT
HETATM    1  C5  UNL     1      52.470  50.039  35.258  1.00  0.00     0.218 C 
HETATM    2  O2  UNL     1      52.862  51.132  35.733  1.00  0.00    -0.274 OA
HETATM    3  N2  UNL     1      51.081  49.825  35.108  1.00  0.00    -0.355 N 
ATOM      4  H2  UNL     1      50.743  48.943  34.723  1.00  0.00     0.162 HD
ENDROOT
BRANCH   1   5
HETATM    5  C4  UNL     1      53.413  48.992  34.860  1.00  0.00     0.112 C 
BRANCH   5   6
HETATM    6  C3  UNL     1      54.264  48.568  36.015  1.00  0.00     0.112 C 
BRANCH   6   7
HETATM    7  C2  UNL     1      55.681  48.538  35.592  1.00  0.00     0.220 C 
HETATM    8  N1  UNL     1      56.337  47.319  35.217  1.00  0.00    -0.352 N 
HETATM    9  C1  UNL     1      55.662  46.046  35.228  1.00  0.00     0.153 C 
HETATM   10  O1  UNL     1      56.292  49.632  35.574  1.00  0.00    -0.273 OA
BRANCH   8  11
HETATM   11  C13 UNL     1      57.704  47.369  34.820  1.00  0.00     0.086 C 
HETATM   12  C14 UNL     1      57.952  46.823  33.437  1.00  0.00     0.025 C 
HETATM   13  C15 UNL     1      59.473  46.884  33.228  1.00  0.00     0.002 C 
HETATM   14  C16 UNL     1      60.015  45.659  33.975  1.00  0.00     0.000 C 
HETATM   15  C17 UNL     1      59.140  45.332  35.165  1.00  0.00     0.002 C 
HETATM   16  C18 UNL     1      58.551  46.573  35.791  1.00  0.00     0.025 C 
ENDBRANCH   8  11
ENDBRANCH   6   7
ENDBRANCH   5   6
ENDBRANCH   1   5
BRANCH   3  17
HETATM   17  C6  UNL     1      50.141  50.842  35.494  1.00  0.00     0.104 C 
HETATM   18  C7  UNL     1      48.830  50.709  34.727  1.00  0.00     0.046 C 
HETATM   19  C8  UNL     1      47.871  51.384  35.718  1.00  0.00     0.128 C 
HETATM   20  N3  UNL     1      48.265  50.730  36.945  1.00  0.00    -0.345 N 
HETATM   21  C9  UNL     1      47.383  50.221  37.926  1.00  0.00     0.292 C 
HETATM   22  C12 UNL     1      49.706  50.718  36.940  1.00  0.00     0.151 C 
HETATM   23  O3  UNL     1      46.128  50.316  37.772  1.00  0.00    -0.267 OA
BRANCH  21  24
HETATM   24  C10 UNL     1      47.917  49.563  39.157  1.00  0.00     0.319 C 
HETATM   25  C11 UNL     1      46.793  48.877  39.894  1.00  0.00     0.101 C 
HETATM   26  F1  UNL     1      48.856  48.600  38.845  1.00  0.00    -0.196 F 
HETATM   27  F2  UNL     1      48.479  50.489  39.993  1.00  0.00    -0.196 F 
ENDBRANCH  21  24
ENDBRANCH   3  17
TORSDOF 6
ENDMDL
