MODEL 1
REMARK VINA RESULT: -8.187988101      0.000      0.000
REMARK  7 active torsions:
REMARK  status: ('A' for Active; 'I' for Inactive)
REMARK    1  A    between atoms: O1_1  and  C1_3 
REMARK    2  A    between atoms: C1_3  and  C2_4 
REMARK    3  A    between atoms: C1_3  and  N1_11 
REMARK    4  A    between atoms: N1_11  and  C7_12 
REMARK    5  A    between atoms: N1_11  and  C11_19 
REMARK    6  A    between atoms: N3_22  and  C14_23 
REMARK    7  A    between atoms: C14_23  and  C15_24 
ROOT
HETATM    1  N1  UNL     1      49.113  50.513  36.232  1.00  0.00    -0.352 N 
ENDROOT
BRANCH   1   2
HETATM    2  C1  UNL     1      48.751  50.645  37.565  1.00  0.00     0.118 C 
BRANCH   2   3
HETATM    3  O1  UNL     1      48.942  51.915  37.967  1.00  0.00    -0.349 OA
ATOM      4  H1  UNL     1      48.595  52.528  37.329  1.00  0.00     0.219 HD
ENDBRANCH   2   3
BRANCH   2   5
HETATM    5  C2  UNL     1      48.237  49.849  38.628  1.00  0.00     0.066 C 
HETATM    6  C3  UNL     1      46.897  49.208  38.579  1.00  0.00     0.019 C 
HETATM    7  C4  UNL     1      47.028  48.300  39.825  1.00  0.00     0.080 C 
HETATM    8  C5  UNL     1      47.747  49.173  40.805  1.00  0.00     0.244 C 
HETATM    9  F1  UNL     1      46.869  49.556  41.786  1.00  0.00    -0.206 F 
HETATM   10  F2  UNL     1      48.785  48.494  41.414  1.00  0.00    -0.206 F 
HETATM   11  C6  UNL     1      48.277  50.392  40.032  1.00  0.00     0.091 C 
ENDBRANCH   2   5
ENDBRANCH   1   2
BRANCH   1  12
HETATM   12  C7  UNL     1      48.286  50.561  35.100  1.00  0.00     0.113 C 
HETATM   13  C8  UNL     1      47.689  51.862  34.674  1.00  0.00     0.054 C 
HETATM   14  C9  UNL     1      46.695  51.337  33.606  1.00  0.00     0.234 C 
HETATM   15  N2  UNL     1      46.067  50.261  34.347  1.00  0.00    -0.073 N 
HETATM   16  C10 UNL     1      47.160  49.562  34.991  1.00  0.00     0.257 C 
ATOM     17  H22 UNL     1      45.339  50.572  34.990  1.00  0.00     0.277 HD
ATOM     18  H21 UNL     1      45.470  49.661  33.777  1.00  0.00     0.277 HD
ENDBRANCH   1  12
BRANCH   1  19
HETATM   19  C11 UNL     1      50.553  50.294  35.979  1.00  0.00     0.116 C 
HETATM   20  C12 UNL     1      50.866  49.689  34.663  1.00  0.00     0.057 C 
HETATM   21  C13 UNL     1      52.385  49.911  34.594  1.00  0.00     0.274 C 
HETATM   22  N3  UNL     1      52.582  51.170  35.193  1.00  0.00     0.090 N 
HETATM   23  C21 UNL     1      51.331  51.578  35.866  1.00  0.00     0.297 C 
BRANCH  22  24
HETATM   24  C14 UNL     1      53.695  51.384  36.042  1.00  0.00     0.277 C 
BRANCH  24  25
HETATM   25  C15 UNL     1      55.037  51.413  35.431  1.00  0.00     0.014 C 
HETATM   26  C16 UNL     1      55.778  52.585  36.107  1.00  0.00     0.006 C 
HETATM   27  C17 UNL     1      57.159  52.792  35.661  1.00  0.00     0.000 C 
HETATM   28  C18 UNL     1      57.954  51.580  35.328  1.00  0.00     0.000 C 
HETATM   29  C19 UNL     1      57.156  50.379  34.957  1.00  0.00     0.000 C 
HETATM   30  C20 UNL     1      55.873  50.219  35.785  1.00  0.00     0.006 C 
ENDBRANCH  24  25
ENDBRANCH  22  24
ENDBRANCH   1  19
TORSDOF 7
ENDMDL
MODEL 2
REMARK VINA RESULT: -7.927586000      2.324      3.484
REMARK  7 active torsions:
REMARK  status: ('A' for Active; 'I' for Inactive)
REMARK    1  A    between atoms: O1_1  and  C1_3 
REMARK    2  A    between atoms: C1_3  and  C2_4 
REMARK    3  A    between atoms: C1_3  and  N1_11 
REMARK    4  A    between atoms: N1_11  and  C7_12 
REMARK    5  A    between atoms: N1_11  and  C11_19 
REMARK    6  A    between atoms: N3_22  and  C14_23 
REMARK    7  A    between atoms: C14_23  and  C15_24 
ROOT
HETATM    1  N1  UNL     1      48.521  51.302  35.719  1.00  0.00    -0.352 N 
ENDROOT
BRANCH   1   2
HETATM    2  C1  UNL     1      48.384  51.303  37.100  1.00  0.00     0.118 C 
BRANCH   2   3
HETATM    3  O1  UNL     1      48.569  52.548  37.577  1.00  0.00    -0.349 OA
ATOM      4  H1  UNL     1      48.339  53.198  36.924  1.00  0.00     0.219 HD
ENDBRANCH   2   3
BRANCH   2   5
HETATM    5  C2  UNL     1      48.102  50.391  38.157  1.00  0.00     0.066 C 
HETATM    6  C3  UNL     1      46.850  49.596  38.223  1.00  0.00     0.019 C 
HETATM    7  C4  UNL     1      47.240  48.641  39.377  1.00  0.00     0.080 C 
HETATM    8  C5  UNL     1      47.973  49.539  40.323  1.00  0.00     0.244 C 
HETATM    9  F1  UNL     1      47.188  49.756  41.427  1.00  0.00    -0.206 F 
HETATM   10  F2  UNL     1      49.150  48.959  40.755  1.00  0.00    -0.206 F 
HETATM   11  C6  UNL     1      48.258  50.855  39.581  1.00  0.00     0.091 C 
ENDBRANCH   2   5
ENDBRANCH   1   2
BRANCH   1  12
HETATM   12  C7  UNL     1      47.518  51.442  34.748  1.00  0.00     0.113 C 
HETATM   13  C8  UNL     1      47.767  52.285  33.541  1.00  0.00     0.054 C 
HETATM   14  C9  UNL     1      46.326  52.327  32.970  1.00  0.00     0.234 C 
HETATM   15  N2  UNL     1      45.585  52.671  34.167  1.00  0.00    -0.073 N 
HETATM   16  C10 UNL     1      46.126  51.813  35.202  1.00  0.00     0.257 C 
ATOM     17  H22 UNL     1      45.611  53.664  34.399  1.00  0.00     0.277 HD
ATOM     18  H21 UNL     1      44.573  52.602  34.061  1.00  0.00     0.277 HD
ENDBRANCH   1  12
BRANCH   1  19
HETATM   19  C11 UNL     1      49.899  51.132  35.213  1.00  0.00     0.116 C 
HETATM   20  C12 UNL     1      50.959  51.643  36.115  1.00  0.00     0.057 C 
HETATM   21  C13 UNL     1      52.211  51.026  35.472  1.00  0.00     0.274 C 
HETATM   22  N3  UNL     1      51.789  49.755  35.036  1.00  0.00     0.090 N 
HETATM   23  C21 UNL     1      50.315  49.688  35.115  1.00  0.00     0.297 C 
BRANCH  22  24
HETATM   24  C14 UNL     1      52.243  49.246  33.795  1.00  0.00     0.277 C 
BRANCH  24  25
HETATM   25  C15 UNL     1      52.667  47.834  33.739  1.00  0.00     0.014 C 
HETATM   26  C16 UNL     1      51.806  47.184  32.637  1.00  0.00     0.006 C 
HETATM   27  C17 UNL     1      52.074  45.764  32.391  1.00  0.00     0.000 C 
HETATM   28  C18 UNL     1      53.483  45.306  32.518  1.00  0.00     0.000 C 
HETATM   29  C19 UNL     1      54.351  46.156  33.379  1.00  0.00     0.000 C 
HETATM   30  C20 UNL     1      54.069  47.658  33.238  1.00  0.00     0.006 C 
ENDBRANCH  24  25
ENDBRANCH  22  24
ENDBRANCH   1  19
TORSDOF 7
ENDMDL
MODEL 3
REMARK VINA RESULT: -7.918872949      2.956      7.360
REMARK  7 active torsions:
REMARK  status: ('A' for Active; 'I' for Inactive)
REMARK    1  A    between atoms: O1_1  and  C1_3 
REMARK    2  A    between atoms: C1_3  and  C2_4 
REMARK    3  A    between atoms: C1_3  and  N1_11 
REMARK    4  A    between atoms: N1_11  and  C7_12 
REMARK    5  A    between atoms: N1_11  and  C11_19 
REMARK    6  A    between atoms: N3_22  and  C14_23 
REMARK    7  A    between atoms: C14_23  and  C15_24 
ROOT
HETATM    1  N1  UNL     1      47.728  50.320  35.920  1.00  0.00    -0.352 N 
ENDROOT
BRANCH   1   2
HETATM    2  C1  UNL     1      47.444  49.481  36.989  1.00  0.00     0.118 C 
BRANCH   2   3
HETATM    3  O1  UNL     1      46.988  48.300  36.535  1.00  0.00    -0.349 OA
ATOM      4  H1  UNL     1      46.879  48.319  35.592  1.00  0.00     0.219 HD
ENDBRANCH   2   3
BRANCH   2   5
HETATM    5  C2  UNL     1      47.496  49.492  38.412  1.00  0.00     0.066 C 
HETATM    6  C3  UNL     1      48.572  50.177  39.174  1.00  0.00     0.019 C 
HETATM    7  C4  UNL     1      47.952  50.081  40.589  1.00  0.00     0.080 C 
HETATM    8  C5  UNL     1      47.356  48.709  40.604  1.00  0.00     0.244 C 
HETATM    9  F1  UNL     1      48.112  47.905  41.418  1.00  0.00    -0.206 F 
HETATM   10  F2  UNL     1      46.071  48.727  41.110  1.00  0.00    -0.206 F 
HETATM   11  C6  UNL     1      47.361  48.189  39.156  1.00  0.00     0.091 C 
ENDBRANCH   2   5
ENDBRANCH   1   2
BRANCH   1  12
HETATM   12  C7  UNL     1      48.942  50.953  35.613  1.00  0.00     0.113 C 
HETATM   13  C8  UNL     1      50.121  50.134  35.201  1.00  0.00     0.054 C 
HETATM   14  C9  UNL     1      51.212  51.235  35.251  1.00  0.00     0.234 C 
HETATM   15  N2  UNL     1      50.932  51.816  36.550  1.00  0.00    -0.073 N 
HETATM   16  C10 UNL     1      49.491  51.964  36.591  1.00  0.00     0.257 C 
ATOM     17  H22 UNL     1      51.315  51.284  37.332  1.00  0.00     0.277 HD
ATOM     18  H21 UNL     1      51.442  52.679  36.734  1.00  0.00     0.277 HD
ENDBRANCH   1  12
BRANCH   1  19
HETATM   19  C11 UNL     1      46.606  50.574  34.991  1.00  0.00     0.116 C 
HETATM   20  C12 UNL     1      46.239  52.002  34.839  1.00  0.00     0.057 C 
HETATM   21  C13 UNL     1      45.321  51.936  33.608  1.00  0.00     0.274 C 
HETATM   22  N3  UNL     1      45.909  50.957  32.785  1.00  0.00     0.090 N 
HETATM   23  C21 UNL     1      46.940  50.237  33.562  1.00  0.00     0.297 C 
BRANCH  22  24
HETATM   24  C14 UNL     1      45.093  50.042  32.078  1.00  0.00     0.277 C 
BRANCH  24  25
HETATM   25  C15 UNL     1      45.225  49.986  30.610  1.00  0.00     0.014 C 
HETATM   26  C16 UNL     1      45.977  48.674  30.308  1.00  0.00     0.006 C 
HETATM   27  C17 UNL     1      46.207  48.397  28.887  1.00  0.00     0.000 C 
HETATM   28  C18 UNL     1      45.143  48.812  27.933  1.00  0.00     0.000 C 
HETATM   29  C19 UNL     1      44.254  49.906  28.412  1.00  0.00     0.000 C 
HETATM   30  C20 UNL     1      43.913  49.808  29.905  1.00  0.00     0.006 C 
ENDBRANCH  24  25
ENDBRANCH  22  24
ENDBRANCH   1  19
TORSDOF 7
ENDMDL
MODEL 4
REMARK VINA RESULT: -7.829585354      2.308      7.008
REMARK  7 active torsions:
REMARK  status: ('A' for Active; 'I' for Inactive)
REMARK    1  A    between atoms: O1_1  and  C1_3 
REMARK    2  A    between atoms: C1_3  and  C2_4 
REMARK    3  A    between atoms: C1_3  and  N1_11 
REMARK    4  A    between atoms: N1_11  and  C7_12 
REMARK    5  A    between atoms: N1_11  and  C11_19 
REMARK    6  A    between atoms: N3_22  and  C14_23 
REMARK    7  A    between atoms: C14_23  and  C15_24 
ROOT
HETATM    1  N1  UNL     1      49.008  50.620  36.262  1.00  0.00    -0.352 N 
ENDROOT
BRANCH   1   2
HETATM    2  C1  UNL     1      48.726  50.695  37.619  1.00  0.00     0.118 C 
BRANCH   2   3
HETATM    3  O1  UNL     1      49.013  51.927  38.079  1.00  0.00    -0.349 OA
ATOM      4  H1  UNL     1      48.780  52.589  37.439  1.00  0.00     0.219 HD
ENDBRANCH   2   3
BRANCH   2   5
HETATM    5  C2  UNL     1      48.224  49.867  38.664  1.00  0.00     0.066 C 
HETATM    6  C3  UNL     1      46.903  49.192  38.593  1.00  0.00     0.019 C 
HETATM    7  C4  UNL     1      47.047  48.268  39.825  1.00  0.00     0.080 C 
HETATM    8  C5  UNL     1      47.733  49.143  40.825  1.00  0.00     0.244 C 
HETATM    9  F1  UNL     1      46.837  49.487  41.804  1.00  0.00    -0.206 F 
HETATM   10  F2  UNL     1      48.784  48.482  41.433  1.00  0.00    -0.206 F 
HETATM   11  C6  UNL     1      48.238  50.389  40.077  1.00  0.00     0.091 C 
ENDBRANCH   2   5
ENDBRANCH   1   2
BRANCH   1  12
HETATM   12  C7  UNL     1      50.256  50.717  35.629  1.00  0.00     0.113 C 
HETATM   13  C8  UNL     1      51.282  49.654  35.847  1.00  0.00     0.054 C 
HETATM   14  C9  UNL     1      52.500  50.351  35.186  1.00  0.00     0.234 C 
HETATM   15  N2  UNL     1      52.416  51.659  35.807  1.00  0.00    -0.073 N 
HETATM   16  C10 UNL     1      51.014  52.019  35.733  1.00  0.00     0.257 C 
ATOM     17  H22 UNL     1      52.802  51.694  36.750  1.00  0.00     0.277 HD
ATOM     18  H21 UNL     1      53.043  52.351  35.397  1.00  0.00     0.277 HD
ENDBRANCH   1  12
BRANCH   1  19
HETATM   19  C11 UNL     1      47.842  50.411  35.378  1.00  0.00     0.116 C 
HETATM   20  C12 UNL     1      46.845  51.508  35.396  1.00  0.00     0.057 C 
HETATM   21  C13 UNL     1      45.989  51.144  34.173  1.00  0.00     0.274 C 
HETATM   22  N3  UNL     1      46.914  50.640  33.236  1.00  0.00     0.090 N 
HETATM   23  C21 UNL     1      48.206  50.414  33.916  1.00  0.00     0.297 C 
BRANCH  22  24
HETATM   24  C14 UNL     1      46.573  49.525  32.433  1.00  0.00     0.277 C 
BRANCH  24  25
HETATM   25  C15 UNL     1      46.026  49.782  31.088  1.00  0.00     0.014 C 
HETATM   26  C16 UNL     1      46.364  48.528  30.255  1.00  0.00     0.006 C 
HETATM   27  C17 UNL     1      45.892  48.553  28.867  1.00  0.00     0.000 C 
HETATM   28  C18 UNL     1      44.587  49.218  28.605  1.00  0.00     0.000 C 
HETATM   29  C19 UNL     1      44.175  50.227  29.619  1.00  0.00     0.000 C 
HETATM   30  C20 UNL     1      44.527  49.827  31.059  1.00  0.00     0.006 C 
ENDBRANCH  24  25
ENDBRANCH  22  24
ENDBRANCH   1  19
TORSDOF 7
ENDMDL
MODEL 5
REMARK VINA RESULT: -7.663678138      2.138      6.132
REMARK  7 active torsions:
REMARK  status: ('A' for Active; 'I' for Inactive)
REMARK    1  A    between atoms: O1_1  and  C1_3 
REMARK    2  A    between atoms: C1_3  and  C2_4 
REMARK    3  A    between atoms: C1_3  and  N1_11 
REMARK    4  A    between atoms: N1_11  and  C7_12 
REMARK    5  A    between atoms: N1_11  and  C11_19 
REMARK    6  A    between atoms: N3_22  and  C14_23 
REMARK    7  A    between atoms: C14_23  and  C15_24 
ROOT
HETATM    1  N1  UNL     1      49.122  50.657  36.299  1.00  0.00    -0.352 N 
ENDROOT
BRANCH   1   2
HETATM    2  C1  UNL     1      48.810  50.711  37.650  1.00  0.00     0.118 C 
BRANCH   2   3
HETATM    3  O1  UNL     1      49.093  51.934  38.136  1.00  0.00    -0.349 OA
ATOM      4  H1  UNL     1      49.045  51.940  39.084  1.00  0.00     0.219 HD
ENDBRANCH   2   3
BRANCH   2   5
HETATM    5  C2  UNL     1      48.278  49.870  38.669  1.00  0.00     0.066 C 
HETATM    6  C3  UNL     1      46.963  49.190  38.548  1.00  0.00     0.019 C 
HETATM    7  C4  UNL     1      47.073  48.253  39.775  1.00  0.00     0.080 C 
HETATM    8  C5  UNL     1      47.723  49.120  40.805  1.00  0.00     0.244 C 
HETATM    9  F1  UNL     1      46.794  49.449  41.759  1.00  0.00    -0.206 F 
HETATM   10  F2  UNL     1      48.756  48.458  41.439  1.00  0.00    -0.206 F 
HETATM   11  C6  UNL     1      48.245  50.376  40.087  1.00  0.00     0.091 C 
ENDBRANCH   2   5
ENDBRANCH   1   2
BRANCH   1  12
HETATM   12  C7  UNL     1      50.387  50.744  35.697  1.00  0.00     0.113 C 
HETATM   13  C8  UNL     1      51.379  49.645  35.895  1.00  0.00     0.054 C 
HETATM   14  C9  UNL     1      52.630  50.334  35.289  1.00  0.00     0.234 C 
HETATM   15  N2  UNL     1      52.567  51.617  35.960  1.00  0.00    -0.073 N 
HETATM   16  C10 UNL     1      51.178  52.019  35.870  1.00  0.00     0.257 C 
ATOM     17  H22 UNL     1      52.932  51.605  36.912  1.00  0.00     0.277 HD
ATOM     18  H21 UNL     1      53.221  52.308  35.592  1.00  0.00     0.277 HD
ENDBRANCH   1  12
BRANCH   1  19
HETATM   19  C11 UNL     1      47.975  50.484  35.383  1.00  0.00     0.116 C 
HETATM   20  C12 UNL     1      47.007  51.606  35.383  1.00  0.00     0.057 C 
HETATM   21  C13 UNL     1      46.174  51.272  34.136  1.00  0.00     0.274 C 
HETATM   22  N3  UNL     1      47.109  50.751  33.220  1.00  0.00     0.090 N 
HETATM   23  C21 UNL     1      48.377  50.487  33.932  1.00  0.00     0.297 C 
BRANCH  22  24
HETATM   24  C14 UNL     1      46.761  49.651  32.401  1.00  0.00     0.277 C 
BRANCH  24  25
HETATM   25  C15 UNL     1      47.370  48.342  32.703  1.00  0.00     0.014 C 
HETATM   26  C16 UNL     1      46.376  47.625  33.639  1.00  0.00     0.006 C 
HETATM   27  C17 UNL     1      46.772  46.278  34.060  1.00  0.00     0.000 C 
HETATM   28  C18 UNL     1      47.501  45.444  33.067  1.00  0.00     0.000 C 
HETATM   29  C19 UNL     1      48.214  46.202  32.002  1.00  0.00     0.000 C 
HETATM   30  C20 UNL     1      47.443  47.435  31.510  1.00  0.00     0.006 C 
ENDBRANCH  24  25
ENDBRANCH  22  24
ENDBRANCH   1  19
TORSDOF 7
ENDMDL
