MODEL 1
REMARK VINA RESULT: -6.961590629      0.000      0.000
REMARK  6 active torsions:
REMARK  status: ('A' for Active; 'I' for Inactive)
REMARK    1  A    between atoms: C8_8  and  S1_9 
REMARK    2  A    between atoms: S1_9  and  C9_10 
REMARK    3  A    between atoms: C9_10  and  C10_11 
REMARK    4  A    between atoms: C10_11  and  C11_16 
REMARK    5  A    between atoms: N1_12  and  O1_14 
REMARK    6  A    between atoms: C16_21  and  N2_22 
ROOT
HETATM    1  C10 UNL     1      20.841  18.390  62.703  1.00  0.00     0.053 C 
HETATM    2  N1  UNL     1      21.457  19.045  63.587  1.00  0.00    -0.272 N 
ATOM      3  H1  UNL     1      21.330  18.728  64.548  1.00  0.00     0.194 HD
ENDROOT
BRANCH   1   4
HETATM    4  C9  UNL     1      20.949  18.758  61.269  1.00  0.00     0.136 C 
BRANCH   4   5
HETATM    5  S1  UNL     1      21.956  17.608  60.321  1.00  0.00    -0.131 SA
BRANCH   5   6
HETATM    6  C8  UNL     1      23.647  18.253  60.240  1.00  0.00     0.184 C 
HETATM    7  C7  UNL     1      24.558  17.086  59.937  1.00  0.00     0.051 C 
HETATM    8  C4  UNL     1      26.008  17.423  60.014  1.00  0.00    -0.042 C 
HETATM    9  C3  UNL     1      26.142  18.841  60.510  1.00  0.00     0.040 C 
HETATM   10  C5  UNL     1      26.658  17.353  58.652  1.00  0.00     0.015 C 
HETATM   11  C6  UNL     1      26.761  16.507  60.948  1.00  0.00     0.015 C 
HETATM   12  C2  UNL     1      25.244  19.141  61.665  1.00  0.00     0.119 C 
HETATM   13  C1  UNL     1      25.480  20.579  62.082  1.00  0.00     0.039 C 
HETATM   14  O3  UNL     1      23.922  18.853  61.455  1.00  0.00    -0.371 OA
ENDBRANCH   5   6
ENDBRANCH   4   5
ENDBRANCH   1   4
BRANCH   1  15
HETATM   15  C11 UNL     1      19.984  17.230  63.074  1.00  0.00     0.018 A 
HETATM   16  C12 UNL     1      18.616  17.389  63.002  1.00  0.00     0.016 A 
HETATM   17  C13 UNL     1      17.737  16.362  63.269  1.00  0.00     0.001 A 
HETATM   18  C14 UNL     1      18.257  15.132  63.620  1.00  0.00     0.002 A 
HETATM   19  C15 UNL     1      19.625  14.981  63.691  1.00  0.00     0.032 A 
HETATM   20  C16 UNL     1      20.518  16.035  63.419  1.00  0.00     0.069 A 
BRANCH  20  21
HETATM   21  N2  UNL     1      21.886  15.715  63.599  1.00  0.00    -0.256 N 
HETATM   22  C17 UNL     1      22.808  14.626  63.376  1.00  0.00     0.185 C 
HETATM   23  C18 UNL     1      23.806  15.780  63.179  1.00  0.00     0.223 C 
HETATM   24  O2  UNL     1      22.963  16.421  64.101  1.00  0.00    -0.276 OA
ENDBRANCH  20  21
ENDBRANCH   1  15
BRANCH   2  25
HETATM   25  O1  UNL     1      22.249  20.093  63.422  1.00  0.00    -0.290 OA
ATOM     26  H1  UNL     1      23.198  20.111  63.400  1.00  0.00     0.244 HD
ENDBRANCH   2  25
TORSDOF 6
ENDMDL
MODEL 2
REMARK VINA RESULT: -6.848369259      2.968      7.135
REMARK  6 active torsions:
REMARK  status: ('A' for Active; 'I' for Inactive)
REMARK    1  A    between atoms: C8_8  and  S1_9 
REMARK    2  A    between atoms: S1_9  and  C9_10 
REMARK    3  A    between atoms: C9_10  and  C10_11 
REMARK    4  A    between atoms: C10_11  and  C11_16 
REMARK    5  A    between atoms: N1_12  and  O1_14 
REMARK    6  A    between atoms: C16_21  and  N2_22 
ROOT
HETATM    1  C10 UNL     1      23.440  14.595  62.555  1.00  0.00     0.053 C 
HETATM    2  N1  UNL     1      23.229  13.356  62.446  1.00  0.00    -0.272 N 
ATOM      3  H1  UNL     1      23.612  12.909  61.614  1.00  0.00     0.194 HD
ENDROOT
BRANCH   1   4
HETATM    4  C9  UNL     1      22.930  15.355  63.723  1.00  0.00     0.136 C 
BRANCH   4   5
HETATM    5  S1  UNL     1      21.622  16.512  63.293  1.00  0.00    -0.131 SA
BRANCH   5   6
HETATM    6  C8  UNL     1      20.078  15.587  63.087  1.00  0.00     0.184 C 
HETATM    7  C7  UNL     1      19.012  16.310  63.878  1.00  0.00     0.051 C 
HETATM    8  C4  UNL     1      17.719  15.572  63.954  1.00  0.00    -0.042 C 
HETATM    9  C3  UNL     1      17.902  14.223  63.305  1.00  0.00     0.040 C 
HETATM   10  C5  UNL     1      16.630  16.298  63.199  1.00  0.00     0.015 C 
HETATM   11  C6  UNL     1      17.257  15.370  65.377  1.00  0.00     0.015 C 
HETATM   12  C2  UNL     1      19.170  13.548  63.711  1.00  0.00     0.119 C 
HETATM   13  C1  UNL     1      19.232  12.205  63.013  1.00  0.00     0.039 C 
HETATM   14  O3  UNL     1      20.302  14.298  63.534  1.00  0.00    -0.371 OA
ENDBRANCH   5   6
ENDBRANCH   4   5
ENDBRANCH   1   4
BRANCH   1  15
HETATM   15  C11 UNL     1      24.205  15.331  61.510  1.00  0.00     0.018 A 
HETATM   16  C12 UNL     1      23.574  16.369  60.859  1.00  0.00     0.016 A 
HETATM   17  C13 UNL     1      24.212  17.149  59.919  1.00  0.00     0.001 A 
HETATM   18  C14 UNL     1      25.531  16.870  59.626  1.00  0.00     0.002 A 
HETATM   19  C15 UNL     1      26.155  15.830  60.280  1.00  0.00     0.032 A 
HETATM   20  C16 UNL     1      25.498  15.036  61.239  1.00  0.00     0.069 A 
BRANCH  20  21
HETATM   21  N2  UNL     1      26.275  13.975  61.764  1.00  0.00    -0.256 N 
HETATM   22  C17 UNL     1      27.339  13.080  61.370  1.00  0.00     0.185 C 
HETATM   23  C18 UNL     1      27.697  13.176  62.863  1.00  0.00     0.223 C 
HETATM   24  O2  UNL     1      26.310  13.349  62.996  1.00  0.00    -0.276 OA
ENDBRANCH  20  21
ENDBRANCH   1  15
BRANCH   2  25
HETATM   25  O1  UNL     1      22.570  12.566  63.279  1.00  0.00    -0.290 OA
ATOM     26  H1  UNL     1      21.939  11.888  63.066  1.00  0.00     0.244 HD
ENDBRANCH   2  25
TORSDOF 6
ENDMDL
MODEL 3
REMARK VINA RESULT: -6.834980507      2.126      6.773
REMARK  6 active torsions:
REMARK  status: ('A' for Active; 'I' for Inactive)
REMARK    1  A    between atoms: C8_8  and  S1_9 
REMARK    2  A    between atoms: S1_9  and  C9_10 
REMARK    3  A    between atoms: C9_10  and  C10_11 
REMARK    4  A    between atoms: C10_11  and  C11_16 
REMARK    5  A    between atoms: N1_12  and  O1_14 
REMARK    6  A    between atoms: C16_21  and  N2_22 
ROOT
HETATM    1  C10 UNL     1      21.745  18.563  60.444  1.00  0.00     0.053 C 
HETATM    2  N1  UNL     1      21.520  19.016  59.289  1.00  0.00    -0.272 N 
ATOM      3  H1  UNL     1      22.284  18.930  58.618  1.00  0.00     0.194 HD
ENDROOT
BRANCH   1   4
HETATM    4  C9  UNL     1      20.709  18.633  61.504  1.00  0.00     0.136 C 
BRANCH   4   5
HETATM    5  S1  UNL     1      21.084  17.594  62.924  1.00  0.00    -0.131 SA
BRANCH   5   6
HETATM    6  C8  UNL     1      19.903  16.221  62.962  1.00  0.00     0.184 C 
HETATM    7  C7  UNL     1      18.695  16.688  63.741  1.00  0.00     0.051 C 
HETATM    8  C4  UNL     1      17.704  15.609  64.015  1.00  0.00    -0.042 C 
HETATM    9  C3  UNL     1      18.277  14.302  63.527  1.00  0.00     0.040 C 
HETATM   10  C5  UNL     1      16.414  15.849  63.267  1.00  0.00     0.015 C 
HETATM   11  C6  UNL     1      17.385  15.482  65.486  1.00  0.00     0.015 C 
HETATM   12  C2  UNL     1      19.709  14.114  63.908  1.00  0.00     0.119 C 
HETATM   13  C1  UNL     1      20.163  12.768  63.381  1.00  0.00     0.039 C 
HETATM   14  O3  UNL     1      20.539  15.140  63.547  1.00  0.00    -0.371 OA
ENDBRANCH   5   6
ENDBRANCH   4   5
ENDBRANCH   1   4
BRANCH   1  15
HETATM   15  C11 UNL     1      23.060  17.948  60.777  1.00  0.00     0.018 A 
HETATM   16  C12 UNL     1      23.206  16.591  60.581  1.00  0.00     0.016 A 
HETATM   17  C13 UNL     1      24.398  15.936  60.803  1.00  0.00     0.001 A 
HETATM   18  C14 UNL     1      25.479  16.677  61.237  1.00  0.00     0.002 A 
HETATM   19  C15 UNL     1      25.325  18.032  61.431  1.00  0.00     0.032 A 
HETATM   20  C16 UNL     1      24.105  18.695  61.203  1.00  0.00     0.069 A 
BRANCH  20  21
HETATM   21  N2  UNL     1      24.114  20.078  61.512  1.00  0.00    -0.256 N 
HETATM   22  C17 UNL     1      24.711  21.311  61.055  1.00  0.00     0.185 C 
HETATM   23  C18 UNL     1      23.383  21.903  61.557  1.00  0.00     0.223 C 
HETATM   24  O2  UNL     1      23.465  20.837  62.467  1.00  0.00    -0.276 OA
ENDBRANCH  20  21
ENDBRANCH   1  15
BRANCH   2  25
HETATM   25  O1  UNL     1      20.415  19.590  58.839  1.00  0.00    -0.290 OA
ATOM     26  H1  UNL     1      19.729  19.202  58.309  1.00  0.00     0.244 HD
ENDBRANCH   2  25
TORSDOF 6
ENDMDL
MODEL 4
REMARK VINA RESULT: -6.744340682      2.111      6.591
REMARK  6 active torsions:
REMARK  status: ('A' for Active; 'I' for Inactive)
REMARK    1  A    between atoms: C8_8  and  S1_9 
REMARK    2  A    between atoms: S1_9  and  C9_10 
REMARK    3  A    between atoms: C9_10  and  C10_11 
REMARK    4  A    between atoms: C10_11  and  C11_16 
REMARK    5  A    between atoms: N1_12  and  O1_14 
REMARK    6  A    between atoms: C16_21  and  N2_22 
ROOT
HETATM    1  C10 UNL     1      23.394  17.606  62.171  1.00  0.00     0.053 C 
HETATM    2  N1  UNL     1      23.940  18.673  62.565  1.00  0.00    -0.272 N 
ATOM      3  H1  UNL     1      24.889  18.581  62.928  1.00  0.00     0.194 HD
ENDROOT
BRANCH   1   4
HETATM    4  C9  UNL     1      22.015  17.614  61.624  1.00  0.00     0.136 C 
BRANCH   4   5
HETATM    5  S1  UNL     1      20.757  17.851  62.888  1.00  0.00    -0.131 SA
BRANCH   5   6
HETATM    6  C8  UNL     1      19.732  16.359  62.968  1.00  0.00     0.184 C 
HETATM    7  C7  UNL     1      18.504  16.701  63.781  1.00  0.00     0.051 C 
HETATM    8  C4  UNL     1      17.643  15.524  64.090  1.00  0.00    -0.042 C 
HETATM    9  C3  UNL     1      18.339  14.282  63.591  1.00  0.00     0.040 C 
HETATM   10  C5  UNL     1      16.314  15.618  63.379  1.00  0.00     0.015 C 
HETATM   11  C6  UNL     1      17.383  15.376  65.570  1.00  0.00     0.015 C 
HETATM   12  C2  UNL     1      19.793  14.252  63.931  1.00  0.00     0.119 C 
HETATM   13  C1  UNL     1      20.373  12.958  63.398  1.00  0.00     0.039 C 
HETATM   14  O3  UNL     1      20.497  15.359  63.539  1.00  0.00    -0.371 OA
ENDBRANCH   5   6
ENDBRANCH   4   5
ENDBRANCH   1   4
BRANCH   1  15
HETATM   15  C11 UNL     1      24.118  16.307  62.250  1.00  0.00     0.018 A 
HETATM   16  C12 UNL     1      23.800  15.452  63.283  1.00  0.00     0.016 A 
HETATM   17  C13 UNL     1      24.370  14.204  63.413  1.00  0.00     0.001 A 
HETATM   18  C14 UNL     1      25.292  13.806  62.466  1.00  0.00     0.002 A 
HETATM   19  C15 UNL     1      25.606  14.667  61.436  1.00  0.00     0.032 A 
HETATM   20  C16 UNL     1      25.021  15.941  61.310  1.00  0.00     0.069 A 
BRANCH  20  21
HETATM   21  N2  UNL     1      25.507  16.712  60.226  1.00  0.00    -0.256 N 
HETATM   22  C17 UNL     1      26.261  17.917  59.974  1.00  0.00     0.185 C 
HETATM   23  C18 UNL     1      26.715  17.131  58.732  1.00  0.00     0.223 C 
HETATM   24  O2  UNL     1      25.438  16.561  58.854  1.00  0.00    -0.276 OA
ENDBRANCH  20  21
ENDBRANCH   1  15
BRANCH   2  25
HETATM   25  O1  UNL     1      23.434  19.896  62.565  1.00  0.00    -0.290 OA
ATOM     26  H1  UNL     1      23.752  20.661  63.030  1.00  0.00     0.244 HD
ENDBRANCH   2  25
TORSDOF 6
ENDMDL
MODEL 5
REMARK VINA RESULT: -6.729653223      1.382      2.850
REMARK  6 active torsions:
REMARK  status: ('A' for Active; 'I' for Inactive)
REMARK    1  A    between atoms: C8_8  and  S1_9 
REMARK    2  A    between atoms: S1_9  and  C9_10 
REMARK    3  A    between atoms: C9_10  and  C10_11 
REMARK    4  A    between atoms: C10_11  and  C11_16 
REMARK    5  A    between atoms: N1_12  and  O1_14 
REMARK    6  A    between atoms: C16_21  and  N2_22 
ROOT
HETATM    1  C10 UNL     1      21.749  17.448  63.285  1.00  0.00     0.053 C 
HETATM    2  N1  UNL     1      22.115  18.259  64.180  1.00  0.00    -0.272 N 
ATOM      3  H1  UNL     1      22.672  17.864  64.938  1.00  0.00     0.194 HD
ENDROOT
BRANCH   1   4
HETATM    4  C9  UNL     1      20.935  17.906  62.132  1.00  0.00     0.136 C 
BRANCH   4   5
HETATM    5  S1  UNL     1      21.703  17.556  60.544  1.00  0.00    -0.131 SA
BRANCH   5   6
HETATM    6  C8  UNL     1      23.299  18.411  60.474  1.00  0.00     0.184 C 
HETATM    7  C7  UNL     1      24.372  17.351  60.374  1.00  0.00     0.051 C 
HETATM    8  C4  UNL     1      25.758  17.889  60.488  1.00  0.00    -0.042 C 
HETATM    9  C3  UNL     1      25.672  19.361  60.805  1.00  0.00     0.040 C 
HETATM   10  C5  UNL     1      26.508  17.746  59.185  1.00  0.00     0.015 C 
HETATM   11  C6  UNL     1      26.553  17.202  61.572  1.00  0.00     0.015 C 
HETATM   12  C2  UNL     1      24.663  19.672  61.860  1.00  0.00     0.119 C 
HETATM   13  C1  UNL     1      24.682  21.168  62.103  1.00  0.00     0.039 C 
HETATM   14  O3  UNL     1      23.407  19.184  61.617  1.00  0.00    -0.371 OA
ENDBRANCH   5   6
ENDBRANCH   4   5
ENDBRANCH   1   4
BRANCH   1  15
HETATM   15  C11 UNL     1      22.121  16.009  63.363  1.00  0.00     0.018 A 
HETATM   16  C12 UNL     1      23.458  15.682  63.280  1.00  0.00     0.016 A 
HETATM   17  C13 UNL     1      23.912  14.387  63.400  1.00  0.00     0.001 A 
HETATM   18  C14 UNL     1      22.984  13.387  63.611  1.00  0.00     0.002 A 
HETATM   19  C15 UNL     1      21.649  13.721  63.691  1.00  0.00     0.032 A 
HETATM   20  C16 UNL     1      21.192  15.046  63.567  1.00  0.00     0.069 A 
BRANCH  20  21
HETATM   21  N2  UNL     1      19.784  15.195  63.616  1.00  0.00    -0.256 N 
HETATM   22  C17 UNL     1      18.708  15.246  64.579  1.00  0.00     0.185 C 
HETATM   23  C18 UNL     1      18.089  16.189  63.533  1.00  0.00     0.223 C 
HETATM   24  O2  UNL     1      18.820  15.385  62.645  1.00  0.00    -0.276 OA
ENDBRANCH  20  21
ENDBRANCH   1  15
BRANCH   2  25
HETATM   25  O1  UNL     1      21.867  19.557  64.256  1.00  0.00    -0.290 OA
ATOM     26  H1  UNL     1      21.023  19.993  64.231  1.00  0.00     0.244 HD
ENDBRANCH   2  25
TORSDOF 6
ENDMDL
