MODEL 1
REMARK VINA RESULT: -7.115517812      0.000      0.000
REMARK  4 active torsions:
REMARK  status: ('A' for Active; 'I' for Inactive)
REMARK    1  A    between atoms: N1_2  and  C1_4 
REMARK    2  A    between atoms: C6_9  and  S1_10 
REMARK    3  A    between atoms: S1_10  and  N2_11 
REMARK       I    between atoms: C7_13  and  N3_14 
REMARK       I    between atoms: C7_13  and  N4_20 
REMARK    4  A    between atoms: N3_14  and  C8_16 
ROOT
HETATM    1  N2  UNL     1      21.168  17.822  63.001  1.00  0.00    -0.160 N 
ATOM      2  H2  UNL     1      20.635  18.418  63.634  1.00  0.00     0.193 HD
HETATM    3  C7  UNL     1      21.236  18.140  61.764  1.00  0.00     0.687 C 
HETATM    4  N3  UNL     1      21.962  17.345  60.851  1.00  0.00    -0.181 N 
ATOM      5  H3  UNL     1      21.471  16.663  60.272  1.00  0.00     0.185 HD
HETATM    6  N4  UNL     1      20.578  19.298  61.297  1.00  0.00    -0.217 N 
HETATM    7  C10 UNL     1      19.189  19.487  61.595  1.00  0.00     0.141 C 
HETATM    8  C11 UNL     1      18.381  19.889  60.385  1.00  0.00     0.020 C 
HETATM    9  C12 UNL     1      19.138  20.754  59.427  1.00  0.00     0.003 C 
HETATM   10  C13 UNL     1      20.418  21.305  59.993  1.00  0.00     0.020 C 
HETATM   11  C14 UNL     1      21.338  20.253  60.532  1.00  0.00     0.141 C 
ENDROOT
BRANCH   1  12
HETATM   12  S1  UNL     1      21.966  16.385  63.653  1.00  0.00     0.004 SA
BRANCH  12  13
HETATM   13  C6  UNL     1      20.933  14.950  63.576  1.00  0.00     0.055 A 
HETATM   14  C1  UNL     1      21.518  13.725  63.334  1.00  0.00     0.121 A 
HETATM   15  C2  UNL     1      20.691  12.625  63.279  1.00  0.00     0.037 A 
HETATM   16  C3  UNL     1      19.326  12.751  63.461  1.00  0.00     0.003 A 
HETATM   17  C4  UNL     1      18.744  13.967  63.700  1.00  0.00     0.002 A 
HETATM   18  C5  UNL     1      19.570  15.070  63.756  1.00  0.00     0.023 A 
BRANCH  14  19
HETATM   19  N1  UNL     1      22.924  13.633  63.152  1.00  0.00    -0.114 N 
HETATM   20  O1  UNL     1      23.615  13.118  64.048  1.00  0.00    -0.532 OA
HETATM   21  O2  UNL     1      23.538  14.091  62.027  1.00  0.00    -0.532 OA
ENDBRANCH  14  19
ENDBRANCH  12  13
ENDBRANCH   1  12
BRANCH   4  22
HETATM   22  C8  UNL     1      23.390  17.488  60.729  1.00  0.00     0.137 A 
HETATM   23  C9  UNL     1      24.303  16.892  59.951  1.00  0.00     0.192 A 
HETATM   24  O3  UNL     1      25.321  17.523  60.406  1.00  0.00    -0.282 OA
HETATM   25  S2  UNL     1      24.545  18.434  61.482  1.00  0.00     0.055 SA
ENDBRANCH   4  22
TORSDOF 4
ENDMDL
MODEL 2
REMARK VINA RESULT: -7.062503465      2.194      6.052
REMARK  4 active torsions:
REMARK  status: ('A' for Active; 'I' for Inactive)
REMARK    1  A    between atoms: N1_2  and  C1_4 
REMARK    2  A    between atoms: C6_9  and  S1_10 
REMARK    3  A    between atoms: S1_10  and  N2_11 
REMARK       I    between atoms: C7_13  and  N3_14 
REMARK       I    between atoms: C7_13  and  N4_20 
REMARK    4  A    between atoms: N3_14  and  C8_16 
ROOT
HETATM    1  N2  UNL     1      20.638  16.467  61.726  1.00  0.00    -0.160 N 
ATOM      2  H2  UNL     1      19.792  16.428  61.158  1.00  0.00     0.193 HD
HETATM    3  C7  UNL     1      20.618  15.958  62.899  1.00  0.00     0.687 C 
HETATM    4  N3  UNL     1      21.764  15.988  63.722  1.00  0.00    -0.181 N 
ATOM      5  H3  UNL     1      21.857  16.712  64.435  1.00  0.00     0.185 HD
HETATM    6  N4  UNL     1      19.437  15.358  63.387  1.00  0.00    -0.217 N 
HETATM    7  C10 UNL     1      18.204  16.088  63.338  1.00  0.00     0.141 C 
HETATM    8  C11 UNL     1      17.444  16.038  64.641  1.00  0.00     0.020 C 
HETATM    9  C12 UNL     1      17.599  14.740  65.369  1.00  0.00     0.003 C 
HETATM   10  C13 UNL     1      18.205  13.648  64.532  1.00  0.00     0.020 C 
HETATM   11  C14 UNL     1      19.519  14.021  63.918  1.00  0.00     0.141 C 
ENDROOT
BRANCH   1  12
HETATM   12  S1  UNL     1      22.082  17.235  61.054  1.00  0.00     0.004 SA
BRANCH  12  13
HETATM   13  C6  UNL     1      21.858  18.971  60.788  1.00  0.00     0.055 A 
HETATM   14  C1  UNL     1      22.541  19.857  61.593  1.00  0.00     0.121 A 
HETATM   15  C2  UNL     1      22.347  21.202  61.365  1.00  0.00     0.037 A 
HETATM   16  C3  UNL     1      21.499  21.639  60.364  1.00  0.00     0.003 A 
HETATM   17  C4  UNL     1      20.820  20.759  59.564  1.00  0.00     0.002 A 
HETATM   18  C5  UNL     1      21.013  19.412  59.791  1.00  0.00     0.023 A 
BRANCH  14  19
HETATM   19  N1  UNL     1      23.403  19.372  62.612  1.00  0.00    -0.114 N 
HETATM   20  O1  UNL     1      24.632  19.402  62.426  1.00  0.00    -0.532 OA
HETATM   21  O2  UNL     1      22.927  18.876  63.787  1.00  0.00    -0.532 OA
ENDBRANCH  14  19
ENDBRANCH  12  13
ENDBRANCH   1  12
BRANCH   4  22
HETATM   22  C8  UNL     1      22.805  15.006  63.564  1.00  0.00     0.137 A 
HETATM   23  C9  UNL     1      24.129  15.102  63.384  1.00  0.00     0.192 A 
HETATM   24  O3  UNL     1      24.363  13.843  63.331  1.00  0.00    -0.282 OA
HETATM   25  S2  UNL     1      22.850  13.335  63.530  1.00  0.00     0.055 SA
ENDBRANCH   4  22
TORSDOF 4
ENDMDL
MODEL 3
REMARK VINA RESULT: -7.029053768      2.668      6.726
REMARK  4 active torsions:
REMARK  status: ('A' for Active; 'I' for Inactive)
REMARK    1  A    between atoms: N1_2  and  C1_4 
REMARK    2  A    between atoms: C6_9  and  S1_10 
REMARK    3  A    between atoms: S1_10  and  N2_11 
REMARK       I    between atoms: C7_13  and  N3_14 
REMARK       I    between atoms: C7_13  and  N4_20 
REMARK    4  A    between atoms: N3_14  and  C8_16 
ROOT
HETATM    1  N2  UNL     1      23.528  17.757  63.368  1.00  0.00    -0.160 N 
ATOM      2  H2  UNL     1      24.426  18.052  63.752  1.00  0.00     0.193 HD
HETATM    3  C7  UNL     1      23.451  16.623  62.781  1.00  0.00     0.687 C 
HETATM    4  N3  UNL     1      22.230  16.172  62.233  1.00  0.00    -0.181 N 
ATOM      5  H3  UNL     1      22.049  16.289  61.236  1.00  0.00     0.185 HD
HETATM    6  N4  UNL     1      24.597  15.805  62.674  1.00  0.00    -0.217 N 
HETATM    7  C10 UNL     1      25.807  16.355  62.138  1.00  0.00     0.141 C 
HETATM    8  C11 UNL     1      26.440  15.468  61.094  1.00  0.00     0.020 C 
HETATM    9  C12 UNL     1      26.253  14.008  61.364  1.00  0.00     0.003 C 
HETATM   10  C13 UNL     1      25.761  13.709  62.754  1.00  0.00     0.020 C 
HETATM   11  C14 UNL     1      24.502  14.436  63.114  1.00  0.00     0.141 C 
ENDROOT
BRANCH   1  12
HETATM   12  S1  UNL     1      22.134  18.831  63.535  1.00  0.00     0.004 SA
BRANCH  12  13
HETATM   13  C6  UNL     1      21.651  19.552  61.992  1.00  0.00     0.055 A 
HETATM   14  C1  UNL     1      22.507  20.445  61.383  1.00  0.00     0.121 A 
HETATM   15  C2  UNL     1      22.105  20.992  60.183  1.00  0.00     0.037 A 
HETATM   16  C3  UNL     1      20.891  20.652  59.618  1.00  0.00     0.003 A 
HETATM   17  C4  UNL     1      20.040  19.766  60.222  1.00  0.00     0.002 A 
HETATM   18  C5  UNL     1      20.440  19.217  61.423  1.00  0.00     0.023 A 
BRANCH  14  19
HETATM   19  N1  UNL     1      23.747  20.770  61.993  1.00  0.00    -0.114 N 
HETATM   20  O1  UNL     1      23.842  21.827  62.639  1.00  0.00    -0.532 OA
HETATM   21  O2  UNL     1      24.837  19.959  61.892  1.00  0.00    -0.532 OA
ENDBRANCH  14  19
ENDBRANCH  12  13
ENDBRANCH   1  12
BRANCH   4  22
HETATM   22  C8  UNL     1      21.238  15.549  63.070  1.00  0.00     0.137 A 
HETATM   23  C9  UNL     1      21.283  14.521  63.927  1.00  0.00     0.192 A 
HETATM   24  O3  UNL     1      20.050  14.562  64.275  1.00  0.00    -0.282 OA
HETATM   25  S2  UNL     1      19.610  15.808  63.356  1.00  0.00     0.055 SA
ENDBRANCH   4  22
TORSDOF 4
ENDMDL
MODEL 4
REMARK VINA RESULT: -6.858191536      8.876     11.265
REMARK  4 active torsions:
REMARK  status: ('A' for Active; 'I' for Inactive)
REMARK    1  A    between atoms: N1_2  and  C1_4 
REMARK    2  A    between atoms: C6_9  and  S1_10 
REMARK    3  A    between atoms: S1_10  and  N2_11 
REMARK       I    between atoms: C7_13  and  N3_14 
REMARK       I    between atoms: C7_13  and  N4_20 
REMARK    4  A    between atoms: N3_14  and  C8_16 
ROOT
HETATM    1  N2  UNL     1      12.469  14.283  63.284  1.00  0.00    -0.160 N 
ATOM      2  H2  UNL     1      13.140  13.625  62.887  1.00  0.00     0.193 HD
HETATM    3  C7  UNL     1      11.219  14.026  63.180  1.00  0.00     0.687 C 
HETATM    4  N3  UNL     1      10.253  14.906  63.713  1.00  0.00    -0.181 N 
ATOM      5  H3  UNL     1       9.791  15.580  63.103  1.00  0.00     0.185 HD
HETATM    6  N4  UNL     1      10.794  12.851  62.524  1.00  0.00    -0.217 N 
HETATM    7  C10 UNL     1      11.284  12.561  61.209  1.00  0.00     0.141 C 
HETATM    8  C11 UNL     1      10.189  12.164  60.250  1.00  0.00     0.020 C 
HETATM    9  C12 UNL     1       9.083  11.393  60.900  1.00  0.00     0.003 C 
HETATM   10  C13 UNL     1       9.421  10.899  62.280  1.00  0.00     0.020 C 
HETATM   11  C14 UNL     1       9.873  11.981  63.211  1.00  0.00     0.141 C 
ENDROOT
BRANCH   1  12
HETATM   12  S1  UNL     1      13.071  15.736  64.090  1.00  0.00     0.004 SA
BRANCH  12  13
HETATM   13  C6  UNL     1      14.831  15.723  64.274  1.00  0.00     0.055 A 
HETATM   14  C1  UNL     1      15.372  15.203  65.431  1.00  0.00     0.121 A 
HETATM   15  C2  UNL     1      16.745  15.206  65.548  1.00  0.00     0.037 A 
HETATM   16  C3  UNL     1      17.543  15.712  64.540  1.00  0.00     0.003 A 
HETATM   17  C4  UNL     1      17.008  16.229  63.391  1.00  0.00     0.002 A 
HETATM   18  C5  UNL     1      15.633  16.227  63.271  1.00  0.00     0.023 A 
BRANCH  14  19
HETATM   19  N1  UNL     1      14.520  14.691  66.445  1.00  0.00    -0.114 N 
HETATM   20  O1  UNL     1      13.745  15.468  67.030  1.00  0.00    -0.532 OA
HETATM   21  O2  UNL     1      14.525  13.376  66.799  1.00  0.00    -0.532 OA
ENDBRANCH  14  19
ENDBRANCH  12  13
ENDBRANCH   1  12
BRANCH   4  22
HETATM   22  C8  UNL     1       9.912  14.859  65.111  1.00  0.00     0.137 A 
HETATM   23  C9  UNL     1      10.503  14.300  66.176  1.00  0.00     0.192 A 
HETATM   24  O3  UNL     1       9.635  14.674  67.041  1.00  0.00    -0.282 OA
HETATM   25  S2  UNL     1       8.656  15.462  66.037  1.00  0.00     0.055 SA
ENDBRANCH   4  22
TORSDOF 4
ENDMDL
MODEL 5
REMARK VINA RESULT: -6.773984154      3.747      7.397
REMARK  4 active torsions:
REMARK  status: ('A' for Active; 'I' for Inactive)
REMARK    1  A    between atoms: N1_2  and  C1_4 
REMARK    2  A    between atoms: C6_9  and  S1_10 
REMARK    3  A    between atoms: S1_10  and  N2_11 
REMARK       I    between atoms: C7_13  and  N3_14 
REMARK       I    between atoms: C7_13  and  N4_20 
REMARK    4  A    between atoms: N3_14  and  C8_16 
ROOT
HETATM    1  N2  UNL     1      24.613  18.089  62.089  1.00  0.00    -0.160 N 
ATOM      2  H2  UNL     1      25.130  18.010  62.964  1.00  0.00     0.193 HD
HETATM    3  C7  UNL     1      23.663  17.264  61.856  1.00  0.00     0.687 C 
HETATM    4  N3  UNL     1      22.919  17.333  60.659  1.00  0.00    -0.181 N 
ATOM      5  H3  UNL     1      23.154  16.717  59.880  1.00  0.00     0.185 HD
HETATM    6  N4  UNL     1      23.349  16.266  62.804  1.00  0.00    -0.217 N 
HETATM    7  C10 UNL     1      24.390  15.416  63.303  1.00  0.00     0.141 C 
HETATM    8  C11 UNL     1      24.010  13.955  63.287  1.00  0.00     0.020 C 
HETATM    9  C12 UNL     1      22.558  13.717  63.560  1.00  0.00     0.003 C 
HETATM   10  C13 UNL     1      21.839  14.924  64.098  1.00  0.00     0.020 C 
HETATM   11  C14 UNL     1      21.981  16.141  63.237  1.00  0.00     0.141 C 
ENDROOT
BRANCH   1  12
HETATM   12  S1  UNL     1      25.060  19.361  60.945  1.00  0.00     0.004 SA
BRANCH  12  13
HETATM   13  C6  UNL     1      25.661  20.814  61.757  1.00  0.00     0.055 A 
HETATM   14  C1  UNL     1      24.748  21.728  62.239  1.00  0.00     0.121 A 
HETATM   15  C2  UNL     1      25.244  22.851  62.866  1.00  0.00     0.037 A 
HETATM   16  C3  UNL     1      26.605  23.046  63.003  1.00  0.00     0.003 A 
HETATM   17  C4  UNL     1      27.513  22.139  62.524  1.00  0.00     0.002 A 
HETATM   18  C5  UNL     1      27.019  21.015  61.896  1.00  0.00     0.023 A 
BRANCH  14  19
HETATM   19  N1  UNL     1      23.357  21.495  62.080  1.00  0.00    -0.114 N 
HETATM   20  O1  UNL     1      22.774  20.753  62.889  1.00  0.00    -0.532 OA
HETATM   21  O2  UNL     1      22.640  22.059  61.068  1.00  0.00    -0.532 OA
ENDBRANCH  14  19
ENDBRANCH  12  13
ENDBRANCH   1  12
BRANCH   4  22
HETATM   22  C8  UNL     1      21.832  18.268  60.525  1.00  0.00     0.137 A 
HETATM   23  C9  UNL     1      21.452  19.090  59.539  1.00  0.00     0.192 A 
HETATM   24  O3  UNL     1      20.434  19.583  60.140  1.00  0.00    -0.282 OA
HETATM   25  S2  UNL     1      20.570  18.752  61.511  1.00  0.00     0.055 SA
ENDBRANCH   4  22
TORSDOF 4
ENDMDL
