MODEL 1
REMARK VINA RESULT: -4.282366194      0.000      0.000
REMARK  2 active torsions:
REMARK  status: ('A' for Active; 'I' for Inactive)
REMARK    1  A    between atoms: N1_1  and  C1_4 
REMARK    2  A    between atoms: C2_8  and  N3_9 
ROOT
HETATM    1  C1  UNL     1       3.241  31.629  23.280  1.00  0.00     0.699 A 
HETATM    2  N2  UNL     1       3.576  32.831  22.789  1.00  0.00    -0.088 N 
ATOM      3  H2  UNL     1       3.170  33.280  21.968  1.00  0.00     0.214 HD
HETATM    4  O1  UNL     1       4.509  33.322  23.546  1.00  0.00    -0.186 OA
HETATM    5  C2  UNL     1       4.822  32.528  24.513  1.00  0.00     0.256 A 
HETATM    6  N4  UNL     1       4.018  31.434  24.360  1.00  0.00    -0.152 N 
ATOM      7  H4  UNL     1       4.009  30.611  24.962  1.00  0.00     0.188 HD
ENDROOT
BRANCH   1   8
HETATM    8  N1  UNL     1       2.341  30.793  22.820  1.00  0.00    -0.233 N 
ATOM      9  H12 UNL     1       1.923  30.818  21.890  1.00  0.00     0.174 HD
ATOM     10  H11 UNL     1       1.919  29.999  23.302  1.00  0.00     0.174 HD
ENDBRANCH   1   8
BRANCH   5  11
HETATM   11  N3  UNL     1       5.694  32.677  25.450  1.00  0.00    -0.363 N 
ATOM     12  H32 UNL     1       6.117  31.916  25.981  1.00  0.00     0.159 HD
ATOM     13  H31 UNL     1       6.109  33.531  25.824  1.00  0.00     0.159 HD
ENDBRANCH   5  11
TORSDOF 2
ENDMDL
MODEL 2
REMARK VINA RESULT: -4.241744005      0.721      2.844
REMARK  2 active torsions:
REMARK  status: ('A' for Active; 'I' for Inactive)
REMARK    1  A    between atoms: N1_1  and  C1_4 
REMARK    2  A    between atoms: C2_8  and  N3_9 
ROOT
HETATM    1  C1  UNL     1       4.886  32.519  24.683  1.00  0.00     0.699 A 
HETATM    2  N2  UNL     1       4.591  33.429  23.744  1.00  0.00    -0.088 N 
ATOM      3  H2  UNL     1       5.020  34.349  23.642  1.00  0.00     0.214 HD
HETATM    4  O1  UNL     1       3.663  32.930  22.987  1.00  0.00    -0.186 OA
HETATM    5  C2  UNL     1       3.316  31.745  23.356  1.00  0.00     0.256 A 
HETATM    6  N4  UNL     1       4.091  31.462  24.445  1.00  0.00    -0.152 N 
ATOM      7  H4  UNL     1       4.070  30.596  24.985  1.00  0.00     0.188 HD
ENDROOT
BRANCH   1   8
HETATM    8  N1  UNL     1       5.769  32.614  25.649  1.00  0.00    -0.233 N 
ATOM      9  H12 UNL     1       6.043  33.475  26.124  1.00  0.00     0.174 HD
ATOM     10  H11 UNL     1       6.313  31.865  26.077  1.00  0.00     0.174 HD
ENDBRANCH   1   8
BRANCH   5  11
HETATM   11  N3  UNL     1       2.437  30.949  22.850  1.00  0.00    -0.363 N 
ATOM     12  H32 UNL     1       1.790  31.195  22.100  1.00  0.00     0.159 HD
ATOM     13  H31 UNL     1       2.226  29.978  23.083  1.00  0.00     0.159 HD
ENDBRANCH   5  11
TORSDOF 2
ENDMDL
MODEL 3
REMARK VINA RESULT: -4.176040448      6.355      7.107
REMARK  2 active torsions:
REMARK  status: ('A' for Active; 'I' for Inactive)
REMARK    1  A    between atoms: N1_1  and  C1_4 
REMARK    2  A    between atoms: C2_8  and  N3_9 
ROOT
HETATM    1  C1  UNL     1      -0.408  31.770  17.989  1.00  0.00     0.699 A 
HETATM    2  N2  UNL     1      -0.994  30.617  18.341  1.00  0.00    -0.088 N 
ATOM      3  H2  UNL     1      -1.147  29.811  17.735  1.00  0.00     0.214 HD
HETATM    4  O1  UNL     1      -1.331  30.709  19.590  1.00  0.00    -0.186 OA
HETATM    5  C2  UNL     1      -1.008  31.848  20.101  1.00  0.00     0.256 A 
HETATM    6  N4  UNL     1      -0.414  32.545  19.088  1.00  0.00    -0.152 N 
ATOM      7  H4  UNL     1      -0.038  33.492  19.153  1.00  0.00     0.188 HD
ENDROOT
BRANCH   1   8
HETATM    8  N1  UNL     1       0.082  32.101  16.818  1.00  0.00    -0.233 N 
ATOM      9  H12 UNL     1       0.479  33.008  16.572  1.00  0.00     0.174 HD
ATOM     10  H11 UNL     1       0.147  31.524  15.980  1.00  0.00     0.174 HD
ENDBRANCH   1   8
BRANCH   5  11
HETATM   11  N3  UNL     1      -1.183  32.293  21.298  1.00  0.00    -0.363 N 
ATOM     12  H32 UNL     1      -1.973  32.057  21.899  1.00  0.00     0.159 HD
ATOM     13  H31 UNL     1      -0.603  32.927  21.849  1.00  0.00     0.159 HD
ENDBRANCH   5  11
TORSDOF 2
ENDMDL
MODEL 4
REMARK VINA RESULT: -4.105747473      1.284      1.720
REMARK  2 active torsions:
REMARK  status: ('A' for Active; 'I' for Inactive)
REMARK    1  A    between atoms: N1_1  and  C1_4 
REMARK    2  A    between atoms: C2_8  and  N3_9 
ROOT
HETATM    1  C1  UNL     1       1.990  31.590  22.056  1.00  0.00     0.699 A 
HETATM    2  N2  UNL     1       2.624  32.738  21.778  1.00  0.00    -0.088 N 
ATOM      3  H2  UNL     1       2.403  33.378  21.015  1.00  0.00     0.214 HD
HETATM    4  O1  UNL     1       3.570  32.890  22.653  1.00  0.00    -0.186 OA
HETATM    5  C2  UNL     1       3.612  31.919  23.501  1.00  0.00     0.256 A 
HETATM    6  N4  UNL     1       2.604  31.073  23.135  1.00  0.00    -0.152 N 
ATOM      7  H4  UNL     1       2.359  30.199  23.600  1.00  0.00     0.188 HD
ENDROOT
BRANCH   1   8
HETATM    8  N1  UNL     1       0.973  31.057  21.422  1.00  0.00    -0.233 N 
ATOM      9  H12 UNL     1       0.982  30.710  20.463  1.00  0.00     0.174 HD
ATOM     10  H11 UNL     1       0.027  30.902  21.772  1.00  0.00     0.174 HD
ENDBRANCH   1   8
BRANCH   5  11
HETATM   11  N3  UNL     1       4.407  31.732  24.498  1.00  0.00    -0.363 N 
ATOM     12  H32 UNL     1       5.128  31.011  24.542  1.00  0.00     0.159 HD
ATOM     13  H31 UNL     1       4.471  32.234  25.384  1.00  0.00     0.159 HD
ENDBRANCH   5  11
TORSDOF 2
ENDMDL
MODEL 5
REMARK VINA RESULT: -4.072604850      1.472      3.278
REMARK  2 active torsions:
REMARK  status: ('A' for Active; 'I' for Inactive)
REMARK    1  A    between atoms: N1_1  and  C1_4 
REMARK    2  A    between atoms: C2_8  and  N3_9 
ROOT
HETATM    1  C1  UNL     1       3.673  31.780  23.475  1.00  0.00     0.699 A 
HETATM    2  N2  UNL     1       3.882  32.583  22.421  1.00  0.00    -0.088 N 
ATOM      3  H2  UNL     1       4.657  33.236  22.308  1.00  0.00     0.214 HD
HETATM    4  O1  UNL     1       2.922  32.381  21.573  1.00  0.00    -0.186 OA
HETATM    5  C2  UNL     1       2.083  31.494  21.987  1.00  0.00     0.256 A 
HETATM    6  N4  UNL     1       2.547  31.096  23.208  1.00  0.00    -0.152 N 
ATOM      7  H4  UNL     1       2.115  30.398  23.813  1.00  0.00     0.188 HD
ENDROOT
BRANCH   1   8
HETATM    8  N1  UNL     1       4.404  31.665  24.558  1.00  0.00    -0.233 N 
ATOM      9  H12 UNL     1       4.573  30.802  25.075  1.00  0.00     0.174 HD
ATOM     10  H11 UNL     1       4.911  32.399  25.053  1.00  0.00     0.174 HD
ENDBRANCH   1   8
BRANCH   5  11
HETATM   11  N3  UNL     1       1.017  31.041  21.419  1.00  0.00    -0.363 N 
ATOM     12  H32 UNL     1       0.951  30.763  20.440  1.00  0.00     0.159 HD
ATOM     13  H31 UNL     1       0.089  30.880  21.811  1.00  0.00     0.159 HD
ENDBRANCH   5  11
TORSDOF 2
ENDMDL
