MODEL 1
REMARK VINA RESULT: -4.787165736      0.000      0.000
REMARK  3 active torsions:
REMARK  status: ('A' for Active; 'I' for Inactive)
REMARK    1  A    between atoms: C3_4  and  N2_5 
REMARK    2  A    between atoms: N2_5  and  N3_7 
REMARK    3  A    between atoms: C4_10  and  N4_11 
ROOT
HETATM    1  C1  UNL     1       0.044  30.004  17.428  1.00  0.00     0.177 C 
HETATM    2  N1  UNL     1       0.096  30.647  18.728  1.00  0.00    -0.304 N 
HETATM    3  C2  UNL     1      -0.683  31.655  19.163  1.00  0.00     0.144 A 
HETATM    4  C3  UNL     1      -0.356  32.015  20.446  1.00  0.00     0.109 A 
HETATM    5  C4  UNL     1       0.691  31.150  20.782  1.00  0.00     0.143 A 
HETATM    6  N5  UNL     1       0.925  30.350  19.718  1.00  0.00    -0.282 N 
ATOM      7  H5  UNL     1       1.637  29.622  19.683  1.00  0.00     0.189 HD
ENDROOT
BRANCH   4   8
HETATM    8  N2  UNL     1      -0.953  33.019  21.248  1.00  0.00    -0.302 N 
ATOM      9  H2  UNL     1      -0.330  33.627  21.779  1.00  0.00     0.186 HD
BRANCH   8  10
HETATM   10  N3  UNL     1      -2.319  33.242  21.369  1.00  0.00    -0.345 N 
ATOM     11  H32 UNL     1      -2.626  33.718  22.218  1.00  0.00     0.176 HD
ATOM     12  H31 UNL     1      -3.024  32.968  20.684  1.00  0.00     0.176 HD
ENDBRANCH   8  10
ENDBRANCH   4   8
BRANCH   5  13
HETATM   13  N4  UNL     1       1.296  31.159  21.931  1.00  0.00    -0.383 N 
ATOM     14  H42 UNL     1       2.298  31.193  22.117  1.00  0.00     0.157 HD
ATOM     15  H41 UNL     1       0.812  31.131  22.829  1.00  0.00     0.157 HD
ENDBRANCH   5  13
TORSDOF 3
ENDMDL
MODEL 2
REMARK VINA RESULT: -4.741397762      2.215      3.630
REMARK  3 active torsions:
REMARK  status: ('A' for Active; 'I' for Inactive)
REMARK    1  A    between atoms: C3_4  and  N2_5 
REMARK    2  A    between atoms: N2_5  and  N3_7 
REMARK    3  A    between atoms: C4_10  and  N4_11 
ROOT
HETATM    1  C1  UNL     1       2.240  34.781  18.887  1.00  0.00     0.177 C 
HETATM    2  N1  UNL     1       1.518  33.850  19.734  1.00  0.00    -0.304 N 
HETATM    3  C2  UNL     1       2.024  32.783  20.378  1.00  0.00     0.144 A 
HETATM    4  C3  UNL     1       1.052  32.127  21.090  1.00  0.00     0.109 A 
HETATM    5  C4  UNL     1      -0.107  32.870  20.841  1.00  0.00     0.143 A 
HETATM    6  N5  UNL     1       0.225  33.892  20.022  1.00  0.00    -0.282 N 
ATOM      7  H5  UNL     1      -0.427  34.596  19.675  1.00  0.00     0.189 HD
ENDROOT
BRANCH   4   8
HETATM    8  N2  UNL     1       1.194  30.973  21.901  1.00  0.00    -0.302 N 
ATOM      9  H2  UNL     1       0.553  30.198  21.730  1.00  0.00     0.186 HD
BRANCH   8  10
HETATM   10  N3  UNL     1       2.137  30.813  22.909  1.00  0.00    -0.345 N 
ATOM     11  H32 UNL     1       2.385  29.853  23.147  1.00  0.00     0.176 HD
ATOM     12  H31 UNL     1       2.588  31.573  23.418  1.00  0.00     0.176 HD
ENDBRANCH   8  10
ENDBRANCH   4   8
BRANCH   5  13
HETATM   13  N4  UNL     1      -1.272  32.581  21.336  1.00  0.00    -0.383 N 
ATOM     14  H42 UNL     1      -1.494  31.937  22.095  1.00  0.00     0.157 HD
ATOM     15  H41 UNL     1      -2.147  32.987  21.005  1.00  0.00     0.157 HD
ENDBRANCH   5  13
TORSDOF 3
ENDMDL
MODEL 3
REMARK VINA RESULT: -4.736140895      0.802      2.510
REMARK  3 active torsions:
REMARK  status: ('A' for Active; 'I' for Inactive)
REMARK    1  A    between atoms: C3_4  and  N2_5 
REMARK    2  A    between atoms: N2_5  and  N3_7 
REMARK    3  A    between atoms: C4_10  and  N4_11 
ROOT
HETATM    1  C1  UNL     1       0.070  29.997  17.517  1.00  0.00     0.177 C 
HETATM    2  N1  UNL     1       0.057  30.690  18.792  1.00  0.00    -0.304 N 
HETATM    3  C2  UNL     1       1.049  30.731  19.700  1.00  0.00     0.144 A 
HETATM    4  C3  UNL     1       0.690  31.481  20.792  1.00  0.00     0.109 A 
HETATM    5  C4  UNL     1      -0.608  31.909  20.495  1.00  0.00     0.143 A 
HETATM    6  N5  UNL     1      -0.942  31.408  19.285  1.00  0.00    -0.282 N 
ATOM      7  H5  UNL     1      -1.836  31.560  18.818  1.00  0.00     0.189 HD
ENDROOT
BRANCH   4   8
HETATM    8  N2  UNL     1       1.464  31.768  21.945  1.00  0.00    -0.302 N 
ATOM      9  H2  UNL     1       1.650  32.748  22.152  1.00  0.00     0.186 HD
BRANCH   8  10
HETATM   10  N3  UNL     1       1.989  30.819  22.814  1.00  0.00    -0.345 N 
ATOM     11  H32 UNL     1       2.560  30.087  22.392  1.00  0.00     0.176 HD
ATOM     12  H31 UNL     1       1.846  30.804  23.824  1.00  0.00     0.176 HD
ENDBRANCH   8  10
ENDBRANCH   4   8
BRANCH   5  13
HETATM   13  N4  UNL     1      -1.321  32.657  21.281  1.00  0.00    -0.383 N 
ATOM     14  H42 UNL     1      -1.340  33.675  21.339  1.00  0.00     0.157 HD
ATOM     15  H41 UNL     1      -1.979  32.292  21.969  1.00  0.00     0.157 HD
ENDBRANCH   5  13
TORSDOF 3
ENDMDL
MODEL 4
REMARK VINA RESULT: -4.727743336      1.630      2.919
REMARK  3 active torsions:
REMARK  status: ('A' for Active; 'I' for Inactive)
REMARK    1  A    between atoms: C3_4  and  N2_5 
REMARK    2  A    between atoms: N2_5  and  N3_7 
REMARK    3  A    between atoms: C4_10  and  N4_11 
ROOT
HETATM    1  C1  UNL     1       1.669  32.706  17.438  1.00  0.00     0.177 C 
HETATM    2  N1  UNL     1       1.077  32.428  18.733  1.00  0.00    -0.304 N 
HETATM    3  C2  UNL     1       1.548  31.589  19.674  1.00  0.00     0.144 A 
HETATM    4  C3  UNL     1       0.731  31.574  20.776  1.00  0.00     0.109 A 
HETATM    5  C4  UNL     1      -0.290  32.472  20.452  1.00  0.00     0.143 A 
HETATM    6  N5  UNL     1      -0.038  32.957  19.216  1.00  0.00    -0.282 N 
ATOM      7  H5  UNL     1      -0.621  33.634  18.725  1.00  0.00     0.189 HD
ENDROOT
BRANCH   4   8
HETATM    8  N2  UNL     1       0.896  30.831  21.973  1.00  0.00    -0.302 N 
ATOM      9  H2  UNL     1       0.116  30.246  22.272  1.00  0.00     0.186 HD
BRANCH   8  10
HETATM   10  N3  UNL     1       2.034  30.835  22.769  1.00  0.00    -0.345 N 
ATOM     11  H32 UNL     1       2.244  31.708  23.253  1.00  0.00     0.176 HD
ATOM     12  H31 UNL     1       2.663  30.043  22.901  1.00  0.00     0.176 HD
ENDBRANCH   8  10
ENDBRANCH   4   8
BRANCH   5  13
HETATM   13  N4  UNL     1      -1.284  32.753  21.239  1.00  0.00    -0.383 N 
ATOM     14  H42 UNL     1      -1.514  33.647  21.672  1.00  0.00     0.157 HD
ATOM     15  H41 UNL     1      -1.987  32.074  21.531  1.00  0.00     0.157 HD
ENDBRANCH   5  13
TORSDOF 3
ENDMDL
MODEL 5
REMARK VINA RESULT: -4.569671769      2.040      3.182
REMARK  3 active torsions:
REMARK  status: ('A' for Active; 'I' for Inactive)
REMARK    1  A    between atoms: C3_4  and  N2_5 
REMARK    2  A    between atoms: N2_5  and  N3_7 
REMARK    3  A    between atoms: C4_10  and  N4_11 
ROOT
HETATM    1  C1  UNL     1       3.269  30.967  22.430  1.00  0.00     0.177 C 
HETATM    2  N1  UNL     1       2.090  31.615  21.888  1.00  0.00    -0.304 N 
HETATM    3  C2  UNL     1       1.842  32.937  21.845  1.00  0.00     0.144 A 
HETATM    4  C3  UNL     1       0.626  33.194  21.262  1.00  0.00     0.109 A 
HETATM    5  C4  UNL     1       0.131  31.926  20.942  1.00  0.00     0.143 A 
HETATM    6  N5  UNL     1       1.045  31.013  21.338  1.00  0.00    -0.282 N 
ATOM      7  H5  UNL     1       0.946  30.004  21.230  1.00  0.00     0.189 HD
ENDROOT
BRANCH   4   8
HETATM    8  N2  UNL     1       0.022  34.455  21.026  1.00  0.00    -0.302 N 
ATOM      9  H2  UNL     1       0.164  34.878  20.110  1.00  0.00     0.186 HD
BRANCH   8  10
HETATM   10  N3  UNL     1      -0.747  35.160  21.944  1.00  0.00    -0.345 N 
ATOM     11  H32 UNL     1      -1.035  34.649  22.778  1.00  0.00     0.176 HD
ATOM     12  H31 UNL     1      -1.039  36.132  21.843  1.00  0.00     0.176 HD
ENDBRANCH   8  10
ENDBRANCH   4   8
BRANCH   5  13
HETATM   13  N4  UNL     1      -1.014  31.721  20.365  1.00  0.00    -0.383 N 
ATOM     14  H42 UNL     1      -1.813  32.351  20.304  1.00  0.00     0.157 HD
ATOM     15  H41 UNL     1      -1.260  30.857  19.882  1.00  0.00     0.157 HD
ENDBRANCH   5  13
TORSDOF 3
ENDMDL
