MODEL 1
REMARK VINA RESULT: -3.923985020      0.000      0.000
REMARK  2 active torsions:
REMARK  status: ('A' for Active; 'I' for Inactive)
REMARK    1  A    between atoms: N1_1  and  C1_4 
REMARK    2  A    between atoms: C2_10  and  N4_11 
ROOT
HETATM    1  C1  UNL     1       0.395  31.213  20.627  1.00  0.00     0.151 A 
HETATM    2  N2  UNL     1       0.871  30.462  19.628  1.00  0.00    -0.296 N 
ATOM      3  H2  UNL     1       1.502  29.663  19.682  1.00  0.00     0.177 HD
HETATM    4  S1  UNL     1       0.178  31.154  18.259  1.00  0.00     0.070 SA
HETATM    5  N3  UNL     1      -0.703  32.383  18.992  1.00  0.00    -0.296 N 
ATOM      6  H3  UNL     1      -1.300  33.083  18.553  1.00  0.00     0.177 HD
HETATM    7  C2  UNL     1      -0.430  32.220  20.290  1.00  0.00     0.151 A 
ENDROOT
BRANCH   1   8
HETATM    8  N1  UNL     1       0.772  30.908  21.869  1.00  0.00    -0.382 N 
ATOM      9  H12 UNL     1       0.580  30.025  22.343  1.00  0.00     0.157 HD
ATOM     10  H11 UNL     1       1.295  31.610  22.394  1.00  0.00     0.157 HD
ENDBRANCH   1   8
BRANCH   7  11
HETATM   11  N4  UNL     1      -0.949  33.016  21.216  1.00  0.00    -0.382 N 
ATOM     12  H42 UNL     1      -1.941  32.983  21.454  1.00  0.00     0.157 HD
ATOM     13  H41 UNL     1      -0.367  33.685  21.720  1.00  0.00     0.157 HD
ENDBRANCH   7  11
TORSDOF 2
ENDMDL
MODEL 2
REMARK VINA RESULT: -3.911398641      0.038      2.152
REMARK  2 active torsions:
REMARK  status: ('A' for Active; 'I' for Inactive)
REMARK    1  A    between atoms: N1_1  and  C1_4 
REMARK    2  A    between atoms: C2_10  and  N4_11 
ROOT
HETATM    1  C1  UNL     1      -0.406  32.205  20.328  1.00  0.00     0.151 A 
HETATM    2  N2  UNL     1      -0.706  32.397  19.038  1.00  0.00    -0.296 N 
ATOM      3  H2  UNL     1      -1.306  33.113  18.628  1.00  0.00     0.177 HD
HETATM    4  S1  UNL     1       0.145  31.174  18.256  1.00  0.00     0.070 SA
HETATM    5  N3  UNL     1       0.863  30.447  19.590  1.00  0.00    -0.296 N 
ATOM      6  H3  UNL     1       1.489  29.642  19.613  1.00  0.00     0.177 HD
HETATM    7  C2  UNL     1       0.417  31.181  20.613  1.00  0.00     0.151 A 
ENDROOT
BRANCH   1   8
HETATM    8  N1  UNL     1      -0.941  33.036  21.222  1.00  0.00    -0.382 N 
ATOM      9  H12 UNL     1      -1.701  32.804  21.862  1.00  0.00     0.157 HD
ATOM     10  H11 UNL     1      -0.565  33.983  21.277  1.00  0.00     0.157 HD
ENDBRANCH   1   8
BRANCH   7  11
HETATM   11  N4  UNL     1       0.769  30.917  21.865  1.00  0.00    -0.382 N 
ATOM     12  H42 UNL     1       0.361  30.139  22.383  1.00  0.00     0.157 HD
ATOM     13  H41 UNL     1       1.463  31.489  22.347  1.00  0.00     0.157 HD
ENDBRANCH   7  11
TORSDOF 2
ENDMDL
MODEL 3
REMARK VINA RESULT: -3.862663520      3.684      4.600
REMARK  2 active torsions:
REMARK  status: ('A' for Active; 'I' for Inactive)
REMARK    1  A    between atoms: N1_1  and  C1_4 
REMARK    2  A    between atoms: C2_10  and  N4_11 
ROOT
HETATM    1  C1  UNL     1       2.782  31.273  22.581  1.00  0.00     0.151 A 
HETATM    2  N2  UNL     1       2.593  31.549  21.285  1.00  0.00    -0.296 N 
ATOM      3  H2  UNL     1       1.834  31.243  20.677  1.00  0.00     0.177 HD
HETATM    4  S1  UNL     1       3.911  32.522  20.900  1.00  0.00     0.070 SA
HETATM    5  N3  UNL     1       4.671  32.556  22.399  1.00  0.00    -0.296 N 
ATOM      6  H3  UNL     1       5.532  33.035  22.662  1.00  0.00     0.177 HD
HETATM    7  C2  UNL     1       3.873  31.803  23.161  1.00  0.00     0.151 A 
ENDROOT
BRANCH   1   8
HETATM    8  N1  UNL     1       1.882  30.503  23.191  1.00  0.00    -0.382 N 
ATOM      9  H12 UNL     1       1.993  30.085  24.115  1.00  0.00     0.157 HD
ATOM     10  H11 UNL     1       1.008  30.311  22.700  1.00  0.00     0.157 HD
ENDBRANCH   1   8
BRANCH   7  11
HETATM   11  N4  UNL     1       4.139  31.583  24.443  1.00  0.00    -0.382 N 
ATOM     12  H42 UNL     1       3.861  32.245  25.168  1.00  0.00     0.157 HD
ATOM     13  H41 UNL     1       4.631  30.740  24.740  1.00  0.00     0.157 HD
ENDBRANCH   7  11
TORSDOF 2
ENDMDL
MODEL 4
REMARK VINA RESULT: -3.861071839      3.675      4.429
REMARK  2 active torsions:
REMARK  status: ('A' for Active; 'I' for Inactive)
REMARK    1  A    between atoms: N1_1  and  C1_4 
REMARK    2  A    between atoms: C2_10  and  N4_11 
ROOT
HETATM    1  C1  UNL     1       3.835  31.780  23.156  1.00  0.00     0.151 A 
HETATM    2  N2  UNL     1       4.658  32.533  22.418  1.00  0.00    -0.296 N 
ATOM      3  H2  UNL     1       5.517  33.002  22.707  1.00  0.00     0.177 HD
HETATM    4  S1  UNL     1       3.936  32.522  20.899  1.00  0.00     0.070 SA
HETATM    5  N3  UNL     1       2.603  31.557  21.238  1.00  0.00    -0.296 N 
ATOM      6  H3  UNL     1       1.857  31.262  20.608  1.00  0.00     0.177 HD
HETATM    7  C2  UNL     1       2.758  31.270  22.533  1.00  0.00     0.151 A 
ENDROOT
BRANCH   1   8
HETATM    8  N1  UNL     1       4.143  31.594  24.439  1.00  0.00    -0.382 N 
ATOM      9  H12 UNL     1       3.861  30.792  25.003  1.00  0.00     0.157 HD
ATOM     10  H11 UNL     1       4.707  32.308  24.902  1.00  0.00     0.157 HD
ENDBRANCH   1   8
BRANCH   7  11
HETATM   11  N4  UNL     1       1.888  30.510  23.187  1.00  0.00    -0.382 N 
ATOM     12  H42 UNL     1       1.573  30.746  24.128  1.00  0.00     0.157 HD
ATOM     13  H41 UNL     1       1.508  29.663  22.763  1.00  0.00     0.157 HD
ENDBRANCH   7  11
TORSDOF 2
ENDMDL
MODEL 5
REMARK VINA RESULT: -3.804102465      3.157      3.798
REMARK  2 active torsions:
REMARK  status: ('A' for Active; 'I' for Inactive)
REMARK    1  A    between atoms: N1_1  and  C1_4 
REMARK    2  A    between atoms: C2_10  and  N4_11 
ROOT
HETATM    1  C1  UNL     1       1.770  31.379  21.889  1.00  0.00     0.151 A 
HETATM    2  N2  UNL     1       2.304  30.806  22.974  1.00  0.00    -0.296 N 
ATOM      3  H2  UNL     1       1.910  30.072  23.560  1.00  0.00     0.177 HD
HETATM    4  S1  UNL     1       3.783  31.592  23.137  1.00  0.00     0.070 SA
HETATM    5  N3  UNL     1       3.688  32.630  21.819  1.00  0.00    -0.296 N 
ATOM      6  H3  UNL     1       4.371  33.318  21.503  1.00  0.00     0.177 HD
HETATM    7  C2  UNL     1       2.498  32.335  21.286  1.00  0.00     0.151 A 
ENDROOT
BRANCH   1   8
HETATM    8  N1  UNL     1       0.568  30.961  21.492  1.00  0.00    -0.382 N 
ATOM      9  H12 UNL     1      -0.057  30.364  22.034  1.00  0.00     0.157 HD
ATOM     10  H11 UNL     1       0.240  31.258  20.573  1.00  0.00     0.157 HD
ENDBRANCH   1   8
BRANCH   7  11
HETATM   11  N4  UNL     1       2.047  32.956  20.203  1.00  0.00    -0.382 N 
ATOM     12  H42 UNL     1       1.190  33.508  20.222  1.00  0.00     0.157 HD
ATOM     13  H41 UNL     1       2.550  32.898  19.317  1.00  0.00     0.157 HD
ENDBRANCH   7  11
TORSDOF 2
ENDMDL
