MODEL 1
REMARK VINA RESULT: -3.982809952      0.000      0.000
REMARK  2 active torsions:
REMARK  status: ('A' for Active; 'I' for Inactive)
REMARK    1  A    between atoms: N1_1  and  N2_4 
REMARK    2  A    between atoms: N2_4  and  C1_5 
ROOT
HETATM    1  C1  UNL     1       1.352  31.616  21.615  1.00  0.00     0.359 C 
HETATM    2  N3  UNL     1       1.946  30.853  22.696  1.00  0.00    -0.046 N 
ATOM      3  H31 UNL     1       1.756  29.854  22.621  1.00  0.00     0.280 HD
ATOM      4  H32 UNL     1       1.485  31.017  23.591  1.00  0.00     0.280 HD
HETATM    5  C2  UNL     1       3.342  31.144  22.737  1.00  0.00     0.245 C 
HETATM    6  C3  UNL     1       3.939  30.734  21.394  1.00  0.00     0.105 C 
HETATM    7  S1  UNL     1       2.567  31.253  20.284  1.00  0.00    -0.117 SA
ENDROOT
BRANCH   1   8
HETATM    8  N2  UNL     1       0.056  31.078  21.277  1.00  0.00    -0.104 NA
BRANCH   8   9
HETATM    9  N1  UNL     1      -0.840  32.130  21.233  1.00  0.00    -0.346 N 
ATOM     10  H12 UNL     1      -1.631  32.258  21.864  1.00  0.00     0.172 HD
ATOM     11  H11 UNL     1      -0.565  32.743  20.465  1.00  0.00     0.172 HD
ENDBRANCH   8   9
ENDBRANCH   1   8
TORSDOF 2
ENDMDL
MODEL 2
REMARK VINA RESULT: -3.928489194      3.261      3.930
REMARK  2 active torsions:
REMARK  status: ('A' for Active; 'I' for Inactive)
REMARK    1  A    between atoms: N1_1  and  N2_4 
REMARK    2  A    between atoms: N2_4  and  C1_5 
ROOT
HETATM    1  C1  UNL     1       0.386  33.544  20.945  1.00  0.00     0.359 C 
HETATM    2  N3  UNL     1      -0.953  32.992  20.863  1.00  0.00    -0.046 N 
ATOM      3  H31 UNL     1      -1.631  33.663  20.503  1.00  0.00     0.280 HD
ATOM      4  H32 UNL     1      -1.373  32.847  21.781  1.00  0.00     0.280 HD
HETATM    5  C2  UNL     1      -0.900  31.795  20.089  1.00  0.00     0.245 C 
HETATM    6  C3  UNL     1      -0.382  32.165  18.702  1.00  0.00     0.105 C 
HETATM    7  S1  UNL     1       0.870  33.427  19.175  1.00  0.00    -0.117 SA
ENDROOT
BRANCH   1   8
HETATM    8  N2  UNL     1       0.334  34.923  21.365  1.00  0.00    -0.104 NA
BRANCH   8   9
HETATM    9  N1  UNL     1      -0.875  35.127  22.003  1.00  0.00    -0.346 N 
ATOM     10  H12 UNL     1      -1.437  34.400  22.446  1.00  0.00     0.172 HD
ATOM     11  H11 UNL     1      -1.093  36.122  21.949  1.00  0.00     0.172 HD
ENDBRANCH   8   9
ENDBRANCH   1   8
TORSDOF 2
ENDMDL
MODEL 3
REMARK VINA RESULT: -3.882633745      3.055      3.677
REMARK  2 active torsions:
REMARK  status: ('A' for Active; 'I' for Inactive)
REMARK    1  A    between atoms: N1_1  and  N2_4 
REMARK    2  A    between atoms: N2_4  and  C1_5 
ROOT
HETATM    1  C1  UNL     1       0.494  31.137  19.729  1.00  0.00     0.359 C 
HETATM    2  N3  UNL     1       1.283  29.952  19.457  1.00  0.00    -0.046 N 
ATOM      3  H31 UNL     1       0.855  29.103  19.826  1.00  0.00     0.280 HD
ATOM      4  H32 UNL     1       2.145  29.922  20.002  1.00  0.00     0.280 HD
HETATM    5  C2  UNL     1       1.520  29.881  18.052  1.00  0.00     0.245 C 
HETATM    6  C3  UNL     1       0.164  29.798  17.359  1.00  0.00     0.105 C 
HETATM    7  S1  UNL     1      -0.793  30.949  18.428  1.00  0.00    -0.117 SA
ENDROOT
BRANCH   1   8
HETATM    8  N2  UNL     1      -0.099  31.053  21.042  1.00  0.00    -0.104 NA
BRANCH   8   9
HETATM    9  N1  UNL     1       0.922  30.883  21.958  1.00  0.00    -0.346 N 
ATOM     10  H12 UNL     1       1.079  31.464  22.781  1.00  0.00     0.172 HD
ATOM     11  H11 UNL     1       1.479  30.082  21.659  1.00  0.00     0.172 HD
ENDBRANCH   8   9
ENDBRANCH   1   8
TORSDOF 2
ENDMDL
MODEL 4
REMARK VINA RESULT: -3.876597595      1.817      3.420
REMARK  2 active torsions:
REMARK  status: ('A' for Active; 'I' for Inactive)
REMARK    1  A    between atoms: N1_1  and  N2_4 
REMARK    2  A    between atoms: N2_4  and  C1_5 
ROOT
HETATM    1  C1  UNL     1       1.077  31.309  21.052  1.00  0.00     0.359 C 
HETATM    2  N3  UNL     1      -0.270  31.835  21.154  1.00  0.00    -0.046 N 
ATOM      3  H31 UNL     1      -0.289  32.800  21.483  1.00  0.00     0.280 HD
ATOM      4  H32 UNL     1      -0.797  31.416  21.920  1.00  0.00     0.280 HD
HETATM    5  C2  UNL     1      -0.915  31.673  19.892  1.00  0.00     0.245 C 
HETATM    6  C3  UNL     1      -0.107  32.452  18.858  1.00  0.00     0.105 C 
HETATM    7  S1  UNL     1       1.591  32.097  19.471  1.00  0.00    -0.117 SA
ENDROOT
BRANCH   1   8
HETATM    8  N2  UNL     1       1.888  31.791  22.144  1.00  0.00    -0.104 NA
BRANCH   8   9
HETATM    9  N1  UNL     1       2.138  30.725  22.988  1.00  0.00    -0.346 N 
ATOM     10  H12 UNL     1       2.897  30.053  22.880  1.00  0.00     0.172 HD
ATOM     11  H11 UNL     1       1.433  30.738  23.725  1.00  0.00     0.172 HD
ENDBRANCH   8   9
ENDBRANCH   1   8
TORSDOF 2
ENDMDL
MODEL 5
REMARK VINA RESULT: -3.867672368      3.002      3.672
REMARK  2 active torsions:
REMARK  status: ('A' for Active; 'I' for Inactive)
REMARK    1  A    between atoms: N1_1  and  N2_4 
REMARK    2  A    between atoms: N2_4  and  C1_5 
ROOT
HETATM    1  C1  UNL     1      -0.682  31.367  19.767  1.00  0.00     0.359 C 
HETATM    2  N3  UNL     1      -0.374  32.719  19.345  1.00  0.00    -0.046 N 
ATOM      3  H31 UNL     1       0.330  33.163  19.936  1.00  0.00     0.280 HD
ATOM      4  H32 UNL     1      -1.138  33.370  19.527  1.00  0.00     0.280 HD
HETATM    5  C2  UNL     1       0.004  32.687  17.970  1.00  0.00     0.245 C 
HETATM    6  C3  UNL     1       1.233  31.790  17.851  1.00  0.00     0.105 C 
HETATM    7  S1  UNL     1       0.779  30.492  19.073  1.00  0.00    -0.117 SA
ENDROOT
BRANCH   1   8
HETATM    8  N2  UNL     1      -0.686  31.279  21.207  1.00  0.00    -0.104 NA
BRANCH   8   9
HETATM    9  N1  UNL     1       0.594  30.951  21.615  1.00  0.00    -0.346 N 
ATOM     10  H12 UNL     1       1.443  31.449  21.349  1.00  0.00     0.172 HD
ATOM     11  H11 UNL     1       0.528  30.132  22.220  1.00  0.00     0.172 HD
ENDBRANCH   8   9
ENDBRANCH   1   8
TORSDOF 2
ENDMDL
