MODEL 1
REMARK VINA RESULT: -4.949325372      0.000      0.000
REMARK  2 active torsions:
REMARK  status: ('A' for Active; 'I' for Inactive)
REMARK    1  A    between atoms: N1_2  and  C2_4 
REMARK    2  A    between atoms: C3_7  and  N3_8 
ROOT
HETATM    1  C2  UNL     1       3.766  31.729  23.264  1.00  0.00     0.693 A 
HETATM    2  N2  UNL     1       2.515  31.314  23.029  1.00  0.00    -0.023 N 
ATOM      3  H2  UNL     1       1.963  30.959  23.810  1.00  0.00     0.203 HD
HETATM    4  C3  UNL     1       1.959  31.345  21.804  1.00  0.00     0.691 A 
HETATM    5  N4  UNL     1       2.696  31.815  20.788  1.00  0.00    -0.187 N 
ATOM      6  H4  UNL     1       2.289  31.847  19.854  1.00  0.00     0.185 HD
HETATM    7  C4  UNL     1       3.950  32.244  20.964  1.00  0.00     0.215 A 
HETATM    8  N5  UNL     1       4.468  32.190  22.225  1.00  0.00    -0.187 N 
ATOM      9  H5  UNL     1       5.423  32.512  22.379  1.00  0.00     0.185 HD
ENDROOT
BRANCH   1  10
HETATM   10  N1  UNL     1       4.289  31.667  24.586  1.00  0.00    -0.230 N 
HETATM   11  C1  UNL     1       4.959  32.776  25.211  1.00  0.00     0.165 C 
ATOM     12  H1  UNL     1       4.185  30.800  25.111  1.00  0.00     0.177 HD
ENDBRANCH   1  10
BRANCH   4  13
HETATM   13  N3  UNL     1       0.755  30.923  21.690  1.00  0.00    -0.234 N 
ATOM     14  H32 UNL     1       0.439  29.997  21.980  1.00  0.00     0.174 HD
ATOM     15  H31 UNL     1       0.069  31.557  21.279  1.00  0.00     0.174 HD
ENDBRANCH   4  13
TORSDOF 2
ENDMDL
MODEL 2
REMARK VINA RESULT: -4.903312628      0.830      3.537
REMARK  2 active torsions:
REMARK  status: ('A' for Active; 'I' for Inactive)
REMARK    1  A    between atoms: N1_2  and  C2_4 
REMARK    2  A    between atoms: C3_7  and  N3_8 
ROOT
HETATM    1  C2  UNL     1       2.017  31.405  21.815  1.00  0.00     0.693 A 
HETATM    2  N2  UNL     1       2.536  31.310  23.045  1.00  0.00    -0.023 N 
ATOM      3  H2  UNL     1       1.961  30.918  23.791  1.00  0.00     0.203 HD
HETATM    4  C3  UNL     1       3.787  31.711  23.337  1.00  0.00     0.691 A 
HETATM    5  N4  UNL     1       4.533  32.222  22.347  1.00  0.00    -0.187 N 
ATOM      6  H4  UNL     1       5.484  32.530  22.551  1.00  0.00     0.185 HD
HETATM    7  C4  UNL     1       4.067  32.340  21.100  1.00  0.00     0.215 A 
HETATM    8  N5  UNL     1       2.792  31.920  20.857  1.00  0.00    -0.187 N 
ATOM      9  H5  UNL     1       2.417  32.003  19.911  1.00  0.00     0.185 HD
ENDROOT
BRANCH   1  10
HETATM   10  N1  UNL     1       0.686  30.961  21.580  1.00  0.00    -0.230 N 
HETATM   11  C1  UNL     1      -0.255  31.706  20.788  1.00  0.00     0.165 C 
ATOM     12  H1  UNL     1       0.386  30.077  21.991  1.00  0.00     0.177 HD
ENDBRANCH   1  10
BRANCH   4  13
HETATM   13  N3  UNL     1       4.186  31.576  24.547  1.00  0.00    -0.234 N 
ATOM     14  H32 UNL     1       3.581  31.321  25.328  1.00  0.00     0.174 HD
ATOM     15  H31 UNL     1       5.175  31.737  24.739  1.00  0.00     0.174 HD
ENDBRANCH   4  13
TORSDOF 2
ENDMDL
MODEL 3
REMARK VINA RESULT: -4.661636874      2.181      3.428
REMARK  2 active torsions:
REMARK  status: ('A' for Active; 'I' for Inactive)
REMARK    1  A    between atoms: N1_2  and  C2_4 
REMARK    2  A    between atoms: C3_7  and  N3_8 
ROOT
HETATM    1  C2  UNL     1       1.533  31.598  21.716  1.00  0.00     0.693 A 
HETATM    2  N2  UNL     1       1.577  32.932  21.818  1.00  0.00    -0.023 N 
ATOM      3  H2  UNL     1       2.401  33.364  22.236  1.00  0.00     0.203 HD
HETATM    4  C3  UNL     1       0.578  33.726  21.391  1.00  0.00     0.691 A 
HETATM    5  N4  UNL     1      -0.499  33.145  20.842  1.00  0.00    -0.187 N 
ATOM      6  H4  UNL     1      -1.265  33.732  20.512  1.00  0.00     0.185 HD
HETATM    7  C4  UNL     1      -0.597  31.818  20.714  1.00  0.00     0.215 A 
HETATM    8  N5  UNL     1       0.442  31.058  21.164  1.00  0.00    -0.187 N 
ATOM      9  H5  UNL     1       0.386  30.043  21.075  1.00  0.00     0.185 HD
ENDROOT
BRANCH   1  10
HETATM   10  N1  UNL     1       2.627  30.822  22.189  1.00  0.00    -0.230 N 
HETATM   11  C1  UNL     1       3.631  31.350  23.073  1.00  0.00     0.165 C 
ATOM     12  H1  UNL     1       2.703  29.851  21.888  1.00  0.00     0.177 HD
ENDBRANCH   1  10
BRANCH   4  13
HETATM   13  N3  UNL     1       0.721  34.990  21.537  1.00  0.00    -0.234 N 
ATOM     14  H32 UNL     1       0.447  35.685  20.842  1.00  0.00     0.174 HD
ATOM     15  H31 UNL     1       1.140  35.321  22.407  1.00  0.00     0.174 HD
ENDBRANCH   4  13
TORSDOF 2
ENDMDL
MODEL 4
REMARK VINA RESULT: -4.590423237      2.519      4.846
REMARK  2 active torsions:
REMARK  status: ('A' for Active; 'I' for Inactive)
REMARK    1  A    between atoms: N1_2  and  C2_4 
REMARK    2  A    between atoms: C3_7  and  N3_8 
ROOT
HETATM    1  C2  UNL     1      -0.110  31.841  20.378  1.00  0.00     0.693 A 
HETATM    2  N2  UNL     1       0.609  31.073  21.207  1.00  0.00    -0.023 N 
ATOM      3  H2  UNL     1       0.417  30.072  21.237  1.00  0.00     0.203 HD
HETATM    4  C3  UNL     1       1.575  31.571  22.001  1.00  0.00     0.691 A 
HETATM    5  N4  UNL     1       1.818  32.888  21.950  1.00  0.00    -0.187 N 
ATOM      6  H4  UNL     1       2.547  33.281  22.545  1.00  0.00     0.185 HD
HETATM    7  C4  UNL     1       1.132  33.702  21.142  1.00  0.00     0.215 A 
HETATM    8  N5  UNL     1       0.163  33.149  20.358  1.00  0.00    -0.187 N 
ATOM      9  H5  UNL     1      -0.372  33.753  19.734  1.00  0.00     0.185 HD
ENDROOT
BRANCH   1  10
HETATM   10  N1  UNL     1      -1.116  31.245  19.567  1.00  0.00    -0.230 N 
HETATM   11  C1  UNL     1      -0.861  30.776  18.232  1.00  0.00     0.165 C 
ATOM     12  H1  UNL     1      -2.056  31.149  19.948  1.00  0.00     0.177 HD
ENDBRANCH   1  10
BRANCH   4  13
HETATM   13  N3  UNL     1       2.203  30.748  22.757  1.00  0.00    -0.234 N 
ATOM     14  H32 UNL     1       3.060  30.263  22.493  1.00  0.00     0.174 HD
ATOM     15  H31 UNL     1       1.815  30.569  23.684  1.00  0.00     0.174 HD
ENDBRANCH   4  13
TORSDOF 2
ENDMDL
MODEL 5
REMARK VINA RESULT: -4.571653364      3.168      5.652
REMARK  2 active torsions:
REMARK  status: ('A' for Active; 'I' for Inactive)
REMARK    1  A    between atoms: N1_2  and  C2_4 
REMARK    2  A    between atoms: C3_7  and  N3_8 
ROOT
HETATM    1  C2  UNL     1       0.437  30.487  18.972  1.00  0.00     0.693 A 
HETATM    2  N2  UNL     1       1.223  30.515  20.054  1.00  0.00    -0.023 N 
ATOM      3  H2  UNL     1       2.109  30.010  20.029  1.00  0.00     0.203 HD
HETATM    4  C3  UNL     1       0.891  31.184  21.174  1.00  0.00     0.691 A 
HETATM    5  N4  UNL     1      -0.275  31.845  21.192  1.00  0.00    -0.187 N 
ATOM      6  H4  UNL     1      -0.541  32.358  22.033  1.00  0.00     0.185 HD
HETATM    7  C4  UNL     1      -1.099  31.852  20.140  1.00  0.00     0.215 A 
HETATM    8  N5  UNL     1      -0.717  31.159  19.030  1.00  0.00    -0.187 N 
ATOM      9  H5  UNL     1      -1.332  31.152  18.217  1.00  0.00     0.185 HD
ENDROOT
BRANCH   1  10
HETATM   10  N1  UNL     1       0.853  29.759  17.822  1.00  0.00    -0.230 N 
HETATM   11  C1  UNL     1      -0.046  29.411  16.755  1.00  0.00     0.165 C 
ATOM     12  H1  UNL     1       1.828  29.472  17.752  1.00  0.00     0.177 HD
ENDBRANCH   1  10
BRANCH   4  13
HETATM   13  N3  UNL     1       1.716  31.145  22.154  1.00  0.00    -0.234 N 
ATOM     14  H32 UNL     1       2.655  30.750  22.102  1.00  0.00     0.174 HD
ATOM     15  H31 UNL     1       1.409  31.535  23.045  1.00  0.00     0.174 HD
ENDBRANCH   4  13
TORSDOF 2
ENDMDL
