MODEL 1
REMARK VINA RESULT: -7.056831472      0.000      0.000
REMARK  6 active torsions:
REMARK  status: ('A' for Active; 'I' for Inactive)
REMARK    1  A    between atoms: C2_2  and  C3_3 
REMARK    2  A    between atoms: C3_3  and  O1_4 
REMARK    3  A    between atoms: O1_4  and  C4_5 
REMARK    4  A    between atoms: C4_5  and  C5_7 
REMARK    5  A    between atoms: C17_20  and  C18_21 
REMARK    6  A    between atoms: C22_26  and  C23_27 
ROOT
HETATM    1  C18 UNL     1     -23.405  15.773 -13.829  1.00  0.00     0.054 C 
HETATM    2  C19 UNL     1     -22.270  14.843 -13.396  1.00  0.00     0.032 C 
HETATM    3  C20 UNL     1     -24.501  14.701 -13.951  1.00  0.00     0.032 C 
HETATM    4  C21 UNL     1     -23.947  16.532 -12.683  1.00  0.00     0.069 C 
HETATM    5  N1  UNL     1     -24.403  17.107 -11.741  1.00  0.00    -0.196 NA
ENDROOT
BRANCH   1   6
HETATM    6  C17 UNL     1     -23.132  16.633 -14.958  1.00  0.00     0.008 C 
HETATM    7  C7  UNL     1     -22.206  17.821 -14.819  1.00  0.00     0.010 C 
HETATM    8  C6  UNL     1     -21.143  17.766 -13.772  1.00  0.00     0.022 C 
HETATM    9  C8  UNL     1     -21.377  18.079 -16.065  1.00  0.00    -0.029 C 
HETATM   10  C5  UNL     1     -20.154  18.884 -14.094  1.00  0.00     0.097 C 
HETATM   11  C22 UNL     1     -20.242  18.991 -15.547  1.00  0.00     0.069 C 
HETATM   12  C9  UNL     1     -21.980  18.912 -17.127  1.00  0.00     0.016 C 
HETATM   13  C10 UNL     1     -20.661  16.833 -16.549  1.00  0.00     0.014 C 
HETATM   14  C11 UNL     1     -21.499  15.589 -16.575  1.00  0.00     0.036 C 
HETATM   15  C12 UNL     1     -22.909  15.965 -16.280  1.00  0.00    -0.066 C 
HETATM   16  C13 UNL     1     -23.836  15.712 -17.183  1.00  0.00     0.053 C 
HETATM   17  C14 UNL     1     -25.248  16.027 -17.029  1.00  0.00     0.149 C 
HETATM   18  O3  UNL     1     -26.058  15.828 -17.898  1.00  0.00    -0.293 OA
HETATM   19  C15 UNL     1     -25.609  16.612 -15.725  1.00  0.00     0.084 C 
HETATM   20  C16 UNL     1     -24.479  17.373 -15.221  1.00  0.00     0.024 C 
BRANCH  10  21
HETATM   21  C4  UNL     1     -18.769  18.552 -13.665  1.00  0.00     0.263 C 
HETATM   22  O2  UNL     1     -18.457  17.426 -13.199  1.00  0.00    -0.265 OA
BRANCH  21  23
HETATM   23  O1  UNL     1     -17.748  19.484 -13.763  1.00  0.00    -0.321 OA
BRANCH  23  24
HETATM   24  C3  UNL     1     -17.785  20.712 -13.022  1.00  0.00     0.178 C 
BRANCH  24  25
HETATM   25  C2  UNL     1     -16.723  21.600 -13.665  1.00  0.00     0.022 C 
HETATM   26  C1  UNL     1     -17.112  21.889 -15.107  1.00  0.00     0.007 C 
ENDBRANCH  24  25
ENDBRANCH  23  24
ENDBRANCH  21  23
ENDBRANCH  10  21
BRANCH  11  27
HETATM   27  C23 UNL     1     -20.468  20.432 -15.866  1.00  0.00     0.237 C 
HETATM   28  O4  UNL     1     -20.634  21.267 -14.964  1.00  0.00    -0.306 OA
ENDBRANCH  11  27
ENDBRANCH   1   6
TORSDOF 6
ENDMDL
MODEL 2
REMARK VINA RESULT: -6.997006251      1.155      1.801
REMARK  6 active torsions:
REMARK  status: ('A' for Active; 'I' for Inactive)
REMARK    1  A    between atoms: C2_2  and  C3_3 
REMARK    2  A    between atoms: C3_3  and  O1_4 
REMARK    3  A    between atoms: O1_4  and  C4_5 
REMARK    4  A    between atoms: C4_5  and  C5_7 
REMARK    5  A    between atoms: C17_20  and  C18_21 
REMARK    6  A    between atoms: C22_26  and  C23_27 
ROOT
HETATM    1  C18 UNL     1     -23.065  15.906 -13.833  1.00  0.00     0.054 C 
HETATM    2  C19 UNL     1     -21.748  15.249 -13.410  1.00  0.00     0.032 C 
HETATM    3  C20 UNL     1     -23.924  14.631 -13.849  1.00  0.00     0.032 C 
HETATM    4  C21 UNL     1     -23.706  16.605 -12.701  1.00  0.00     0.069 C 
HETATM    5  N1  UNL     1     -24.233  17.131 -11.767  1.00  0.00    -0.196 NA
ENDROOT
BRANCH   1   6
HETATM    6  C17 UNL     1     -23.014  16.737 -15.015  1.00  0.00     0.008 C 
HETATM    7  C7  UNL     1     -22.300  18.070 -14.993  1.00  0.00     0.010 C 
HETATM    8  C6  UNL     1     -21.180  18.252 -14.022  1.00  0.00     0.022 C 
HETATM    9  C8  UNL     1     -21.606  18.395 -16.304  1.00  0.00    -0.029 C 
HETATM   10  C5  UNL     1     -20.419  19.502 -14.461  1.00  0.00     0.097 C 
HETATM   11  C22 UNL     1     -20.615  19.512 -15.908  1.00  0.00     0.069 C 
HETATM   12  C9  UNL     1     -22.408  19.055 -17.356  1.00  0.00     0.016 C 
HETATM   13  C10 UNL     1     -20.718  17.264 -16.783  1.00  0.00     0.014 C 
HETATM   14  C11 UNL     1     -21.329  15.897 -16.696  1.00  0.00     0.036 C 
HETATM   15  C12 UNL     1     -22.762  16.045 -16.319  1.00  0.00    -0.066 C 
HETATM   16  C13 UNL     1     -23.685  15.590 -17.142  1.00  0.00     0.053 C 
HETATM   17  C14 UNL     1     -25.119  15.670 -16.904  1.00  0.00     0.149 C 
HETATM   18  O3  UNL     1     -25.935  15.290 -17.704  1.00  0.00    -0.293 OA
HETATM   19  C15 UNL     1     -25.493  16.256 -15.603  1.00  0.00     0.084 C 
HETATM   20  C16 UNL     1     -24.482  17.223 -15.214  1.00  0.00     0.024 C 
BRANCH  10  21
HETATM   21  C4  UNL     1     -18.974  19.432 -14.116  1.00  0.00     0.263 C 
HETATM   22  O2  UNL     1     -18.182  20.386 -14.325  1.00  0.00    -0.265 OA
BRANCH  21  23
HETATM   23  O1  UNL     1     -18.432  18.293 -13.541  1.00  0.00    -0.321 OA
BRANCH  23  24
HETATM   24  C3  UNL     1     -17.344  18.373 -12.610  1.00  0.00     0.178 C 
BRANCH  24  25
HETATM   25  C2  UNL     1     -17.228  16.975 -12.007  1.00  0.00     0.022 C 
HETATM   26  C1  UNL     1     -15.761  16.576 -11.939  1.00  0.00     0.007 C 
ENDBRANCH  24  25
ENDBRANCH  23  24
ENDBRANCH  21  23
ENDBRANCH  10  21
BRANCH  11  27
HETATM   27  C23 UNL     1     -21.104  20.875 -16.272  1.00  0.00     0.237 C 
HETATM   28  O4  UNL     1     -20.315  21.822 -16.406  1.00  0.00    -0.306 OA
ENDBRANCH  11  27
ENDBRANCH   1   6
TORSDOF 6
ENDMDL
MODEL 3
REMARK VINA RESULT: -6.904509535      3.380      6.109
REMARK  6 active torsions:
REMARK  status: ('A' for Active; 'I' for Inactive)
REMARK    1  A    between atoms: C2_2  and  C3_3 
REMARK    2  A    between atoms: C3_3  and  O1_4 
REMARK    3  A    between atoms: O1_4  and  C4_5 
REMARK    4  A    between atoms: C4_5  and  C5_7 
REMARK    5  A    between atoms: C17_20  and  C18_21 
REMARK    6  A    between atoms: C22_26  and  C23_27 
ROOT
HETATM    1  C18 UNL     1     -21.626  17.290 -15.474  1.00  0.00     0.054 C 
HETATM    2  C19 UNL     1     -20.582  16.711 -16.433  1.00  0.00     0.032 C 
HETATM    3  C20 UNL     1     -20.841  17.067 -14.172  1.00  0.00     0.032 C 
HETATM    4  C21 UNL     1     -21.621  18.767 -15.501  1.00  0.00     0.069 C 
HETATM    5  N1  UNL     1     -21.578  19.960 -15.502  1.00  0.00    -0.196 NA
ENDROOT
BRANCH   1   6
HETATM    6  C17 UNL     1     -22.965  16.757 -15.591  1.00  0.00     0.008 C 
HETATM    7  C7  UNL     1     -23.848  17.133 -16.759  1.00  0.00     0.010 C 
HETATM    8  C6  UNL     1     -23.190  17.521 -18.042  1.00  0.00     0.022 C 
HETATM    9  C8  UNL     1     -24.742  15.995 -17.221  1.00  0.00    -0.029 C 
HETATM   10  C5  UNL     1     -24.273  17.481 -19.119  1.00  0.00     0.097 C 
HETATM   11  C22 UNL     1     -25.179  16.444 -18.633  1.00  0.00     0.069 C 
HETATM   12  C9  UNL     1     -26.041  15.826 -16.536  1.00  0.00     0.016 C 
HETATM   13  C10 UNL     1     -23.966  14.714 -17.461  1.00  0.00     0.014 C 
HETATM   14  C11 UNL     1     -22.971  14.365 -16.395  1.00  0.00     0.036 C 
HETATM   15  C12 UNL     1     -23.149  15.309 -15.257  1.00  0.00    -0.066 C 
HETATM   16  C13 UNL     1     -23.468  14.823 -14.073  1.00  0.00     0.053 C 
HETATM   17  C14 UNL     1     -23.676  15.628 -12.878  1.00  0.00     0.149 C 
HETATM   18  O3  UNL     1     -24.018  15.154 -11.825  1.00  0.00    -0.293 OA
HETATM   19  C15 UNL     1     -23.436  17.071 -13.060  1.00  0.00     0.084 C 
HETATM   20  C16 UNL     1     -23.756  17.434 -14.429  1.00  0.00     0.024 C 
BRANCH  10  21
HETATM   21  C4  UNL     1     -23.724  17.128 -20.456  1.00  0.00     0.263 C 
HETATM   22  O2  UNL     1     -23.869  17.868 -21.463  1.00  0.00    -0.265 OA
BRANCH  21  23
HETATM   23  O1  UNL     1     -23.019  15.951 -20.651  1.00  0.00    -0.321 OA
BRANCH  23  24
HETATM   24  C3  UNL     1     -21.636  15.964 -21.030  1.00  0.00     0.178 C 
BRANCH  24  25
HETATM   25  C2  UNL     1     -21.155  14.527 -20.842  1.00  0.00     0.022 C 
HETATM   26  C1  UNL     1     -20.755  14.315 -19.390  1.00  0.00     0.007 C 
ENDBRANCH  24  25
ENDBRANCH  23  24
ENDBRANCH  21  23
ENDBRANCH  10  21
BRANCH  11  27
HETATM   27  C23 UNL     1     -26.555  17.022 -18.655  1.00  0.00     0.237 C 
HETATM   28  O4  UNL     1     -26.746  18.204 -18.977  1.00  0.00    -0.306 OA
ENDBRANCH  11  27
ENDBRANCH   1   6
TORSDOF 6
ENDMDL
MODEL 4
REMARK VINA RESULT: -6.855683562      3.247      5.835
REMARK  6 active torsions:
REMARK  status: ('A' for Active; 'I' for Inactive)
REMARK    1  A    between atoms: C2_2  and  C3_3 
REMARK    2  A    between atoms: C3_3  and  O1_4 
REMARK    3  A    between atoms: O1_4  and  C4_5 
REMARK    4  A    between atoms: C4_5  and  C5_7 
REMARK    5  A    between atoms: C17_20  and  C18_21 
REMARK    6  A    between atoms: C22_26  and  C23_27 
ROOT
HETATM    1  C18 UNL     1     -21.574  17.417 -14.909  1.00  0.00     0.054 C 
HETATM    2  C19 UNL     1     -21.496  18.926 -14.667  1.00  0.00     0.032 C 
HETATM    3  C20 UNL     1     -20.462  17.330 -15.967  1.00  0.00     0.032 C 
HETATM    4  C21 UNL     1     -20.920  16.663 -13.820  1.00  0.00     0.069 C 
HETATM    5  N1  UNL     1     -20.352  16.068 -12.954  1.00  0.00    -0.196 NA
ENDROOT
BRANCH   1   6
HETATM    6  C17 UNL     1     -22.883  16.885 -15.216  1.00  0.00     0.008 C 
HETATM    7  C7  UNL     1     -23.596  17.277 -16.491  1.00  0.00     0.010 C 
HETATM    8  C6  UNL     1     -22.767  17.682 -17.665  1.00  0.00     0.022 C 
HETATM    9  C8  UNL     1     -24.415  16.145 -17.086  1.00  0.00    -0.029 C 
HETATM   10  C5  UNL     1     -23.691  17.655 -18.882  1.00  0.00     0.097 C 
HETATM   11  C22 UNL     1     -24.653  16.612 -18.540  1.00  0.00     0.069 C 
HETATM   12  C9  UNL     1     -25.796  15.966 -16.591  1.00  0.00     0.016 C 
HETATM   13  C10 UNL     1     -23.611  14.867 -17.234  1.00  0.00     0.014 C 
HETATM   14  C11 UNL     1     -22.772  14.504 -16.045  1.00  0.00     0.036 C 
HETATM   15  C12 UNL     1     -23.108  15.433 -14.930  1.00  0.00    -0.066 C 
HETATM   16  C13 UNL     1     -23.587  14.932 -13.809  1.00  0.00     0.053 C 
HETATM   17  C14 UNL     1     -23.960  15.720 -12.644  1.00  0.00     0.149 C 
HETATM   18  O3  UNL     1     -24.443  15.232 -11.654  1.00  0.00    -0.293 OA
HETATM   19  C15 UNL     1     -23.700  17.165 -12.771  1.00  0.00     0.084 C 
HETATM   20  C16 UNL     1     -23.828  17.546 -14.166  1.00  0.00     0.024 C 
BRANCH  10  21
HETATM   21  C4  UNL     1     -22.962  17.321 -20.134  1.00  0.00     0.263 C 
HETATM   22  O2  UNL     1     -23.472  17.470 -21.274  1.00  0.00    -0.265 OA
BRANCH  21  23
HETATM   23  O1  UNL     1     -21.669  16.823 -20.097  1.00  0.00    -0.321 OA
BRANCH  23  24
HETATM   24  C3  UNL     1     -21.172  15.958 -21.128  1.00  0.00     0.178 C 
BRANCH  24  25
HETATM   25  C2  UNL     1     -21.536  14.546 -20.676  1.00  0.00     0.022 C 
HETATM   26  C1  UNL     1     -20.764  14.206 -19.410  1.00  0.00     0.007 C 
ENDBRANCH  24  25
ENDBRANCH  23  24
ENDBRANCH  21  23
ENDBRANCH  10  21
BRANCH  11  27
HETATM   27  C23 UNL     1     -26.014  17.190 -18.745  1.00  0.00     0.237 C 
HETATM   28  O4  UNL     1     -26.165  18.394 -19.001  1.00  0.00    -0.306 OA
ENDBRANCH  11  27
ENDBRANCH   1   6
TORSDOF 6
ENDMDL
MODEL 5
REMARK VINA RESULT: -6.798049566      2.342      3.284
REMARK  6 active torsions:
REMARK  status: ('A' for Active; 'I' for Inactive)
REMARK    1  A    between atoms: C2_2  and  C3_3 
REMARK    2  A    between atoms: C3_3  and  O1_4 
REMARK    3  A    between atoms: O1_4  and  C4_5 
REMARK    4  A    between atoms: C4_5  and  C5_7 
REMARK    5  A    between atoms: C17_20  and  C18_21 
REMARK    6  A    between atoms: C22_26  and  C23_27 
ROOT
HETATM    1  C18 UNL     1     -24.702  16.340 -17.630  1.00  0.00     0.054 C 
HETATM    2  C19 UNL     1     -24.174  15.064 -16.967  1.00  0.00     0.032 C 
HETATM    3  C20 UNL     1     -25.482  15.661 -18.767  1.00  0.00     0.032 C 
HETATM    4  C21 UNL     1     -25.836  16.908 -16.874  1.00  0.00     0.069 C 
HETATM    5  N1  UNL     1     -26.779  17.334 -16.277  1.00  0.00    -0.196 NA
ENDROOT
BRANCH   1   6
HETATM    6  C17 UNL     1     -23.716  17.347 -17.953  1.00  0.00     0.008 C 
HETATM    7  C7  UNL     1     -23.009  18.115 -16.860  1.00  0.00     0.010 C 
HETATM    8  C6  UNL     1     -22.855  17.462 -15.526  1.00  0.00     0.022 C 
HETATM    9  C8  UNL     1     -21.563  18.435 -17.198  1.00  0.00    -0.029 C 
HETATM   10  C5  UNL     1     -21.811  18.271 -14.760  1.00  0.00     0.097 C 
HETATM   11  C22 UNL     1     -20.952  18.786 -15.822  1.00  0.00     0.069 C 
HETATM   12  C9  UNL     1     -21.299  19.665 -17.974  1.00  0.00     0.016 C 
HETATM   13  C10 UNL     1     -20.790  17.210 -17.645  1.00  0.00     0.014 C 
HETATM   14  C11 UNL     1     -21.506  16.333 -18.629  1.00  0.00     0.036 C 
HETATM   15  C12 UNL     1     -22.755  17.024 -19.055  1.00  0.00    -0.066 C 
HETATM   16  C13 UNL     1     -22.915  17.315 -20.330  1.00  0.00     0.053 C 
HETATM   17  C14 UNL     1     -24.080  17.990 -20.884  1.00  0.00     0.149 C 
HETATM   18  O3  UNL     1     -24.169  18.286 -22.048  1.00  0.00    -0.293 OA
HETATM   19  C15 UNL     1     -25.143  18.283 -19.906  1.00  0.00     0.084 C 
HETATM   20  C16 UNL     1     -24.538  18.502 -18.604  1.00  0.00     0.024 C 
BRANCH  10  21
HETATM   21  C4  UNL     1     -21.038  17.433 -13.806  1.00  0.00     0.263 C 
HETATM   22  O2  UNL     1     -21.574  16.851 -12.828  1.00  0.00    -0.265 OA
BRANCH  21  23
HETATM   23  O1  UNL     1     -19.672  17.255 -13.957  1.00  0.00    -0.321 OA
BRANCH  23  24
HETATM   24  C3  UNL     1     -18.752  17.608 -12.914  1.00  0.00     0.178 C 
BRANCH  24  25
HETATM   25  C2  UNL     1     -18.147  18.941 -13.347  1.00  0.00     0.022 C 
HETATM   26  C1  UNL     1     -16.932  19.247 -12.485  1.00  0.00     0.007 C 
ENDBRANCH  24  25
ENDBRANCH  23  24
ENDBRANCH  21  23
ENDBRANCH  10  21
BRANCH  11  27
HETATM   27  C23 UNL     1     -20.824  20.258 -15.606  1.00  0.00     0.237 C 
HETATM   28  O4  UNL     1     -20.949  20.750 -14.474  1.00  0.00    -0.306 OA
ENDBRANCH  11  27
ENDBRANCH   1   6
TORSDOF 6
ENDMDL
