MODEL 1
REMARK VINA RESULT: -8.907646228      0.000      0.000
REMARK  4 active torsions:
REMARK  status: ('A' for Active; 'I' for Inactive)
REMARK    1  A    between atoms: C4_5  and  C5_6 
REMARK    2  A    between atoms: C8_9  and  C9_10 
REMARK    3  A    between atoms: C9_10  and  N1_11 
REMARK    4  A    between atoms: C15_17  and  N2_18 
ROOT
HETATM    1  N1  UNL     1     -19.201  22.090 -14.646  1.00  0.00    -0.373 N 
HETATM    2  C10 UNL     1     -19.532  20.747 -14.489  1.00  0.00     0.066 C 
HETATM    3  C11 UNL     1     -20.838  20.367 -15.169  1.00  0.00     0.082 C 
HETATM    4  C12 UNL     1     -20.936  20.810 -16.602  1.00  0.00     0.067 C 
HETATM    5  C13 UNL     1     -19.889  20.249 -17.507  1.00  0.00     0.041 C 
HETATM    6  C14 UNL     1     -20.352  18.900 -18.007  1.00  0.00     0.041 C 
HETATM    7  C15 UNL     1     -21.577  19.138 -18.849  1.00  0.00     0.246 C 
HETATM    8  C20 UNL     1     -22.371  20.305 -18.342  1.00  0.00     0.204 C 
HETATM    9  O1  UNL     1     -22.239  20.529 -16.998  1.00  0.00    -0.378 OA
HETATM   10  C21 UNL     1     -20.709  22.329 -16.578  1.00  0.00     0.058 C 
HETATM   11  C22 UNL     1     -19.364  22.585 -15.977  1.00  0.00     0.130 C 
ENDROOT
BRANCH   1  12
HETATM   12  C9  UNL     1     -18.051  22.614 -14.049  1.00  0.00     0.067 C 
BRANCH  12  13
HETATM   13  C8  UNL     1     -18.140  23.216 -12.691  1.00  0.00     0.025 C 
HETATM   14  C7  UNL     1     -19.434  23.135 -11.975  1.00  0.00     0.010 C 
HETATM   15  C6  UNL     1     -19.073  23.129 -10.469  1.00  0.00     0.010 C 
HETATM   16  C5  UNL     1     -17.595  23.243 -10.421  1.00  0.00     0.026 C 
HETATM   17  C23 UNL     1     -17.191  22.524 -11.710  1.00  0.00     0.019 C 
BRANCH  16  18
HETATM   18  C4  UNL     1     -17.029  22.582  -9.213  1.00  0.00    -0.012 A 
HETATM   19  C3  UNL     1     -15.779  22.061  -9.009  1.00  0.00     0.017 A 
HETATM   20  C2  UNL     1     -15.528  21.513  -7.807  1.00  0.00     0.032 A 
HETATM   21  C1  UNL     1     -16.550  21.524  -6.889  1.00  0.00     0.075 A 
HETATM   22 CL1  UNL     1     -16.509  20.880  -5.233  1.00  0.00    -0.076 Cl
HETATM   23  S1  UNL     1     -17.814  22.294  -7.731  1.00  0.00    -0.082 SA
ENDBRANCH  16  18
ENDBRANCH  12  13
ENDBRANCH   1  12
BRANCH   7  24
HETATM   24  N2  UNL     1     -22.369  17.952 -19.055  1.00  0.00     0.095 N 
HETATM   25  C16 UNL     1     -21.917  16.795 -18.352  1.00  0.00     0.273 C 
HETATM   26  C17 UNL     1     -22.103  15.647 -19.334  1.00  0.00     0.032 C 
HETATM   27  C18 UNL     1     -21.730  16.318 -20.640  1.00  0.00     0.032 C 
HETATM   28  C19 UNL     1     -22.415  17.678 -20.453  1.00  0.00     0.273 C 
ENDBRANCH   7  24
TORSDOF 4
ENDMDL
MODEL 2
REMARK VINA RESULT: -8.889410461      1.160      1.349
REMARK  4 active torsions:
REMARK  status: ('A' for Active; 'I' for Inactive)
REMARK    1  A    between atoms: C4_5  and  C5_6 
REMARK    2  A    between atoms: C8_9  and  C9_10 
REMARK    3  A    between atoms: C9_10  and  N1_11 
REMARK    4  A    between atoms: C15_17  and  N2_18 
ROOT
HETATM    1  N1  UNL     1     -18.885  20.690 -14.205  1.00  0.00    -0.373 N 
HETATM    2  C10 UNL     1     -19.758  19.608 -14.153  1.00  0.00     0.066 C 
HETATM    3  C11 UNL     1     -21.057  19.848 -14.907  1.00  0.00     0.082 C 
HETATM    4  C12 UNL     1     -20.869  20.356 -16.309  1.00  0.00     0.067 C 
HETATM    5  C13 UNL     1     -20.099  19.447 -17.209  1.00  0.00     0.041 C 
HETATM    6  C14 UNL     1     -21.052  18.445 -17.819  1.00  0.00     0.041 C 
HETATM    7  C15 UNL     1     -22.008  19.217 -18.688  1.00  0.00     0.246 C 
HETATM    8  C20 UNL     1     -22.270  20.586 -18.133  1.00  0.00     0.204 C 
HETATM    9  O1  UNL     1     -22.142  20.671 -16.773  1.00  0.00    -0.378 OA
HETATM   10  C21 UNL     1     -20.027  21.634 -16.173  1.00  0.00     0.058 C 
HETATM   11  C22 UNL     1     -18.740  21.269 -15.505  1.00  0.00     0.130 C 
ENDROOT
BRANCH   1  12
HETATM   12  C9  UNL     1     -17.662  20.652 -13.530  1.00  0.00     0.067 C 
BRANCH  12  13
HETATM   13  C8  UNL     1     -17.360  21.683 -12.501  1.00  0.00     0.025 C 
HETATM   14  C7  UNL     1     -18.483  22.493 -11.974  1.00  0.00     0.010 C 
HETATM   15  C6  UNL     1     -18.070  22.882 -10.533  1.00  0.00     0.010 C 
HETATM   16  C5  UNL     1     -16.720  22.298 -10.341  1.00  0.00     0.026 C 
HETATM   17  C23 UNL     1     -16.798  21.051 -11.225  1.00  0.00     0.019 C 
BRANCH  16  18
HETATM   18  C4  UNL     1     -16.464  21.956  -8.915  1.00  0.00    -0.012 A 
HETATM   19  C3  UNL     1     -15.511  21.135  -8.374  1.00  0.00     0.017 A 
HETATM   20  C2  UNL     1     -15.502  20.999  -7.035  1.00  0.00     0.032 A 
HETATM   21  C1  UNL     1     -16.451  21.698  -6.330  1.00  0.00     0.075 A 
HETATM   22 CL1  UNL     1     -16.677  21.717  -4.567  1.00  0.00    -0.076 Cl
HETATM   23  S1  UNL     1     -17.315  22.513  -7.551  1.00  0.00    -0.082 SA
ENDBRANCH  16  18
ENDBRANCH  12  13
ENDBRANCH   1  12
BRANCH   7  24
HETATM   24  N2  UNL     1     -23.210  18.488 -19.005  1.00  0.00     0.095 N 
HETATM   25  C16 UNL     1     -23.012  17.115 -19.342  1.00  0.00     0.273 C 
HETATM   26  C17 UNL     1     -23.974  16.855 -20.492  1.00  0.00     0.032 C 
HETATM   27  C18 UNL     1     -23.885  18.164 -21.248  1.00  0.00     0.032 C 
HETATM   28  C19 UNL     1     -23.872  19.156 -20.076  1.00  0.00     0.273 C 
ENDBRANCH   7  24
TORSDOF 4
ENDMDL
MODEL 3
REMARK VINA RESULT: -8.726427709      1.337      1.636
REMARK  4 active torsions:
REMARK  status: ('A' for Active; 'I' for Inactive)
REMARK    1  A    between atoms: C4_5  and  C5_6 
REMARK    2  A    between atoms: C8_9  and  C9_10 
REMARK    3  A    between atoms: C9_10  and  N1_11 
REMARK    4  A    between atoms: C15_17  and  N2_18 
ROOT
HETATM    1  N1  UNL     1     -19.067  20.708 -14.397  1.00  0.00    -0.373 N 
HETATM    2  C10 UNL     1     -19.809  19.530 -14.397  1.00  0.00     0.066 C 
HETATM    3  C11 UNL     1     -21.136  19.654 -15.129  1.00  0.00     0.082 C 
HETATM    4  C12 UNL     1     -21.024  20.251 -16.504  1.00  0.00     0.067 C 
HETATM    5  C13 UNL     1     -20.166  19.486 -17.455  1.00  0.00     0.041 C 
HETATM    6  C14 UNL     1     -21.003  18.412 -18.109  1.00  0.00     0.041 C 
HETATM    7  C15 UNL     1     -22.052  19.110 -18.931  1.00  0.00     0.246 C 
HETATM    8  C20 UNL     1     -22.464  20.409 -18.304  1.00  0.00     0.204 C 
HETATM    9  O1  UNL     1     -22.331  20.439 -16.943  1.00  0.00    -0.378 OA
HETATM   10  C21 UNL     1     -20.336  21.610 -16.306  1.00  0.00     0.058 C 
HETATM   11  C22 UNL     1     -19.006  21.364 -15.666  1.00  0.00     0.130 C 
ENDROOT
BRANCH   1  12
HETATM   12  C9  UNL     1     -17.840  20.778 -13.733  1.00  0.00     0.067 C 
BRANCH  12  13
HETATM   13  C8  UNL     1     -17.622  21.832 -12.706  1.00  0.00     0.025 C 
HETATM   14  C7  UNL     1     -18.811  22.496 -12.123  1.00  0.00     0.010 C 
HETATM   15  C6  UNL     1     -18.386  22.924 -10.697  1.00  0.00     0.010 C 
HETATM   16  C5  UNL     1     -16.968  22.510 -10.569  1.00  0.00     0.026 C 
HETATM   17  C23 UNL     1     -16.932  21.267 -11.463  1.00  0.00     0.019 C 
BRANCH  16  18
HETATM   18  C4  UNL     1     -16.609  22.193  -9.159  1.00  0.00    -0.012 A 
HETATM   19  C3  UNL     1     -15.500  21.562  -8.663  1.00  0.00     0.017 A 
HETATM   20  C2  UNL     1     -15.427  21.403  -7.329  1.00  0.00     0.032 A 
HETATM   21  C1  UNL     1     -16.474  21.888  -6.583  1.00  0.00     0.075 A 
HETATM   22 CL1  UNL     1     -16.649  21.824  -4.816  1.00  0.00    -0.076 Cl
HETATM   23  S1  UNL     1     -17.513  22.544  -7.761  1.00  0.00    -0.082 SA
ENDBRANCH  16  18
ENDBRANCH  12  13
ENDBRANCH   1  12
BRANCH   7  24
HETATM   24  N2  UNL     1     -23.165  18.263 -19.278  1.00  0.00     0.095 N 
HETATM   25  C16 UNL     1     -24.417  18.936 -19.415  1.00  0.00     0.273 C 
HETATM   26  C17 UNL     1     -25.434  17.996 -18.785  1.00  0.00     0.032 C 
HETATM   27  C18 UNL     1     -24.640  17.445 -17.620  1.00  0.00     0.032 C 
HETATM   28  C19 UNL     1     -23.276  17.238 -18.293  1.00  0.00     0.273 C 
ENDBRANCH   7  24
TORSDOF 4
ENDMDL
MODEL 4
REMARK VINA RESULT: -8.724185099      2.375      2.949
REMARK  4 active torsions:
REMARK  status: ('A' for Active; 'I' for Inactive)
REMARK    1  A    between atoms: C4_5  and  C5_6 
REMARK    2  A    between atoms: C8_9  and  C9_10 
REMARK    3  A    between atoms: C9_10  and  N1_11 
REMARK    4  A    between atoms: C15_17  and  N2_18 
ROOT
HETATM    1  N1  UNL     1     -18.905  19.734 -13.899  1.00  0.00    -0.373 N 
HETATM    2  C10 UNL     1     -19.053  18.373 -13.648  1.00  0.00     0.066 C 
HETATM    3  C11 UNL     1     -20.494  17.898 -13.747  1.00  0.00     0.082 C 
HETATM    4  C12 UNL     1     -21.195  18.320 -15.008  1.00  0.00     0.067 C 
HETATM    5  C13 UNL     1     -20.571  17.825 -16.271  1.00  0.00     0.041 C 
HETATM    6  C14 UNL     1     -21.105  16.443 -16.568  1.00  0.00     0.041 C 
HETATM    7  C15 UNL     1     -22.579  16.588 -16.835  1.00  0.00     0.246 C 
HETATM    8  C20 UNL     1     -23.175  17.701 -16.026  1.00  0.00     0.204 C 
HETATM    9  O1  UNL     1     -22.525  17.946 -14.847  1.00  0.00    -0.378 OA
HETATM   10  C21 UNL     1     -21.080  19.851 -15.048  1.00  0.00     0.058 C 
HETATM   11  C22 UNL     1     -19.627  20.205 -15.040  1.00  0.00     0.130 C 
ENDROOT
BRANCH   1  12
HETATM   12  C9  UNL     1     -17.650  20.343 -13.809  1.00  0.00     0.067 C 
BRANCH  12  13
HETATM   13  C8  UNL     1     -17.447  21.466 -12.855  1.00  0.00     0.025 C 
HETATM   14  C7  UNL     1     -18.643  22.184 -12.356  1.00  0.00     0.010 C 
HETATM   15  C6  UNL     1     -18.254  22.709 -10.953  1.00  0.00     0.010 C 
HETATM   16  C5  UNL     1     -16.846  22.288 -10.753  1.00  0.00     0.026 C 
HETATM   17  C23 UNL     1     -16.801  20.984 -11.554  1.00  0.00     0.019 C 
BRANCH  16  18
HETATM   18  C4  UNL     1     -16.533  22.069  -9.314  1.00  0.00    -0.012 A 
HETATM   19  C3  UNL     1     -15.455  21.450  -8.741  1.00  0.00     0.017 A 
HETATM   20  C2  UNL     1     -15.421  21.390  -7.398  1.00  0.00     0.032 A 
HETATM   21  C1  UNL     1     -16.473  21.956  -6.720  1.00  0.00     0.075 A 
HETATM   22 CL1  UNL     1     -16.695  22.030  -4.958  1.00  0.00    -0.076 Cl
HETATM   23  S1  UNL     1     -17.463  22.548  -7.972  1.00  0.00    -0.082 SA
ENDBRANCH  16  18
ENDBRANCH  12  13
ENDBRANCH   1  12
BRANCH   7  24
HETATM   24  N2  UNL     1     -23.305  15.348 -16.726  1.00  0.00     0.095 N 
HETATM   25  C16 UNL     1     -24.665  15.480 -16.312  1.00  0.00     0.273 C 
HETATM   26  C17 UNL     1     -24.894  14.318 -15.355  1.00  0.00     0.032 C 
HETATM   27  C18 UNL     1     -23.560  14.263 -14.640  1.00  0.00     0.032 C 
HETATM   28  C19 UNL     1     -22.607  14.495 -15.821  1.00  0.00     0.273 C 
ENDBRANCH   7  24
TORSDOF 4
ENDMDL
MODEL 5
REMARK VINA RESULT: -8.657052763      4.761     10.085
REMARK  4 active torsions:
REMARK  status: ('A' for Active; 'I' for Inactive)
REMARK    1  A    between atoms: C4_5  and  C5_6 
REMARK    2  A    between atoms: C8_9  and  C9_10 
REMARK    3  A    between atoms: C9_10  and  N1_11 
REMARK    4  A    between atoms: C15_17  and  N2_18 
ROOT
HETATM    1  N1  UNL     1     -18.842  22.227 -15.546  1.00  0.00    -0.373 N 
HETATM    2  C10 UNL     1     -17.491  22.280 -15.215  1.00  0.00     0.066 C 
HETATM    3  C11 UNL     1     -17.229  22.930 -13.865  1.00  0.00     0.082 C 
HETATM    4  C12 UNL     1     -18.064  22.378 -12.745  1.00  0.00     0.067 C 
HETATM    5  C13 UNL     1     -17.877  20.921 -12.478  1.00  0.00     0.041 C 
HETATM    6  C14 UNL     1     -16.704  20.745 -11.542  1.00  0.00     0.041 C 
HETATM    7  C15 UNL     1     -17.084  21.384 -10.234  1.00  0.00     0.246 C 
HETATM    8  C20 UNL     1     -17.985  22.565 -10.443  1.00  0.00     0.204 C 
HETATM    9  O1  UNL     1     -17.813  23.193 -11.646  1.00  0.00    -0.378 OA
HETATM   10  C21 UNL     1     -19.522  22.544 -13.200  1.00  0.00     0.058 C 
HETATM   11  C22 UNL     1     -19.693  21.792 -14.482  1.00  0.00     0.130 C 
ENDROOT
BRANCH   1  12
HETATM   12  C9  UNL     1     -19.254  21.696 -16.771  1.00  0.00     0.067 C 
BRANCH  12  13
HETATM   13  C8  UNL     1     -20.451  20.814 -16.822  1.00  0.00     0.025 C 
HETATM   14  C7  UNL     1     -21.534  21.158 -17.772  1.00  0.00     0.010 C 
HETATM   15  C6  UNL     1     -22.203  19.811 -18.141  1.00  0.00     0.010 C 
HETATM   16  C5  UNL     1     -21.483  18.786 -17.348  1.00  0.00     0.026 C 
HETATM   17  C23 UNL     1     -20.081  19.396 -17.263  1.00  0.00     0.019 C 
BRANCH  16  18
HETATM   18  C4  UNL     1     -21.475  17.463 -18.032  1.00  0.00    -0.012 A 
HETATM   19  C3  UNL     1     -21.298  16.212 -17.507  1.00  0.00     0.017 A 
HETATM   20  C2  UNL     1     -21.336  15.174 -18.362  1.00  0.00     0.032 A 
HETATM   21  C1  UNL     1     -21.550  15.463 -19.687  1.00  0.00     0.075 A 
HETATM   22 CL1  UNL     1     -21.653  14.306 -21.032  1.00  0.00    -0.076 Cl
HETATM   23  S1  UNL     1     -21.688  17.160 -19.693  1.00  0.00    -0.082 SA
ENDBRANCH  16  18
ENDBRANCH  12  13
ENDBRANCH   1  12
BRANCH   7  24
HETATM   24  N2  UNL     1     -15.953  21.669  -9.387  1.00  0.00     0.095 N 
HETATM   25  C16 UNL     1     -15.584  20.615  -8.498  1.00  0.00     0.273 C 
HETATM   26  C17 UNL     1     -15.223  21.313  -7.195  1.00  0.00     0.032 C 
HETATM   27  C18 UNL     1     -16.253  22.424  -7.165  1.00  0.00     0.032 C 
HETATM   28  C19 UNL     1     -16.237  22.850  -8.639  1.00  0.00     0.273 C 
ENDBRANCH   7  24
TORSDOF 4
ENDMDL
