MODEL 1
REMARK VINA RESULT: -8.323304524      0.000      0.000
REMARK  4 active torsions:
REMARK  status: ('A' for Active; 'I' for Inactive)
REMARK    1  A    between atoms: C1_2  and  C2_3 
REMARK       I    between atoms: C1_2  and  N1_10 
REMARK    2  A    between atoms: C2_3  and  C3_4 
REMARK    3  A    between atoms: N2_17  and  C15_18 
REMARK    4  A    between atoms: C16_21  and  C17_22 
ROOT
HETATM    1  O1  UNL     1     -22.714  16.790 -17.700  1.00  0.00    -0.273 OA
HETATM    2  C1  UNL     1     -22.663  17.497 -16.649  1.00  0.00     0.220 C 
HETATM    3  N1  UNL     1     -21.667  18.506 -16.560  1.00  0.00    -0.351 N 
HETATM    4  C9  UNL     1     -20.750  18.683 -17.654  1.00  0.00     0.126 C 
HETATM    5  C10 UNL     1     -20.328  20.132 -17.700  1.00  0.00     0.021 C 
HETATM    6  C11 UNL     1     -19.607  20.548 -16.442  1.00  0.00     0.014 C 
HETATM    7  C12 UNL     1     -20.240  19.994 -15.200  1.00  0.00    -0.006 C 
HETATM    8  C13 UNL     1     -19.267  19.135 -14.417  1.00  0.00     0.033 C 
HETATM    9  C14 UNL     1     -18.322  20.183 -13.875  1.00  0.00     0.125 C 
HETATM   10  N2  UNL     1     -19.162  21.362 -13.629  1.00  0.00    -0.365 N 
HETATM   11  C22 UNL     1     -20.434  21.144 -14.222  1.00  0.00     0.135 C 
HETATM   12  C23 UNL     1     -21.574  19.347 -15.409  1.00  0.00     0.136 C 
ENDROOT
BRANCH  10  13
HETATM   13  C15 UNL     1     -18.610  22.464 -12.900  1.00  0.00     0.128 A 
HETATM   14  N3  UNL     1     -18.373  22.396 -11.569  1.00  0.00    -0.330 N 
HETATM   15  C16 UNL     1     -17.839  23.386 -10.845  1.00  0.00     0.086 A 
ATOM     16  H3  UNL     1     -18.617  21.531 -11.085  1.00  0.00     0.168 HD
HETATM   17  N4  UNL     1     -17.512  24.529 -11.458  1.00  0.00    -0.354 N 
HETATM   18  C20 UNL     1     -17.707  24.693 -12.756  1.00  0.00     0.117 A 
ATOM     19  H4  UNL     1     -17.104  25.289 -10.913  1.00  0.00     0.166 HD
HETATM   20  C21 UNL     1     -18.261  23.656 -13.492  1.00  0.00     0.093 A 
HETATM   21 CL1  UNL     1     -18.520  23.919 -15.188  1.00  0.00    -0.079 Cl
BRANCH  15  22
HETATM   22  C17 UNL     1     -17.602  23.258  -9.391  1.00  0.00     0.053 A 
HETATM   23  C18 UNL     1     -17.593  21.926  -8.738  1.00  0.00     0.013 A 
HETATM   24  C19 UNL     1     -16.315  22.645  -8.888  1.00  0.00     0.013 A 
ENDBRANCH  15  22
ENDBRANCH  10  13
BRANCH   2  25
HETATM   25  C2  UNL     1     -23.616  17.266 -15.558  1.00  0.00     0.107 C 
BRANCH  25  26
HETATM   26  C3  UNL     1     -23.404  15.932 -14.923  1.00  0.00    -0.006 C 
HETATM   27  C4  UNL     1     -24.444  15.545 -13.914  1.00  0.00     0.005 C 
HETATM   28  C5  UNL     1     -24.395  16.428 -12.687  1.00  0.00     0.000 C 
HETATM   29  C6  UNL     1     -23.016  16.174 -12.064  1.00  0.00     0.000 C 
HETATM   30  C7  UNL     1     -21.990  16.714 -13.025  1.00  0.00     0.000 C 
HETATM   31  C8  UNL     1     -22.009  15.890 -14.304  1.00  0.00     0.005 C 
ENDBRANCH  25  26
ENDBRANCH   2  25
TORSDOF 4
ENDMDL
MODEL 2
REMARK VINA RESULT: -8.170354404      1.870      2.627
REMARK  4 active torsions:
REMARK  status: ('A' for Active; 'I' for Inactive)
REMARK    1  A    between atoms: C1_2  and  C2_3 
REMARK       I    between atoms: C1_2  and  N1_10 
REMARK    2  A    between atoms: C2_3  and  C3_4 
REMARK    3  A    between atoms: N2_17  and  C15_18 
REMARK    4  A    between atoms: C16_21  and  C17_22 
ROOT
HETATM    1  O1  UNL     1     -22.399  18.819 -18.239  1.00  0.00    -0.273 OA
HETATM    2  C1  UNL     1     -22.195  19.006 -17.003  1.00  0.00     0.220 C 
HETATM    3  N1  UNL     1     -21.380  20.101 -16.609  1.00  0.00    -0.351 N 
HETATM    4  C9  UNL     1     -20.807  20.947 -17.621  1.00  0.00     0.126 C 
HETATM    5  C10 UNL     1     -20.642  22.336 -17.051  1.00  0.00     0.021 C 
HETATM    6  C11 UNL     1     -19.701  22.352 -15.872  1.00  0.00     0.014 C 
HETATM    7  C12 UNL     1     -19.905  21.186 -14.950  1.00  0.00    -0.006 C 
HETATM    8  C13 UNL     1     -18.644  20.355 -14.819  1.00  0.00     0.033 C 
HETATM    9  C14 UNL     1     -17.768  21.280 -14.003  1.00  0.00     0.125 C 
HETATM   10  N2  UNL     1     -18.693  21.990 -13.111  1.00  0.00    -0.365 N 
HETATM   11  C22 UNL     1     -20.023  21.727 -13.533  1.00  0.00     0.135 C 
HETATM   12  C23 UNL     1     -21.131  20.372 -15.228  1.00  0.00     0.136 C 
ENDROOT
BRANCH  10  13
HETATM   13  C15 UNL     1     -18.154  22.783 -12.047  1.00  0.00     0.128 A 
HETATM   14  N3  UNL     1     -18.325  24.126 -11.997  1.00  0.00    -0.330 N 
HETATM   15  C16 UNL     1     -17.863  24.910 -11.016  1.00  0.00     0.086 A 
ATOM     16  H3  UNL     1     -18.839  24.569 -12.759  1.00  0.00     0.168 HD
HETATM   17  N4  UNL     1     -17.185  24.350 -10.009  1.00  0.00    -0.354 N 
HETATM   18  C20 UNL     1     -16.965  23.047  -9.969  1.00  0.00     0.117 A 
ATOM     19  H4  UNL     1     -16.830  24.941  -9.256  1.00  0.00     0.166 HD
HETATM   20  C21 UNL     1     -17.452  22.248 -10.993  1.00  0.00     0.093 A 
HETATM   21 CL1  UNL     1     -17.124  20.545 -10.914  1.00  0.00    -0.079 Cl
BRANCH  15  22
HETATM   22  C17 UNL     1     -18.077  26.373 -11.012  1.00  0.00     0.053 A 
HETATM   23  C18 UNL     1     -18.776  27.041 -12.137  1.00  0.00     0.013 A 
HETATM   24  C19 UNL     1     -19.471  26.931 -10.842  1.00  0.00     0.013 A 
ENDBRANCH  15  22
ENDBRANCH  10  13
BRANCH   2  25
HETATM   25  C2  UNL     1     -22.794  18.104 -16.012  1.00  0.00     0.107 C 
BRANCH  25  26
HETATM   26  C3  UNL     1     -22.182  16.744 -16.075  1.00  0.00    -0.006 C 
HETATM   27  C4  UNL     1     -22.960  15.672 -15.370  1.00  0.00     0.005 C 
HETATM   28  C5  UNL     1     -22.978  15.882 -13.873  1.00  0.00     0.000 C 
HETATM   29  C6  UNL     1     -21.512  15.766 -13.433  1.00  0.00     0.000 C 
HETATM   30  C7  UNL     1     -20.779  16.941 -14.025  1.00  0.00     0.000 C 
HETATM   31  C8  UNL     1     -20.753  16.814 -15.540  1.00  0.00     0.005 C 
ENDBRANCH  25  26
ENDBRANCH   2  25
TORSDOF 4
ENDMDL
MODEL 3
REMARK VINA RESULT: -8.145267378      3.101      8.729
REMARK  4 active torsions:
REMARK  status: ('A' for Active; 'I' for Inactive)
REMARK    1  A    between atoms: C1_2  and  C2_3 
REMARK       I    between atoms: C1_2  and  N1_10 
REMARK    2  A    between atoms: C2_3  and  C3_4 
REMARK    3  A    between atoms: N2_17  and  C15_18 
REMARK    4  A    between atoms: C16_21  and  C17_22 
ROOT
HETATM    1  O1  UNL     1     -17.394  24.357 -12.794  1.00  0.00    -0.273 OA
HETATM    2  C1  UNL     1     -17.775  23.153 -12.689  1.00  0.00     0.220 C 
HETATM    3  N1  UNL     1     -18.192  22.469 -13.863  1.00  0.00    -0.351 N 
HETATM    4  C9  UNL     1     -18.180  23.168 -15.121  1.00  0.00     0.126 C 
HETATM    5  C10 UNL     1     -17.938  22.166 -16.225  1.00  0.00     0.021 C 
HETATM    6  C11 UNL     1     -19.036  21.134 -16.299  1.00  0.00     0.014 C 
HETATM    7  C12 UNL     1     -19.480  20.661 -14.946  1.00  0.00    -0.006 C 
HETATM    8  C13 UNL     1     -20.955  20.927 -14.722  1.00  0.00     0.033 C 
HETATM    9  C14 UNL     1     -21.580  19.914 -15.655  1.00  0.00     0.125 C 
HETATM   10  N2  UNL     1     -20.673  18.759 -15.625  1.00  0.00    -0.365 N 
HETATM   11  C22 UNL     1     -19.477  19.139 -14.960  1.00  0.00     0.135 C 
HETATM   12  C23 UNL     1     -18.613  21.105 -13.809  1.00  0.00     0.136 C 
ENDROOT
BRANCH  10  13
HETATM   13  C15 UNL     1     -21.095  17.534 -16.233  1.00  0.00     0.128 A 
HETATM   14  N3  UNL     1     -21.137  17.377 -17.577  1.00  0.00    -0.330 N 
HETATM   15  C16 UNL     1     -21.501  16.247 -18.195  1.00  0.00     0.086 A 
ATOM     16  H3  UNL     1     -20.873  18.173 -18.158  1.00  0.00     0.168 HD
HETATM   17  N4  UNL     1     -21.851  15.191 -17.454  1.00  0.00    -0.354 N 
HETATM   18  C20 UNL     1     -21.844  15.246 -16.132  1.00  0.00     0.117 A 
ATOM     19  H4  UNL     1     -22.130  14.326 -17.917  1.00  0.00     0.166 HD
HETATM   20  C21 UNL     1     -21.464  16.424 -15.507  1.00  0.00     0.093 A 
HETATM   21 CL1  UNL     1     -21.488  16.462 -13.772  1.00  0.00    -0.079 Cl
BRANCH  15  22
HETATM   22  C17 UNL     1     -21.529  16.131 -19.668  1.00  0.00     0.053 A 
HETATM   23  C18 UNL     1     -22.291  15.043 -20.330  1.00  0.00     0.013 A 
HETATM   24  C19 UNL     1     -22.805  16.422 -20.424  1.00  0.00     0.013 A 
ENDBRANCH  15  22
ENDBRANCH  10  13
BRANCH   2  25
HETATM   25  C2  UNL     1     -17.779  22.492 -11.379  1.00  0.00     0.107 C 
BRANCH  25  26
HETATM   26  C3  UNL     1     -17.816  23.488 -10.269  1.00  0.00    -0.006 C 
HETATM   27  C4  UNL     1     -16.558  23.567  -9.454  1.00  0.00     0.005 C 
HETATM   28  C5  UNL     1     -16.320  22.301  -8.662  1.00  0.00     0.000 C 
HETATM   29  C6  UNL     1     -17.504  22.206  -7.691  1.00  0.00     0.000 C 
HETATM   30  C7  UNL     1     -18.739  21.970  -8.521  1.00  0.00     0.000 C 
HETATM   31  C8  UNL     1     -19.019  23.197  -9.376  1.00  0.00     0.005 C 
ENDBRANCH  25  26
ENDBRANCH   2  25
TORSDOF 4
ENDMDL
MODEL 4
REMARK VINA RESULT: -8.093093795      2.471      4.323
REMARK  4 active torsions:
REMARK  status: ('A' for Active; 'I' for Inactive)
REMARK    1  A    between atoms: C1_2  and  C2_3 
REMARK       I    between atoms: C1_2  and  N1_10 
REMARK    2  A    between atoms: C2_3  and  C3_4 
REMARK    3  A    between atoms: N2_17  and  C15_18 
REMARK    4  A    between atoms: C16_21  and  C17_22 
ROOT
HETATM    1  O1  UNL     1     -23.353  14.208 -16.664  1.00  0.00    -0.273 OA
HETATM    2  C1  UNL     1     -22.348  14.957 -16.849  1.00  0.00     0.220 C 
HETATM    3  N1  UNL     1     -22.093  15.993 -15.911  1.00  0.00    -0.351 N 
HETATM    4  C9  UNL     1     -22.987  16.164 -14.797  1.00  0.00     0.126 C 
HETATM    5  C10 UNL     1     -22.207  16.736 -13.637  1.00  0.00     0.021 C 
HETATM    6  C11 UNL     1     -21.634  18.093 -13.961  1.00  0.00     0.014 C 
HETATM    7  C12 UNL     1     -21.071  18.170 -15.349  1.00  0.00    -0.006 C 
HETATM    8  C13 UNL     1     -21.758  19.245 -16.168  1.00  0.00     0.033 C 
HETATM    9  C14 UNL     1     -21.220  20.499 -15.517  1.00  0.00     0.125 C 
HETATM   10  N2  UNL     1     -19.850  20.159 -15.112  1.00  0.00    -0.365 N 
HETATM   11  C22 UNL     1     -19.670  18.757 -15.253  1.00  0.00     0.135 C 
HETATM   12  C23 UNL     1     -20.963  16.856 -16.058  1.00  0.00     0.136 C 
ENDROOT
BRANCH  10  13
HETATM   13  C15 UNL     1     -18.982  21.205 -14.663  1.00  0.00     0.128 A 
HETATM   14  N3  UNL     1     -18.774  21.449 -13.347  1.00  0.00    -0.330 N 
HETATM   15  C16 UNL     1     -17.957  22.398 -12.874  1.00  0.00     0.086 A 
ATOM     16  H3  UNL     1     -19.273  20.870 -12.671  1.00  0.00     0.168 HD
HETATM   17  N4  UNL     1     -17.293  23.168 -13.743  1.00  0.00    -0.354 N 
HETATM   18  C20 UNL     1     -17.432  23.008 -15.048  1.00  0.00     0.117 A 
ATOM     19  H4  UNL     1     -16.668  23.893 -13.391  1.00  0.00     0.166 HD
HETATM   20  C21 UNL     1     -18.282  22.020 -15.522  1.00  0.00     0.093 A 
HETATM   21 CL1  UNL     1     -18.451  21.857 -17.242  1.00  0.00    -0.079 Cl
BRANCH  15  22
HETATM   22  C17 UNL     1     -17.767  22.621 -11.426  1.00  0.00     0.053 A 
HETATM   23  C18 UNL     1     -17.739  23.995 -10.866  1.00  0.00     0.013 A 
HETATM   24  C19 UNL     1     -18.910  23.145 -10.587  1.00  0.00     0.013 A 
ENDBRANCH  15  22
ENDBRANCH  10  13
BRANCH   2  25
HETATM   25  C2  UNL     1     -21.475  14.746 -18.010  1.00  0.00     0.107 C 
BRANCH  25  26
HETATM   26  C3  UNL     1     -22.255  14.744 -19.282  1.00  0.00    -0.006 C 
HETATM   27  C4  UNL     1     -21.499  14.250 -20.481  1.00  0.00     0.005 C 
HETATM   28  C5  UNL     1     -20.375  15.188 -20.864  1.00  0.00     0.000 C 
HETATM   29  C6  UNL     1     -21.064  16.503 -21.251  1.00  0.00     0.000 C 
HETATM   30  C7  UNL     1     -21.685  17.063 -19.998  1.00  0.00     0.000 C 
HETATM   31  C8  UNL     1     -22.806  16.146 -19.532  1.00  0.00     0.005 C 
ENDBRANCH  25  26
ENDBRANCH   2  25
TORSDOF 4
ENDMDL
MODEL 5
REMARK VINA RESULT: -8.034381483      1.387      1.854
REMARK  4 active torsions:
REMARK  status: ('A' for Active; 'I' for Inactive)
REMARK    1  A    between atoms: C1_2  and  C2_3 
REMARK       I    between atoms: C1_2  and  N1_10 
REMARK    2  A    between atoms: C2_3  and  C3_4 
REMARK    3  A    between atoms: N2_17  and  C15_18 
REMARK    4  A    between atoms: C16_21  and  C17_22 
ROOT
HETATM    1  O1  UNL     1     -23.581  15.046 -16.448  1.00  0.00    -0.273 OA
HETATM    2  C1  UNL     1     -23.471  16.064 -15.702  1.00  0.00     0.220 C 
HETATM    3  N1  UNL     1     -22.436  16.997 -15.978  1.00  0.00    -0.351 N 
HETATM    4  C9  UNL     1     -21.546  16.749 -17.081  1.00  0.00     0.126 C 
HETATM    5  C10 UNL     1     -21.071  18.076 -17.625  1.00  0.00     0.021 C 
HETATM    6  C11 UNL     1     -20.297  18.860 -16.596  1.00  0.00     0.014 C 
HETATM    7  C12 UNL     1     -20.911  18.791 -15.229  1.00  0.00    -0.006 C 
HETATM    8  C13 UNL     1     -19.948  18.205 -14.217  1.00  0.00     0.033 C 
HETATM    9  C14 UNL     1     -18.947  19.331 -14.079  1.00  0.00     0.125 C 
HETATM   10  N2  UNL     1     -19.734  20.560 -14.236  1.00  0.00    -0.365 N 
HETATM   11  C22 UNL     1     -21.032  20.213 -14.698  1.00  0.00     0.135 C 
HETATM   12  C23 UNL     1     -22.275  18.174 -15.184  1.00  0.00     0.136 C 
ENDROOT
BRANCH  10  13
HETATM   13  C15 UNL     1     -19.120  21.818 -13.935  1.00  0.00     0.128 A 
HETATM   14  N3  UNL     1     -19.006  22.274 -12.665  1.00  0.00    -0.330 N 
HETATM   15  C16 UNL     1     -18.421  23.429 -12.327  1.00  0.00     0.086 A 
ATOM     16  H3  UNL     1     -19.392  21.699 -11.916  1.00  0.00     0.168 HD
HETATM   17  N4  UNL     1     -17.909  24.199 -13.293  1.00  0.00    -0.354 N 
HETATM   18  C20 UNL     1     -17.972  23.840 -14.564  1.00  0.00     0.117 A 
ATOM     19  H4  UNL     1     -17.461  25.081 -13.044  1.00  0.00     0.166 HD
HETATM   20  C21 UNL     1     -18.581  22.639 -14.897  1.00  0.00     0.093 A 
HETATM   21 CL1  UNL     1     -18.661  22.215 -16.579  1.00  0.00    -0.079 Cl
BRANCH  15  22
HETATM   22  C17 UNL     1     -18.326  23.881 -10.923  1.00  0.00     0.053 A 
HETATM   23  C18 UNL     1     -18.829  23.031  -9.816  1.00  0.00     0.013 A 
HETATM   24  C19 UNL     1     -17.372  23.193  -9.973  1.00  0.00     0.013 A 
ENDBRANCH  15  22
ENDBRANCH  10  13
BRANCH   2  25
HETATM   25  C2  UNL     1     -24.398  16.263 -14.582  1.00  0.00     0.107 C 
BRANCH  25  26
HETATM   26  C3  UNL     1     -24.116  15.310 -13.468  1.00  0.00    -0.006 C 
HETATM   27  C4  UNL     1     -25.316  14.569 -12.956  1.00  0.00     0.005 C 
HETATM   28  C5  UNL     1     -26.297  15.493 -12.269  1.00  0.00     0.000 C 
HETATM   29  C6  UNL     1     -25.539  16.054 -11.058  1.00  0.00     0.000 C 
HETATM   30  C7  UNL     1     -24.431  16.922 -11.594  1.00  0.00     0.000 C 
HETATM   31  C8  UNL     1     -23.420  16.059 -12.334  1.00  0.00     0.005 C 
ENDBRANCH  25  26
ENDBRANCH   2  25
TORSDOF 4
ENDMDL
