MODEL 1
REMARK VINA RESULT: -8.508640040      0.000      0.000
REMARK  6 active torsions:
REMARK  status: ('A' for Active; 'I' for Inactive)
REMARK    1  A    between atoms: N1_1  and  N2_4 
REMARK       I    between atoms: N2_4  and  C1_6 
REMARK    2  A    between atoms: C1_6  and  O2_8 
REMARK    3  A    between atoms: O2_8  and  C2_9 
REMARK    4  A    between atoms: C2_9  and  C3_10 
REMARK    5  A    between atoms: C8_15  and  N3_16 
REMARK    6  A    between atoms: N3_16  and  C9_18 
ROOT
HETATM    1  C3  UNL     1     -15.614 -26.061 -24.919  1.00  0.00    -0.007 A 
HETATM    2  C4  UNL     1     -16.883 -26.504 -25.185  1.00  0.00     0.011 A 
HETATM    3  C5  UNL     1     -17.110 -27.513 -26.133  1.00  0.00     0.001 A 
HETATM    4  C6  UNL     1     -16.099 -28.088 -26.824  1.00  0.00     0.002 A 
HETATM    5  C7  UNL     1     -14.815 -27.652 -26.568  1.00  0.00     0.030 A 
HETATM    6  C8  UNL     1     -14.578 -26.661 -25.638  1.00  0.00     0.057 A 
ENDROOT
BRANCH   6   7
HETATM    7  N3  UNL     1     -13.262 -26.207 -25.369  1.00  0.00    -0.189 N 
ATOM      8  H3  UNL     1     -13.106 -25.456 -24.697  1.00  0.00     0.184 HD
BRANCH   7   9
HETATM    9  C9  UNL     1     -12.258 -26.754 -25.983  1.00  0.00     0.714 A 
HETATM   10  N4  UNL     1     -11.951 -26.723 -27.297  1.00  0.00    -0.115 N 
HETATM   11  N5  UNL     1     -10.846 -27.403 -27.517  1.00  0.00    -0.213 N 
ATOM     12  H4  UNL     1     -12.496 -26.244 -28.014  1.00  0.00     0.207 HD
HETATM   13  N6  UNL     1     -10.440 -27.871 -26.352  1.00  0.00    -0.213 N 
ATOM     14  H5  UNL     1     -10.390 -27.542 -28.418  1.00  0.00     0.210 HD
HETATM   15  N7  UNL     1     -11.282 -27.490 -25.397  1.00  0.00    -0.115 N 
ATOM     16  H6  UNL     1      -9.606 -28.438 -26.206  1.00  0.00     0.210 HD
ATOM     17  H7  UNL     1     -11.208 -27.711 -24.404  1.00  0.00     0.207 HD
ENDBRANCH   7   9
ENDBRANCH   6   7
BRANCH   1  18
HETATM   18  C2  UNL     1     -15.276 -24.989 -23.971  1.00  0.00     0.221 C 
BRANCH  18  19
HETATM   19  O2  UNL     1     -15.094 -25.362 -22.653  1.00  0.00    -0.298 OA
BRANCH  19  20
HETATM   20  C1  UNL     1     -14.593 -24.620 -21.620  1.00  0.00     0.379 C 
HETATM   21  N2  UNL     1     -13.820 -25.235 -20.589  1.00  0.00    -0.252 N 
ATOM     22  H2  UNL     1     -13.642 -26.238 -20.627  1.00  0.00     0.191 HD
HETATM   23  O1  UNL     1     -14.835 -23.372 -21.603  1.00  0.00    -0.237 OA
BRANCH  21  24
HETATM   24  N1  UNL     1     -13.302 -24.483 -19.526  1.00  0.00    -0.341 N 
ATOM     25  H12 UNL     1     -13.139 -24.951 -18.634  1.00  0.00     0.177 HD
ATOM     26  H11 UNL     1     -13.092 -23.491 -19.634  1.00  0.00     0.177 HD
ENDBRANCH  21  24
ENDBRANCH  19  20
ENDBRANCH  18  19
ENDBRANCH   1  18
TORSDOF 6
ENDMDL
MODEL 2
REMARK VINA RESULT: -8.027132825      1.411      1.960
REMARK  6 active torsions:
REMARK  status: ('A' for Active; 'I' for Inactive)
REMARK    1  A    between atoms: N1_1  and  N2_4 
REMARK       I    between atoms: N2_4  and  C1_6 
REMARK    2  A    between atoms: C1_6  and  O2_8 
REMARK    3  A    between atoms: O2_8  and  C2_9 
REMARK    4  A    between atoms: C2_9  and  C3_10 
REMARK    5  A    between atoms: C8_15  and  N3_16 
REMARK    6  A    between atoms: N3_16  and  C9_18 
ROOT
HETATM    1  C3  UNL     1     -15.696 -27.611 -26.328  1.00  0.00    -0.007 A 
HETATM    2  C4  UNL     1     -16.650 -28.058 -27.204  1.00  0.00     0.011 A 
HETATM    3  C5  UNL     1     -16.291 -28.585 -28.454  1.00  0.00     0.001 A 
HETATM    4  C6  UNL     1     -15.001 -28.674 -28.849  1.00  0.00     0.002 A 
HETATM    5  C7  UNL     1     -14.029 -28.228 -27.979  1.00  0.00     0.030 A 
HETATM    6  C8  UNL     1     -14.368 -27.707 -26.748  1.00  0.00     0.057 A 
ENDROOT
BRANCH   6   7
HETATM    7  N3  UNL     1     -13.375 -27.246 -25.847  1.00  0.00    -0.189 N 
ATOM      8  H3  UNL     1     -13.610 -26.557 -25.132  1.00  0.00     0.184 HD
BRANCH   7   9
HETATM    9  C9  UNL     1     -12.164 -27.704 -25.939  1.00  0.00     0.714 A 
HETATM   10  N4  UNL     1     -11.104 -27.173 -26.585  1.00  0.00    -0.115 N 
HETATM   11  N5  UNL     1     -10.052 -27.949 -26.435  1.00  0.00    -0.213 N 
ATOM     12  H4  UNL     1     -11.118 -26.299 -27.111  1.00  0.00     0.207 HD
HETATM   13  N6  UNL     1     -10.428 -28.975 -25.697  1.00  0.00    -0.213 N 
ATOM     14  H5  UNL     1      -9.120 -27.786 -26.818  1.00  0.00     0.210 HD
HETATM   15  N7  UNL     1     -11.713 -28.853 -25.379  1.00  0.00    -0.115 N 
ATOM     16  H6  UNL     1      -9.824 -29.746 -25.412  1.00  0.00     0.210 HD
ATOM     17  H7  UNL     1     -12.259 -29.505 -24.816  1.00  0.00     0.207 HD
ENDBRANCH   7   9
ENDBRANCH   6   7
BRANCH   1  18
HETATM   18  C2  UNL     1     -15.971 -27.012 -25.013  1.00  0.00     0.221 C 
BRANCH  18  19
HETATM   19  O2  UNL     1     -15.561 -25.707 -24.828  1.00  0.00    -0.298 OA
BRANCH  19  20
HETATM   20  C1  UNL     1     -15.171 -25.093 -23.671  1.00  0.00     0.379 C 
HETATM   21  N2  UNL     1     -14.963 -25.849 -22.479  1.00  0.00    -0.252 N 
ATOM     22  H2  UNL     1     -15.108 -26.859 -22.494  1.00  0.00     0.191 HD
HETATM   23  O1  UNL     1     -15.000 -23.833 -23.686  1.00  0.00    -0.237 OA
BRANCH  21  24
HETATM   24  N1  UNL     1     -14.563 -25.229 -21.287  1.00  0.00    -0.341 N 
ATOM     25  H12 UNL     1     -14.391 -24.224 -21.297  1.00  0.00     0.177 HD
ATOM     26  H11 UNL     1     -14.444 -25.765 -20.428  1.00  0.00     0.177 HD
ENDBRANCH  21  24
ENDBRANCH  19  20
ENDBRANCH  18  19
ENDBRANCH   1  18
TORSDOF 6
ENDMDL
MODEL 3
REMARK VINA RESULT: -7.897273798      1.815      2.458
REMARK  6 active torsions:
REMARK  status: ('A' for Active; 'I' for Inactive)
REMARK    1  A    between atoms: N1_1  and  N2_4 
REMARK       I    between atoms: N2_4  and  C1_6 
REMARK    2  A    between atoms: C1_6  and  O2_8 
REMARK    3  A    between atoms: O2_8  and  C2_9 
REMARK    4  A    between atoms: C2_9  and  C3_10 
REMARK    5  A    between atoms: C8_15  and  N3_16 
REMARK    6  A    between atoms: N3_16  and  C9_18 
ROOT
HETATM    1  C3  UNL     1     -16.988 -27.565 -26.198  1.00  0.00    -0.007 A 
HETATM    2  C4  UNL     1     -18.061 -28.047 -26.899  1.00  0.00     0.011 A 
HETATM    3  C5  UNL     1     -17.892 -28.635 -28.162  1.00  0.00     0.001 A 
HETATM    4  C6  UNL     1     -16.675 -28.750 -28.741  1.00  0.00     0.002 A 
HETATM    5  C7  UNL     1     -15.584 -28.269 -28.047  1.00  0.00     0.030 A 
HETATM    6  C8  UNL     1     -15.736 -27.689 -26.805  1.00  0.00     0.057 A 
ENDROOT
BRANCH   6   7
HETATM    7  N3  UNL     1     -14.621 -27.192 -26.086  1.00  0.00    -0.189 N 
ATOM      8  H3  UNL     1     -14.593 -26.215 -25.791  1.00  0.00     0.184 HD
BRANCH   7   9
HETATM    9  C9  UNL     1     -13.634 -27.987 -25.804  1.00  0.00     0.714 A 
HETATM   10  N4  UNL     1     -13.668 -29.301 -25.496  1.00  0.00    -0.115 N 
HETATM   11  N5  UNL     1     -12.448 -29.743 -25.277  1.00  0.00    -0.213 N 
ATOM     12  H4  UNL     1     -14.514 -29.868 -25.442  1.00  0.00     0.207 HD
HETATM   13  N6  UNL     1     -11.630 -28.721 -25.443  1.00  0.00    -0.213 N 
ATOM     14  H5  UNL     1     -12.184 -30.696 -25.027  1.00  0.00     0.210 HD
HETATM   15  N7  UNL     1     -12.326 -27.636 -25.765  1.00  0.00    -0.115 N 
ATOM     16  H6  UNL     1     -10.616 -28.758 -25.339  1.00  0.00     0.210 HD
ATOM     17  H7  UNL     1     -11.945 -26.708 -25.949  1.00  0.00     0.207 HD
ENDBRANCH   7   9
ENDBRANCH   6   7
BRANCH   1  18
HETATM   18  C2  UNL     1     -17.064 -26.904 -24.886  1.00  0.00     0.221 C 
BRANCH  18  19
HETATM   19  O2  UNL     1     -16.623 -25.596 -24.824  1.00  0.00    -0.298 OA
BRANCH  19  20
HETATM   20  C1  UNL     1     -15.952 -24.971 -23.810  1.00  0.00     0.379 C 
HETATM   21  N2  UNL     1     -15.322 -25.728 -22.777  1.00  0.00    -0.252 N 
ATOM     22  H2  UNL     1     -15.375 -26.747 -22.799  1.00  0.00     0.191 HD
HETATM   23  O1  UNL     1     -15.906 -23.701 -23.813  1.00  0.00    -0.237 OA
BRANCH  21  24
HETATM   24  N1  UNL     1     -14.632 -25.097 -21.734  1.00  0.00    -0.341 N 
ATOM     25  H12 UNL     1     -14.773 -24.096 -21.594  1.00  0.00     0.177 HD
ATOM     26  H11 UNL     1     -14.002 -25.619 -21.126  1.00  0.00     0.177 HD
ENDBRANCH  21  24
ENDBRANCH  19  20
ENDBRANCH  18  19
ENDBRANCH   1  18
TORSDOF 6
ENDMDL
MODEL 4
REMARK VINA RESULT: -7.886506076      1.930      2.595
REMARK  6 active torsions:
REMARK  status: ('A' for Active; 'I' for Inactive)
REMARK    1  A    between atoms: N1_1  and  N2_4 
REMARK       I    between atoms: N2_4  and  C1_6 
REMARK    2  A    between atoms: C1_6  and  O2_8 
REMARK    3  A    between atoms: O2_8  and  C2_9 
REMARK    4  A    between atoms: C2_9  and  C3_10 
REMARK    5  A    between atoms: C8_15  and  N3_16 
REMARK    6  A    between atoms: N3_16  and  C9_18 
ROOT
HETATM    1  C3  UNL     1     -14.359 -27.356 -26.719  1.00  0.00    -0.007 A 
HETATM    2  C4  UNL     1     -15.521 -27.898 -27.203  1.00  0.00     0.011 A 
HETATM    3  C5  UNL     1     -15.534 -28.616 -28.408  1.00  0.00     0.001 A 
HETATM    4  C6  UNL     1     -14.414 -28.803 -29.142  1.00  0.00     0.002 A 
HETATM    5  C7  UNL     1     -13.236 -28.263 -28.668  1.00  0.00     0.030 A 
HETATM    6  C8  UNL     1     -13.209 -27.555 -27.485  1.00  0.00     0.057 A 
ENDROOT
BRANCH   6   7
HETATM    7  N3  UNL     1     -12.003 -26.997 -26.991  1.00  0.00    -0.189 N 
ATOM      8  H3  UNL     1     -11.826 -25.996 -27.080  1.00  0.00     0.184 HD
BRANCH   7   9
HETATM    9  C9  UNL     1     -11.126 -27.767 -26.424  1.00  0.00     0.714 A 
HETATM   10  N4  UNL     1     -10.626 -28.943 -26.859  1.00  0.00    -0.115 N 
HETATM   11  N5  UNL     1      -9.755 -29.410 -25.990  1.00  0.00    -0.213 N 
ATOM     12  H4  UNL     1     -10.886 -29.403 -27.732  1.00  0.00     0.207 HD
HETATM   13  N6  UNL     1      -9.690 -28.540 -25.000  1.00  0.00    -0.213 N 
ATOM     14  H5  UNL     1      -9.227 -30.279 -26.069  1.00  0.00     0.210 HD
HETATM   15  N7  UNL     1     -10.516 -27.527 -25.238  1.00  0.00    -0.115 N 
ATOM     16  H6  UNL     1      -9.095 -28.632 -24.177  1.00  0.00     0.210 HD
ATOM     17  H7  UNL     1     -10.665 -26.716 -24.636  1.00  0.00     0.207 HD
ENDBRANCH   7   9
ENDBRANCH   6   7
BRANCH   1  18
HETATM   18  C2  UNL     1     -14.248 -26.561 -25.486  1.00  0.00     0.221 C 
BRANCH  18  19
HETATM   19  O2  UNL     1     -15.421 -26.313 -24.801  1.00  0.00    -0.298 OA
BRANCH  19  20
HETATM   20  C1  UNL     1     -15.655 -26.391 -23.456  1.00  0.00     0.379 C 
HETATM   21  N2  UNL     1     -14.826 -25.689 -22.530  1.00  0.00    -0.252 N 
ATOM     22  H2  UNL     1     -14.053 -25.123 -22.879  1.00  0.00     0.191 HD
HETATM   23  O1  UNL     1     -16.627 -27.106 -23.055  1.00  0.00    -0.237 OA
BRANCH  21  24
HETATM   24  N1  UNL     1     -15.057 -25.763 -21.150  1.00  0.00    -0.341 N 
ATOM     25  H12 UNL     1     -15.249 -26.676 -20.738  1.00  0.00     0.177 HD
ATOM     26  H11 UNL     1     -15.036 -24.927 -20.566  1.00  0.00     0.177 HD
ENDBRANCH  21  24
ENDBRANCH  19  20
ENDBRANCH  18  19
ENDBRANCH   1  18
TORSDOF 6
ENDMDL
MODEL 5
REMARK VINA RESULT: -7.880034813      2.001      2.184
REMARK  6 active torsions:
REMARK  status: ('A' for Active; 'I' for Inactive)
REMARK    1  A    between atoms: N1_1  and  N2_4 
REMARK       I    between atoms: N2_4  and  C1_6 
REMARK    2  A    between atoms: C1_6  and  O2_8 
REMARK    3  A    between atoms: O2_8  and  C2_9 
REMARK    4  A    between atoms: C2_9  and  C3_10 
REMARK    5  A    between atoms: C8_15  and  N3_16 
REMARK    6  A    between atoms: N3_16  and  C9_18 
ROOT
HETATM    1  C3  UNL     1     -15.703 -26.716 -25.241  1.00  0.00    -0.007 A 
HETATM    2  C4  UNL     1     -16.911 -27.174 -25.699  1.00  0.00     0.011 A 
HETATM    3  C5  UNL     1     -16.993 -27.942 -26.870  1.00  0.00     0.001 A 
HETATM    4  C6  UNL     1     -15.898 -28.262 -27.596  1.00  0.00     0.002 A 
HETATM    5  C7  UNL     1     -14.674 -27.808 -27.148  1.00  0.00     0.030 A 
HETATM    6  C8  UNL     1     -14.579 -27.053 -25.998  1.00  0.00     0.057 A 
ENDROOT
BRANCH   6   7
HETATM    7  N3  UNL     1     -13.326 -26.583 -25.531  1.00  0.00    -0.189 N 
ATOM      8  H3  UNL     1     -13.284 -25.885 -24.787  1.00  0.00     0.184 HD
BRANCH   7   9
HETATM    9  C9  UNL     1     -12.232 -27.045 -26.055  1.00  0.00     0.714 A 
HETATM   10  N4  UNL     1     -11.703 -26.790 -27.271  1.00  0.00    -0.115 N 
HETATM   11  N5  UNL     1     -10.579 -27.458 -27.420  1.00  0.00    -0.213 N 
ATOM     12  H4  UNL     1     -12.114 -26.171 -27.970  1.00  0.00     0.207 HD
HETATM   13  N6  UNL     1     -10.382 -28.140 -26.309  1.00  0.00    -0.213 N 
ATOM     14  H5  UNL     1      -9.974 -27.449 -28.242  1.00  0.00     0.210 HD
HETATM   15  N7  UNL     1     -11.375 -27.908 -25.457  1.00  0.00    -0.115 N 
ATOM     16  H6  UNL     1      -9.587 -28.753 -26.130  1.00  0.00     0.210 HD
ATOM     17  H7  UNL     1     -11.474 -28.306 -24.523  1.00  0.00     0.207 HD
ENDBRANCH   7   9
ENDBRANCH   6   7
BRANCH   1  18
HETATM   18  C2  UNL     1     -15.515 -25.879 -24.046  1.00  0.00     0.221 C 
BRANCH  18  19
HETATM   19  O2  UNL     1     -15.523 -24.512 -24.241  1.00  0.00    -0.298 OA
BRANCH  19  20
HETATM   20  C1  UNL     1     -16.510 -23.615 -23.940  1.00  0.00     0.379 C 
HETATM   21  N2  UNL     1     -17.155 -23.640 -22.668  1.00  0.00    -0.252 N 
ATOM     22  H2  UNL     1     -16.875 -24.336 -21.977  1.00  0.00     0.191 HD
HETATM   23  O1  UNL     1     -16.835 -22.761 -24.824  1.00  0.00    -0.237 OA
BRANCH  21  24
HETATM   24  N1  UNL     1     -18.168 -22.724 -22.351  1.00  0.00    -0.341 N 
ATOM     25  H12 UNL     1     -18.569 -22.750 -21.414  1.00  0.00     0.177 HD
ATOM     26  H11 UNL     1     -18.499 -22.046 -23.036  1.00  0.00     0.177 HD
ENDBRANCH  21  24
ENDBRANCH  19  20
ENDBRANCH  18  19
ENDBRANCH   1  18
TORSDOF 6
ENDMDL
