MODEL 1
REMARK VINA RESULT: -6.955054147      0.000      0.000
REMARK  5 active torsions:
REMARK  status: ('A' for Active; 'I' for Inactive)
REMARK    1  A    between atoms: N1_1  and  C1_4 
REMARK    2  A    between atoms: C4_12  and  C5_13 
REMARK    3  A    between atoms: C5_13  and  C6_14 
REMARK    4  A    between atoms: C6_14  and  C7_16 
REMARK    5  A    between atoms: C7_16  and  N4_17 
ROOT
HETATM    1  C1  UNL     1     -16.640 -27.223 -25.922  1.00  0.00     0.147 A 
HETATM    2  N2  UNL     1     -16.479 -27.851 -27.094  1.00  0.00    -0.302 N 
ATOM      3  H2  UNL     1     -17.323 -28.054 -27.629  1.00  0.00     0.171 HD
HETATM    4  C2  UNL     1     -15.322 -28.235 -27.624  1.00  0.00     0.277 A 
HETATM    5  O1  UNL     1     -15.399 -28.824 -28.762  1.00  0.00    -0.266 OA
HETATM    6  C3  UNL     1     -14.061 -28.075 -27.100  1.00  0.00     0.136 A 
HETATM    7  N3  UNL     1     -12.825 -28.440 -27.579  1.00  0.00    -0.339 N 
ATOM      8  H3  UNL     1     -12.674 -28.918 -28.467  1.00  0.00     0.167 HD
HETATM    9  C4  UNL     1     -11.856 -28.094 -26.751  1.00  0.00     0.089 A 
HETATM   10  N5  UNL     1     -12.453 -27.488 -25.697  1.00  0.00    -0.338 N 
ATOM     11  H5  UNL     1     -11.969 -27.106 -24.883  1.00  0.00     0.168 HD
HETATM   12  C8  UNL     1     -13.784 -27.468 -25.891  1.00  0.00     0.111 A 
HETATM   13  S1  UNL     1     -15.196 -26.914 -25.080  1.00  0.00    -0.034 SA
ENDROOT
BRANCH   9  14
HETATM   14  C5  UNL     1     -10.417 -28.315 -26.922  1.00  0.00     0.156 C 
BRANCH  14  15
HETATM   15  C6  UNL     1      -9.734 -28.770 -25.692  1.00  0.00     0.159 C 
HETATM   16  O2  UNL     1      -9.410 -28.049 -24.772  1.00  0.00    -0.296 OA
BRANCH  15  17
HETATM   17  C7  UNL     1      -9.421 -30.222 -25.575  1.00  0.00     0.307 C 
BRANCH  17  18
HETATM   18  N4  UNL     1      -9.451 -30.675 -24.196  1.00  0.00    -0.073 N 
ATOM     19  H43 UNL     1      -8.550 -31.060 -23.912  1.00  0.00     0.274 HD
ATOM     20  H42 UNL     1      -9.501 -29.889 -23.549  1.00  0.00     0.274 HD
ATOM     21  H41 UNL     1     -10.207 -31.341 -24.030  1.00  0.00     0.274 HD
ENDBRANCH  17  18
ENDBRANCH  15  17
ENDBRANCH  14  15
ENDBRANCH   9  14
BRANCH   1  22
HETATM   22  N1  UNL     1     -17.805 -26.890 -25.490  1.00  0.00    -0.380 N 
ATOM     23  H12 UNL     1     -18.433 -26.257 -25.985  1.00  0.00     0.158 HD
ATOM     24  H11 UNL     1     -18.171 -27.249 -24.609  1.00  0.00     0.158 HD
ENDBRANCH   1  22
TORSDOF 5
ENDMDL
MODEL 2
REMARK VINA RESULT: -6.790384688      2.871      6.373
REMARK  5 active torsions:
REMARK  status: ('A' for Active; 'I' for Inactive)
REMARK    1  A    between atoms: N1_1  and  C1_4 
REMARK    2  A    between atoms: C4_12  and  C5_13 
REMARK    3  A    between atoms: C5_13  and  C6_14 
REMARK    4  A    between atoms: C6_14  and  C7_16 
REMARK    5  A    between atoms: C7_16  and  N4_17 
ROOT
HETATM    1  C1  UNL     1     -11.588 -27.769 -27.531  1.00  0.00     0.147 A 
HETATM    2  N2  UNL     1     -11.872 -28.378 -28.689  1.00  0.00    -0.302 N 
ATOM      3  H2  UNL     1     -11.083 -28.615 -29.292  1.00  0.00     0.171 HD
HETATM    4  C2  UNL     1     -13.084 -28.704 -29.127  1.00  0.00     0.277 A 
HETATM    5  O1  UNL     1     -13.126 -29.284 -30.270  1.00  0.00    -0.266 OA
HETATM    6  C3  UNL     1     -14.290 -28.492 -28.501  1.00  0.00     0.136 A 
HETATM    7  N3  UNL     1     -15.577 -28.794 -28.881  1.00  0.00    -0.339 N 
ATOM      8  H3  UNL     1     -15.820 -29.257 -29.756  1.00  0.00     0.167 HD
HETATM    9  C4  UNL     1     -16.458 -28.414 -27.975  1.00  0.00     0.089 A 
HETATM   10  N5  UNL     1     -15.751 -27.845 -26.969  1.00  0.00    -0.338 N 
ATOM     11  H5  UNL     1     -16.149 -27.448 -26.118  1.00  0.00     0.168 HD
HETATM   12  C8  UNL     1     -14.440 -27.884 -27.270  1.00  0.00     0.111 A 
HETATM   13  S1  UNL     1     -12.943 -27.402 -26.573  1.00  0.00    -0.034 SA
ENDROOT
BRANCH   9  14
HETATM   14  C5  UNL     1     -17.915 -28.567 -28.030  1.00  0.00     0.156 C 
BRANCH  14  15
HETATM   15  C6  UNL     1     -18.359 -29.964 -28.224  1.00  0.00     0.159 C 
HETATM   16  O2  UNL     1     -17.986 -30.693 -29.118  1.00  0.00    -0.296 OA
BRANCH  15  17
HETATM   17  C7  UNL     1     -19.341 -30.515 -27.247  1.00  0.00     0.307 C 
BRANCH  17  18
HETATM   18  N4  UNL     1     -20.318 -29.522 -26.839  1.00  0.00    -0.073 N 
ATOM     19  H43 UNL     1     -21.078 -29.946 -26.306  1.00  0.00     0.274 HD
ATOM     20  H42 UNL     1     -19.942 -28.905 -26.119  1.00  0.00     0.274 HD
ATOM     21  H41 UNL     1     -20.675 -28.990 -27.633  1.00  0.00     0.274 HD
ENDBRANCH  17  18
ENDBRANCH  15  17
ENDBRANCH  14  15
ENDBRANCH   9  14
BRANCH   1  22
HETATM   22  N1  UNL     1     -10.378 -27.494 -27.193  1.00  0.00    -0.380 N 
ATOM     23  H12 UNL     1      -9.722 -26.993 -27.792  1.00  0.00     0.158 HD
ATOM     24  H11 UNL     1     -10.001 -27.769 -26.286  1.00  0.00     0.158 HD
ENDBRANCH   1  22
TORSDOF 5
ENDMDL
MODEL 3
REMARK VINA RESULT: -6.785217270      1.783      2.070
REMARK  5 active torsions:
REMARK  status: ('A' for Active; 'I' for Inactive)
REMARK    1  A    between atoms: N1_1  and  C1_4 
REMARK    2  A    between atoms: C4_12  and  C5_13 
REMARK    3  A    between atoms: C5_13  and  C6_14 
REMARK    4  A    between atoms: C6_14  and  C7_16 
REMARK    5  A    between atoms: C7_16  and  N4_17 
ROOT
HETATM    1  C1  UNL     1     -18.309 -27.673 -26.179  1.00  0.00     0.147 A 
HETATM    2  N2  UNL     1     -17.775 -28.249 -27.263  1.00  0.00    -0.302 N 
ATOM      3  H2  UNL     1     -18.418 -28.719 -27.901  1.00  0.00     0.171 HD
HETATM    4  C2  UNL     1     -16.485 -28.265 -27.587  1.00  0.00     0.277 A 
HETATM    5  O1  UNL     1     -16.193 -28.878 -28.676  1.00  0.00    -0.266 OA
HETATM    6  C3  UNL     1     -15.437 -27.705 -26.896  1.00  0.00     0.136 A 
HETATM    7  N3  UNL     1     -14.088 -27.677 -27.159  1.00  0.00    -0.339 N 
ATOM      8  H3  UNL     1     -13.656 -28.107 -27.976  1.00  0.00     0.167 HD
HETATM    9  C4  UNL     1     -13.419 -27.024 -26.226  1.00  0.00     0.089 A 
HETATM   10  N5  UNL     1     -14.337 -26.608 -25.320  1.00  0.00    -0.338 N 
ATOM     11  H5  UNL     1     -14.132 -26.074 -24.475  1.00  0.00     0.168 HD
HETATM   12  C8  UNL     1     -15.560 -27.011 -25.709  1.00  0.00     0.111 A 
HETATM   13  S1  UNL     1     -17.186 -26.906 -25.159  1.00  0.00    -0.034 SA
ENDROOT
BRANCH   9  14
HETATM   14  C5  UNL     1     -11.974 -26.789 -26.166  1.00  0.00     0.156 C 
BRANCH  14  15
HETATM   15  C6  UNL     1     -11.190 -27.670 -27.057  1.00  0.00     0.159 C 
HETATM   16  O2  UNL     1     -11.227 -27.642 -28.269  1.00  0.00    -0.296 OA
BRANCH  15  17
HETATM   17  C7  UNL     1     -10.287 -28.668 -26.416  1.00  0.00     0.307 C 
BRANCH  17  18
HETATM   18  N4  UNL     1      -9.681 -28.152 -25.202  1.00  0.00    -0.073 N 
ATOM     19  H43 UNL     1      -8.664 -28.124 -25.279  1.00  0.00     0.274 HD
ATOM     20  H42 UNL     1      -9.861 -27.154 -25.093  1.00  0.00     0.274 HD
ATOM     21  H41 UNL     1      -9.975 -28.675 -24.377  1.00  0.00     0.274 HD
ENDBRANCH  17  18
ENDBRANCH  15  17
ENDBRANCH  14  15
ENDBRANCH   9  14
BRANCH   1  22
HETATM   22  N1  UNL     1     -19.574 -27.710 -25.950  1.00  0.00    -0.380 N 
ATOM     23  H12 UNL     1     -20.075 -28.553 -25.671  1.00  0.00     0.158 HD
ATOM     24  H11 UNL     1     -20.158 -26.878 -26.037  1.00  0.00     0.158 HD
ENDBRANCH   1  22
TORSDOF 5
ENDMDL
MODEL 4
REMARK VINA RESULT: -6.633587284      3.351      5.277
REMARK  5 active torsions:
REMARK  status: ('A' for Active; 'I' for Inactive)
REMARK    1  A    between atoms: N1_1  and  C1_4 
REMARK    2  A    between atoms: C4_12  and  C5_13 
REMARK    3  A    between atoms: C5_13  and  C6_14 
REMARK    4  A    between atoms: C6_14  and  C7_16 
REMARK    5  A    between atoms: C7_16  and  N4_17 
ROOT
HETATM    1  C1  UNL     1     -12.618 -28.237 -28.217  1.00  0.00     0.147 A 
HETATM    2  N2  UNL     1     -13.916 -28.541 -28.346  1.00  0.00    -0.302 N 
ATOM      3  H2  UNL     1     -14.173 -29.149 -29.123  1.00  0.00     0.171 HD
HETATM    4  C2  UNL     1     -14.901 -28.125 -27.555  1.00  0.00     0.277 A 
HETATM    5  O1  UNL     1     -16.075 -28.540 -27.863  1.00  0.00    -0.266 OA
HETATM    6  C3  UNL     1     -14.807 -27.307 -26.453  1.00  0.00     0.136 A 
HETATM    7  N3  UNL     1     -15.766 -26.834 -25.589  1.00  0.00    -0.339 N 
ATOM      8  H3  UNL     1     -16.759 -27.050 -25.664  1.00  0.00     0.167 HD
HETATM    9  C4  UNL     1     -15.244 -26.066 -24.650  1.00  0.00     0.089 A 
HETATM   10  N5  UNL     1     -13.912 -26.023 -24.888  1.00  0.00    -0.338 N 
ATOM     11  H5  UNL     1     -13.229 -25.506 -24.333  1.00  0.00     0.168 HD
HETATM   12  C8  UNL     1     -13.630 -26.767 -25.974  1.00  0.00     0.111 A 
HETATM   13  S1  UNL     1     -12.256 -27.221 -26.903  1.00  0.00    -0.034 SA
ENDROOT
BRANCH   9  14
HETATM   14  C5  UNL     1     -15.951 -25.387 -23.560  1.00  0.00     0.156 C 
BRANCH  14  15
HETATM   15  C6  UNL     1     -15.218 -24.229 -23.005  1.00  0.00     0.159 C 
HETATM   16  O2  UNL     1     -14.855 -23.266 -23.646  1.00  0.00    -0.296 OA
BRANCH  15  17
HETATM   17  C7  UNL     1     -14.903 -24.249 -21.548  1.00  0.00     0.307 C 
BRANCH  17  18
HETATM   18  N4  UNL     1     -14.581 -25.585 -21.081  1.00  0.00    -0.073 N 
ATOM     19  H43 UNL     1     -14.878 -26.295 -21.751  1.00  0.00     0.274 HD
ATOM     20  H42 UNL     1     -13.575 -25.754 -21.104  1.00  0.00     0.274 HD
ATOM     21  H41 UNL     1     -14.966 -25.768 -20.153  1.00  0.00     0.274 HD
ENDBRANCH  17  18
ENDBRANCH  15  17
ENDBRANCH  14  15
ENDBRANCH   9  14
BRANCH   1  22
HETATM   22  N1  UNL     1     -11.735 -28.689 -29.036  1.00  0.00    -0.380 N 
ATOM     23  H12 UNL     1     -11.243 -29.573 -28.906  1.00  0.00     0.158 HD
ATOM     24  H11 UNL     1     -11.475 -28.177 -29.878  1.00  0.00     0.158 HD
ENDBRANCH   1  22
TORSDOF 5
ENDMDL
MODEL 5
REMARK VINA RESULT: -6.620305704      1.963      2.354
REMARK  5 active torsions:
REMARK  status: ('A' for Active; 'I' for Inactive)
REMARK    1  A    between atoms: N1_1  and  C1_4 
REMARK    2  A    between atoms: C4_12  and  C5_13 
REMARK    3  A    between atoms: C5_13  and  C6_14 
REMARK    4  A    between atoms: C6_14  and  C7_16 
REMARK    5  A    between atoms: C7_16  and  N4_17 
ROOT
HETATM    1  C1  UNL     1     -18.924 -27.623 -26.140  1.00  0.00     0.147 A 
HETATM    2  N2  UNL     1     -18.475 -28.286 -27.213  1.00  0.00    -0.302 N 
ATOM      3  H2  UNL     1     -19.173 -28.738 -27.804  1.00  0.00     0.171 HD
HETATM    4  C2  UNL     1     -17.203 -28.411 -27.581  1.00  0.00     0.277 A 
HETATM    5  O1  UNL     1     -16.997 -29.093 -28.649  1.00  0.00    -0.266 OA
HETATM    6  C3  UNL     1     -16.091 -27.898 -26.956  1.00  0.00     0.136 A 
HETATM    7  N3  UNL     1     -14.754 -27.980 -27.268  1.00  0.00    -0.339 N 
ATOM      8  H3  UNL     1     -14.386 -28.477 -28.078  1.00  0.00     0.167 HD
HETATM    9  C4  UNL     1     -14.005 -27.335 -26.392  1.00  0.00     0.089 A 
HETATM   10  N5  UNL     1     -14.855 -26.812 -25.475  1.00  0.00    -0.338 N 
ATOM     11  H5  UNL     1     -14.580 -26.256 -24.665  1.00  0.00     0.168 HD
HETATM   12  C8  UNL     1     -16.118 -27.142 -25.801  1.00  0.00     0.111 A 
HETATM   13  S1  UNL     1     -17.710 -26.894 -25.199  1.00  0.00    -0.034 SA
ENDROOT
BRANCH   9  14
HETATM   14  C5  UNL     1     -12.546 -27.203 -26.394  1.00  0.00     0.156 C 
BRANCH  14  15
HETATM   15  C6  UNL     1     -11.833 -28.467 -26.110  1.00  0.00     0.159 C 
HETATM   16  O2  UNL     1     -12.365 -29.499 -25.759  1.00  0.00    -0.296 OA
BRANCH  15  17
HETATM   17  C7  UNL     1     -10.351 -28.471 -26.266  1.00  0.00     0.307 C 
BRANCH  17  18
HETATM   18  N4  UNL     1      -9.678 -27.999 -25.070  1.00  0.00    -0.073 N 
ATOM     19  H43 UNL     1      -9.028 -28.698 -24.709  1.00  0.00     0.274 HD
ATOM     20  H42 UNL     1      -9.011 -27.258 -25.288  1.00  0.00     0.274 HD
ATOM     21  H41 UNL     1     -10.339 -27.703 -24.351  1.00  0.00     0.274 HD
ENDBRANCH  17  18
ENDBRANCH  15  17
ENDBRANCH  14  15
ENDBRANCH   9  14
BRANCH   1  22
HETATM   22  N1  UNL     1     -20.178 -27.558 -25.864  1.00  0.00    -0.380 N 
ATOM     23  H12 UNL     1     -20.690 -26.682 -25.760  1.00  0.00     0.158 HD
ATOM     24  H11 UNL     1     -20.742 -28.398 -25.733  1.00  0.00     0.158 HD
ENDBRANCH   1  22
TORSDOF 5
ENDMDL
