MODEL 1
REMARK VINA RESULT: -6.980111357      0.000      0.000
REMARK  5 active torsions:
REMARK  status: ('A' for Active; 'I' for Inactive)
REMARK    1  A    between atoms: N1_1  and  N2_4 
REMARK    2  A    between atoms: N3_8  and  O1_9 
REMARK    3  A    between atoms: C3_13  and  C4_14 
REMARK    4  A    between atoms: C4_14  and  N5_15 
REMARK    5  A    between atoms: C4_14  and  O2_19 
ROOT
HETATM    1  N2  UNL     1      53.728 -11.197  29.764  1.00  0.00    -0.291 N 
ATOM      2  H2  UNL     1      53.514 -11.783  30.571  1.00  0.00     0.188 HD
HETATM    3  C1  UNL     1      52.898 -10.288  29.400  1.00  0.00     0.140 A 
HETATM    4  C2  UNL     1      51.710 -10.064  30.061  1.00  0.00     0.193 A 
HETATM    5  N3  UNL     1      50.840  -9.114  29.683  1.00  0.00    -0.170 N 
HETATM    6  N4  UNL     1      51.160  -8.379  28.633  1.00  0.00    -0.259 N 
ATOM      7  H4  UNL     1      50.521  -7.648  28.318  1.00  0.00     0.191 HD
HETATM    8  C3  UNL     1      52.320  -8.580  27.968  1.00  0.00     0.156 A 
HETATM    9  N6  UNL     1      53.203  -9.531  28.338  1.00  0.00    -0.325 N 
ATOM     10  H6  UNL     1      54.073  -9.670  27.825  1.00  0.00     0.169 HD
ENDROOT
BRANCH   8  11
HETATM   11  C4  UNL     1      52.652  -7.725  26.779  1.00  0.00     0.386 C 
BRANCH  11  12
HETATM   12  N5  UNL     1      51.568  -6.807  26.487  1.00  0.00    -0.046 N 
ATOM     13  H53 UNL     1      50.751  -7.293  26.120  1.00  0.00     0.277 HD
ATOM     14  H52 UNL     1      51.153  -6.429  27.339  1.00  0.00     0.277 HD
ATOM     15  H51 UNL     1      51.880  -6.067  25.859  1.00  0.00     0.277 HD
ENDBRANCH  11  12
BRANCH  11  16
HETATM   16  O2  UNL     1      53.828  -7.027  26.967  1.00  0.00    -0.364 OA
ATOM     17  H2  UNL     1      53.667  -6.152  27.300  1.00  0.00     0.212 HD
ENDBRANCH  11  16
ENDBRANCH   8  11
BRANCH   5  18
HETATM   18  O1  UNL     1      49.644  -8.908  30.369  1.00  0.00    -0.268 OA
ATOM     19  H1  UNL     1      48.977  -8.320  30.036  1.00  0.00     0.247 HD
ENDBRANCH   5  18
BRANCH   1  20
HETATM   20  N1  UNL     1      54.920 -11.390  29.066  1.00  0.00    -0.344 N 
ATOM     21  H12 UNL     1      55.376 -10.582  28.642  1.00  0.00     0.176 HD
ATOM     22  H11 UNL     1      55.327 -12.321  28.983  1.00  0.00     0.176 HD
ENDBRANCH   1  20
TORSDOF 5
ENDMDL
MODEL 2
REMARK VINA RESULT: -6.844241176      1.029      1.144
REMARK  5 active torsions:
REMARK  status: ('A' for Active; 'I' for Inactive)
REMARK    1  A    between atoms: N1_1  and  N2_4 
REMARK    2  A    between atoms: N3_8  and  O1_9 
REMARK    3  A    between atoms: C3_13  and  C4_14 
REMARK    4  A    between atoms: C4_14  and  N5_15 
REMARK    5  A    between atoms: C4_14  and  O2_19 
ROOT
HETATM    1  N2  UNL     1      53.245 -11.697  29.339  1.00  0.00    -0.291 N 
ATOM      2  H2  UNL     1      52.831 -12.422  29.926  1.00  0.00     0.188 HD
HETATM    3  C1  UNL     1      52.640 -10.575  29.190  1.00  0.00     0.140 A 
HETATM    4  C2  UNL     1      51.435 -10.300  29.797  1.00  0.00     0.193 A 
HETATM    5  N3  UNL     1      50.798  -9.127  29.644  1.00  0.00    -0.170 N 
HETATM    6  N4  UNL     1      51.373  -8.219  28.876  1.00  0.00    -0.259 N 
ATOM      7  H4  UNL     1      50.917  -7.317  28.737  1.00  0.00     0.191 HD
HETATM    8  C3  UNL     1      52.557  -8.467  28.270  1.00  0.00     0.156 A 
HETATM    9  N6  UNL     1      53.206  -9.640  28.415  1.00  0.00    -0.325 N 
ATOM     10  H6  UNL     1      54.097  -9.811  27.951  1.00  0.00     0.169 HD
ENDROOT
BRANCH   8  11
HETATM   11  C4  UNL     1      53.182  -7.411  27.404  1.00  0.00     0.386 C 
BRANCH  11  12
HETATM   12  N5  UNL     1      54.628  -7.533  27.407  1.00  0.00    -0.046 N 
ATOM     13  H53 UNL     1      54.938  -8.329  27.962  1.00  0.00     0.277 HD
ATOM     14  H52 UNL     1      54.983  -7.830  26.498  1.00  0.00     0.277 HD
ATOM     15  H51 UNL     1      55.063  -6.664  27.716  1.00  0.00     0.277 HD
ENDBRANCH  11  12
BRANCH  11  16
HETATM   16  O2  UNL     1      52.704  -7.464  26.111  1.00  0.00    -0.364 OA
ATOM     17  H2  UNL     1      52.738  -6.614  25.689  1.00  0.00     0.212 HD
ENDBRANCH  11  16
ENDBRANCH   8  11
BRANCH   5  18
HETATM   18  O1  UNL     1      49.579  -8.874  30.269  1.00  0.00    -0.268 OA
ATOM     19  H1  UNL     1      49.058  -8.111  30.049  1.00  0.00     0.247 HD
ENDBRANCH   5  18
BRANCH   1  20
HETATM   20  N1  UNL     1      54.466 -11.935  28.706  1.00  0.00    -0.344 N 
ATOM     21  H12 UNL     1      54.865 -11.201  28.120  1.00  0.00     0.176 HD
ATOM     22  H11 UNL     1      54.948 -12.825  28.828  1.00  0.00     0.176 HD
ENDBRANCH   1  20
TORSDOF 5
ENDMDL
MODEL 3
REMARK VINA RESULT: -6.688253796      2.201      3.571
REMARK  5 active torsions:
REMARK  status: ('A' for Active; 'I' for Inactive)
REMARK    1  A    between atoms: N1_1  and  N2_4 
REMARK    2  A    between atoms: N3_8  and  O1_9 
REMARK    3  A    between atoms: C3_13  and  C4_14 
REMARK    4  A    between atoms: C4_14  and  N5_15 
REMARK    5  A    between atoms: C4_14  and  O2_19 
ROOT
HETATM    1  N2  UNL     1      53.372  -7.256  27.997  1.00  0.00    -0.291 N 
ATOM      2  H2  UNL     1      53.070  -6.306  28.213  1.00  0.00     0.188 HD
HETATM    3  C1  UNL     1      52.670  -8.253  28.397  1.00  0.00     0.140 A 
HETATM    4  C2  UNL     1      51.507  -8.096  29.118  1.00  0.00     0.193 A 
HETATM    5  N3  UNL     1      50.769  -9.137  29.539  1.00  0.00    -0.170 N 
HETATM    6  N4  UNL     1      51.199 -10.348  29.235  1.00  0.00    -0.259 N 
ATOM      7  H4  UNL     1      50.663 -11.162  29.539  1.00  0.00     0.191 HD
HETATM    8  C3  UNL     1      52.338 -10.528  28.528  1.00  0.00     0.156 A 
HETATM    9  N6  UNL     1      53.087  -9.491  28.100  1.00  0.00    -0.325 N 
ATOM     10  H6  UNL     1      53.943  -9.644  27.568  1.00  0.00     0.169 HD
ENDROOT
BRANCH   8  11
HETATM   11  C4  UNL     1      52.796 -11.920  28.199  1.00  0.00     0.386 C 
BRANCH  11  12
HETATM   12  N5  UNL     1      52.633 -12.798  29.342  1.00  0.00    -0.046 N 
ATOM     13  H53 UNL     1      52.243 -13.700  29.072  1.00  0.00     0.277 HD
ATOM     14  H52 UNL     1      53.533 -13.121  29.700  1.00  0.00     0.277 HD
ATOM     15  H51 UNL     1      52.078 -12.348  30.068  1.00  0.00     0.277 HD
ENDBRANCH  11  12
BRANCH  11  16
HETATM   16  O2  UNL     1      52.124 -12.432  27.107  1.00  0.00    -0.364 OA
ATOM     17  H2  UNL     1      52.134 -13.381  27.103  1.00  0.00     0.212 HD
ENDBRANCH  11  16
ENDBRANCH   8  11
BRANCH   5  18
HETATM   18  O1  UNL     1      49.596  -8.950  30.268  1.00  0.00    -0.268 OA
ATOM     19  H1  UNL     1      48.805  -8.621  29.857  1.00  0.00     0.247 HD
ENDBRANCH   5  18
BRANCH   1  20
HETATM   20  N1  UNL     1      54.544  -7.461  27.268  1.00  0.00    -0.344 N 
ATOM     21  H12 UNL     1      54.478  -7.581  26.257  1.00  0.00     0.176 HD
ATOM     22  H11 UNL     1      55.448  -7.490  27.738  1.00  0.00     0.176 HD
ENDBRANCH   1  20
TORSDOF 5
ENDMDL
MODEL 4
REMARK VINA RESULT: -6.495500266      2.063      3.956
REMARK  5 active torsions:
REMARK  status: ('A' for Active; 'I' for Inactive)
REMARK    1  A    between atoms: N1_1  and  N2_4 
REMARK    2  A    between atoms: N3_8  and  O1_9 
REMARK    3  A    between atoms: C3_13  and  C4_14 
REMARK    4  A    between atoms: C4_14  and  N5_15 
REMARK    5  A    between atoms: C4_14  and  O2_19 
ROOT
HETATM    1  N2  UNL     1      52.163  -7.183  26.381  1.00  0.00    -0.291 N 
ATOM      2  H2  UNL     1      51.927  -6.226  26.642  1.00  0.00     0.188 HD
HETATM    3  C1  UNL     1      52.135  -8.110  27.268  1.00  0.00     0.140 A 
HETATM    4  C2  UNL     1      51.797  -7.865  28.581  1.00  0.00     0.193 A 
HETATM    5  N3  UNL     1      51.767  -8.833  29.513  1.00  0.00    -0.170 N 
HETATM    6  N4  UNL     1      52.079 -10.057  29.129  1.00  0.00    -0.259 N 
ATOM      7  H4  UNL     1      52.067 -10.816  29.811  1.00  0.00     0.191 HD
HETATM    8  C3  UNL     1      52.415 -10.321  27.845  1.00  0.00     0.156 A 
HETATM    9  N6  UNL     1      52.449  -9.359  26.900  1.00  0.00    -0.325 N 
ATOM     10  H6  UNL     1      52.705  -9.575  25.937  1.00  0.00     0.169 HD
ENDROOT
BRANCH   8  11
HETATM   11  C4  UNL     1      52.764 -11.725  27.443  1.00  0.00     0.386 C 
BRANCH  11  12
HETATM   12  N5  UNL     1      53.960 -12.175  28.129  1.00  0.00    -0.046 N 
ATOM     13  H53 UNL     1      54.798 -12.017  27.571  1.00  0.00     0.277 HD
ATOM     14  H52 UNL     1      54.188 -11.576  28.923  1.00  0.00     0.277 HD
ATOM     15  H51 UNL     1      53.871 -13.152  28.408  1.00  0.00     0.277 HD
ENDBRANCH  11  12
BRANCH  11  16
HETATM   16  O2  UNL     1      51.721 -12.597  27.684  1.00  0.00    -0.364 OA
ATOM     17  H2  UNL     1      51.561 -12.703  28.614  1.00  0.00     0.212 HD
ENDBRANCH  11  16
ENDBRANCH   8  11
BRANCH   5  18
HETATM   18  O1  UNL     1      51.421  -8.559  30.835  1.00  0.00    -0.268 OA
ATOM     19  H1  UNL     1      52.044  -8.668  31.543  1.00  0.00     0.247 HD
ENDBRANCH   5  18
BRANCH   1  20
HETATM   20  N1  UNL     1      52.512  -7.474  25.062  1.00  0.00    -0.344 N 
ATOM     21  H12 UNL     1      52.274  -8.391  24.683  1.00  0.00     0.176 HD
ATOM     22  H11 UNL     1      52.995  -6.783  24.489  1.00  0.00     0.176 HD
ENDBRANCH   1  20
TORSDOF 5
ENDMDL
MODEL 5
REMARK VINA RESULT: -6.090374698      2.272      3.606
REMARK  5 active torsions:
REMARK  status: ('A' for Active; 'I' for Inactive)
REMARK    1  A    between atoms: N1_1  and  N2_4 
REMARK    2  A    between atoms: N3_8  and  O1_9 
REMARK    3  A    between atoms: C3_13  and  C4_14 
REMARK    4  A    between atoms: C4_14  and  N5_15 
REMARK    5  A    between atoms: C4_14  and  O2_19 
ROOT
HETATM    1  N2  UNL     1      52.763 -13.444  28.428  1.00  0.00    -0.291 N 
ATOM      2  H2  UNL     1      53.059 -14.017  27.638  1.00  0.00     0.188 HD
HETATM    3  C1  UNL     1      52.409 -12.226  28.235  1.00  0.00     0.140 A 
HETATM    4  C2  UNL     1      52.411 -11.646  26.985  1.00  0.00     0.193 A 
HETATM    5  N3  UNL     1      52.040 -10.371  26.779  1.00  0.00    -0.170 N 
HETATM    6  N4  UNL     1      51.665  -9.669  27.832  1.00  0.00    -0.259 N 
ATOM      7  H4  UNL     1      51.378  -8.697  27.711  1.00  0.00     0.191 HD
HETATM    8  C3  UNL     1      51.657 -10.217  29.069  1.00  0.00     0.156 A 
HETATM    9  N6  UNL     1      52.026 -11.495  29.289  1.00  0.00    -0.325 N 
ATOM     10  H6  UNL     1      52.013 -11.892  30.229  1.00  0.00     0.169 HD
ENDROOT
BRANCH   8  11
HETATM   11  C4  UNL     1      51.223  -9.388  30.244  1.00  0.00     0.386 C 
BRANCH  11  12
HETATM   12  N5  UNL     1      52.040  -8.196  30.362  1.00  0.00    -0.046 N 
ATOM     13  H53 UNL     1      52.992  -8.418  30.653  1.00  0.00     0.277 HD
ATOM     14  H52 UNL     1      52.248  -7.789  29.450  1.00  0.00     0.277 HD
ATOM     15  H51 UNL     1      51.603  -7.519  30.987  1.00  0.00     0.277 HD
ENDBRANCH  11  12
BRANCH  11  16
HETATM   16  O2  UNL     1      49.889  -9.044  30.160  1.00  0.00    -0.364 OA
ATOM     17  H2  UNL     1      49.650  -8.404  30.819  1.00  0.00     0.212 HD
ENDBRANCH  11  16
ENDBRANCH   8  11
BRANCH   5  18
HETATM   18  O1  UNL     1      52.050  -9.809  25.503  1.00  0.00    -0.268 OA
ATOM     19  H1  UNL     1      51.253  -9.491  25.096  1.00  0.00     0.247 HD
ENDBRANCH   5  18
BRANCH   1  20
HETATM   20  N1  UNL     1      52.748 -13.992  29.711  1.00  0.00    -0.344 N 
ATOM     21  H12 UNL     1      51.966 -13.773  30.329  1.00  0.00     0.176 HD
ATOM     22  H11 UNL     1      53.504 -14.600  30.024  1.00  0.00     0.176 HD
ENDBRANCH   1  20
TORSDOF 5
ENDMDL
