MODEL 1
REMARK VINA RESULT: -6.504904398      0.000      0.000
REMARK  6 active torsions:
REMARK  status: ('A' for Active; 'I' for Inactive)
REMARK    1  A    between atoms: N1_1  and  N2_4 
REMARK    2  A    between atoms: N2_4  and  C1_6 
REMARK    3  A    between atoms: C1_6  and  O1_7 
REMARK    4  A    between atoms: C1_6  and  N3_9 
REMARK    5  A    between atoms: N3_9  and  N4_10 
REMARK    6  A    between atoms: N3_9  and  C2_13 
ROOT
HETATM    1  N3  UNL     1      52.730  -8.637  28.393  1.00  0.00    -0.051 N 
ENDROOT
BRANCH   1   2
HETATM    2  C1  UNL     1      52.952  -7.709  27.370  1.00  0.00     0.273 C 
BRANCH   2   3
HETATM    3  N2  UNL     1      52.086  -7.277  26.371  1.00  0.00    -0.270 N 
ATOM      4  H2  UNL     1      51.183  -6.872  26.618  1.00  0.00     0.190 HD
BRANCH   3   5
HETATM    5  N1  UNL     1      52.456  -7.398  25.023  1.00  0.00    -0.342 N 
ATOM      6  H12 UNL     1      53.307  -6.939  24.700  1.00  0.00     0.176 HD
ATOM      7  H11 UNL     1      51.875  -7.938  24.382  1.00  0.00     0.176 HD
ENDBRANCH   3   5
ENDBRANCH   2   3
BRANCH   2   8
HETATM    8  O1  UNL     1      54.134  -7.146  27.320  1.00  0.00    -0.330 OA
ATOM      9  H1  UNL     1      54.735  -7.462  27.984  1.00  0.00     0.221 HD
ENDBRANCH   2   8
ENDBRANCH   1   2
BRANCH   1  10
HETATM   10  N4  UNL     1      52.384  -8.100  29.689  1.00  0.00    -0.321 N 
ATOM     11  H42 UNL     1      51.480  -7.638  29.777  1.00  0.00     0.178 HD
ATOM     12  H41 UNL     1      53.052  -8.262  30.443  1.00  0.00     0.178 HD
ENDBRANCH   1  10
BRANCH   1  13
HETATM   13  C2  UNL     1      52.872 -10.009  28.291  1.00  0.00     0.714 C 
HETATM   14  N5  UNL     1      53.815 -10.595  29.004  1.00  0.00    -0.222 N 
HETATM   15  C3  UNL     1      53.971 -12.039  28.903  1.00  0.00     0.156 C 
ATOM     16  H5  UNL     1      54.424 -10.048  29.613  1.00  0.00     0.177 HD
HETATM   17  C4  UNL     1      52.608 -12.722  28.879  1.00  0.00     0.155 C 
HETATM   18  N6  UNL     1      51.677 -12.088  28.000  1.00  0.00    -0.125 NA
HETATM   19  N7  UNL     1      52.161 -10.906  27.458  1.00  0.00    -0.135 N 
ATOM     20  H7  UNL     1      52.007 -10.687  26.473  1.00  0.00     0.201 HD
ENDBRANCH   1  13
TORSDOF 6
ENDMDL
MODEL 2
REMARK VINA RESULT: -6.270764315      1.573      2.736
REMARK  6 active torsions:
REMARK  status: ('A' for Active; 'I' for Inactive)
REMARK    1  A    between atoms: N1_1  and  N2_4 
REMARK    2  A    between atoms: N2_4  and  C1_6 
REMARK    3  A    between atoms: C1_6  and  O1_7 
REMARK    4  A    between atoms: C1_6  and  N3_9 
REMARK    5  A    between atoms: N3_9  and  N4_10 
REMARK    6  A    between atoms: N3_9  and  C2_13 
ROOT
HETATM    1  N3  UNL     1      52.853 -10.012  27.845  1.00  0.00    -0.051 N 
ENDROOT
BRANCH   1   2
HETATM    2  C1  UNL     1      53.094  -8.703  28.274  1.00  0.00     0.273 C 
BRANCH   2   3
HETATM    3  N2  UNL     1      52.311  -7.884  29.081  1.00  0.00    -0.270 N 
ATOM      4  H2  UNL     1      51.983  -6.984  28.730  1.00  0.00     0.190 HD
BRANCH   3   5
HETATM    5  N1  UNL     1      51.974  -8.296  30.379  1.00  0.00    -0.342 N 
ATOM      6  H12 UNL     1      52.569  -8.016  31.158  1.00  0.00     0.176 HD
ATOM      7  H11 UNL     1      51.144  -8.868  30.532  1.00  0.00     0.176 HD
ENDBRANCH   3   5
ENDBRANCH   2   3
BRANCH   2   8
HETATM    8  O1  UNL     1      54.210  -8.141  27.879  1.00  0.00    -0.330 OA
ATOM      9  H1  UNL     1      54.547  -8.493  27.064  1.00  0.00     0.221 HD
ENDBRANCH   2   8
ENDBRANCH   1   2
BRANCH   1  10
HETATM   10  N4  UNL     1      52.175 -10.164  26.579  1.00  0.00    -0.321 N 
ATOM     11  H42 UNL     1      52.744 -10.410  25.769  1.00  0.00     0.178 HD
ATOM     12  H41 UNL     1      51.159 -10.060  26.589  1.00  0.00     0.178 HD
ENDBRANCH   1  10
BRANCH   1  13
HETATM   13  C2  UNL     1      53.147 -11.166  28.549  1.00  0.00     0.714 C 
HETATM   14  N5  UNL     1      52.187 -12.053  28.727  1.00  0.00    -0.222 N 
HETATM   15  C3  UNL     1      52.489 -13.270  29.467  1.00  0.00     0.156 C 
ATOM     16  H5  UNL     1      51.251 -11.890  28.353  1.00  0.00     0.177 HD
HETATM   17  C4  UNL     1      53.857 -13.812  29.066  1.00  0.00     0.155 C 
HETATM   18  N6  UNL     1      54.865 -12.803  29.002  1.00  0.00    -0.125 NA
HETATM   19  N7  UNL     1      54.363 -11.522  29.183  1.00  0.00    -0.135 N 
ATOM     20  H7  UNL     1      54.862 -10.848  29.763  1.00  0.00     0.201 HD
ENDBRANCH   1  13
TORSDOF 6
ENDMDL
MODEL 3
REMARK VINA RESULT: -6.110407197      1.517      1.993
REMARK  6 active torsions:
REMARK  status: ('A' for Active; 'I' for Inactive)
REMARK    1  A    between atoms: N1_1  and  N2_4 
REMARK    2  A    between atoms: N2_4  and  C1_6 
REMARK    3  A    between atoms: C1_6  and  O1_7 
REMARK    4  A    between atoms: C1_6  and  N3_9 
REMARK    5  A    between atoms: N3_9  and  N4_10 
REMARK    6  A    between atoms: N3_9  and  C2_13 
ROOT
HETATM    1  N3  UNL     1      53.068  -8.821  28.007  1.00  0.00    -0.051 N 
ENDROOT
BRANCH   1   2
HETATM    2  C1  UNL     1      51.942  -8.003  27.865  1.00  0.00     0.273 C 
BRANCH   2   3
HETATM    3  N2  UNL     1      50.707  -8.089  28.499  1.00  0.00    -0.270 N 
ATOM      4  H2  UNL     1      49.894  -7.619  28.101  1.00  0.00     0.190 HD
BRANCH   3   5
HETATM    5  N1  UNL     1      50.579  -8.825  29.687  1.00  0.00    -0.342 N 
ATOM      6  H12 UNL     1      50.289  -9.801  29.637  1.00  0.00     0.176 HD
ATOM      7  H11 UNL     1      50.776  -8.381  30.584  1.00  0.00     0.176 HD
ENDBRANCH   3   5
ENDBRANCH   2   3
BRANCH   2   8
HETATM    8  O1  UNL     1      52.033  -7.001  27.026  1.00  0.00    -0.330 OA
ATOM      9  H1  UNL     1      52.128  -7.271  26.120  1.00  0.00     0.221 HD
ENDBRANCH   2   8
ENDBRANCH   1   2
BRANCH   1  10
HETATM   10  N4  UNL     1      54.352  -8.160  27.996  1.00  0.00    -0.321 N 
ATOM     11  H42 UNL     1      54.681  -7.760  28.875  1.00  0.00     0.178 HD
ATOM     12  H41 UNL     1      54.868  -8.178  27.116  1.00  0.00     0.178 HD
ENDBRANCH   1  10
BRANCH   1  13
HETATM   13  C2  UNL     1      53.065 -10.201  28.093  1.00  0.00     0.714 C 
HETATM   14  N5  UNL     1      53.929 -10.780  28.905  1.00  0.00    -0.222 N 
HETATM   15  C3  UNL     1      53.932 -12.232  29.001  1.00  0.00     0.156 C 
ATOM     16  H5  UNL     1      54.583 -10.221  29.454  1.00  0.00     0.177 HD
HETATM   17  C4  UNL     1      52.504 -12.768  29.026  1.00  0.00     0.155 C 
HETATM   18  N6  UNL     1      51.661 -12.166  28.044  1.00  0.00    -0.125 NA
HETATM   19  N7  UNL     1      52.276 -11.125  27.364  1.00  0.00    -0.135 N 
ATOM     20  H7  UNL     1      52.162 -11.026  26.355  1.00  0.00     0.201 HD
ENDBRANCH   1  13
TORSDOF 6
ENDMDL
MODEL 4
REMARK VINA RESULT: -6.087643211      1.956      2.400
REMARK  6 active torsions:
REMARK  status: ('A' for Active; 'I' for Inactive)
REMARK    1  A    between atoms: N1_1  and  N2_4 
REMARK    2  A    between atoms: N2_4  and  C1_6 
REMARK    3  A    between atoms: C1_6  and  O1_7 
REMARK    4  A    between atoms: C1_6  and  N3_9 
REMARK    5  A    between atoms: N3_9  and  N4_10 
REMARK    6  A    between atoms: N3_9  and  C2_13 
ROOT
HETATM    1  N3  UNL     1      52.721 -10.474  28.079  1.00  0.00    -0.051 N 
ENDROOT
BRANCH   1   2
HETATM    2  C1  UNL     1      53.328  -9.398  28.734  1.00  0.00     0.273 C 
BRANCH   2   3
HETATM    3  N2  UNL     1      54.234  -8.465  28.241  1.00  0.00    -0.270 N 
ATOM      4  H2  UNL     1      55.231  -8.576  28.423  1.00  0.00     0.190 HD
BRANCH   3   5
HETATM    5  N1  UNL     1      53.775  -7.371  27.492  1.00  0.00    -0.342 N 
ATOM      6  H12 UNL     1      53.972  -7.337  26.492  1.00  0.00     0.176 HD
ATOM      7  H11 UNL     1      53.253  -6.624  27.950  1.00  0.00     0.176 HD
ENDBRANCH   3   5
ENDBRANCH   2   3
BRANCH   2   8
HETATM    8  O1  UNL     1      53.015  -9.212  29.993  1.00  0.00    -0.330 OA
ATOM      9  H1  UNL     1      52.264  -9.719  30.278  1.00  0.00     0.221 HD
ENDBRANCH   2   8
ENDBRANCH   1   2
BRANCH   1  10
HETATM   10  N4  UNL     1      51.586 -10.165  27.242  1.00  0.00    -0.321 N 
ATOM     11  H42 UNL     1      51.106  -9.281  27.411  1.00  0.00     0.178 HD
ATOM     12  H41 UNL     1      51.367 -10.834  26.502  1.00  0.00     0.178 HD
ENDBRANCH   1  10
BRANCH   1  13
HETATM   13  C2  UNL     1      53.069 -11.806  28.209  1.00  0.00     0.714 C 
HETATM   14  N5  UNL     1      53.969 -12.133  29.116  1.00  0.00    -0.222 N 
HETATM   15  C3  UNL     1      54.340 -13.533  29.260  1.00  0.00     0.156 C 
ATOM     16  H5  UNL     1      54.398 -11.419  29.706  1.00  0.00     0.177 HD
HETATM   17  C4  UNL     1      53.106 -14.424  29.169  1.00  0.00     0.155 C 
HETATM   18  N6  UNL     1      52.236 -14.071  28.093  1.00  0.00    -0.125 NA
HETATM   19  N7  UNL     1      52.623 -12.910  27.440  1.00  0.00    -0.135 N 
ATOM     20  H7  UNL     1      52.587 -12.851  26.423  1.00  0.00     0.201 HD
ENDBRANCH   1  13
TORSDOF 6
ENDMDL
MODEL 5
REMARK VINA RESULT: -6.072381960      1.747      2.360
REMARK  6 active torsions:
REMARK  status: ('A' for Active; 'I' for Inactive)
REMARK    1  A    between atoms: N1_1  and  N2_4 
REMARK    2  A    between atoms: N2_4  and  C1_6 
REMARK    3  A    between atoms: C1_6  and  O1_7 
REMARK    4  A    between atoms: C1_6  and  N3_9 
REMARK    5  A    between atoms: N3_9  and  N4_10 
REMARK    6  A    between atoms: N3_9  and  C2_13 
ROOT
HETATM    1  N3  UNL     1      51.990  -9.980  28.387  1.00  0.00    -0.051 N 
ENDROOT
BRANCH   1   2
HETATM    2  C1  UNL     1      52.247  -9.409  27.137  1.00  0.00     0.273 C 
BRANCH   2   3
HETATM    3  N2  UNL     1      52.630  -8.108  26.826  1.00  0.00    -0.270 N 
ATOM      4  H2  UNL     1      52.147  -7.595  26.089  1.00  0.00     0.190 HD
BRANCH   3   5
HETATM    5  N1  UNL     1      53.682  -7.501  27.529  1.00  0.00    -0.342 N 
ATOM      6  H12 UNL     1      53.471  -6.751  28.186  1.00  0.00     0.176 HD
ATOM      7  H11 UNL     1      54.641  -7.812  27.377  1.00  0.00     0.176 HD
ENDBRANCH   3   5
ENDBRANCH   2   3
BRANCH   2   8
HETATM    8  O1  UNL     1      52.122 -10.184  26.087  1.00  0.00    -0.330 OA
ATOM      9  H1  UNL     1      51.679 -11.004  26.270  1.00  0.00     0.221 HD
ENDBRANCH   2   8
ENDBRANCH   1   2
BRANCH   1  10
HETATM   10  N4  UNL     1      51.006  -9.318  29.211  1.00  0.00    -0.321 N 
ATOM     11  H42 UNL     1      50.409  -8.624  28.761  1.00  0.00     0.178 HD
ATOM     12  H41 UNL     1      50.942  -9.624  30.182  1.00  0.00     0.178 HD
ENDBRANCH   1  10
BRANCH   1  13
HETATM   13  C2  UNL     1      52.635 -11.078  28.927  1.00  0.00     0.714 C 
HETATM   14  N5  UNL     1      52.074 -12.264  28.789  1.00  0.00    -0.222 N 
HETATM   15  C3  UNL     1      52.747 -13.425  29.354  1.00  0.00     0.156 C 
ATOM     16  H5  UNL     1      51.187 -12.367  28.296  1.00  0.00     0.177 HD
HETATM   17  C4  UNL     1      54.249 -13.344  29.105  1.00  0.00     0.155 C 
HETATM   18  N6  UNL     1      54.797 -12.055  29.381  1.00  0.00    -0.125 NA
HETATM   19  N7  UNL     1      53.830 -11.109  29.687  1.00  0.00    -0.135 N 
ATOM     20  H7  UNL     1      53.977 -10.445  30.448  1.00  0.00     0.201 HD
ENDBRANCH   1  13
TORSDOF 6
ENDMDL
