MODEL 1
REMARK VINA RESULT: -6.712052507      0.000      0.000
REMARK  3 active torsions:
REMARK  status: ('A' for Active; 'I' for Inactive)
REMARK    1  A    between atoms: N1_1  and  O1_4 
REMARK    2  A    between atoms: O1_4  and  N2_5 
REMARK    3  A    between atoms: C1_7  and  C2_8 
ROOT
HETATM    1  C2  UNL     1      52.414 -10.242  27.990  1.00  0.00     0.130 A 
HETATM    2  N3  UNL     1      51.871  -9.973  29.211  1.00  0.00    -0.293 N 
ATOM      3  H3  UNL     1      51.483 -10.736  29.766  1.00  0.00     0.172 HD
HETATM    4  C3  UNL     1      51.839  -8.727  29.695  1.00  0.00     0.329 A 
HETATM    5  O2  UNL     1      51.346  -8.459  30.812  1.00  0.00    -0.246 OA
HETATM    6  N4  UNL     1      52.351  -7.723  28.966  1.00  0.00    -0.260 N 
ATOM      7  H4  UNL     1      52.331  -6.770  29.328  1.00  0.00     0.175 HD
HETATM    8  C4  UNL     1      52.892  -7.972  27.758  1.00  0.00     0.329 A 
HETATM    9  O3  UNL     1      53.373  -7.011  27.078  1.00  0.00    -0.246 OA
HETATM   10  N5  UNL     1      52.923  -9.223  27.273  1.00  0.00    -0.293 N 
ATOM     11  H5  UNL     1      53.334  -9.402  26.357  1.00  0.00     0.172 HD
ENDROOT
BRANCH   1  12
HETATM   12  C1  UNL     1      52.448 -11.594  27.465  1.00  0.00     0.165 C 
HETATM   13  N2  UNL     1      53.186 -12.477  28.005  1.00  0.00    -0.250 N 
ATOM     14  H2  UNL     1      53.175 -13.413  27.598  1.00  0.00     0.196 HD
BRANCH  13  15
HETATM   15  O1  UNL     1      53.983 -12.271  29.078  1.00  0.00    -0.164 OA
BRANCH  15  16
HETATM   16  N1  UNL     1      55.341 -12.048  29.009  1.00  0.00    -0.286 N 
ATOM     17  H12 UNL     1      55.875 -12.660  28.392  1.00  0.00     0.186 HD
ATOM     18  H11 UNL     1      55.833 -11.321  29.528  1.00  0.00     0.186 HD
ENDBRANCH  15  16
ENDBRANCH  13  15
ENDBRANCH   1  12
TORSDOF 3
ENDMDL
MODEL 2
REMARK VINA RESULT: -6.703259119      0.033      2.273
REMARK  3 active torsions:
REMARK  status: ('A' for Active; 'I' for Inactive)
REMARK    1  A    between atoms: N1_1  and  O1_4 
REMARK    2  A    between atoms: O1_4  and  N2_5 
REMARK    3  A    between atoms: C1_7  and  C2_8 
ROOT
HETATM    1  C2  UNL     1      52.400 -10.237  27.990  1.00  0.00     0.130 A 
HETATM    2  N3  UNL     1      52.921  -9.207  27.265  1.00  0.00    -0.293 N 
ATOM      3  H3  UNL     1      53.329  -9.395  26.349  1.00  0.00     0.172 HD
HETATM    4  C3  UNL     1      52.907  -7.955  27.733  1.00  0.00     0.329 A 
HETATM    5  O2  UNL     1      53.379  -6.996  27.085  1.00  0.00    -0.246 OA
HETATM    6  N4  UNL     1      52.368  -7.707  28.938  1.00  0.00    -0.260 N 
ATOM      7  H4  UNL     1      52.353  -6.755  29.302  1.00  0.00     0.175 HD
HETATM    8  C4  UNL     1      51.849  -8.714  29.667  1.00  0.00     0.329 A 
HETATM    9  O3  UNL     1      51.343  -8.465  30.806  1.00  0.00    -0.246 OA
HETATM   10  N5  UNL     1      51.865  -9.970  29.196  1.00  0.00    -0.293 N 
ATOM     11  H5  UNL     1      51.470 -10.727  29.754  1.00  0.00     0.172 HD
ENDROOT
BRANCH   1  12
HETATM   12  C1  UNL     1      52.416 -11.596  27.482  1.00  0.00     0.165 C 
HETATM   13  N2  UNL     1      53.145 -12.481  28.031  1.00  0.00    -0.250 N 
ATOM     14  H2  UNL     1      53.122 -13.422  27.636  1.00  0.00     0.196 HD
BRANCH  13  15
HETATM   15  O1  UNL     1      53.949 -12.271  29.098  1.00  0.00    -0.164 OA
BRANCH  15  16
HETATM   16  N1  UNL     1      55.299 -12.009  29.018  1.00  0.00    -0.286 N 
ATOM     17  H12 UNL     1      55.575 -11.028  28.997  1.00  0.00     0.186 HD
ATOM     18  H11 UNL     1      56.024 -12.725  28.979  1.00  0.00     0.186 HD
ENDBRANCH  15  16
ENDBRANCH  13  15
ENDBRANCH   1  12
TORSDOF 3
ENDMDL
MODEL 3
REMARK VINA RESULT: -6.503918793      1.364      2.815
REMARK  3 active torsions:
REMARK  status: ('A' for Active; 'I' for Inactive)
REMARK    1  A    between atoms: N1_1  and  O1_4 
REMARK    2  A    between atoms: O1_4  and  N2_5 
REMARK    3  A    between atoms: C1_7  and  C2_8 
ROOT
HETATM    1  C2  UNL     1      53.766  -9.838  29.315  1.00  0.00     0.130 A 
HETATM    2  N3  UNL     1      54.011  -8.941  28.319  1.00  0.00    -0.293 N 
ATOM      3  H3  UNL     1      54.858  -9.034  27.758  1.00  0.00     0.172 HD
HETATM    4  C3  UNL     1      53.161  -7.941  28.064  1.00  0.00     0.329 A 
HETATM    5  O2  UNL     1      53.366  -7.108  27.155  1.00  0.00    -0.246 OA
HETATM    6  N4  UNL     1      52.046  -7.820  28.801  1.00  0.00    -0.260 N 
ATOM      7  H4  UNL     1      51.391  -7.060  28.612  1.00  0.00     0.175 HD
HETATM    8  C4  UNL     1      51.788  -8.698  29.789  1.00  0.00     0.329 A 
HETATM    9  O3  UNL     1      50.729  -8.570  30.479  1.00  0.00    -0.246 OA
HETATM   10  N5  UNL     1      52.643  -9.700  30.044  1.00  0.00    -0.293 N 
ATOM     11  H5  UNL     1      52.441 -10.361  30.795  1.00  0.00     0.172 HD
ENDROOT
BRANCH   1  12
HETATM   12  C1  UNL     1      54.689 -10.923  29.593  1.00  0.00     0.165 C 
HETATM   13  N2  UNL     1      54.356 -12.128  29.364  1.00  0.00    -0.250 N 
ATOM     14  H2  UNL     1      55.041 -12.854  29.577  1.00  0.00     0.196 HD
BRANCH  13  15
HETATM   15  O1  UNL     1      53.164 -12.520  28.861  1.00  0.00    -0.164 OA
BRANCH  15  16
HETATM   16  N1  UNL     1      52.215 -13.227  29.566  1.00  0.00    -0.286 N 
ATOM     17  H12 UNL     1      52.191 -14.236  29.417  1.00  0.00     0.186 HD
ATOM     18  H11 UNL     1      51.549 -12.809  30.216  1.00  0.00     0.186 HD
ENDBRANCH  15  16
ENDBRANCH  13  15
ENDBRANCH   1  12
TORSDOF 3
ENDMDL
MODEL 4
REMARK VINA RESULT: -6.439178005      1.363      1.660
REMARK  3 active torsions:
REMARK  status: ('A' for Active; 'I' for Inactive)
REMARK    1  A    between atoms: N1_1  and  O1_4 
REMARK    2  A    between atoms: O1_4  and  N2_5 
REMARK    3  A    between atoms: C1_7  and  C2_8 
ROOT
HETATM    1  C2  UNL     1      53.337  -9.569  29.140  1.00  0.00     0.130 A 
HETATM    2  N3  UNL     1      52.185  -9.611  29.867  1.00  0.00    -0.293 N 
ATOM      3  H3  UNL     1      52.112 -10.255  30.654  1.00  0.00     0.172 HD
HETATM    4  C3  UNL     1      51.148  -8.823  29.565  1.00  0.00     0.329 A 
HETATM    5  O2  UNL     1      50.082  -8.845  30.218  1.00  0.00    -0.246 OA
HETATM    6  N4  UNL     1      51.244  -7.974  28.529  1.00  0.00    -0.260 N 
ATOM      7  H4  UNL     1      50.458  -7.369  28.293  1.00  0.00     0.175 HD
HETATM    8  C4  UNL     1      52.376  -7.920  27.801  1.00  0.00     0.329 A 
HETATM    9  O3  UNL     1      52.452  -7.112  26.823  1.00  0.00    -0.246 OA
HETATM   10  N5  UNL     1      53.415  -8.713  28.105  1.00  0.00    -0.293 N 
ATOM     11  H5  UNL     1      54.268  -8.666  27.548  1.00  0.00     0.172 HD
ENDROOT
BRANCH   1  12
HETATM   12  C1  UNL     1      54.462 -10.425  29.467  1.00  0.00     0.165 C 
HETATM   13  N2  UNL     1      54.394 -11.680  29.278  1.00  0.00    -0.250 N 
ATOM     14  H2  UNL     1      55.212 -12.239  29.524  1.00  0.00     0.196 HD
BRANCH  13  15
HETATM   15  O1  UNL     1      53.320 -12.331  28.774  1.00  0.00    -0.164 OA
BRANCH  15  16
HETATM   16  N1  UNL     1      52.474 -13.126  29.514  1.00  0.00    -0.286 N 
ATOM     17  H12 UNL     1      51.536 -12.764  29.683  1.00  0.00     0.186 HD
ATOM     18  H11 UNL     1      52.725 -14.038  29.896  1.00  0.00     0.186 HD
ENDBRANCH  15  16
ENDBRANCH  13  15
ENDBRANCH   1  12
TORSDOF 3
ENDMDL
MODEL 5
REMARK VINA RESULT: -5.977351581      1.739      4.285
REMARK  3 active torsions:
REMARK  status: ('A' for Active; 'I' for Inactive)
REMARK    1  A    between atoms: N1_1  and  O1_4 
REMARK    2  A    between atoms: O1_4  and  N2_5 
REMARK    3  A    between atoms: C1_7  and  C2_8 
ROOT
HETATM    1  C2  UNL     1      52.586 -10.045  27.785  1.00  0.00     0.130 A 
HETATM    2  N3  UNL     1      53.606 -10.101  28.687  1.00  0.00    -0.293 N 
ATOM      3  H3  UNL     1      53.994  -9.234  29.060  1.00  0.00     0.172 HD
HETATM    4  C3  UNL     1      54.108 -11.273  29.090  1.00  0.00     0.329 A 
HETATM    5  O2  UNL     1      55.043 -11.347  29.915  1.00  0.00    -0.246 OA
HETATM    6  N4  UNL     1      53.597 -12.413  28.600  1.00  0.00    -0.260 N 
ATOM      7  H4  UNL     1      53.974 -13.311  28.903  1.00  0.00     0.175 HD
HETATM    8  C4  UNL     1      52.588 -12.374  27.709  1.00  0.00     0.329 A 
HETATM    9  O3  UNL     1      52.115 -13.462  27.253  1.00  0.00    -0.246 OA
HETATM   10  N5  UNL     1      52.086 -11.198  27.304  1.00  0.00    -0.293 N 
ATOM     11  H5  UNL     1      51.322 -11.177  26.628  1.00  0.00     0.172 HD
ENDROOT
BRANCH   1  12
HETATM   12  C1  UNL     1      52.041  -8.773  27.346  1.00  0.00     0.165 C 
HETATM   13  N2  UNL     1      51.436  -8.013  28.166  1.00  0.00    -0.250 N 
ATOM     14  H2  UNL     1      51.071  -7.130  27.808  1.00  0.00     0.196 HD
BRANCH  13  15
HETATM   15  O1  UNL     1      51.239  -8.286  29.476  1.00  0.00    -0.164 OA
BRANCH  15  16
HETATM   16  N1  UNL     1      50.198  -9.044  29.966  1.00  0.00    -0.286 N 
ATOM     17  H12 UNL     1      49.876  -9.813  29.380  1.00  0.00     0.186 HD
ATOM     18  H11 UNL     1      49.740  -8.883  30.863  1.00  0.00     0.186 HD
ENDBRANCH  15  16
ENDBRANCH  13  15
ENDBRANCH   1  12
TORSDOF 3
ENDMDL
