MODEL 1
REMARK VINA RESULT: -5.634807515      0.000      0.000
REMARK  5 active torsions:
REMARK  status: ('A' for Active; 'I' for Inactive)
REMARK    1  A    between atoms: N1_1  and  C1_5 
REMARK    2  A    between atoms: C1_5  and  N2_6 
REMARK    3  A    between atoms: C1_5  and  C2_10 
REMARK    4  A    between atoms: C2_10  and  O2_12 
REMARK    5  A    between atoms: O2_12  and  C3_13 
ROOT
HETATM    1  C2  UNL     1      52.090  -8.382  28.510  1.00  0.00     0.319 C 
HETATM    2  O1  UNL     1      51.733  -7.919  29.612  1.00  0.00    -0.261 OA
ENDROOT
BRANCH   1   3
HETATM    3  C1  UNL     1      52.904  -7.504  27.623  1.00  0.00     0.475 C 
BRANCH   3   4
HETATM    4  N1  UNL     1      54.293  -7.890  27.796  1.00  0.00    -0.041 N 
ATOM      5  H13 UNL     1      54.453  -8.315  28.709  1.00  0.00     0.277 HD
ATOM      6  H12 UNL     1      54.537  -8.687  27.208  1.00  0.00     0.277 HD
ATOM      7  H11 UNL     1      54.920  -7.101  27.635  1.00  0.00     0.277 HD
ENDBRANCH   3   4
BRANCH   3   8
HETATM    8  N2  UNL     1      52.481  -7.650  26.229  1.00  0.00    -0.041 N 
ATOM      9  H23 UNL     1      52.715  -8.572  25.862  1.00  0.00     0.277 HD
ATOM     10  H22 UNL     1      51.466  -7.703  26.150  1.00  0.00     0.277 HD
ATOM     11  H21 UNL     1      52.865  -6.906  25.646  1.00  0.00     0.277 HD
ENDBRANCH   3   8
ENDBRANCH   1   3
BRANCH   1  12
HETATM   12  O2  UNL     1      51.709  -9.660  28.194  1.00  0.00    -0.283 OA
BRANCH  12  13
HETATM   13  C3  UNL     1      51.971 -10.810  28.924  1.00  0.00     0.355 C 
HETATM   14  C4  UNL     1      52.115 -12.065  28.126  1.00  0.00     0.293 C 
HETATM   15  N3  UNL     1      52.515 -13.116  29.080  1.00  0.00    -0.070 N 
HETATM   16  C5  UNL     1      53.931 -12.871  29.343  1.00  0.00     0.260 C 
ATOM     17  H32 UNL     1      51.939 -13.150  29.922  1.00  0.00     0.277 HD
ATOM     18  H31 UNL     1      52.312 -14.063  28.761  1.00  0.00     0.277 HD
HETATM   19  C6  UNL     1      54.269 -11.404  29.319  1.00  0.00     0.262 C 
HETATM   20  N4  UNL     1      53.139 -10.629  29.745  1.00  0.00    -0.045 N 
ATOM     21  H42 UNL     1      53.384  -9.641  29.810  1.00  0.00     0.280 HD
ATOM     22  H41 UNL     1      52.922 -10.816  30.724  1.00  0.00     0.280 HD
ENDBRANCH  12  13
ENDBRANCH   1  12
TORSDOF 5
ENDMDL
MODEL 2
REMARK VINA RESULT: -5.485758149      1.023      1.488
REMARK  5 active torsions:
REMARK  status: ('A' for Active; 'I' for Inactive)
REMARK    1  A    between atoms: N1_1  and  C1_5 
REMARK    2  A    between atoms: C1_5  and  N2_6 
REMARK    3  A    between atoms: C1_5  and  C2_10 
REMARK    4  A    between atoms: C2_10  and  O2_12 
REMARK    5  A    between atoms: O2_12  and  C3_13 
ROOT
HETATM    1  C2  UNL     1      52.132  -8.477  28.355  1.00  0.00     0.319 C 
HETATM    2  O1  UNL     1      51.740  -8.083  29.471  1.00  0.00    -0.261 OA
ENDROOT
BRANCH   1   3
HETATM    3  C1  UNL     1      52.844  -7.497  27.488  1.00  0.00     0.475 C 
BRANCH   3   4
HETATM    4  N1  UNL     1      54.268  -7.707  27.682  1.00  0.00    -0.041 N 
ATOM      5  H13 UNL     1      54.691  -8.175  26.881  1.00  0.00     0.277 HD
ATOM      6  H12 UNL     1      54.786  -6.829  27.642  1.00  0.00     0.277 HD
ATOM      7  H11 UNL     1      54.453  -8.210  28.550  1.00  0.00     0.277 HD
ENDBRANCH   3   4
BRANCH   3   8
HETATM    8  N2  UNL     1      52.466  -7.683  26.086  1.00  0.00    -0.041 N 
ATOM      9  H23 UNL     1      52.637  -8.639  25.776  1.00  0.00     0.277 HD
ATOM     10  H22 UNL     1      51.454  -7.657  25.965  1.00  0.00     0.277 HD
ATOM     11  H21 UNL     1      52.933  -7.005  25.483  1.00  0.00     0.277 HD
ENDBRANCH   3   8
ENDBRANCH   1   3
BRANCH   1  12
HETATM   12  O2  UNL     1      51.881  -9.778  28.006  1.00  0.00    -0.283 OA
BRANCH  12  13
HETATM   13  C3  UNL     1      52.807 -10.808  27.915  1.00  0.00     0.355 C 
HETATM   14  C4  UNL     1      53.703 -10.980  29.099  1.00  0.00     0.293 C 
HETATM   15  N3  UNL     1      54.500 -12.192  28.839  1.00  0.00    -0.070 N 
HETATM   16  C5  UNL     1      53.591 -13.307  29.100  1.00  0.00     0.260 C 
ATOM     17  H32 UNL     1      54.926 -12.216  27.912  1.00  0.00     0.277 HD
ATOM     18  H31 UNL     1      55.370 -12.236  29.370  1.00  0.00     0.277 HD
HETATM   19  C6  UNL     1      52.170 -12.982  28.723  1.00  0.00     0.262 C 
HETATM   20  N4  UNL     1      52.148 -12.054  27.630  1.00  0.00    -0.045 N 
ATOM     21  H42 UNL     1      51.191 -11.891  27.315  1.00  0.00     0.280 HD
ATOM     22  H41 UNL     1      52.534 -12.480  26.787  1.00  0.00     0.280 HD
ENDBRANCH  12  13
ENDBRANCH   1  12
TORSDOF 5
ENDMDL
MODEL 3
REMARK VINA RESULT: -5.438426241      1.492      1.857
REMARK  5 active torsions:
REMARK  status: ('A' for Active; 'I' for Inactive)
REMARK    1  A    between atoms: N1_1  and  C1_5 
REMARK    2  A    between atoms: C1_5  and  N2_6 
REMARK    3  A    between atoms: C1_5  and  C2_10 
REMARK    4  A    between atoms: C2_10  and  O2_12 
REMARK    5  A    between atoms: O2_12  and  C3_13 
ROOT
HETATM    1  C2  UNL     1      52.209  -9.818  28.029  1.00  0.00     0.319 C 
HETATM    2  O1  UNL     1      52.313 -10.216  26.852  1.00  0.00    -0.261 OA
ENDROOT
BRANCH   1   3
HETATM    3  C1  UNL     1      52.610  -8.413  28.320  1.00  0.00     0.475 C 
BRANCH   3   4
HETATM    4  N1  UNL     1      52.322  -8.166  29.723  1.00  0.00    -0.041 N 
ATOM      5  H13 UNL     1      51.400  -7.748  29.848  1.00  0.00     0.277 HD
ATOM      6  H12 UNL     1      52.169  -9.036  30.232  1.00  0.00     0.277 HD
ATOM      7  H11 UNL     1      53.052  -7.601  30.157  1.00  0.00     0.277 HD
ENDBRANCH   3   4
BRANCH   3   8
HETATM    8  N2  UNL     1      54.030  -8.213  28.027  1.00  0.00    -0.041 N 
ATOM      9  H23 UNL     1      54.177  -7.406  27.420  1.00  0.00     0.277 HD
ATOM     10  H22 UNL     1      54.539  -7.886  28.848  1.00  0.00     0.277 HD
ATOM     11  H21 UNL     1      54.450  -9.057  27.636  1.00  0.00     0.277 HD
ENDBRANCH   3   8
ENDBRANCH   1   3
BRANCH   1  12
HETATM   12  O2  UNL     1      51.736 -10.697  28.968  1.00  0.00    -0.283 OA
BRANCH  12  13
HETATM   13  C3  UNL     1      52.407 -11.792  29.494  1.00  0.00     0.355 C 
HETATM   14  C4  UNL     1      52.071 -13.113  28.880  1.00  0.00     0.293 C 
HETATM   15  N3  UNL     1      52.983 -14.095  29.493  1.00  0.00    -0.070 N 
HETATM   16  C5  UNL     1      54.271 -13.879  28.836  1.00  0.00     0.260 C 
ATOM     17  H32 UNL     1      53.025 -14.040  30.511  1.00  0.00     0.277 HD
ATOM     18  H31 UNL     1      52.650 -15.057  29.441  1.00  0.00     0.277 HD
HETATM   19  C6  UNL     1      54.497 -12.432  28.488  1.00  0.00     0.262 C 
HETATM   20  N4  UNL     1      53.829 -11.586  29.435  1.00  0.00    -0.045 N 
ATOM     21  H42 UNL     1      54.044 -10.605  29.255  1.00  0.00     0.280 HD
ATOM     22  H41 UNL     1      54.245 -11.684  30.362  1.00  0.00     0.280 HD
ENDBRANCH  12  13
ENDBRANCH   1  12
TORSDOF 5
ENDMDL
MODEL 4
REMARK VINA RESULT: -5.435113494      1.663      2.290
REMARK  5 active torsions:
REMARK  status: ('A' for Active; 'I' for Inactive)
REMARK    1  A    between atoms: N1_1  and  C1_5 
REMARK    2  A    between atoms: C1_5  and  N2_6 
REMARK    3  A    between atoms: C1_5  and  C2_10 
REMARK    4  A    between atoms: C2_10  and  O2_12 
REMARK    5  A    between atoms: O2_12  and  C3_13 
ROOT
HETATM    1  C2  UNL     1      52.456  -9.453  28.060  1.00  0.00     0.319 C 
HETATM    2  O1  UNL     1      52.027  -9.750  26.927  1.00  0.00    -0.261 OA
ENDROOT
BRANCH   1   3
HETATM    3  C1  UNL     1      52.066  -8.128  28.619  1.00  0.00     0.475 C 
BRANCH   3   4
HETATM    4  N1  UNL     1      52.181  -8.223  30.064  1.00  0.00    -0.041 N 
ATOM      5  H13 UNL     1      52.961  -8.819  30.340  1.00  0.00     0.277 HD
ATOM      6  H12 UNL     1      52.503  -7.345  30.472  1.00  0.00     0.277 HD
ATOM      7  H11 UNL     1      51.305  -8.532  30.486  1.00  0.00     0.277 HD
ENDBRANCH   3   4
BRANCH   3   8
HETATM    8  N2  UNL     1      52.928  -7.072  28.085  1.00  0.00    -0.041 N 
ATOM      9  H23 UNL     1      52.686  -6.160  28.473  1.00  0.00     0.277 HD
ATOM     10  H22 UNL     1      53.879  -7.149  28.445  1.00  0.00     0.277 HD
ATOM     11  H21 UNL     1      52.912  -7.062  27.065  1.00  0.00     0.277 HD
ENDBRANCH   3   8
ENDBRANCH   1   3
BRANCH   1  12
HETATM   12  O2  UNL     1      53.251 -10.362  28.707  1.00  0.00    -0.283 OA
BRANCH  12  13
HETATM   13  C3  UNL     1      53.491 -11.675  28.329  1.00  0.00     0.355 C 
HETATM   14  C4  UNL     1      54.553 -12.388  29.102  1.00  0.00     0.293 C 
HETATM   15  N3  UNL     1      54.543 -13.783  28.624  1.00  0.00    -0.070 N 
HETATM   16  C5  UNL     1      53.376 -14.393  29.258  1.00  0.00     0.260 C 
ATOM     17  H32 UNL     1      54.553 -13.871  27.607  1.00  0.00     0.277 HD
ATOM     18  H31 UNL     1      55.415 -14.284  28.794  1.00  0.00     0.277 HD
HETATM   19  C6  UNL     1      52.242 -13.417  29.422  1.00  0.00     0.262 C 
HETATM   20  N4  UNL     1      52.274 -12.441  28.371  1.00  0.00    -0.045 N 
ATOM     21  H42 UNL     1      51.463 -11.824  28.428  1.00  0.00     0.280 HD
ATOM     22  H41 UNL     1      52.093 -12.878  27.468  1.00  0.00     0.280 HD
ENDBRANCH  12  13
ENDBRANCH   1  12
TORSDOF 5
ENDMDL
MODEL 5
REMARK VINA RESULT: -5.416746572      1.629      2.180
REMARK  5 active torsions:
REMARK  status: ('A' for Active; 'I' for Inactive)
REMARK    1  A    between atoms: N1_1  and  C1_5 
REMARK    2  A    between atoms: C1_5  and  N2_6 
REMARK    3  A    between atoms: C1_5  and  C2_10 
REMARK    4  A    between atoms: C2_10  and  O2_12 
REMARK    5  A    between atoms: O2_12  and  C3_13 
ROOT
HETATM    1  C2  UNL     1      52.141  -8.969  29.784  1.00  0.00     0.319 C 
HETATM    2  O1  UNL     1      51.437  -8.577  30.736  1.00  0.00    -0.261 OA
ENDROOT
BRANCH   1   3
HETATM    3  C1  UNL     1      51.951  -8.302  28.466  1.00  0.00     0.475 C 
BRANCH   3   4
HETATM    4  N1  UNL     1      50.572  -7.851  28.407  1.00  0.00    -0.041 N 
ATOM      5  H13 UNL     1      50.503  -6.904  28.036  1.00  0.00     0.277 HD
ATOM      6  H12 UNL     1      50.048  -8.342  27.683  1.00  0.00     0.277 HD
ATOM      7  H11 UNL     1      50.117  -7.931  29.317  1.00  0.00     0.277 HD
ENDBRANCH   3   4
BRANCH   3   8
HETATM    8  N2  UNL     1      52.883  -7.183  28.318  1.00  0.00    -0.041 N 
ATOM      9  H23 UNL     1      53.850  -7.480  28.448  1.00  0.00     0.277 HD
ATOM     10  H22 UNL     1      52.944  -6.872  27.349  1.00  0.00     0.277 HD
ATOM     11  H21 UNL     1      52.640  -6.414  28.944  1.00  0.00     0.277 HD
ENDBRANCH   3   8
ENDBRANCH   1   3
BRANCH   1  12
HETATM   12  O2  UNL     1      53.035  -9.981  30.017  1.00  0.00    -0.283 OA
BRANCH  12  13
HETATM   13  C3  UNL     1      53.450 -10.947  29.112  1.00  0.00     0.355 C 
HETATM   14  C4  UNL     1      54.702 -11.679  29.475  1.00  0.00     0.293 C 
HETATM   15  N3  UNL     1      54.875 -12.729  28.455  1.00  0.00    -0.070 N 
HETATM   16  C5  UNL     1      53.913 -13.769  28.813  1.00  0.00     0.260 C 
ATOM     17  H32 UNL     1      54.782 -12.392  27.496  1.00  0.00     0.277 HD
ATOM     18  H31 UNL     1      55.834 -13.066  28.368  1.00  0.00     0.277 HD
HETATM   19  C6  UNL     1      52.656 -13.198  29.413  1.00  0.00     0.262 C 
HETATM   20  N4  UNL     1      52.396 -11.896  28.870  1.00  0.00    -0.045 N 
ATOM     21  H42 UNL     1      51.504 -11.536  29.210  1.00  0.00     0.280 HD
ATOM     22  H41 UNL     1      52.188 -11.955  27.873  1.00  0.00     0.280 HD
ENDBRANCH  12  13
ENDBRANCH   1  12
TORSDOF 5
ENDMDL
