MODEL 1
REMARK VINA RESULT: -6.594322582      0.000      0.000
REMARK  6 active torsions:
REMARK  status: ('A' for Active; 'I' for Inactive)
REMARK    1  A    between atoms: N1_1  and  C1_4 
REMARK    2  A    between atoms: C2_7  and  C3_8 
REMARK    3  A    between atoms: C3_8  and  O1_9 
REMARK    4  A    between atoms: O1_9  and  C4_10 
REMARK    5  A    between atoms: C4_10  and  C5_11 
REMARK    6  A    between atoms: C5_11  and  N3_12 
ROOT
HETATM    1  C1  UNL     1     -15.725 -27.392 -26.116  1.00  0.00     0.121 A 
HETATM    2  N2  UNL     1     -16.136 -26.671 -25.044  1.00  0.00    -0.329 N 
ATOM      3  H2  UNL     1     -17.106 -26.660 -24.731  1.00  0.00     0.168 HD
HETATM    4  C2  UNL     1     -15.173 -25.973 -24.425  1.00  0.00     0.108 A 
HETATM    5  N4  UNL     1     -13.899 -25.932 -24.761  1.00  0.00    -0.329 N 
ATOM      6  H4  UNL     1     -13.253 -25.364 -24.212  1.00  0.00     0.168 HD
HETATM    7  C6  UNL     1     -13.426 -26.643 -25.840  1.00  0.00     0.131 A 
HETATM    8  N5  UNL     1     -12.200 -26.692 -26.280  1.00  0.00    -0.302 N 
ATOM      9  H5  UNL     1     -11.459 -26.165 -25.815  1.00  0.00     0.171 HD
HETATM   10  C7  UNL     1     -11.933 -27.442 -27.344  1.00  0.00     0.290 A 
HETATM   11  O2  UNL     1     -10.822 -27.631 -27.932  1.00  0.00    -0.260 OA
HETATM   12  S1  UNL     1     -13.453 -28.103 -27.744  1.00  0.00    -0.021 SA
HETATM   13  C8  UNL     1     -14.375 -27.371 -26.504  1.00  0.00     0.097 A 
ENDROOT
BRANCH   4  14
HETATM   14  C3  UNL     1     -15.606 -25.158 -23.214  1.00  0.00     0.244 C 
BRANCH  14  15
HETATM   15  O1  UNL     1     -15.100 -25.722 -22.092  1.00  0.00    -0.382 OA
BRANCH  15  16
HETATM   16  C4  UNL     1     -15.013 -25.031 -20.950  1.00  0.00     0.195 C 
BRANCH  16  17
HETATM   17  C5  UNL     1     -13.985 -25.391 -19.940  1.00  0.00     0.255 C 
BRANCH  17  18
HETATM   18  N3  UNL     1     -13.221 -24.302 -19.404  1.00  0.00    -0.077 N 
ATOM     19  H33 UNL     1     -12.330 -24.230 -19.895  1.00  0.00     0.274 HD
ATOM     20  H32 UNL     1     -13.649 -23.415 -19.669  1.00  0.00     0.274 HD
ATOM     21  H31 UNL     1     -13.061 -24.320 -18.397  1.00  0.00     0.274 HD
ENDBRANCH  17  18
ENDBRANCH  16  17
ENDBRANCH  15  16
ENDBRANCH  14  15
ENDBRANCH   4  14
BRANCH   1  22
HETATM   22  N1  UNL     1     -16.505 -28.116 -26.826  1.00  0.00    -0.384 N 
ATOM     23  H12 UNL     1     -17.424 -27.722 -27.029  1.00  0.00     0.157 HD
ATOM     24  H11 UNL     1     -16.252 -29.037 -27.184  1.00  0.00     0.157 HD
ENDBRANCH   1  22
TORSDOF 6
ENDMDL
MODEL 2
REMARK VINA RESULT: -6.580158719      1.758      2.635
REMARK  6 active torsions:
REMARK  status: ('A' for Active; 'I' for Inactive)
REMARK    1  A    between atoms: N1_1  and  C1_4 
REMARK    2  A    between atoms: C2_7  and  C3_8 
REMARK    3  A    between atoms: C3_8  and  O1_9 
REMARK    4  A    between atoms: O1_9  and  C4_10 
REMARK    5  A    between atoms: C4_10  and  C5_11 
REMARK    6  A    between atoms: C5_11  and  N3_12 
ROOT
HETATM    1  C1  UNL     1     -12.873 -26.908 -25.578  1.00  0.00     0.121 A 
HETATM    2  N2  UNL     1     -13.897 -26.568 -24.757  1.00  0.00    -0.329 N 
ATOM      3  H2  UNL     1     -13.751 -26.087 -23.870  1.00  0.00     0.168 HD
HETATM    4  C2  UNL     1     -15.116 -26.909 -25.197  1.00  0.00     0.108 A 
HETATM    5  N4  UNL     1     -15.393 -27.529 -26.328  1.00  0.00    -0.329 N 
ATOM      6  H4  UNL     1     -16.364 -27.738 -26.561  1.00  0.00     0.168 HD
HETATM    7  C6  UNL     1     -14.393 -27.899 -27.198  1.00  0.00     0.131 A 
HETATM    8  N5  UNL     1     -14.526 -28.512 -28.341  1.00  0.00    -0.302 N 
ATOM      9  H5  UNL     1     -15.449 -28.776 -28.685  1.00  0.00     0.171 HD
HETATM   10  C7  UNL     1     -13.435 -28.785 -29.048  1.00  0.00     0.290 A 
HETATM   11  O2  UNL     1     -13.335 -29.368 -30.174  1.00  0.00    -0.260 OA
HETATM   12  S1  UNL     1     -12.177 -28.162 -28.080  1.00  0.00    -0.021 SA
HETATM   13  C8  UNL     1     -13.130 -27.569 -26.789  1.00  0.00     0.097 A 
ENDROOT
BRANCH   4  14
HETATM   14  C3  UNL     1     -16.285 -26.535 -24.298  1.00  0.00     0.244 C 
BRANCH  14  15
HETATM   15  O1  UNL     1     -15.984 -26.852 -23.017  1.00  0.00    -0.382 OA
BRANCH  15  16
HETATM   16  C4  UNL     1     -16.259 -26.013 -22.013  1.00  0.00     0.195 C 
BRANCH  16  17
HETATM   17  C5  UNL     1     -15.171 -25.212 -21.395  1.00  0.00     0.255 C 
BRANCH  17  18
HETATM   18  N3  UNL     1     -14.358 -25.893 -20.430  1.00  0.00    -0.077 N 
ATOM     19  H33 UNL     1     -14.827 -25.899 -19.524  1.00  0.00     0.274 HD
ATOM     20  H32 UNL     1     -14.342 -26.892 -20.635  1.00  0.00     0.274 HD
ATOM     21  H31 UNL     1     -13.405 -25.547 -20.324  1.00  0.00     0.274 HD
ENDBRANCH  17  18
ENDBRANCH  16  17
ENDBRANCH  15  16
ENDBRANCH  14  15
ENDBRANCH   4  14
BRANCH   1  22
HETATM   22  N1  UNL     1     -11.644 -26.661 -25.320  1.00  0.00    -0.384 N 
ATOM     23  H12 UNL     1     -11.216 -27.225 -24.585  1.00  0.00     0.157 HD
ATOM     24  H11 UNL     1     -11.095 -25.949 -25.803  1.00  0.00     0.157 HD
ENDBRANCH   1  22
TORSDOF 6
ENDMDL
MODEL 3
REMARK VINA RESULT: -6.445556349      3.217      5.550
REMARK  6 active torsions:
REMARK  status: ('A' for Active; 'I' for Inactive)
REMARK    1  A    between atoms: N1_1  and  C1_4 
REMARK    2  A    between atoms: C2_7  and  C3_8 
REMARK    3  A    between atoms: C3_8  and  O1_9 
REMARK    4  A    between atoms: O1_9  and  C4_10 
REMARK    5  A    between atoms: C4_10  and  C5_11 
REMARK    6  A    between atoms: C5_11  and  N3_12 
ROOT
HETATM    1  C1  UNL     1     -14.233 -26.647 -25.367  1.00  0.00     0.121 A 
HETATM    2  N2  UNL     1     -13.109 -26.847 -26.098  1.00  0.00    -0.329 N 
ATOM      3  H2  UNL     1     -12.198 -26.490 -25.809  1.00  0.00     0.168 HD
HETATM    4  C2  UNL     1     -13.281 -27.549 -27.226  1.00  0.00     0.108 A 
HETATM    5  N4  UNL     1     -14.419 -28.046 -27.671  1.00  0.00    -0.329 N 
ATOM      6  H4  UNL     1     -14.430 -28.568 -28.548  1.00  0.00     0.168 HD
HETATM    7  C6  UNL     1     -15.591 -27.873 -26.971  1.00  0.00     0.131 A 
HETATM    8  N5  UNL     1     -16.777 -28.308 -27.294  1.00  0.00    -0.302 N 
ATOM      9  H5  UNL     1     -16.919 -28.844 -28.151  1.00  0.00     0.171 HD
HETATM   10  C7  UNL     1     -17.796 -28.041 -26.485  1.00  0.00     0.290 A 
HETATM   11  O2  UNL     1     -19.020 -28.364 -26.605  1.00  0.00    -0.260 OA
HETATM   12  S1  UNL     1     -17.070 -27.148 -25.226  1.00  0.00    -0.021 SA
HETATM   13  C8  UNL     1     -15.463 -27.161 -25.810  1.00  0.00     0.097 A 
ENDROOT
BRANCH   4  14
HETATM   14  C3  UNL     1     -12.034 -27.794 -28.064  1.00  0.00     0.244 C 
BRANCH  14  15
HETATM   15  O1  UNL     1     -10.956 -27.870 -27.249  1.00  0.00    -0.382 OA
BRANCH  15  16
HETATM   16  C4  UNL     1     -10.529 -29.045 -26.774  1.00  0.00     0.195 C 
BRANCH  16  17
HETATM   17  C5  UNL     1      -9.782 -29.101 -25.491  1.00  0.00     0.255 C 
BRANCH  17  18
HETATM   18  N3  UNL     1      -9.779 -27.899 -24.711  1.00  0.00    -0.077 N 
ATOM     19  H33 UNL     1     -10.682 -27.432 -24.791  1.00  0.00     0.274 HD
ATOM     20  H32 UNL     1      -9.780 -28.131 -23.718  1.00  0.00     0.274 HD
ATOM     21  H31 UNL     1      -9.029 -27.237 -24.910  1.00  0.00     0.274 HD
ENDBRANCH  17  18
ENDBRANCH  16  17
ENDBRANCH  15  16
ENDBRANCH  14  15
ENDBRANCH   4  14
BRANCH   1  22
HETATM   22  N1  UNL     1     -14.258 -26.000 -24.263  1.00  0.00    -0.384 N 
ATOM     23  H12 UNL     1     -13.516 -26.219 -23.597  1.00  0.00     0.157 HD
ATOM     24  H11 UNL     1     -14.963 -25.301 -24.032  1.00  0.00     0.157 HD
ENDBRANCH   1  22
TORSDOF 6
ENDMDL
MODEL 4
REMARK VINA RESULT: -6.413048727      2.067      2.501
REMARK  6 active torsions:
REMARK  status: ('A' for Active; 'I' for Inactive)
REMARK    1  A    between atoms: N1_1  and  C1_4 
REMARK    2  A    between atoms: C2_7  and  C3_8 
REMARK    3  A    between atoms: C3_8  and  O1_9 
REMARK    4  A    between atoms: O1_9  and  C4_10 
REMARK    5  A    between atoms: C4_10  and  C5_11 
REMARK    6  A    between atoms: C5_11  and  N3_12 
ROOT
HETATM    1  C1  UNL     1     -13.769 -28.374 -27.593  1.00  0.00     0.121 A 
HETATM    2  N2  UNL     1     -14.888 -27.862 -27.025  1.00  0.00    -0.329 N 
ATOM      3  H2  UNL     1     -15.795 -27.879 -27.491  1.00  0.00     0.168 HD
HETATM    4  C2  UNL     1     -14.717 -27.334 -25.806  1.00  0.00     0.108 A 
HETATM    5  N4  UNL     1     -13.584 -27.272 -25.133  1.00  0.00    -0.329 N 
ATOM      6  H4  UNL     1     -13.573 -26.845 -24.206  1.00  0.00     0.168 HD
HETATM    7  C6  UNL     1     -12.417 -27.775 -25.660  1.00  0.00     0.131 A 
HETATM    8  N5  UNL     1     -11.237 -27.780 -25.107  1.00  0.00    -0.302 N 
ATOM      9  H5  UNL     1     -11.095 -27.380 -24.179  1.00  0.00     0.171 HD
HETATM   10  C7  UNL     1     -10.221 -28.316 -25.776  1.00  0.00     0.290 A 
HETATM   11  O2  UNL     1      -9.003 -28.426 -25.430  1.00  0.00    -0.260 OA
HETATM   12  S1  UNL     1     -10.945 -28.833 -27.232  1.00  0.00    -0.021 SA
HETATM   13  C8  UNL     1     -12.544 -28.326 -26.906  1.00  0.00     0.097 A 
ENDROOT
BRANCH   4  14
HETATM   14  C3  UNL     1     -15.959 -26.756 -25.142  1.00  0.00     0.244 C 
BRANCH  14  15
HETATM   15  O1  UNL     1     -16.013 -27.172 -23.855  1.00  0.00    -0.382 OA
BRANCH  15  16
HETATM   16  C4  UNL     1     -16.366 -26.337 -22.872  1.00  0.00     0.195 C 
BRANCH  16  17
HETATM   17  C5  UNL     1     -15.369 -25.395 -22.302  1.00  0.00     0.255 C 
BRANCH  17  18
HETATM   18  N3  UNL     1     -14.723 -25.819 -21.094  1.00  0.00    -0.077 N 
ATOM     19  H33 UNL     1     -15.398 -26.281 -20.484  1.00  0.00     0.274 HD
ATOM     20  H32 UNL     1     -14.093 -26.595 -21.292  1.00  0.00     0.274 HD
ATOM     21  H31 UNL     1     -14.227 -25.095 -20.574  1.00  0.00     0.274 HD
ENDBRANCH  17  18
ENDBRANCH  16  17
ENDBRANCH  15  16
ENDBRANCH  14  15
ENDBRANCH   4  14
BRANCH   1  22
HETATM   22  N1  UNL     1     -13.744 -28.918 -28.751  1.00  0.00    -0.384 N 
ATOM     23  H12 UNL     1     -13.356 -28.352 -29.506  1.00  0.00     0.157 HD
ATOM     24  H11 UNL     1     -14.085 -29.861 -28.941  1.00  0.00     0.157 HD
ENDBRANCH   1  22
TORSDOF 6
ENDMDL
MODEL 5
REMARK VINA RESULT: -6.396260026      2.357      3.150
REMARK  6 active torsions:
REMARK  status: ('A' for Active; 'I' for Inactive)
REMARK    1  A    between atoms: N1_1  and  C1_4 
REMARK    2  A    between atoms: C2_7  and  C3_8 
REMARK    3  A    between atoms: C3_8  and  O1_9 
REMARK    4  A    between atoms: O1_9  and  C4_10 
REMARK    5  A    between atoms: C4_10  and  C5_11 
REMARK    6  A    between atoms: C5_11  and  N3_12 
ROOT
HETATM    1  C1  UNL     1     -12.988 -26.955 -25.579  1.00  0.00     0.121 A 
HETATM    2  N2  UNL     1     -14.044 -26.688 -24.772  1.00  0.00    -0.329 N 
ATOM      3  H2  UNL     1     -13.941 -26.217 -23.873  1.00  0.00     0.168 HD
HETATM    4  C2  UNL     1     -15.234 -27.087 -25.241  1.00  0.00     0.108 A 
HETATM    5  N4  UNL     1     -15.456 -27.699 -26.388  1.00  0.00    -0.329 N 
ATOM      6  H4  UNL     1     -16.409 -27.956 -26.644  1.00  0.00     0.168 HD
HETATM    7  C6  UNL     1     -14.422 -27.996 -27.246  1.00  0.00     0.131 A 
HETATM    8  N5  UNL     1     -14.499 -28.593 -28.402  1.00  0.00    -0.302 N 
ATOM      9  H5  UNL     1     -15.400 -28.901 -28.769  1.00  0.00     0.171 HD
HETATM   10  C7  UNL     1     -13.382 -28.793 -29.094  1.00  0.00     0.290 A 
HETATM   11  O2  UNL     1     -13.230 -29.347 -30.228  1.00  0.00    -0.260 OA
HETATM   12  S1  UNL     1     -12.178 -28.120 -28.090  1.00  0.00    -0.021 SA
HETATM   13  C8  UNL     1     -13.186 -27.606 -26.807  1.00  0.00     0.097 A 
ENDROOT
BRANCH   4  14
HETATM   14  C3  UNL     1     -16.438 -26.795 -24.358  1.00  0.00     0.244 C 
BRANCH  14  15
HETATM   15  O1  UNL     1     -16.840 -25.517 -24.557  1.00  0.00    -0.382 OA
BRANCH  15  16
HETATM   16  C4  UNL     1     -17.115 -24.710 -23.527  1.00  0.00     0.195 C 
BRANCH  16  17
HETATM   17  C5  UNL     1     -16.091 -23.752 -23.039  1.00  0.00     0.255 C 
BRANCH  17  18
HETATM   18  N3  UNL     1     -15.066 -23.394 -23.976  1.00  0.00    -0.077 N 
ATOM     19  H33 UNL     1     -15.261 -23.820 -24.882  1.00  0.00     0.274 HD
ATOM     20  H32 UNL     1     -15.146 -22.406 -24.216  1.00  0.00     0.274 HD
ATOM     21  H31 UNL     1     -14.108 -23.605 -23.694  1.00  0.00     0.274 HD
ENDBRANCH  17  18
ENDBRANCH  16  17
ENDBRANCH  15  16
ENDBRANCH  14  15
ENDBRANCH   4  14
BRANCH   1  22
HETATM   22  N1  UNL     1     -11.779 -26.646 -25.293  1.00  0.00    -0.384 N 
ATOM     23  H12 UNL     1     -11.642 -25.746 -24.832  1.00  0.00     0.157 HD
ATOM     24  H11 UNL     1     -10.978 -27.242 -25.500  1.00  0.00     0.157 HD
ENDBRANCH   1  22
TORSDOF 6
ENDMDL
