MODEL 1
REMARK VINA RESULT: -7.918771629      0.000      0.000
REMARK  3 active torsions:
REMARK  status: ('A' for Active; 'I' for Inactive)
REMARK       I    between atoms: C1_2  and  N2_4 
REMARK    1  A    between atoms: N2_4  and  N3_6 
REMARK    2  A    between atoms: C2_8  and  C3_9 
REMARK    3  A    between atoms: C6_15  and  N5_16 
ROOT
HETATM    1  C3  UNL     1     -13.715 -27.213 -26.055  1.00  0.00     0.023 A 
HETATM    2  C4  UNL     1     -12.378 -26.961 -26.121  1.00  0.00     0.106 A 
HETATM    3  N4  UNL     1     -11.602 -27.335 -27.159  1.00  0.00    -0.331 N 
ATOM      4  H4  UNL     1     -10.605 -27.123 -27.162  1.00  0.00     0.168 HD
HETATM    5  C5  UNL     1     -12.165 -27.998 -28.199  1.00  0.00     0.280 A 
HETATM    6  O2  UNL     1     -11.493 -28.375 -29.198  1.00  0.00    -0.265 OA
HETATM    7  C6  UNL     1     -13.496 -28.276 -28.185  1.00  0.00     0.195 A 
HETATM    8  C7  UNL     1     -14.283 -27.894 -27.128  1.00  0.00     0.098 A 
HETATM    9  N6  UNL     1     -15.678 -28.163 -27.071  1.00  0.00    -0.099 NA
ENDROOT
BRANCH   1  10
HETATM   10  C2  UNL     1     -14.544 -26.809 -24.937  1.00  0.00     0.122 C 
HETATM   11  N3  UNL     1     -14.245 -25.765 -24.250  1.00  0.00    -0.307 N 
ATOM     12  H3  UNL     1     -13.418 -25.224 -24.500  1.00  0.00     0.186 HD
BRANCH  11  13
HETATM   13  N2  UNL     1     -15.022 -25.360 -23.179  1.00  0.00    -0.254 N 
HETATM   14  C1  UNL     1     -15.318 -23.992 -23.010  1.00  0.00     0.347 C 
HETATM   15  N1  UNL     1     -16.119 -23.536 -21.912  1.00  0.00    -0.038 NA
HETATM   16  O1  UNL     1     -14.884 -23.160 -23.819  1.00  0.00    -0.249 OA
ATOM     17  H2  UNL     1     -15.379 -26.048 -22.515  1.00  0.00     0.191 HD
ENDBRANCH  11  13
ENDBRANCH   1  10
BRANCH   7  18
HETATM   18  N5  UNL     1     -14.103 -28.969 -29.266  1.00  0.00    -0.108 N 
HETATM   19  O3  UNL     1     -14.652 -28.366 -30.211  1.00  0.00    -0.532 OA
HETATM   20  O4  UNL     1     -14.103 -30.327 -29.298  1.00  0.00    -0.532 OA
ENDBRANCH   7  18
TORSDOF 3
ENDMDL
MODEL 2
REMARK VINA RESULT: -7.359683163      1.167      2.428
REMARK  3 active torsions:
REMARK  status: ('A' for Active; 'I' for Inactive)
REMARK       I    between atoms: C1_2  and  N2_4 
REMARK    1  A    between atoms: N2_4  and  N3_6 
REMARK    2  A    between atoms: C2_8  and  C3_9 
REMARK    3  A    between atoms: C6_15  and  N5_16 
ROOT
HETATM    1  C3  UNL     1     -14.801 -27.322 -25.950  1.00  0.00     0.023 A 
HETATM    2  C4  UNL     1     -15.703 -27.853 -26.822  1.00  0.00     0.106 A 
HETATM    3  N4  UNL     1     -15.359 -28.393 -28.010  1.00  0.00    -0.331 N 
ATOM      4  H4  UNL     1     -16.072 -28.779 -28.628  1.00  0.00     0.168 HD
HETATM    5  C5  UNL     1     -14.052 -28.416 -28.370  1.00  0.00     0.280 A 
HETATM    6  O2  UNL     1     -13.667 -28.906 -29.467  1.00  0.00    -0.265 OA
HETATM    7  C6  UNL     1     -13.110 -27.900 -27.538  1.00  0.00     0.195 A 
HETATM    8  C7  UNL     1     -13.462 -27.352 -26.331  1.00  0.00     0.098 A 
HETATM    9  N6  UNL     1     -12.511 -26.800 -25.430  1.00  0.00    -0.099 NA
ENDROOT
BRANCH   1  10
HETATM   10  C2  UNL     1     -15.176 -26.743 -24.676  1.00  0.00     0.122 C 
HETATM   11  N3  UNL     1     -14.906 -25.515 -24.415  1.00  0.00    -0.307 N 
ATOM     12  H3  UNL     1     -14.425 -24.950 -25.115  1.00  0.00     0.186 HD
BRANCH  11  13
HETATM   13  N2  UNL     1     -15.255 -24.941 -23.205  1.00  0.00    -0.254 N 
HETATM   14  C1  UNL     1     -16.081 -23.799 -23.188  1.00  0.00     0.347 C 
HETATM   15  N1  UNL     1     -16.462 -23.177 -21.952  1.00  0.00    -0.038 NA
HETATM   16  O1  UNL     1     -16.491 -23.314 -24.251  1.00  0.00    -0.249 OA
ATOM     17  H2  UNL     1     -14.917 -25.343 -22.330  1.00  0.00     0.191 HD
ENDBRANCH  11  13
ENDBRANCH   1  10
BRANCH   7  18
HETATM   18  N5  UNL     1     -11.736 -27.916 -27.899  1.00  0.00    -0.108 N 
HETATM   19  O3  UNL     1     -11.238 -27.043 -28.639  1.00  0.00    -0.532 OA
HETATM   20  O4  UNL     1     -10.916 -28.898 -27.442  1.00  0.00    -0.532 OA
ENDBRANCH   7  18
TORSDOF 3
ENDMDL
MODEL 3
REMARK VINA RESULT: -7.333279904      3.044      5.237
REMARK  3 active torsions:
REMARK  status: ('A' for Active; 'I' for Inactive)
REMARK       I    between atoms: C1_2  and  N2_4 
REMARK    1  A    between atoms: N2_4  and  N3_6 
REMARK    2  A    between atoms: C2_8  and  C3_9 
REMARK    3  A    between atoms: C6_15  and  N5_16 
ROOT
HETATM    1  C3  UNL     1     -15.114 -26.804 -25.507  1.00  0.00     0.023 A 
HETATM    2  C4  UNL     1     -15.888 -26.107 -24.630  1.00  0.00     0.106 A 
HETATM    3  N4  UNL     1     -17.226 -26.257 -24.540  1.00  0.00    -0.331 N 
ATOM      4  H4  UNL     1     -17.763 -25.712 -23.865  1.00  0.00     0.168 HD
HETATM    5  C5  UNL     1     -17.848 -27.141 -25.357  1.00  0.00     0.280 A 
HETATM    6  O2  UNL     1     -19.095 -27.325 -25.322  1.00  0.00    -0.265 OA
HETATM    7  C6  UNL     1     -17.123 -27.863 -26.252  1.00  0.00     0.195 A 
HETATM    8  C7  UNL     1     -15.763 -27.709 -26.342  1.00  0.00     0.098 A 
HETATM    9  N6  UNL     1     -14.965 -28.442 -27.262  1.00  0.00    -0.099 NA
ENDROOT
BRANCH   1  10
HETATM   10  C2  UNL     1     -13.677 -26.639 -25.600  1.00  0.00     0.122 C 
HETATM   11  N3  UNL     1     -12.888 -27.529 -25.116  1.00  0.00    -0.307 N 
ATOM     12  H3  UNL     1     -13.283 -28.354 -24.665  1.00  0.00     0.186 HD
BRANCH  11  13
HETATM   13  N2  UNL     1     -11.513 -27.393 -25.194  1.00  0.00    -0.254 N 
HETATM   14  C1  UNL     1     -10.715 -28.522 -25.473  1.00  0.00     0.347 C 
HETATM   15  N1  UNL     1      -9.287 -28.418 -25.560  1.00  0.00    -0.038 NA
HETATM   16  O1  UNL     1     -11.245 -29.628 -25.649  1.00  0.00    -0.249 OA
ATOM     17  H2  UNL     1     -11.079 -26.482 -25.049  1.00  0.00     0.191 HD
ENDBRANCH  11  13
ENDBRANCH   1  10
BRANCH   7  18
HETATM   18  N5  UNL     1     -17.757 -28.794 -27.117  1.00  0.00    -0.108 N 
HETATM   19  O3  UNL     1     -18.069 -28.500 -28.289  1.00  0.00    -0.532 OA
HETATM   20  O4  UNL     1     -18.047 -30.049 -26.683  1.00  0.00    -0.532 OA
ENDBRANCH   7  18
TORSDOF 3
ENDMDL
MODEL 4
REMARK VINA RESULT: -7.264548764      1.127      1.362
REMARK  3 active torsions:
REMARK  status: ('A' for Active; 'I' for Inactive)
REMARK       I    between atoms: C1_2  and  N2_4 
REMARK    1  A    between atoms: N2_4  and  N3_6 
REMARK    2  A    between atoms: C2_8  and  C3_9 
REMARK    3  A    between atoms: C6_15  and  N5_16 
ROOT
HETATM    1  C3  UNL     1     -14.012 -27.210 -25.839  1.00  0.00     0.023 A 
HETATM    2  C4  UNL     1     -12.715 -26.794 -25.856  1.00  0.00     0.106 A 
HETATM    3  N4  UNL     1     -11.868 -27.044 -26.877  1.00  0.00    -0.331 N 
ATOM      4  H4  UNL     1     -10.905 -26.711 -26.842  1.00  0.00     0.168 HD
HETATM    5  C5  UNL     1     -12.315 -27.744 -27.948  1.00  0.00     0.280 A 
HETATM    6  O2  UNL     1     -11.572 -28.011 -28.932  1.00  0.00    -0.265 OA
HETATM    7  C6  UNL     1     -13.600 -28.183 -27.983  1.00  0.00     0.195 A 
HETATM    8  C7  UNL     1     -14.459 -27.928 -26.945  1.00  0.00     0.098 A 
HETATM    9  N6  UNL     1     -15.811 -28.368 -26.939  1.00  0.00    -0.099 NA
ENDROOT
BRANCH   1  10
HETATM   10  C2  UNL     1     -14.918 -26.939 -24.741  1.00  0.00     0.122 C 
HETATM   11  N3  UNL     1     -16.001 -26.278 -24.939  1.00  0.00    -0.307 N 
ATOM     12  H3  UNL     1     -16.218 -25.946 -25.878  1.00  0.00     0.186 HD
BRANCH  11  13
HETATM   13  N2  UNL     1     -16.880 -26.008 -23.905  1.00  0.00    -0.254 N 
HETATM   14  C1  UNL     1     -17.130 -24.671 -23.534  1.00  0.00     0.347 C 
HETATM   15  N1  UNL     1     -18.035 -24.354 -22.467  1.00  0.00    -0.038 NA
HETATM   16  O1  UNL     1     -16.565 -23.745 -24.133  1.00  0.00    -0.249 OA
ATOM     17  H2  UNL     1     -17.345 -26.772 -23.414  1.00  0.00     0.191 HD
ENDBRANCH  11  13
ENDBRANCH   1  10
BRANCH   7  18
HETATM   18  N5  UNL     1     -14.085 -28.918 -29.098  1.00  0.00    -0.108 N 
HETATM   19  O3  UNL     1     -14.019 -30.164 -29.146  1.00  0.00    -0.532 OA
HETATM   20  O4  UNL     1     -14.642 -28.274 -30.157  1.00  0.00    -0.532 OA
ENDBRANCH   7  18
TORSDOF 3
ENDMDL
MODEL 5
REMARK VINA RESULT: -7.207898135      1.070      1.070
REMARK  3 active torsions:
REMARK  status: ('A' for Active; 'I' for Inactive)
REMARK       I    between atoms: C1_2  and  N2_4 
REMARK    1  A    between atoms: N2_4  and  N3_6 
REMARK    2  A    between atoms: C2_8  and  C3_9 
REMARK    3  A    between atoms: C6_15  and  N5_16 
ROOT
HETATM    1  C3  UNL     1     -13.342 -27.614 -26.053  1.00  0.00     0.023 A 
HETATM    2  C4  UNL     1     -11.997 -27.472 -26.222  1.00  0.00     0.106 A 
HETATM    3  N4  UNL     1     -11.350 -27.820 -27.354  1.00  0.00    -0.331 N 
ATOM      4  H4  UNL     1     -10.341 -27.694 -27.432  1.00  0.00     0.168 HD
HETATM    5  C5  UNL     1     -12.059 -28.342 -28.385  1.00  0.00     0.280 A 
HETATM    6  O2  UNL     1     -11.511 -28.688 -29.468  1.00  0.00    -0.265 OA
HETATM    7  C6  UNL     1     -13.403 -28.505 -28.270  1.00  0.00     0.195 A 
HETATM    8  C7  UNL     1     -14.058 -28.150 -27.119  1.00  0.00     0.098 A 
HETATM    9  N6  UNL     1     -15.462 -28.303 -26.955  1.00  0.00    -0.099 NA
ENDROOT
BRANCH   1  10
HETATM   10  C2  UNL     1     -14.032 -27.238 -24.836  1.00  0.00     0.122 C 
HETATM   11  N3  UNL     1     -14.303 -26.005 -24.597  1.00  0.00    -0.307 N 
ATOM     12  H3  UNL     1     -14.027 -25.293 -25.273  1.00  0.00     0.186 HD
BRANCH  11  13
HETATM   13  N2  UNL     1     -14.961 -25.622 -23.441  1.00  0.00    -0.254 N 
HETATM   14  C1  UNL     1     -16.352 -25.391 -23.475  1.00  0.00     0.347 C 
HETATM   15  N1  UNL     1     -17.066 -24.992 -22.297  1.00  0.00    -0.038 NA
HETATM   16  O1  UNL     1     -16.978 -25.530 -24.535  1.00  0.00    -0.249 OA
ATOM     17  H2  UNL     1     -14.444 -25.509 -22.569  1.00  0.00     0.191 HD
ENDBRANCH  11  13
ENDBRANCH   1  10
BRANCH   7  18
HETATM   18  N5  UNL     1     -14.161 -29.049 -29.341  1.00  0.00    -0.108 N 
HETATM   19  O3  UNL     1     -14.715 -28.324 -30.193  1.00  0.00    -0.532 OA
HETATM   20  O4  UNL     1     -14.306 -30.395 -29.467  1.00  0.00    -0.532 OA
ENDBRANCH   7  18
TORSDOF 3
ENDMDL
