MODEL 1
REMARK VINA RESULT: -6.655731159      0.000      0.000
REMARK  4 active torsions:
REMARK  status: ('A' for Active; 'I' for Inactive)
REMARK    1  A    between atoms: C5_11  and  N3_12 
REMARK    2  A    between atoms: N3_12  and  C6_14 
REMARK    3  A    between atoms: C6_14  and  C7_15 
REMARK       I    between atoms: C7_15  and  N4_17 
REMARK    4  A    between atoms: N4_17  and  N5_19 
ROOT
HETATM    1  N1  UNL     1     -13.521 -29.447 -30.283  1.00  0.00    -0.191 NA
HETATM    2  C1  UNL     1     -13.889 -28.943 -29.320  1.00  0.00     0.109 C 
HETATM    3  C2  UNL     1     -14.364 -28.333 -28.121  1.00  0.00     0.122 A 
HETATM    4  S1  UNL     1     -15.983 -28.395 -27.595  1.00  0.00    -0.015 SA
HETATM    5  C3  UNL     1     -16.243 -27.573 -26.126  1.00  0.00     0.292 A 
HETATM    6  O1  UNL     1     -17.377 -27.486 -25.540  1.00  0.00    -0.260 OA
HETATM    7  N2  UNL     1     -15.146 -26.999 -25.599  1.00  0.00    -0.282 N 
ATOM      8  H2  UNL     1     -15.266 -26.498 -24.719  1.00  0.00     0.172 HD
HETATM    9  C4  UNL     1     -13.923 -27.022 -26.112  1.00  0.00     0.277 A 
HETATM   10  O2  UNL     1     -13.011 -26.410 -25.450  1.00  0.00    -0.266 OA
HETATM   11  C5  UNL     1     -13.514 -27.620 -27.268  1.00  0.00     0.125 A 
ENDROOT
BRANCH  11  12
HETATM   12  N3  UNL     1     -12.144 -27.540 -27.666  1.00  0.00    -0.375 N 
ATOM     13  H3  UNL     1     -11.780 -26.648 -28.001  1.00  0.00     0.160 HD
BRANCH  12  14
HETATM   14  C6  UNL     1     -11.257 -28.682 -27.609  1.00  0.00     0.224 C 
BRANCH  14  15
HETATM   15  C7  UNL     1     -10.467 -28.710 -26.362  1.00  0.00     0.253 C 
HETATM   16  O3  UNL     1      -9.759 -29.707 -26.107  1.00  0.00    -0.270 OA
HETATM   17  N4  UNL     1     -10.488 -27.638 -25.444  1.00  0.00    -0.275 N 
ATOM     18  H4  UNL     1     -11.065 -26.822 -25.648  1.00  0.00     0.189 HD
BRANCH  17  19
HETATM   19  N5  UNL     1      -9.742 -27.665 -24.266  1.00  0.00    -0.343 N 
ATOM     20  H52 UNL     1      -9.048 -28.403 -24.154  1.00  0.00     0.176 HD
ATOM     21  H51 UNL     1      -9.877 -26.973 -23.530  1.00  0.00     0.176 HD
ENDBRANCH  17  19
ENDBRANCH  14  15
ENDBRANCH  12  14
ENDBRANCH  11  12
TORSDOF 4
ENDMDL
MODEL 2
REMARK VINA RESULT: -6.479970610      2.669      4.002
REMARK  4 active torsions:
REMARK  status: ('A' for Active; 'I' for Inactive)
REMARK    1  A    between atoms: C5_11  and  N3_12 
REMARK    2  A    between atoms: N3_12  and  C6_14 
REMARK    3  A    between atoms: C6_14  and  C7_15 
REMARK       I    between atoms: C7_15  and  N4_17 
REMARK    4  A    between atoms: N4_17  and  N5_19 
ROOT
HETATM    1  N1  UNL     1     -15.457 -26.021 -22.027  1.00  0.00    -0.191 NA
HETATM    2  C1  UNL     1     -15.869 -26.457 -23.005  1.00  0.00     0.109 C 
HETATM    3  C2  UNL     1     -16.402 -26.985 -24.218  1.00  0.00     0.122 A 
HETATM    4  S1  UNL     1     -18.066 -27.074 -24.571  1.00  0.00    -0.015 SA
HETATM    5  C3  UNL     1     -18.393 -27.753 -26.099  1.00  0.00     0.292 A 
HETATM    6  O1  UNL     1     -19.567 -27.920 -26.577  1.00  0.00    -0.260 OA
HETATM    7  N2  UNL     1     -17.302 -28.116 -26.799  1.00  0.00    -0.282 N 
ATOM      8  H2  UNL     1     -17.462 -28.526 -27.719  1.00  0.00     0.172 HD
HETATM    9  C4  UNL     1     -16.040 -27.993 -26.410  1.00  0.00     0.277 A 
HETATM   10  O2  UNL     1     -15.144 -28.403 -27.230  1.00  0.00    -0.266 OA
HETATM   11  C5  UNL     1     -15.576 -27.480 -25.234  1.00  0.00     0.125 A 
ENDROOT
BRANCH  11  12
HETATM   12  N3  UNL     1     -14.171 -27.427 -24.986  1.00  0.00    -0.375 N 
ATOM     13  H3  UNL     1     -13.762 -28.085 -24.322  1.00  0.00     0.160 HD
BRANCH  12  14
HETATM   14  C6  UNL     1     -13.308 -26.471 -25.645  1.00  0.00     0.224 C 
BRANCH  14  15
HETATM   15  C7  UNL     1     -11.986 -27.044 -25.966  1.00  0.00     0.253 C 
HETATM   16  O3  UNL     1     -11.625 -27.124 -27.159  1.00  0.00    -0.270 OA
HETATM   17  N4  UNL     1     -11.112 -27.507 -24.959  1.00  0.00    -0.275 N 
ATOM     18  H4  UNL     1     -11.403 -27.444 -23.983  1.00  0.00     0.189 HD
BRANCH  17  19
HETATM   19  N5  UNL     1      -9.864 -28.050 -25.261  1.00  0.00    -0.343 N 
ATOM     20  H52 UNL     1      -9.048 -27.677 -24.776  1.00  0.00     0.176 HD
ATOM     21  H51 UNL     1      -9.754 -28.797 -25.946  1.00  0.00     0.176 HD
ENDBRANCH  17  19
ENDBRANCH  14  15
ENDBRANCH  12  14
ENDBRANCH  11  12
TORSDOF 4
ENDMDL
MODEL 3
REMARK VINA RESULT: -6.465044204      2.016      2.352
REMARK  4 active torsions:
REMARK  status: ('A' for Active; 'I' for Inactive)
REMARK    1  A    between atoms: C5_11  and  N3_12 
REMARK    2  A    between atoms: N3_12  and  C6_14 
REMARK    3  A    between atoms: C6_14  and  C7_15 
REMARK       I    between atoms: C7_15  and  N4_17 
REMARK    4  A    between atoms: N4_17  and  N5_19 
ROOT
HETATM    1  N1  UNL     1     -16.914 -29.039 -28.237  1.00  0.00    -0.191 NA
HETATM    2  C1  UNL     1     -16.580 -28.372 -27.365  1.00  0.00     0.109 C 
HETATM    3  C2  UNL     1     -16.185 -27.552 -26.267  1.00  0.00     0.122 A 
HETATM    4  S1  UNL     1     -17.250 -26.985 -25.066  1.00  0.00    -0.015 SA
HETATM    5  C3  UNL     1     -16.483 -26.028 -23.884  1.00  0.00     0.292 A 
HETATM    6  O1  UNL     1     -17.082 -25.495 -22.888  1.00  0.00    -0.260 OA
HETATM    7  N2  UNL     1     -15.160 -25.859 -24.068  1.00  0.00    -0.282 N 
ATOM      8  H2  UNL     1     -14.668 -25.291 -23.379  1.00  0.00     0.172 HD
HETATM    9  C4  UNL     1     -14.433 -26.359 -25.059  1.00  0.00     0.277 A 
HETATM   10  O2  UNL     1     -13.182 -26.078 -25.051  1.00  0.00    -0.266 OA
HETATM   11  C5  UNL     1     -14.857 -27.142 -26.092  1.00  0.00     0.125 A 
ENDROOT
BRANCH  11  12
HETATM   12  N3  UNL     1     -13.924 -27.593 -27.074  1.00  0.00    -0.375 N 
ATOM     13  H3  UNL     1     -13.807 -27.048 -27.929  1.00  0.00     0.160 HD
BRANCH  12  14
HETATM   14  C6  UNL     1     -13.139 -28.795 -26.898  1.00  0.00     0.224 C 
BRANCH  14  15
HETATM   15  C7  UNL     1     -11.722 -28.497 -26.610  1.00  0.00     0.253 C 
HETATM   16  O3  UNL     1     -10.910 -28.404 -27.555  1.00  0.00    -0.270 OA
HETATM   17  N4  UNL     1     -11.254 -28.313 -25.291  1.00  0.00    -0.275 N 
ATOM     18  H4  UNL     1     -11.913 -28.388 -24.517  1.00  0.00     0.189 HD
BRANCH  17  19
HETATM   19  N5  UNL     1      -9.916 -28.032 -25.019  1.00  0.00    -0.343 N 
ATOM     20  H52 UNL     1      -9.237 -28.150 -25.771  1.00  0.00     0.176 HD
ATOM     21  H51 UNL     1      -9.610 -27.716 -24.099  1.00  0.00     0.176 HD
ENDBRANCH  17  19
ENDBRANCH  14  15
ENDBRANCH  12  14
ENDBRANCH  11  12
TORSDOF 4
ENDMDL
MODEL 4
REMARK VINA RESULT: -6.405631361      2.409      5.091
REMARK  4 active torsions:
REMARK  status: ('A' for Active; 'I' for Inactive)
REMARK    1  A    between atoms: C5_11  and  N3_12 
REMARK    2  A    between atoms: N3_12  and  C6_14 
REMARK    3  A    between atoms: C6_14  and  C7_15 
REMARK       I    between atoms: C7_15  and  N4_17 
REMARK    4  A    between atoms: N4_17  and  N5_19 
ROOT
HETATM    1  N1  UNL     1     -17.191 -27.798 -26.399  1.00  0.00    -0.191 NA
HETATM    2  C1  UNL     1     -16.065 -27.831 -26.619  1.00  0.00     0.109 C 
HETATM    3  C2  UNL     1     -14.671 -27.869 -26.917  1.00  0.00     0.122 A 
HETATM    4  S1  UNL     1     -14.024 -28.428 -28.390  1.00  0.00    -0.015 SA
HETATM    5  C3  UNL     1     -12.324 -28.351 -28.450  1.00  0.00     0.292 A 
HETATM    6  O1  UNL     1     -11.620 -28.716 -29.454  1.00  0.00    -0.260 OA
HETATM    7  N2  UNL     1     -11.743 -27.865 -27.338  1.00  0.00    -0.282 N 
ATOM      8  H2  UNL     1     -10.725 -27.804 -27.339  1.00  0.00     0.172 HD
HETATM    9  C4  UNL     1     -12.364 -27.456 -26.239  1.00  0.00     0.277 A 
HETATM   10  O2  UNL     1     -11.622 -27.025 -25.286  1.00  0.00    -0.266 OA
HETATM   11  C5  UNL     1     -13.707 -27.438 -25.998  1.00  0.00     0.125 A 
ENDROOT
BRANCH  11  12
HETATM   12  N3  UNL     1     -14.200 -26.959 -24.747  1.00  0.00    -0.375 N 
ATOM     13  H3  UNL     1     -14.300 -27.616 -23.972  1.00  0.00     0.160 HD
BRANCH  12  14
HETATM   14  C6  UNL     1     -14.560 -25.573 -24.540  1.00  0.00     0.224 C 
BRANCH  14  15
HETATM   15  C7  UNL     1     -15.798 -25.433 -23.748  1.00  0.00     0.253 C 
HETATM   16  O3  UNL     1     -16.778 -24.834 -24.242  1.00  0.00    -0.270 OA
HETATM   17  N4  UNL     1     -15.909 -25.957 -22.443  1.00  0.00    -0.275 N 
ATOM     18  H4  UNL     1     -15.112 -26.447 -22.036  1.00  0.00     0.189 HD
BRANCH  17  19
HETATM   19  N5  UNL     1     -17.078 -25.825 -21.694  1.00  0.00    -0.343 N 
ATOM     20  H52 UNL     1     -17.653 -24.996 -21.844  1.00  0.00     0.176 HD
ATOM     21  H51 UNL     1     -17.363 -26.528 -21.013  1.00  0.00     0.176 HD
ENDBRANCH  17  19
ENDBRANCH  14  15
ENDBRANCH  12  14
ENDBRANCH  11  12
TORSDOF 4
ENDMDL
MODEL 5
REMARK VINA RESULT: -6.367718807      1.968      2.930
REMARK  4 active torsions:
REMARK  status: ('A' for Active; 'I' for Inactive)
REMARK    1  A    between atoms: C5_11  and  N3_12 
REMARK    2  A    between atoms: N3_12  and  C6_14 
REMARK    3  A    between atoms: C6_14  and  C7_15 
REMARK       I    between atoms: C7_15  and  N4_17 
REMARK    4  A    between atoms: N4_17  and  N5_19 
ROOT
HETATM    1  N1  UNL     1     -13.262 -26.215 -24.994  1.00  0.00    -0.191 NA
HETATM    2  C1  UNL     1     -13.765 -26.814 -25.833  1.00  0.00     0.109 C 
HETATM    3  C2  UNL     1     -14.413 -27.548 -26.870  1.00  0.00     0.122 A 
HETATM    4  S1  UNL     1     -16.065 -27.959 -26.861  1.00  0.00    -0.015 SA
HETATM    5  C3  UNL     1     -16.547 -28.838 -28.239  1.00  0.00     0.292 A 
HETATM    6  O1  UNL     1     -17.738 -29.253 -28.449  1.00  0.00    -0.260 OA
HETATM    7  N2  UNL     1     -15.563 -29.078 -29.126  1.00  0.00    -0.282 N 
ATOM      8  H2  UNL     1     -15.817 -29.602 -29.963  1.00  0.00     0.172 HD
HETATM    9  C4  UNL     1     -14.296 -28.700 -29.018  1.00  0.00     0.277 A 
HETATM   10  O2  UNL     1     -13.514 -29.031 -29.978  1.00  0.00    -0.266 OA
HETATM   11  C5  UNL     1     -13.720 -27.996 -28.001  1.00  0.00     0.125 A 
ENDROOT
BRANCH  11  12
HETATM   12  N3  UNL     1     -12.329 -27.675 -28.056  1.00  0.00    -0.375 N 
ATOM     13  H3  UNL     1     -12.053 -26.718 -28.274  1.00  0.00     0.160 HD
BRANCH  12  14
HETATM   14  C6  UNL     1     -11.300 -28.663 -27.813  1.00  0.00     0.224 C 
BRANCH  14  15
HETATM   15  C7  UNL     1     -10.909 -28.719 -26.391  1.00  0.00     0.253 C 
HETATM   16  O3  UNL     1     -11.518 -29.488 -25.617  1.00  0.00    -0.270 OA
HETATM   17  N4  UNL     1      -9.862 -27.926 -25.876  1.00  0.00    -0.275 N 
ATOM     18  H4  UNL     1      -9.362 -27.297 -26.504  1.00  0.00     0.189 HD
BRANCH  17  19
HETATM   19  N5  UNL     1      -9.493 -27.978 -24.532  1.00  0.00    -0.343 N 
ATOM     20  H52 UNL     1     -10.079 -27.493 -23.853  1.00  0.00     0.176 HD
ATOM     21  H51 UNL     1      -8.662 -28.483 -24.222  1.00  0.00     0.176 HD
ENDBRANCH  17  19
ENDBRANCH  14  15
ENDBRANCH  12  14
ENDBRANCH  11  12
TORSDOF 4
ENDMDL
