MODEL 1
REMARK VINA RESULT: -7.901896287      0.000      0.000
REMARK  5 active torsions:
REMARK  status: ('A' for Active; 'I' for Inactive)
REMARK    1  A    between atoms: C1_4  and  O1_6 
REMARK    2  A    between atoms: O1_6  and  C2_7 
REMARK    3  A    between atoms: C5_12  and  C6_13 
REMARK    4  A    between atoms: C7_18  and  O2_19 
REMARK    5  A    between atoms: N6_21  and  O3_22 
ROOT
HETATM    1  C2  UNL     1     -15.807 -26.596 -24.891  1.00  0.00     0.095 A 
HETATM    2  C3  UNL     1     -16.671 -27.107 -25.821  1.00  0.00     0.124 A 
HETATM    3  N3  UNL     1     -16.217 -27.845 -26.857  1.00  0.00    -0.372 N 
ATOM      4  H3  UNL     1     -16.883 -28.214 -27.535  1.00  0.00     0.164 HD
HETATM    5  C4  UNL     1     -14.886 -28.109 -27.018  1.00  0.00     0.103 A 
HETATM    6  C5  UNL     1     -13.959 -27.629 -26.127  1.00  0.00     0.030 A 
HETATM    7  C8  UNL     1     -14.470 -26.872 -25.071  1.00  0.00     0.055 A 
ENDROOT
BRANCH   6   8
HETATM    8  C6  UNL     1     -12.523 -27.867 -26.227  1.00  0.00     0.163 A 
HETATM    9  N4  UNL     1     -11.686 -27.084 -26.944  1.00  0.00    -0.280 N 
HETATM   10  N5  UNL     1     -10.453 -27.550 -26.844  1.00  0.00    -0.262 N 
ATOM     11  H4  UNL     1     -11.963 -26.261 -27.479  1.00  0.00     0.188 HD
HETATM   12  C7  UNL     1     -10.456 -28.640 -26.066  1.00  0.00     0.265 A 
ATOM     13  H5  UNL     1      -9.630 -27.144 -27.289  1.00  0.00     0.190 HD
HETATM   14  N6  UNL     1     -11.769 -28.804 -25.701  1.00  0.00    -0.166 N 
BRANCH  12  15
HETATM   15  O2  UNL     1      -9.383 -29.457 -25.685  1.00  0.00    -0.330 OA
ATOM     16  H2  UNL     1      -8.468 -29.230 -25.568  1.00  0.00     0.221 HD
ENDBRANCH  12  15
BRANCH  14  17
HETATM   17  O3  UNL     1     -12.162 -29.838 -24.889  1.00  0.00    -0.278 OA
ATOM     18  H3  UNL     1     -11.735 -30.152 -24.100  1.00  0.00     0.245 HD
ENDBRANCH  14  17
ENDBRANCH   6   8
BRANCH   1  19
HETATM   19  O1  UNL     1     -16.188 -25.836 -23.801  1.00  0.00    -0.281 OA
BRANCH  19  20
HETATM   20  C1  UNL     1     -16.090 -26.209 -22.494  1.00  0.00     0.230 C 
HETATM   21  N1  UNL     1     -15.068 -25.758 -21.857  1.00  0.00    -0.368 N 
ATOM     22  H12 UNL     1     -14.995 -26.037 -20.879  1.00  0.00     0.159 HD
ATOM     23  H11 UNL     1     -14.363 -25.157 -22.285  1.00  0.00     0.159 HD
HETATM   24  N2  UNL     1     -17.063 -27.038 -21.903  1.00  0.00    -0.056 NA
ENDBRANCH  19  20
ENDBRANCH   1  19
TORSDOF 5
ENDMDL
MODEL 2
REMARK VINA RESULT: -7.803575717      2.208      2.343
REMARK  5 active torsions:
REMARK  status: ('A' for Active; 'I' for Inactive)
REMARK    1  A    between atoms: C1_4  and  O1_6 
REMARK    2  A    between atoms: O1_6  and  C2_7 
REMARK    3  A    between atoms: C5_12  and  C6_13 
REMARK    4  A    between atoms: C7_18  and  O2_19 
REMARK    5  A    between atoms: N6_21  and  O3_22 
ROOT
HETATM    1  C2  UNL     1     -15.411 -26.082 -24.186  1.00  0.00     0.095 A 
HETATM    2  C3  UNL     1     -16.652 -26.540 -24.536  1.00  0.00     0.124 A 
HETATM    3  N3  UNL     1     -16.826 -27.284 -25.649  1.00  0.00    -0.372 N 
ATOM      4  H3  UNL     1     -17.762 -27.612 -25.887  1.00  0.00     0.164 HD
HETATM    5  C4  UNL     1     -15.779 -27.608 -26.466  1.00  0.00     0.103 A 
HETATM    6  C5  UNL     1     -14.506 -27.184 -26.180  1.00  0.00     0.030 A 
HETATM    7  C8  UNL     1     -14.369 -26.418 -25.021  1.00  0.00     0.055 A 
ENDROOT
BRANCH   6   8
HETATM    8  C6  UNL     1     -13.336 -27.487 -26.998  1.00  0.00     0.163 A 
HETATM    9  N4  UNL     1     -12.164 -26.821 -26.898  1.00  0.00    -0.280 N 
HETATM   10  N5  UNL     1     -11.299 -27.320 -27.765  1.00  0.00    -0.262 N 
ATOM     11  H4  UNL     1     -11.976 -26.054 -26.254  1.00  0.00     0.188 HD
HETATM   12  C7  UNL     1     -11.882 -28.315 -28.446  1.00  0.00     0.265 A 
ATOM     13  H5  UNL     1     -10.340 -26.998 -27.894  1.00  0.00     0.190 HD
HETATM   14  N6  UNL     1     -13.155 -28.387 -27.937  1.00  0.00    -0.166 N 
BRANCH  12  15
HETATM   15  O2  UNL     1     -11.349 -29.125 -29.458  1.00  0.00    -0.330 OA
ATOM     16  H2  UNL     1     -11.802 -29.656 -30.103  1.00  0.00     0.221 HD
ENDBRANCH  12  15
BRANCH  14  17
HETATM   17  O3  UNL     1     -14.060 -29.307 -28.401  1.00  0.00    -0.278 OA
ATOM     18  H3  UNL     1     -14.471 -29.337 -29.258  1.00  0.00     0.245 HD
ENDBRANCH  14  17
ENDBRANCH   6   8
BRANCH   1  19
HETATM   19  O1  UNL     1     -15.144 -25.320 -23.063  1.00  0.00    -0.281 OA
BRANCH  19  20
HETATM   20  C1  UNL     1     -15.361 -23.980 -22.938  1.00  0.00     0.230 C 
HETATM   21  N1  UNL     1     -15.280 -23.295 -24.023  1.00  0.00    -0.368 N 
ATOM     22  H12 UNL     1     -15.442 -22.293 -23.929  1.00  0.00     0.159 HD
ATOM     23  H11 UNL     1     -15.068 -23.709 -24.931  1.00  0.00     0.159 HD
HETATM   24  N2  UNL     1     -15.653 -23.409 -21.684  1.00  0.00    -0.056 NA
ENDBRANCH  19  20
ENDBRANCH   1  19
TORSDOF 5
ENDMDL
MODEL 3
REMARK VINA RESULT: -7.796212499      1.238      1.238
REMARK  5 active torsions:
REMARK  status: ('A' for Active; 'I' for Inactive)
REMARK    1  A    between atoms: C1_4  and  O1_6 
REMARK    2  A    between atoms: O1_6  and  C2_7 
REMARK    3  A    between atoms: C5_12  and  C6_13 
REMARK    4  A    between atoms: C7_18  and  O2_19 
REMARK    5  A    between atoms: N6_21  and  O3_22 
ROOT
HETATM    1  C2  UNL     1     -15.784 -26.591 -24.871  1.00  0.00     0.095 A 
HETATM    2  C3  UNL     1     -16.647 -27.098 -25.803  1.00  0.00     0.124 A 
HETATM    3  N3  UNL     1     -16.193 -27.837 -26.838  1.00  0.00    -0.372 N 
ATOM      4  H3  UNL     1     -16.859 -28.202 -27.518  1.00  0.00     0.164 HD
HETATM    5  C4  UNL     1     -14.863 -28.108 -26.995  1.00  0.00     0.103 A 
HETATM    6  C5  UNL     1     -13.937 -27.633 -26.101  1.00  0.00     0.030 A 
HETATM    7  C8  UNL     1     -14.447 -26.874 -25.047  1.00  0.00     0.055 A 
ENDROOT
BRANCH   6   8
HETATM    8  C6  UNL     1     -12.502 -27.877 -26.197  1.00  0.00     0.163 A 
HETATM    9  N4  UNL     1     -11.658 -27.098 -26.910  1.00  0.00    -0.280 N 
HETATM   10  N5  UNL     1     -10.428 -27.570 -26.807  1.00  0.00    -0.262 N 
ATOM     11  H4  UNL     1     -11.930 -26.273 -27.445  1.00  0.00     0.188 HD
HETATM   12  C7  UNL     1     -10.439 -28.661 -26.031  1.00  0.00     0.265 A 
ATOM     13  H5  UNL     1      -9.602 -27.167 -27.249  1.00  0.00     0.190 HD
HETATM   14  N6  UNL     1     -11.754 -28.819 -25.670  1.00  0.00    -0.166 N 
BRANCH  12  15
HETATM   15  O2  UNL     1      -9.371 -29.484 -25.647  1.00  0.00    -0.330 OA
ATOM     16  H2  UNL     1      -9.206 -30.394 -25.867  1.00  0.00     0.221 HD
ENDBRANCH  12  15
BRANCH  14  17
HETATM   17  O3  UNL     1     -12.155 -29.853 -24.861  1.00  0.00    -0.278 OA
ATOM     18  H3  UNL     1     -12.645 -29.798 -24.049  1.00  0.00     0.245 HD
ENDBRANCH  14  17
ENDBRANCH   6   8
BRANCH   1  19
HETATM   19  O1  UNL     1     -16.164 -25.829 -23.781  1.00  0.00    -0.281 OA
BRANCH  19  20
HETATM   20  C1  UNL     1     -16.427 -24.492 -23.794  1.00  0.00     0.230 C 
HETATM   21  N1  UNL     1     -15.401 -23.719 -23.741  1.00  0.00    -0.368 N 
ATOM     22  H12 UNL     1     -15.598 -22.718 -23.750  1.00  0.00     0.159 HD
ATOM     23  H11 UNL     1     -14.443 -24.064 -23.691  1.00  0.00     0.159 HD
HETATM   24  N2  UNL     1     -17.751 -24.015 -23.862  1.00  0.00    -0.056 NA
ENDBRANCH  19  20
ENDBRANCH   1  19
TORSDOF 5
ENDMDL
MODEL 4
REMARK VINA RESULT: -7.780887422      1.892      1.922
REMARK  5 active torsions:
REMARK  status: ('A' for Active; 'I' for Inactive)
REMARK    1  A    between atoms: C1_4  and  O1_6 
REMARK    2  A    between atoms: O1_6  and  C2_7 
REMARK    3  A    between atoms: C5_12  and  C6_13 
REMARK    4  A    between atoms: C7_18  and  O2_19 
REMARK    5  A    between atoms: N6_21  and  O3_22 
ROOT
HETATM    1  C2  UNL     1     -15.521 -26.098 -24.128  1.00  0.00     0.095 A 
HETATM    2  C3  UNL     1     -16.754 -26.540 -24.523  1.00  0.00     0.124 A 
HETATM    3  N3  UNL     1     -16.902 -27.258 -25.657  1.00  0.00    -0.372 N 
ATOM      4  H3  UNL     1     -17.832 -27.576 -25.927  1.00  0.00     0.164 HD
HETATM    5  C4  UNL     1     -15.834 -27.570 -26.451  1.00  0.00     0.103 A 
HETATM    6  C5  UNL     1     -14.568 -27.160 -26.121  1.00  0.00     0.030 A 
HETATM    7  C8  UNL     1     -14.458 -26.421 -24.942  1.00  0.00     0.055 A 
ENDROOT
BRANCH   6   8
HETATM    8  C6  UNL     1     -13.377 -27.452 -26.913  1.00  0.00     0.163 A 
HETATM    9  N4  UNL     1     -12.216 -26.771 -26.793  1.00  0.00    -0.280 N 
HETATM   10  N5  UNL     1     -11.327 -27.262 -27.639  1.00  0.00    -0.262 N 
ATOM     11  H4  UNL     1     -12.051 -25.998 -26.149  1.00  0.00     0.188 HD
HETATM   12  C7  UNL     1     -11.883 -28.268 -28.327  1.00  0.00     0.265 A 
ATOM     13  H5  UNL     1     -10.370 -26.929 -27.750  1.00  0.00     0.190 HD
HETATM   14  N6  UNL     1     -13.165 -28.354 -27.843  1.00  0.00    -0.166 N 
BRANCH  12  15
HETATM   15  O2  UNL     1     -11.319 -29.076 -29.324  1.00  0.00    -0.330 OA
ATOM     16  H2  UNL     1     -11.347 -30.021 -29.417  1.00  0.00     0.221 HD
ENDBRANCH  12  15
BRANCH  14  17
HETATM   17  O3  UNL     1     -14.049 -29.289 -28.322  1.00  0.00    -0.278 OA
ATOM     18  H3  UNL     1     -14.513 -29.955 -27.829  1.00  0.00     0.245 HD
ENDBRANCH  14  17
ENDBRANCH   6   8
BRANCH   1  19
HETATM   19  O1  UNL     1     -15.281 -25.362 -22.982  1.00  0.00    -0.281 OA
BRANCH  19  20
HETATM   20  C1  UNL     1     -15.416 -25.811 -21.702  1.00  0.00     0.230 C 
HETATM   21  N1  UNL     1     -14.406 -25.615 -20.931  1.00  0.00    -0.368 N 
ATOM     22  H12 UNL     1     -14.507 -25.951 -19.973  1.00  0.00     0.159 HD
ATOM     23  H11 UNL     1     -13.549 -25.154 -21.237  1.00  0.00     0.159 HD
HETATM   24  N2  UNL     1     -16.599 -26.447 -21.279  1.00  0.00    -0.056 NA
ENDBRANCH  19  20
ENDBRANCH   1  19
TORSDOF 5
ENDMDL
MODEL 5
REMARK VINA RESULT: -7.771808081      2.182      2.383
REMARK  5 active torsions:
REMARK  status: ('A' for Active; 'I' for Inactive)
REMARK    1  A    between atoms: C1_4  and  O1_6 
REMARK    2  A    between atoms: O1_6  and  C2_7 
REMARK    3  A    between atoms: C5_12  and  C6_13 
REMARK    4  A    between atoms: C7_18  and  O2_19 
REMARK    5  A    between atoms: N6_21  and  O3_22 
ROOT
HETATM    1  C2  UNL     1     -15.060 -25.518 -24.001  1.00  0.00     0.095 A 
HETATM    2  C3  UNL     1     -16.018 -26.445 -23.693  1.00  0.00     0.124 A 
HETATM    3  N3  UNL     1     -16.032 -27.653 -24.297  1.00  0.00    -0.372 N 
ATOM      4  H3  UNL     1     -16.757 -28.325 -24.049  1.00  0.00     0.164 HD
HETATM    5  C4  UNL     1     -15.098 -27.996 -25.234  1.00  0.00     0.103 A 
HETATM    6  C5  UNL     1     -14.108 -27.118 -25.595  1.00  0.00     0.030 A 
HETATM    7  C8  UNL     1     -14.128 -25.882 -24.947  1.00  0.00     0.055 A 
ENDROOT
BRANCH   6   8
HETATM    8  C6  UNL     1     -13.074 -27.408 -26.584  1.00  0.00     0.163 A 
HETATM    9  N4  UNL     1     -11.836 -26.868 -26.548  1.00  0.00    -0.280 N 
HETATM   10  N5  UNL     1     -11.129 -27.317 -27.571  1.00  0.00    -0.262 N 
ATOM     11  H4  UNL     1     -11.498 -26.215 -25.841  1.00  0.00     0.188 HD
HETATM   12  C7  UNL     1     -11.884 -28.153 -28.294  1.00  0.00     0.265 A 
ATOM     13  H5  UNL     1     -10.163 -27.066 -27.777  1.00  0.00     0.190 HD
HETATM   14  N6  UNL     1     -13.093 -28.183 -27.643  1.00  0.00    -0.166 N 
BRANCH  12  15
HETATM   15  O2  UNL     1     -11.554 -28.861 -29.458  1.00  0.00    -0.330 OA
ATOM     16  H2  UNL     1     -11.315 -29.775 -29.557  1.00  0.00     0.221 HD
ENDBRANCH  12  15
BRANCH  14  17
HETATM   17  O3  UNL     1     -14.135 -28.948 -28.104  1.00  0.00    -0.278 OA
ATOM     18  H3  UNL     1     -14.585 -28.875 -28.937  1.00  0.00     0.245 HD
ENDBRANCH  14  17
ENDBRANCH   6   8
BRANCH   1  19
HETATM   19  O1  UNL     1     -14.971 -24.263 -23.428  1.00  0.00    -0.281 OA
BRANCH  19  20
HETATM   20  C1  UNL     1     -15.564 -23.872 -22.265  1.00  0.00     0.230 C 
HETATM   21  N1  UNL     1     -14.905 -24.119 -21.189  1.00  0.00    -0.368 N 
ATOM     22  H12 UNL     1     -15.349 -23.827 -20.319  1.00  0.00     0.159 HD
ATOM     23  H11 UNL     1     -13.995 -24.579 -21.184  1.00  0.00     0.159 HD
HETATM   24  N2  UNL     1     -16.822 -23.238 -22.272  1.00  0.00    -0.056 NA
ENDBRANCH  19  20
ENDBRANCH   1  19
TORSDOF 5
ENDMDL
