MODEL 1
REMARK VINA RESULT: -6.973452638      0.000      0.000
REMARK  5 active torsions:
REMARK  status: ('A' for Active; 'I' for Inactive)
REMARK    1  A    between atoms: N1_1  and  N2_4 
REMARK    2  A    between atoms: C1_6  and  C2_7 
REMARK    3  A    between atoms: C1_6  and  N6_20 
REMARK    4  A    between atoms: C4_14  and  C5_15 
REMARK    5  A    between atoms: N5_16  and  O2_18 
ROOT
HETATM    1  C2  UNL     1     -12.935 -28.539 -27.156  1.00  0.00     0.112 A 
HETATM    2  N3  UNL     1     -13.712 -29.056 -28.171  1.00  0.00    -0.303 N 
ATOM      3  H3  UNL     1     -14.671 -29.386 -28.066  1.00  0.00     0.171 HD
HETATM    4  C3  UNL     1     -13.018 -29.059 -29.319  1.00  0.00     0.325 A 
HETATM    5  O1  UNL     1     -13.461 -29.474 -30.427  1.00  0.00    -0.247 OA
HETATM    6  N4  UNL     1     -11.798 -28.556 -29.086  1.00  0.00    -0.305 N 
ATOM      7  H4  UNL     1     -11.054 -28.436 -29.774  1.00  0.00     0.171 HD
HETATM    8  C4  UNL     1     -11.732 -28.229 -27.746  1.00  0.00     0.084 A 
ENDROOT
BRANCH   1   9
HETATM    9  C1  UNL     1     -13.422 -28.416 -25.811  1.00  0.00     0.170 C 
HETATM   10  N2  UNL     1     -13.130 -29.227 -24.857  1.00  0.00    -0.289 N 
ATOM     11  H2  UNL     1     -13.588 -28.945 -23.990  1.00  0.00     0.188 HD
BRANCH  10  12
HETATM   12  N1  UNL     1     -12.408 -30.320 -24.669  1.00  0.00    -0.344 N 
ATOM     13  H12 UNL     1     -13.029 -31.099 -24.451  1.00  0.00     0.176 HD
ATOM     14  H11 UNL     1     -11.426 -30.601 -24.681  1.00  0.00     0.176 HD
ENDBRANCH  10  12
BRANCH   9  15
HETATM   15  N6  UNL     1     -14.302 -27.380 -25.327  1.00  0.00    -0.248 N 
HETATM   16  C6  UNL     1     -15.657 -27.444 -25.354  1.00  0.00     0.120 A 
HETATM   17  C7  UNL     1     -16.156 -26.304 -24.750  1.00  0.00     0.038 A 
HETATM   18  C8  UNL     1     -15.059 -25.568 -24.367  1.00  0.00     0.109 A 
HETATM   19  N7  UNL     1     -13.946 -26.269 -24.742  1.00  0.00    -0.304 N 
ATOM     20  H7  UNL     1     -12.984 -25.969 -24.587  1.00  0.00     0.186 HD
ENDBRANCH   9  15
ENDBRANCH   1   9
BRANCH   8  21
HETATM   21  C5  UNL     1     -10.563 -27.656 -27.119  1.00  0.00     0.145 C 
HETATM   22  N5  UNL     1      -9.868 -28.238 -26.239  1.00  0.00    -0.278 N 
ATOM     23  H5  UNL     1      -9.082 -27.675 -25.915  1.00  0.00     0.193 HD
BRANCH  22  24
HETATM   24  O2  UNL     1      -9.938 -29.422 -25.646  1.00  0.00    -0.290 OA
ATOM     25  H2  UNL     1      -9.344 -29.920 -25.097  1.00  0.00     0.244 HD
ENDBRANCH  22  24
ENDBRANCH   8  21
TORSDOF 5
ENDMDL
MODEL 2
REMARK VINA RESULT: -6.766553368      1.798      3.703
REMARK  5 active torsions:
REMARK  status: ('A' for Active; 'I' for Inactive)
REMARK    1  A    between atoms: N1_1  and  N2_4 
REMARK    2  A    between atoms: C1_6  and  C2_7 
REMARK    3  A    between atoms: C1_6  and  N6_20 
REMARK    4  A    between atoms: C4_14  and  C5_15 
REMARK    5  A    between atoms: N5_16  and  O2_18 
ROOT
HETATM    1  C2  UNL     1     -13.591 -28.223 -25.975  1.00  0.00     0.112 A 
HETATM    2  N3  UNL     1     -12.567 -28.431 -25.075  1.00  0.00    -0.303 N 
ATOM      3  H3  UNL     1     -12.595 -28.179 -24.087  1.00  0.00     0.171 HD
HETATM    4  C3  UNL     1     -11.530 -29.013 -25.693  1.00  0.00     0.325 A 
HETATM    5  O1  UNL     1     -10.443 -29.329 -25.131  1.00  0.00    -0.247 OA
HETATM    6  N4  UNL     1     -11.843 -29.196 -26.983  1.00  0.00    -0.305 N 
ATOM      7  H4  UNL     1     -11.246 -29.618 -27.695  1.00  0.00     0.171 HD
HETATM    8  C4  UNL     1     -13.121 -28.709 -27.172  1.00  0.00     0.084 A 
ENDROOT
BRANCH   1   9
HETATM    9  C1  UNL     1     -14.832 -27.611 -25.590  1.00  0.00     0.170 C 
HETATM   10  N2  UNL     1     -14.926 -26.480 -24.987  1.00  0.00    -0.289 N 
ATOM     11  H2  UNL     1     -15.903 -26.244 -24.813  1.00  0.00     0.188 HD
BRANCH  10  12
HETATM   12  N1  UNL     1     -14.127 -25.530 -24.527  1.00  0.00    -0.344 N 
ATOM     13  H12 UNL     1     -14.102 -25.577 -23.509  1.00  0.00     0.176 HD
ATOM     14  H11 UNL     1     -13.539 -24.780 -24.894  1.00  0.00     0.176 HD
ENDBRANCH  10  12
BRANCH   9  15
HETATM   15  N6  UNL     1     -16.146 -28.163 -25.814  1.00  0.00    -0.248 N 
HETATM   16  C6  UNL     1     -16.877 -27.981 -26.942  1.00  0.00     0.120 A 
HETATM   17  C7  UNL     1     -18.048 -28.708 -26.821  1.00  0.00     0.038 A 
HETATM   18  C8  UNL     1     -17.987 -29.321 -25.590  1.00  0.00     0.109 A 
HETATM   19  N7  UNL     1     -16.803 -28.956 -25.011  1.00  0.00    -0.304 N 
ATOM     20  H7  UNL     1     -16.481 -29.258 -24.092  1.00  0.00     0.186 HD
ENDBRANCH   9  15
ENDBRANCH   1   9
BRANCH   8  21
HETATM   21  C5  UNL     1     -13.806 -28.733 -28.445  1.00  0.00     0.145 C 
HETATM   22  N5  UNL     1     -13.238 -28.932 -29.556  1.00  0.00    -0.278 N 
ATOM     23  H5  UNL     1     -13.886 -28.913 -30.344  1.00  0.00     0.193 HD
BRANCH  22  24
HETATM   24  O2  UNL     1     -11.983 -29.159 -29.921  1.00  0.00    -0.290 OA
ATOM     25  H2  UNL     1     -11.480 -28.968 -30.703  1.00  0.00     0.244 HD
ENDBRANCH  22  24
ENDBRANCH   8  21
TORSDOF 5
ENDMDL
MODEL 3
REMARK VINA RESULT: -6.714582336      2.250      4.279
REMARK  5 active torsions:
REMARK  status: ('A' for Active; 'I' for Inactive)
REMARK    1  A    between atoms: N1_1  and  N2_4 
REMARK    2  A    between atoms: C1_6  and  C2_7 
REMARK    3  A    between atoms: C1_6  and  N6_20 
REMARK    4  A    between atoms: C4_14  and  C5_15 
REMARK    5  A    between atoms: N5_16  and  O2_18 
ROOT
HETATM    1  C2  UNL     1     -14.493 -27.772 -26.562  1.00  0.00     0.112 A 
HETATM    2  N3  UNL     1     -15.798 -27.730 -26.118  1.00  0.00    -0.303 N 
ATOM      3  H3  UNL     1     -16.093 -27.428 -25.189  1.00  0.00     0.171 HD
HETATM    4  C3  UNL     1     -16.623 -28.146 -27.091  1.00  0.00     0.325 A 
HETATM    5  O1  UNL     1     -17.880 -28.219 -26.985  1.00  0.00    -0.247 OA
HETATM    6  N4  UNL     1     -15.893 -28.462 -28.169  1.00  0.00    -0.305 N 
ATOM      7  H4  UNL     1     -16.251 -28.807 -29.059  1.00  0.00     0.171 HD
HETATM    8  C4  UNL     1     -14.568 -28.235 -27.854  1.00  0.00     0.084 A 
ENDROOT
BRANCH   1   9
HETATM    9  C1  UNL     1     -13.391 -27.381 -25.727  1.00  0.00     0.170 C 
HETATM   10  N2  UNL     1     -13.428 -26.409 -24.887  1.00  0.00    -0.289 N 
ATOM     11  H2  UNL     1     -12.534 -26.313 -24.407  1.00  0.00     0.188 HD
BRANCH  10  12
HETATM   12  N1  UNL     1     -14.287 -25.495 -24.462  1.00  0.00    -0.344 N 
ATOM     13  H12 UNL     1     -13.775 -24.736 -24.013  1.00  0.00     0.176 HD
ATOM     14  H11 UNL     1     -15.295 -25.337 -24.456  1.00  0.00     0.176 HD
ENDBRANCH  10  12
BRANCH   9  15
HETATM   15  N6  UNL     1     -12.092 -28.007 -25.703  1.00  0.00    -0.248 N 
HETATM   16  C6  UNL     1     -11.877 -29.332 -25.508  1.00  0.00     0.120 A 
HETATM   17  C7  UNL     1     -10.519 -29.570 -25.613  1.00  0.00     0.038 A 
HETATM   18  C8  UNL     1      -9.940 -28.349 -25.874  1.00  0.00     0.109 A 
HETATM   19  N7  UNL     1     -10.945 -27.423 -25.919  1.00  0.00    -0.304 N 
ATOM     20  H7  UNL     1     -10.817 -26.427 -26.096  1.00  0.00     0.186 HD
ENDBRANCH   9  15
ENDBRANCH   1   9
BRANCH   8  21
HETATM   21  C5  UNL     1     -13.477 -28.463 -28.775  1.00  0.00     0.145 C 
HETATM   22  N5  UNL     1     -13.337 -29.510 -29.469  1.00  0.00    -0.278 N 
ATOM     23  H5  UNL     1     -12.506 -29.488 -30.060  1.00  0.00     0.193 HD
BRANCH  22  24
HETATM   24  O2  UNL     1     -14.036 -30.630 -29.596  1.00  0.00    -0.290 OA
ATOM     25  H2  UNL     1     -14.081 -31.438 -29.100  1.00  0.00     0.244 HD
ENDBRANCH  22  24
ENDBRANCH   8  21
TORSDOF 5
ENDMDL
MODEL 4
REMARK VINA RESULT: -6.661163583      2.288      3.740
REMARK  5 active torsions:
REMARK  status: ('A' for Active; 'I' for Inactive)
REMARK    1  A    between atoms: N1_1  and  N2_4 
REMARK    2  A    between atoms: C1_6  and  C2_7 
REMARK    3  A    between atoms: C1_6  and  N6_20 
REMARK    4  A    between atoms: C4_14  and  C5_15 
REMARK    5  A    between atoms: N5_16  and  O2_18 
ROOT
HETATM    1  C2  UNL     1     -12.633 -28.286 -26.363  1.00  0.00     0.112 A 
HETATM    2  N3  UNL     1     -11.607 -29.202 -26.258  1.00  0.00    -0.303 N 
ATOM      3  H3  UNL     1     -11.613 -30.138 -26.662  1.00  0.00     0.171 HD
HETATM    4  C3  UNL     1     -10.600 -28.677 -25.545  1.00  0.00     0.325 A 
HETATM    5  O1  UNL     1      -9.520 -29.275 -25.277  1.00  0.00    -0.247 OA
HETATM    6  N4  UNL     1     -10.935 -27.434 -25.175  1.00  0.00    -0.305 N 
ATOM      7  H4  UNL     1     -10.364 -26.793 -24.624  1.00  0.00     0.171 HD
HETATM    8  C4  UNL     1     -12.196 -27.178 -25.676  1.00  0.00     0.084 A 
ENDROOT
BRANCH   1   9
HETATM    9  C1  UNL     1     -13.845 -28.578 -27.076  1.00  0.00     0.170 C 
HETATM   10  N2  UNL     1     -13.890 -28.970 -28.299  1.00  0.00    -0.289 N 
ATOM     11  H2  UNL     1     -14.855 -29.115 -28.596  1.00  0.00     0.188 HD
BRANCH  10  12
HETATM   12  N1  UNL     1     -13.051 -29.241 -29.287  1.00  0.00    -0.344 N 
ATOM     13  H12 UNL     1     -13.409 -28.835 -30.152  1.00  0.00     0.176 HD
ATOM     14  H11 UNL     1     -12.166 -29.729 -29.427  1.00  0.00     0.176 HD
ENDBRANCH  10  12
BRANCH   9  15
HETATM   15  N6  UNL     1     -15.180 -28.477 -26.540  1.00  0.00    -0.248 N 
HETATM   16  C6  UNL     1     -16.260 -28.040 -27.235  1.00  0.00     0.120 A 
HETATM   17  C7  UNL     1     -17.372 -28.143 -26.418  1.00  0.00     0.038 A 
HETATM   18  C8  UNL     1     -16.917 -28.652 -25.223  1.00  0.00     0.109 A 
HETATM   19  N7  UNL     1     -15.568 -28.840 -25.347  1.00  0.00    -0.304 N 
ATOM     20  H7  UNL     1     -14.957 -29.208 -24.619  1.00  0.00     0.186 HD
ENDBRANCH   9  15
ENDBRANCH   1   9
BRANCH   8  21
HETATM   21  C5  UNL     1     -12.896 -25.928 -25.481  1.00  0.00     0.145 C 
HETATM   22  N5  UNL     1     -13.866 -25.771 -24.686  1.00  0.00    -0.278 N 
ATOM     23  H5  UNL     1     -14.230 -24.818 -24.685  1.00  0.00     0.193 HD
BRANCH  22  24
HETATM   24  O2  UNL     1     -14.513 -26.575 -23.853  1.00  0.00    -0.290 OA
ATOM     25  H2  UNL     1     -15.231 -27.187 -23.953  1.00  0.00     0.244 HD
ENDBRANCH  22  24
ENDBRANCH   8  21
TORSDOF 5
ENDMDL
MODEL 5
REMARK VINA RESULT: -6.660039554      2.086      3.552
REMARK  5 active torsions:
REMARK  status: ('A' for Active; 'I' for Inactive)
REMARK    1  A    between atoms: N1_1  and  N2_4 
REMARK    2  A    between atoms: C1_6  and  C2_7 
REMARK    3  A    between atoms: C1_6  and  N6_20 
REMARK    4  A    between atoms: C4_14  and  C5_15 
REMARK    5  A    between atoms: N5_16  and  O2_18 
ROOT
HETATM    1  C2  UNL     1     -14.145 -28.382 -27.020  1.00  0.00     0.112 A 
HETATM    2  N3  UNL     1     -13.188 -28.736 -27.947  1.00  0.00    -0.303 N 
ATOM      3  H3  UNL     1     -12.189 -28.822 -27.756  1.00  0.00     0.171 HD
HETATM    4  C3  UNL     1     -13.766 -28.951 -29.138  1.00  0.00     0.325 A 
HETATM    5  O1  UNL     1     -13.148 -29.290 -30.187  1.00  0.00    -0.247 OA
HETATM    6  N4  UNL     1     -15.085 -28.747 -29.020  1.00  0.00    -0.305 N 
ATOM      7  H4  UNL     1     -15.778 -28.838 -29.764  1.00  0.00     0.171 HD
HETATM    8  C4  UNL     1     -15.335 -28.392 -27.710  1.00  0.00     0.084 A 
ENDROOT
BRANCH   1   9
HETATM    9  C1  UNL     1     -13.812 -28.091 -25.654  1.00  0.00     0.170 C 
HETATM   10  N2  UNL     1     -12.970 -28.764 -24.954  1.00  0.00    -0.289 N 
ATOM     11  H2  UNL     1     -12.893 -28.379 -24.013  1.00  0.00     0.188 HD
BRANCH  10  12
HETATM   12  N1  UNL     1     -12.173 -29.812 -25.097  1.00  0.00    -0.344 N 
ATOM     13  H12 UNL     1     -11.336 -29.677 -24.529  1.00  0.00     0.176 HD
ATOM     14  H11 UNL     1     -12.157 -30.698 -25.603  1.00  0.00     0.176 HD
ENDBRANCH  10  12
BRANCH   9  15
HETATM   15  N6  UNL     1     -14.361 -27.015 -24.865  1.00  0.00    -0.248 N 
HETATM   16  C6  UNL     1     -14.047 -25.705 -25.021  1.00  0.00     0.120 A 
HETATM   17  C7  UNL     1     -14.813 -24.967 -24.137  1.00  0.00     0.038 A 
HETATM   18  C8  UNL     1     -15.587 -25.879 -23.455  1.00  0.00     0.109 A 
HETATM   19  N7  UNL     1     -15.273 -27.120 -23.937  1.00  0.00    -0.304 N 
ATOM     20  H7  UNL     1     -15.689 -27.995 -23.620  1.00  0.00     0.186 HD
ENDBRANCH   9  15
ENDBRANCH   1   9
BRANCH   8  21
HETATM   21  C5  UNL     1     -16.653 -28.092 -27.200  1.00  0.00     0.145 C 
HETATM   22  N5  UNL     1     -17.706 -28.702 -27.542  1.00  0.00    -0.278 N 
ATOM     23  H5  UNL     1     -18.541 -28.349 -27.075  1.00  0.00     0.193 HD
BRANCH  22  24
HETATM   24  O2  UNL     1     -17.961 -29.701 -28.376  1.00  0.00    -0.290 OA
ATOM     25  H2  UNL     1     -18.234 -29.747 -29.284  1.00  0.00     0.244 HD
ENDBRANCH  22  24
ENDBRANCH   8  21
TORSDOF 5
ENDMDL
