MODEL 1
REMARK VINA RESULT: -6.070707248      0.000      0.000
REMARK  5 active torsions:
REMARK  status: ('A' for Active; 'I' for Inactive)
REMARK    1  A    between atoms: N1_1  and  C1_4 
REMARK    2  A    between atoms: N3_7  and  N4_8 
REMARK    3  A    between atoms: C3_13  and  N6_14 
REMARK    4  A    between atoms: N6_14  and  O1_16 
REMARK    5  A    between atoms: N7_18  and  O2_19 
ROOT
HETATM    1  C1  UNL     1     -13.180 -29.291 -25.599  1.00  0.00     0.720 A 
HETATM    2  N2  UNL     1     -12.323 -30.001 -24.855  1.00  0.00    -0.108 N 
ATOM      3  H2  UNL     1     -12.679 -30.691 -24.194  1.00  0.00     0.208 HD
HETATM    4  N3  UNL     1     -11.030 -29.818 -24.970  1.00  0.00    -0.171 N 
HETATM    5  C2  UNL     1     -10.576 -28.891 -25.861  1.00  0.00     0.204 A 
HETATM    6  N5  UNL     1      -9.189 -28.674 -26.002  1.00  0.00    -0.075 NA
HETATM    7  C3  UNL     1     -11.437 -28.144 -26.640  1.00  0.00     0.216 A 
HETATM    8  N7  UNL     1     -12.756 -28.376 -26.481  1.00  0.00    -0.029 N 
ENDROOT
BRANCH   7   9
HETATM    9  N6  UNL     1     -10.939 -27.184 -27.562  1.00  0.00    -0.248 N 
ATOM     10  H6  UNL     1     -10.334 -26.413 -27.275  1.00  0.00     0.196 HD
BRANCH   9  11
HETATM   11  O1  UNL     1     -11.298 -27.351 -28.766  1.00  0.00    -0.288 OA
ATOM     12  H1  UNL     1     -11.346 -26.559 -29.288  1.00  0.00     0.244 HD
ENDBRANCH   9  11
ENDBRANCH   7   9
BRANCH   8  13
HETATM   13  O2  UNL     1     -13.672 -27.655 -27.237  1.00  0.00    -0.268 OA
ATOM     14  H2  UNL     1     -14.412 -27.233 -26.818  1.00  0.00     0.246 HD
ENDBRANCH   8  13
BRANCH   4  15
HETATM   15  N4  UNL     1     -10.083 -30.522 -24.227  1.00  0.00    -0.322 N 
ATOM     16  H42 UNL     1     -10.416 -31.277 -23.627  1.00  0.00     0.179 HD
ATOM     17  H41 UNL     1      -9.083 -30.321 -24.253  1.00  0.00     0.179 HD
ENDBRANCH   4  15
BRANCH   1  18
HETATM   18  N1  UNL     1     -14.454 -29.470 -25.487  1.00  0.00    -0.231 N 
ATOM     19  H12 UNL     1     -14.785 -30.040 -24.709  1.00  0.00     0.174 HD
ATOM     20  H11 UNL     1     -15.098 -29.053 -26.159  1.00  0.00     0.174 HD
ENDBRANCH   1  18
TORSDOF 5
ENDMDL
MODEL 2
REMARK VINA RESULT: -5.958088079      1.343      3.090
REMARK  5 active torsions:
REMARK  status: ('A' for Active; 'I' for Inactive)
REMARK    1  A    between atoms: N1_1  and  C1_4 
REMARK    2  A    between atoms: N3_7  and  N4_8 
REMARK    3  A    between atoms: C3_13  and  N6_14 
REMARK    4  A    between atoms: N6_14  and  O1_16 
REMARK    5  A    between atoms: N7_18  and  O2_19 
ROOT
HETATM    1  C1  UNL     1     -11.336 -29.356 -25.327  1.00  0.00     0.720 A 
HETATM    2  N2  UNL     1     -12.561 -29.729 -24.939  1.00  0.00    -0.108 N 
ATOM      3  H2  UNL     1     -12.668 -30.437 -24.213  1.00  0.00     0.208 HD
HETATM    4  N3  UNL     1     -13.625 -29.193 -25.485  1.00  0.00    -0.171 N 
HETATM    5  C2  UNL     1     -13.459 -28.248 -26.455  1.00  0.00     0.204 A 
HETATM    6  N5  UNL     1     -14.588 -27.656 -27.058  1.00  0.00    -0.075 NA
HETATM    7  C3  UNL     1     -12.207 -27.845 -26.874  1.00  0.00     0.216 A 
HETATM    8  N7  UNL     1     -11.149 -28.430 -26.277  1.00  0.00    -0.029 N 
ENDROOT
BRANCH   7   9
HETATM    9  N6  UNL     1     -12.060 -26.858 -27.886  1.00  0.00    -0.248 N 
ATOM     10  H6  UNL     1     -12.471 -25.928 -27.806  1.00  0.00     0.196 HD
BRANCH   9  11
HETATM   11  O1  UNL     1     -11.384 -27.215 -28.896  1.00  0.00    -0.288 OA
ATOM     12  H1  UNL     1     -11.608 -26.779 -29.710  1.00  0.00     0.244 HD
ENDBRANCH   9  11
ENDBRANCH   7   9
BRANCH   8  13
HETATM   13  O2  UNL     1      -9.863 -28.066 -26.656  1.00  0.00    -0.268 OA
ATOM     14  H2  UNL     1      -9.713 -27.644 -27.494  1.00  0.00     0.246 HD
ENDBRANCH   8  13
BRANCH   4  15
HETATM   15  N4  UNL     1     -14.930 -29.535 -25.130  1.00  0.00    -0.322 N 
ATOM     16  H42 UNL     1     -15.445 -30.154 -25.756  1.00  0.00     0.179 HD
ATOM     17  H41 UNL     1     -15.389 -29.200 -24.283  1.00  0.00     0.179 HD
ENDBRANCH   4  15
BRANCH   1  18
HETATM   18  N1  UNL     1     -10.286 -29.884 -24.790  1.00  0.00    -0.231 N 
ATOM     19  H12 UNL     1     -10.388 -30.801 -24.356  1.00  0.00     0.174 HD
ATOM     20  H11 UNL     1      -9.392 -29.393 -24.804  1.00  0.00     0.174 HD
ENDBRANCH   1  18
TORSDOF 5
ENDMDL
MODEL 3
REMARK VINA RESULT: -5.904862451      2.085      3.615
REMARK  5 active torsions:
REMARK  status: ('A' for Active; 'I' for Inactive)
REMARK    1  A    between atoms: N1_1  and  C1_4 
REMARK    2  A    between atoms: N3_7  and  N4_8 
REMARK    3  A    between atoms: C3_13  and  N6_14 
REMARK    4  A    between atoms: N6_14  and  O1_16 
REMARK    5  A    between atoms: N7_18  and  O2_19 
ROOT
HETATM    1  C1  UNL     1     -10.712 -27.986 -25.557  1.00  0.00     0.720 A 
HETATM    2  N2  UNL     1     -11.571 -27.141 -24.975  1.00  0.00    -0.108 N 
ATOM      3  H2  UNL     1     -11.311 -26.673 -24.107  1.00  0.00     0.208 HD
HETATM    4  N3  UNL     1     -12.744 -26.908 -25.511  1.00  0.00    -0.171 N 
HETATM    5  C2  UNL     1     -13.072 -27.544 -26.672  1.00  0.00     0.204 A 
HETATM    6  N5  UNL     1     -14.329 -27.312 -27.269  1.00  0.00    -0.075 NA
HETATM    7  C3  UNL     1     -12.205 -28.421 -27.293  1.00  0.00     0.216 A 
HETATM    8  N7  UNL     1     -11.012 -28.622 -26.697  1.00  0.00    -0.029 N 
ENDROOT
BRANCH   7   9
HETATM    9  N6  UNL     1     -12.570 -29.072 -28.503  1.00  0.00    -0.248 N 
ATOM     10  H6  UNL     1     -13.408 -29.648 -28.583  1.00  0.00     0.196 HD
BRANCH   9  11
HETATM   11  O1  UNL     1     -11.781 -28.887 -29.477  1.00  0.00    -0.288 OA
ATOM     12  H1  UNL     1     -10.902 -28.613 -29.241  1.00  0.00     0.244 HD
ENDBRANCH   9  11
ENDBRANCH   7   9
BRANCH   8  13
HETATM   13  O2  UNL     1     -10.098 -29.493 -27.275  1.00  0.00    -0.268 OA
ATOM     14  H2  UNL     1     -10.365 -30.369 -27.528  1.00  0.00     0.246 HD
ENDBRANCH   8  13
BRANCH   4  15
HETATM   15  N4  UNL     1     -13.686 -26.041 -24.959  1.00  0.00    -0.322 N 
ATOM     16  H42 UNL     1     -13.712 -25.953 -23.943  1.00  0.00     0.179 HD
ATOM     17  H41 UNL     1     -14.344 -25.495 -25.515  1.00  0.00     0.179 HD
ENDBRANCH   4  15
BRANCH   1  18
HETATM   18  N1  UNL     1      -9.556 -28.216 -25.030  1.00  0.00    -0.231 N 
ATOM     19  H12 UNL     1      -8.774 -27.635 -25.332  1.00  0.00     0.174 HD
ATOM     20  H11 UNL     1      -9.438 -28.955 -24.336  1.00  0.00     0.174 HD
ENDBRANCH   1  18
TORSDOF 5
ENDMDL
MODEL 4
REMARK VINA RESULT: -5.851664708      1.882      2.126
REMARK  5 active torsions:
REMARK  status: ('A' for Active; 'I' for Inactive)
REMARK    1  A    between atoms: N1_1  and  C1_4 
REMARK    2  A    between atoms: N3_7  and  N4_8 
REMARK    3  A    between atoms: C3_13  and  N6_14 
REMARK    4  A    between atoms: N6_14  and  O1_16 
REMARK    5  A    between atoms: N7_18  and  O2_19 
ROOT
HETATM    1  C1  UNL     1     -12.859 -26.833 -25.633  1.00  0.00     0.720 A 
HETATM    2  N2  UNL     1     -11.711 -27.006 -24.967  1.00  0.00    -0.108 N 
ATOM      3  H2  UNL     1     -11.542 -26.486 -24.106  1.00  0.00     0.208 HD
HETATM    4  N3  UNL     1     -10.801 -27.838 -25.411  1.00  0.00    -0.171 N 
HETATM    5  C2  UNL     1     -11.047 -28.524 -26.564  1.00  0.00     0.204 A 
HETATM    6  N5  UNL     1     -10.083 -29.426 -27.063  1.00  0.00    -0.075 NA
HETATM    7  C3  UNL     1     -12.222 -28.364 -27.271  1.00  0.00     0.216 A 
HETATM    8  N7  UNL     1     -13.122 -27.496 -26.767  1.00  0.00    -0.029 N 
ENDROOT
BRANCH   7   9
HETATM    9  N6  UNL     1     -12.455 -29.091 -28.471  1.00  0.00    -0.248 N 
ATOM     10  H6  UNL     1     -13.199 -29.783 -28.554  1.00  0.00     0.196 HD
BRANCH   9  11
HETATM   11  O1  UNL     1     -11.672 -28.819 -29.429  1.00  0.00    -0.288 OA
ATOM     12  H1  UNL     1     -10.960 -29.434 -29.560  1.00  0.00     0.244 HD
ENDBRANCH   9  11
ENDBRANCH   7   9
BRANCH   8  13
HETATM   13  O2  UNL     1     -14.322 -27.293 -27.434  1.00  0.00    -0.268 OA
ATOM     14  H2  UNL     1     -14.335 -27.199 -28.379  1.00  0.00     0.246 HD
ENDBRANCH   8  13
BRANCH   4  15
HETATM   15  N4  UNL     1      -9.585 -28.066 -24.768  1.00  0.00    -0.322 N 
ATOM     16  H42 UNL     1      -9.139 -27.276 -24.301  1.00  0.00     0.179 HD
ATOM     17  H41 UNL     1      -9.122 -28.975 -24.741  1.00  0.00     0.179 HD
ENDBRANCH   4  15
BRANCH   1  18
HETATM   18  N1  UNL     1     -13.756 -26.013 -25.197  1.00  0.00    -0.231 N 
ATOM     19  H12 UNL     1     -13.814 -25.868 -24.189  1.00  0.00     0.174 HD
ATOM     20  H11 UNL     1     -14.379 -25.531 -25.845  1.00  0.00     0.174 HD
ENDBRANCH   1  18
TORSDOF 5
ENDMDL
MODEL 5
REMARK VINA RESULT: -5.799468419      2.443      3.793
REMARK  5 active torsions:
REMARK  status: ('A' for Active; 'I' for Inactive)
REMARK    1  A    between atoms: N1_1  and  C1_4 
REMARK    2  A    between atoms: N3_7  and  N4_8 
REMARK    3  A    between atoms: C3_13  and  N6_14 
REMARK    4  A    between atoms: N6_14  and  O1_16 
REMARK    5  A    between atoms: N7_18  and  O2_19 
ROOT
HETATM    1  C1  UNL     1      -9.954 -29.458 -26.251  1.00  0.00     0.720 A 
HETATM    2  N2  UNL     1     -10.470 -29.629 -27.474  1.00  0.00    -0.108 N 
ATOM      3  H2  UNL     1     -10.184 -30.431 -28.035  1.00  0.00     0.208 HD
HETATM    4  N3  UNL     1     -11.339 -28.776 -27.957  1.00  0.00    -0.171 N 
HETATM    5  C2  UNL     1     -11.708 -27.711 -27.189  1.00  0.00     0.204 A 
HETATM    6  N5  UNL     1     -12.642 -26.778 -27.686  1.00  0.00    -0.075 NA
HETATM    7  C3  UNL     1     -11.192 -27.509 -25.925  1.00  0.00     0.216 A 
HETATM    8  N7  UNL     1     -10.301 -28.419 -25.479  1.00  0.00    -0.029 N 
ENDROOT
BRANCH   7   9
HETATM    9  N6  UNL     1     -11.592 -26.390 -25.144  1.00  0.00    -0.248 N 
ATOM     10  H6  UNL     1     -10.924 -25.710 -24.782  1.00  0.00     0.196 HD
BRANCH   9  11
HETATM   11  O1  UNL     1     -12.837 -26.298 -24.928  1.00  0.00    -0.288 OA
ATOM     12  H1  UNL     1     -13.082 -26.141 -24.024  1.00  0.00     0.244 HD
ENDBRANCH   9  11
ENDBRANCH   7   9
BRANCH   8  13
HETATM   13  O2  UNL     1      -9.747 -28.269 -24.215  1.00  0.00    -0.268 OA
ATOM     14  H2  UNL     1      -9.648 -29.021 -23.643  1.00  0.00     0.246 HD
ENDBRANCH   8  13
BRANCH   4  15
HETATM   15  N4  UNL     1     -11.916 -28.894 -29.221  1.00  0.00    -0.322 N 
ATOM     16  H42 UNL     1     -11.726 -28.156 -29.900  1.00  0.00     0.179 HD
ATOM     17  H41 UNL     1     -12.511 -29.675 -29.498  1.00  0.00     0.179 HD
ENDBRANCH   4  15
BRANCH   1  18
HETATM   18  N1  UNL     1      -9.097 -30.297 -25.774  1.00  0.00    -0.231 N 
ATOM     19  H12 UNL     1      -9.056 -30.408 -24.761  1.00  0.00     0.174 HD
ATOM     20  H11 UNL     1      -8.485 -30.826 -26.396  1.00  0.00     0.174 HD
ENDBRANCH   1  18
TORSDOF 5
ENDMDL
