MODEL 1
REMARK VINA RESULT: -6.227854704      0.000      0.000
REMARK  3 active torsions:
REMARK  status: ('A' for Active; 'I' for Inactive)
REMARK    1  A    between atoms: N1_1  and  N2_4 
REMARK    2  A    between atoms: C3_10  and  C4_11 
REMARK       I    between atoms: C4_11  and  N4_13 
REMARK    3  A    between atoms: N4_13  and  N5_15 
ROOT
HETATM    1  N2  UNL     1     -10.164 -27.893 -26.557  1.00  0.00    -0.290 N 
ATOM      2  H2  UNL     1      -9.761 -27.577 -27.439  1.00  0.00     0.188 HD
HETATM    3  C1  UNL     1     -11.461 -28.017 -26.414  1.00  0.00     0.149 A 
HETATM    4  C2  UNL     1     -12.321 -27.722 -27.457  1.00  0.00     0.141 A 
HETATM    5  N3  UNL     1     -13.636 -27.865 -27.258  1.00  0.00    -0.343 N 
ATOM      6  H3  UNL     1     -14.272 -27.647 -28.027  1.00  0.00     0.167 HD
HETATM    7  C3  UNL     1     -14.156 -28.281 -26.095  1.00  0.00     0.191 A 
HETATM    8  N6  UNL     1     -13.292 -28.559 -25.104  1.00  0.00    -0.279 N 
ATOM      9  H6  UNL     1     -13.656 -28.878 -24.206  1.00  0.00     0.189 HD
HETATM   10  N7  UNL     1     -11.992 -28.432 -25.257  1.00  0.00    -0.282 N 
ATOM     11  H7  UNL     1     -11.375 -28.654 -24.476  1.00  0.00     0.188 HD
ENDROOT
BRANCH   7  12
HETATM   12  C4  UNL     1     -15.605 -28.426 -25.915  1.00  0.00     0.304 C 
HETATM   13  O1  UNL     1     -16.012 -29.283 -25.081  1.00  0.00    -0.263 OA
HETATM   14  N4  UNL     1     -16.539 -27.653 -26.632  1.00  0.00    -0.270 N 
ATOM     15  H4  UNL     1     -16.204 -26.964 -27.304  1.00  0.00     0.189 HD
BRANCH  14  16
HETATM   16  N5  UNL     1     -17.886 -27.807 -26.447  1.00  0.00    -0.342 N 
ATOM     17  H52 UNL     1     -18.217 -28.657 -25.990  1.00  0.00     0.176 HD
ATOM     18  H51 UNL     1     -18.550 -27.095 -26.752  1.00  0.00     0.176 HD
ENDBRANCH  14  16
ENDBRANCH   7  12
BRANCH   1  19
HETATM   19  N1  UNL     1      -9.353 -28.205 -25.468  1.00  0.00    -0.344 N 
ATOM     20  H12 UNL     1      -9.703 -28.815 -24.729  1.00  0.00     0.176 HD
ATOM     21  H11 UNL     1      -8.414 -27.808 -25.441  1.00  0.00     0.176 HD
ENDBRANCH   1  19
TORSDOF 3
ENDMDL
MODEL 2
REMARK VINA RESULT: -5.925012763      1.121      1.121
REMARK  3 active torsions:
REMARK  status: ('A' for Active; 'I' for Inactive)
REMARK    1  A    between atoms: N1_1  and  N2_4 
REMARK    2  A    between atoms: C3_10  and  C4_11 
REMARK       I    between atoms: C4_11  and  N4_13 
REMARK    3  A    between atoms: N4_13  and  N5_15 
ROOT
HETATM    1  N2  UNL     1     -10.262 -27.880 -26.596  1.00  0.00    -0.290 N 
ATOM      2  H2  UNL     1      -9.843 -27.619 -27.489  1.00  0.00     0.188 HD
HETATM    3  C1  UNL     1     -11.563 -27.960 -26.460  1.00  0.00     0.149 A 
HETATM    4  C2  UNL     1     -12.406 -27.691 -27.524  1.00  0.00     0.141 A 
HETATM    5  N3  UNL     1     -13.726 -27.787 -27.331  1.00  0.00    -0.343 N 
ATOM      6  H3  UNL     1     -14.349 -27.588 -28.115  1.00  0.00     0.167 HD
HETATM    7  C3  UNL     1     -14.268 -28.132 -26.155  1.00  0.00     0.191 A 
HETATM    8  N6  UNL     1     -13.420 -28.386 -25.143  1.00  0.00    -0.279 N 
ATOM      9  H6  UNL     1     -13.800 -28.652 -24.235  1.00  0.00     0.189 HD
HETATM   10  N7  UNL     1     -12.116 -28.304 -25.289  1.00  0.00    -0.282 N 
ATOM     11  H7  UNL     1     -11.511 -28.506 -24.493  1.00  0.00     0.188 HD
ENDROOT
BRANCH   7  12
HETATM   12  C4  UNL     1     -15.721 -28.227 -25.981  1.00  0.00     0.304 C 
HETATM   13  O1  UNL     1     -16.455 -27.669 -26.845  1.00  0.00    -0.263 OA
HETATM   14  N4  UNL     1     -16.312 -28.908 -24.900  1.00  0.00    -0.270 N 
ATOM     15  H4  UNL     1     -15.715 -29.356 -24.206  1.00  0.00     0.189 HD
BRANCH  14  16
HETATM   16  N5  UNL     1     -17.672 -28.983 -24.760  1.00  0.00    -0.342 N 
ATOM     17  H52 UNL     1     -18.255 -28.468 -25.420  1.00  0.00     0.176 HD
ATOM     18  H51 UNL     1     -18.101 -29.537 -24.018  1.00  0.00     0.176 HD
ENDBRANCH  14  16
ENDBRANCH   7  12
BRANCH   1  19
HETATM   19  N1  UNL     1      -9.469 -28.163 -25.487  1.00  0.00    -0.344 N 
ATOM     20  H12 UNL     1      -9.582 -27.625 -24.628  1.00  0.00     0.176 HD
ATOM     21  H11 UNL     1      -8.785 -28.916 -25.566  1.00  0.00     0.176 HD
ENDBRANCH   1  19
TORSDOF 3
ENDMDL
MODEL 3
REMARK VINA RESULT: -5.851086048      2.043      5.376
REMARK  3 active torsions:
REMARK  status: ('A' for Active; 'I' for Inactive)
REMARK    1  A    between atoms: N1_1  and  N2_4 
REMARK    2  A    between atoms: C3_10  and  C4_11 
REMARK       I    between atoms: C4_11  and  N4_13 
REMARK    3  A    between atoms: N4_13  and  N5_15 
ROOT
HETATM    1  N2  UNL     1     -17.367 -26.900 -25.376  1.00  0.00    -0.290 N 
ATOM      2  H2  UNL     1     -17.735 -26.350 -24.600  1.00  0.00     0.188 HD
HETATM    3  C1  UNL     1     -16.076 -27.018 -25.567  1.00  0.00     0.149 A 
HETATM    4  C2  UNL     1     -15.174 -26.399 -24.719  1.00  0.00     0.141 A 
HETATM    5  N3  UNL     1     -13.867 -26.552 -24.959  1.00  0.00    -0.343 N 
ATOM      6  H3  UNL     1     -13.200 -26.095 -24.336  1.00  0.00     0.167 HD
HETATM    7  C3  UNL     1     -13.393 -27.277 -25.982  1.00  0.00     0.191 A 
HETATM    8  N6  UNL     1     -14.297 -27.864 -26.784  1.00  0.00    -0.279 N 
ATOM      9  H6  UNL     1     -13.970 -28.424 -27.572  1.00  0.00     0.189 HD
HETATM   10  N7  UNL     1     -15.591 -27.740 -26.585  1.00  0.00    -0.282 N 
ATOM     11  H7  UNL     1     -16.240 -28.205 -27.221  1.00  0.00     0.188 HD
ENDROOT
BRANCH   7  12
HETATM   12  C4  UNL     1     -11.952 -27.422 -26.213  1.00  0.00     0.304 C 
HETATM   13  O1  UNL     1     -11.512 -27.168 -27.369  1.00  0.00    -0.263 OA
HETATM   14  N4  UNL     1     -11.060 -27.828 -25.201  1.00  0.00    -0.270 N 
ATOM     15  H4  UNL     1     -11.421 -28.031 -24.270  1.00  0.00     0.189 HD
BRANCH  14  16
HETATM   16  N5  UNL     1      -9.718 -27.956 -25.441  1.00  0.00    -0.342 N 
ATOM     17  H52 UNL     1      -9.357 -28.878 -25.686  1.00  0.00     0.176 HD
ATOM     18  H51 UNL     1      -9.088 -27.156 -25.379  1.00  0.00     0.176 HD
ENDBRANCH  14  16
ENDBRANCH   7  12
BRANCH   1  19
HETATM   19  N1  UNL     1     -18.222 -27.548 -26.265  1.00  0.00    -0.344 N 
ATOM     20  H12 UNL     1     -19.093 -27.101 -26.553  1.00  0.00     0.176 HD
ATOM     21  H11 UNL     1     -17.948 -28.468 -26.608  1.00  0.00     0.176 HD
ENDBRANCH   1  19
TORSDOF 3
ENDMDL
MODEL 4
REMARK VINA RESULT: -5.820112383      2.234      5.242
REMARK  3 active torsions:
REMARK  status: ('A' for Active; 'I' for Inactive)
REMARK    1  A    between atoms: N1_1  and  N2_4 
REMARK    2  A    between atoms: C3_10  and  C4_11 
REMARK       I    between atoms: C4_11  and  N4_13 
REMARK    3  A    between atoms: N4_13  and  N5_15 
ROOT
HETATM    1  N2  UNL     1     -17.325 -26.797 -25.298  1.00  0.00    -0.290 N 
ATOM      2  H2  UNL     1     -18.021 -27.187 -25.933  1.00  0.00     0.188 HD
HETATM    3  C1  UNL     1     -16.044 -26.957 -25.521  1.00  0.00     0.149 A 
HETATM    4  C2  UNL     1     -15.598 -27.662 -26.626  1.00  0.00     0.141 A 
HETATM    5  N3  UNL     1     -14.280 -27.797 -26.807  1.00  0.00    -0.343 N 
ATOM      6  H3  UNL     1     -13.950 -28.317 -27.620  1.00  0.00     0.167 HD
HETATM    7  C3  UNL     1     -13.372 -27.280 -25.967  1.00  0.00     0.191 A 
HETATM    8  N6  UNL     1     -13.840 -26.601 -24.905  1.00  0.00    -0.279 N 
ATOM      9  H6  UNL     1     -13.175 -26.195 -24.246  1.00  0.00     0.189 HD
HETATM   10  N7  UNL     1     -15.128 -26.445 -24.689  1.00  0.00    -0.282 N 
ATOM     11  H7  UNL     1     -15.435 -25.922 -23.869  1.00  0.00     0.188 HD
ENDROOT
BRANCH   7  12
HETATM   12  C4  UNL     1     -11.934 -27.448 -26.198  1.00  0.00     0.304 C 
HETATM   13  O1  UNL     1     -11.501 -27.267 -27.371  1.00  0.00    -0.263 OA
HETATM   14  N4  UNL     1     -11.037 -27.800 -25.171  1.00  0.00    -0.270 N 
ATOM     15  H4  UNL     1     -11.393 -27.945 -24.227  1.00  0.00     0.189 HD
BRANCH  14  16
HETATM   16  N5  UNL     1      -9.698 -27.951 -25.412  1.00  0.00    -0.342 N 
ATOM     17  H52 UNL     1      -9.076 -28.088 -24.615  1.00  0.00     0.176 HD
ATOM     18  H51 UNL     1      -9.322 -27.930 -26.360  1.00  0.00     0.176 HD
ENDBRANCH  14  16
ENDBRANCH   7  12
BRANCH   1  19
HETATM   19  N1  UNL     1     -17.707 -26.077 -24.169  1.00  0.00    -0.344 N 
ATOM     20  H12 UNL     1     -18.686 -26.059 -23.882  1.00  0.00     0.176 HD
ATOM     21  H11 UNL     1     -16.984 -25.579 -23.650  1.00  0.00     0.176 HD
ENDBRANCH   1  19
TORSDOF 3
ENDMDL
MODEL 5
REMARK VINA RESULT: -5.679660671      1.508      1.542
REMARK  3 active torsions:
REMARK  status: ('A' for Active; 'I' for Inactive)
REMARK    1  A    between atoms: N1_1  and  N2_4 
REMARK    2  A    between atoms: C3_10  and  C4_11 
REMARK       I    between atoms: C4_11  and  N4_13 
REMARK    3  A    between atoms: N4_13  and  N5_15 
ROOT
HETATM    1  N2  UNL     1     -10.752 -28.812 -25.350  1.00  0.00    -0.290 N 
ATOM      2  H2  UNL     1     -10.405 -29.729 -25.633  1.00  0.00     0.188 HD
HETATM    3  C1  UNL     1     -12.015 -28.495 -25.495  1.00  0.00     0.149 A 
HETATM    4  C2  UNL     1     -12.915 -29.395 -26.038  1.00  0.00     0.141 A 
HETATM    5  N3  UNL     1     -14.193 -29.021 -26.164  1.00  0.00    -0.343 N 
ATOM      6  H3  UNL     1     -14.858 -29.684 -26.564  1.00  0.00     0.167 HD
HETATM    7  C3  UNL     1     -14.640 -27.814 -25.789  1.00  0.00     0.191 A 
HETATM    8  N6  UNL     1     -13.739 -26.965 -25.266  1.00  0.00    -0.279 N 
ATOM      9  H6  UNL     1     -14.046 -26.039 -24.970  1.00  0.00     0.189 HD
HETATM   10  N7  UNL     1     -12.473 -27.292 -25.124  1.00  0.00    -0.282 N 
ATOM     11  H7  UNL     1     -11.825 -26.614 -24.722  1.00  0.00     0.188 HD
ENDROOT
BRANCH   7  12
HETATM   12  C4  UNL     1     -16.050 -27.440 -25.943  1.00  0.00     0.304 C 
HETATM   13  O1  UNL     1     -16.436 -26.366 -25.402  1.00  0.00    -0.263 OA
HETATM   14  N4  UNL     1     -16.968 -28.228 -26.663  1.00  0.00    -0.270 N 
ATOM     15  H4  UNL     1     -16.650 -29.094 -27.096  1.00  0.00     0.189 HD
BRANCH  14  16
HETATM   16  N5  UNL     1     -18.279 -27.858 -26.793  1.00  0.00    -0.342 N 
ATOM     17  H52 UNL     1     -18.914 -28.490 -27.282  1.00  0.00     0.176 HD
ATOM     18  H51 UNL     1     -18.624 -26.975 -26.414  1.00  0.00     0.176 HD
ENDBRANCH  14  16
ENDBRANCH   7  12
BRANCH   1  19
HETATM   19  N1  UNL     1      -9.898 -27.860 -24.798  1.00  0.00    -0.344 N 
ATOM     20  H12 UNL     1      -9.679 -27.887 -23.802  1.00  0.00     0.176 HD
ATOM     21  H11 UNL     1      -9.507 -27.150 -25.417  1.00  0.00     0.176 HD
ENDBRANCH   1  19
TORSDOF 3
ENDMDL
