MODEL 1
REMARK VINA RESULT: -6.753472796      0.000      0.000
REMARK  3 active torsions:
REMARK  status: ('A' for Active; 'I' for Inactive)
REMARK    1  A    between atoms: N4_9  and  C3_10 
REMARK    2  A    between atoms: C3_10  and  O1_11 
REMARK    3  A    between atoms: C3_10  and  C4_13 
ROOT
HETATM    1  N1  UNL     1     -11.779 -26.480 -25.038  1.00  0.00    -0.379 N 
ATOM      2  H11 UNL     1     -10.923 -26.366 -24.496  1.00  0.00     0.158 HD
ATOM      3  H12 UNL     1     -12.546 -25.859 -24.778  1.00  0.00     0.158 HD
HETATM    4  C1  UNL     1     -11.899 -27.347 -25.947  1.00  0.00     0.161 C 
HETATM    5  S1  UNL     1     -13.430 -27.551 -26.916  1.00  0.00     0.032 SA
HETATM    6  N2  UNL     1     -12.778 -27.964 -28.550  1.00  0.00    -0.065 NA
HETATM    7  N3  UNL     1     -11.435 -27.490 -28.476  1.00  0.00    -0.116 NA
HETATM    8  C2  UNL     1     -10.613 -28.419 -27.757  1.00  0.00     0.265 C 
HETATM    9  N4  UNL     1     -10.841 -28.202 -26.305  1.00  0.00    -0.288 N 
ENDROOT
BRANCH   9  10
HETATM   10  C3  UNL     1     -10.055 -28.853 -25.353  1.00  0.00     0.212 C 
BRANCH  10  11
HETATM   11  O1  UNL     1      -9.485 -28.006 -24.521  1.00  0.00    -0.342 OA
ATOM     12  H1  UNL     1      -9.428 -28.357 -23.639  1.00  0.00     0.219 HD
ENDBRANCH  10  11
BRANCH  10  13
HETATM   13  C4  UNL     1      -9.752 -30.216 -25.112  1.00  0.00     0.305 C 
HETATM   14  N5  UNL     1      -8.792 -30.905 -25.951  1.00  0.00    -0.054 NA
HETATM   15  O2  UNL     1     -10.249 -30.900 -24.217  1.00  0.00    -0.267 OA
ENDBRANCH  10  13
ENDBRANCH   9  10
TORSDOF 3
ENDMDL
MODEL 2
REMARK VINA RESULT: -6.256962650      2.108      2.688
REMARK  3 active torsions:
REMARK  status: ('A' for Active; 'I' for Inactive)
REMARK    1  A    between atoms: N4_9  and  C3_10 
REMARK    2  A    between atoms: C3_10  and  O1_11 
REMARK    3  A    between atoms: C3_10  and  C4_13 
ROOT
HETATM    1  N1  UNL     1     -12.190 -26.941 -27.698  1.00  0.00    -0.379 N 
ATOM      2  H11 UNL     1     -11.520 -27.435 -28.289  1.00  0.00     0.158 HD
ATOM      3  H12 UNL     1     -12.459 -26.014 -28.027  1.00  0.00     0.158 HD
HETATM    4  C1  UNL     1     -12.634 -27.423 -26.621  1.00  0.00     0.161 C 
HETATM    5  S1  UNL     1     -13.830 -26.539 -25.566  1.00  0.00     0.032 SA
HETATM    6  N2  UNL     1     -14.858 -27.896 -24.959  1.00  0.00    -0.065 NA
HETATM    7  N3  UNL     1     -14.597 -28.929 -25.907  1.00  0.00    -0.116 NA
HETATM    8  C2  UNL     1     -13.343 -29.565 -25.627  1.00  0.00     0.265 C 
HETATM    9  N4  UNL     1     -12.262 -28.702 -26.167  1.00  0.00    -0.288 N 
ENDROOT
BRANCH   9  10
HETATM   10  C3  UNL     1     -10.938 -29.143 -26.186  1.00  0.00     0.212 C 
BRANCH  10  11
HETATM   11  O1  UNL     1     -10.554 -29.502 -27.394  1.00  0.00    -0.342 OA
ATOM     12  H1  UNL     1     -10.177 -28.775 -27.878  1.00  0.00     0.219 HD
ENDBRANCH  10  11
BRANCH  10  13
HETATM   13  C4  UNL     1      -9.947 -29.282 -25.184  1.00  0.00     0.305 C 
HETATM   14  N5  UNL     1      -9.553 -30.600 -24.731  1.00  0.00    -0.054 NA
HETATM   15  O2  UNL     1      -9.363 -28.345 -24.637  1.00  0.00    -0.267 OA
ENDBRANCH  10  13
ENDBRANCH   9  10
TORSDOF 3
ENDMDL
MODEL 3
REMARK VINA RESULT: -6.146294776      1.557      1.976
REMARK  3 active torsions:
REMARK  status: ('A' for Active; 'I' for Inactive)
REMARK    1  A    between atoms: N4_9  and  C3_10 
REMARK    2  A    between atoms: C3_10  and  O1_11 
REMARK    3  A    between atoms: C3_10  and  C4_13 
ROOT
HETATM    1  N1  UNL     1     -11.029 -27.187 -27.409  1.00  0.00    -0.379 N 
ATOM      2  H11 UNL     1     -10.184 -27.683 -27.694  1.00  0.00     0.158 HD
ATOM      3  H12 UNL     1     -11.222 -26.326 -27.921  1.00  0.00     0.158 HD
HETATM    4  C1  UNL     1     -11.769 -27.587 -26.469  1.00  0.00     0.161 C 
HETATM    5  S1  UNL     1     -13.278 -26.700 -25.959  1.00  0.00     0.032 SA
HETATM    6  N2  UNL     1     -14.381 -28.066 -25.532  1.00  0.00    -0.065 NA
HETATM    7  N3  UNL     1     -13.785 -29.168 -26.212  1.00  0.00    -0.116 NA
HETATM    8  C2  UNL     1     -12.657 -29.662 -25.479  1.00  0.00     0.265 C 
HETATM    9  N4  UNL     1     -11.501 -28.774 -25.764  1.00  0.00    -0.288 N 
ENDROOT
BRANCH   9  10
HETATM   10  C3  UNL     1     -10.221 -29.101 -25.315  1.00  0.00     0.212 C 
BRANCH  10  11
HETATM   11  O1  UNL     1      -9.498 -28.030 -25.062  1.00  0.00    -0.342 OA
ATOM     12  H1  UNL     1      -8.584 -28.153 -25.294  1.00  0.00     0.219 HD
ENDBRANCH  10  11
BRANCH  10  13
HETATM   13  C4  UNL     1      -9.557 -30.331 -25.086  1.00  0.00     0.305 C 
HETATM   14  N5  UNL     1      -8.825 -30.971 -26.160  1.00  0.00    -0.054 NA
HETATM   15  O2  UNL     1      -9.543 -30.935 -24.012  1.00  0.00    -0.267 OA
ENDBRANCH  10  13
ENDBRANCH   9  10
TORSDOF 3
ENDMDL
MODEL 4
REMARK VINA RESULT: -5.861657995      2.433      2.928
REMARK  3 active torsions:
REMARK  status: ('A' for Active; 'I' for Inactive)
REMARK    1  A    between atoms: N4_9  and  C3_10 
REMARK    2  A    between atoms: C3_10  and  O1_11 
REMARK    3  A    between atoms: C3_10  and  C4_13 
ROOT
HETATM    1  N1  UNL     1     -11.791 -26.562 -26.400  1.00  0.00    -0.379 N 
ATOM      2  H11 UNL     1     -11.071 -27.155 -26.813  1.00  0.00     0.158 HD
ATOM      3  H12 UNL     1     -11.605 -25.560 -26.438  1.00  0.00     0.158 HD
HETATM    4  C1  UNL     1     -12.827 -27.030 -25.853  1.00  0.00     0.161 C 
HETATM    5  S1  UNL     1     -14.114 -25.970 -25.115  1.00  0.00     0.032 SA
HETATM    6  N2  UNL     1     -15.620 -26.883 -25.520  1.00  0.00    -0.065 NA
HETATM    7  N3  UNL     1     -15.196 -27.717 -26.596  1.00  0.00    -0.116 NA
HETATM    8  C2  UNL     1     -14.471 -28.850 -26.099  1.00  0.00     0.265 C 
HETATM    9  N4  UNL     1     -13.084 -28.412 -25.802  1.00  0.00    -0.288 N 
ENDROOT
BRANCH   9  10
HETATM   10  C3  UNL     1     -12.100 -29.340 -25.455  1.00  0.00     0.212 C 
BRANCH  10  11
HETATM   11  O1  UNL     1     -12.568 -30.285 -24.665  1.00  0.00    -0.342 OA
ATOM     12  H1  UNL     1     -12.631 -31.122 -25.110  1.00  0.00     0.219 HD
ENDBRANCH  10  11
BRANCH  10  13
HETATM   13  C4  UNL     1     -10.726 -29.462 -25.775  1.00  0.00     0.305 C 
HETATM   14  N5  UNL     1      -9.765 -29.774 -24.738  1.00  0.00    -0.054 NA
HETATM   15  O2  UNL     1     -10.251 -29.322 -26.903  1.00  0.00    -0.267 OA
ENDBRANCH  10  13
ENDBRANCH   9  10
TORSDOF 3
ENDMDL
MODEL 5
REMARK VINA RESULT: -5.774065374      3.543      4.482
REMARK  3 active torsions:
REMARK  status: ('A' for Active; 'I' for Inactive)
REMARK    1  A    between atoms: N4_9  and  C3_10 
REMARK    2  A    between atoms: C3_10  and  O1_11 
REMARK    3  A    between atoms: C3_10  and  C4_13 
ROOT
HETATM    1  N1  UNL     1     -12.763 -29.849 -25.161  1.00  0.00    -0.379 N 
ATOM      2  H11 UNL     1     -13.752 -30.017 -24.974  1.00  0.00     0.158 HD
ATOM      3  H12 UNL     1     -12.124 -30.547 -24.781  1.00  0.00     0.158 HD
HETATM    4  C1  UNL     1     -12.352 -28.837 -25.790  1.00  0.00     0.161 C 
HETATM    5  S1  UNL     1     -10.585 -28.537 -26.124  1.00  0.00     0.032 SA
HETATM    6  N2  UNL     1     -10.642 -27.794 -27.770  1.00  0.00    -0.065 NA
HETATM    7  N3  UNL     1     -11.922 -28.201 -28.249  1.00  0.00    -0.116 NA
HETATM    8  C2  UNL     1     -12.955 -27.381 -27.686  1.00  0.00     0.265 C 
HETATM    9  N4  UNL     1     -13.235 -27.875 -26.314  1.00  0.00    -0.288 N 
ENDROOT
BRANCH   9  10
HETATM   10  C3  UNL     1     -14.309 -27.372 -25.579  1.00  0.00     0.212 C 
BRANCH  10  11
HETATM   11  O1  UNL     1     -13.962 -26.335 -24.844  1.00  0.00    -0.342 OA
ATOM     12  H1  UNL     1     -13.168 -25.922 -25.162  1.00  0.00     0.219 HD
ENDBRANCH  10  11
BRANCH  10  13
HETATM   13  C4  UNL     1     -15.669 -27.750 -25.465  1.00  0.00     0.305 C 
HETATM   14  N5  UNL     1     -16.021 -29.137 -25.243  1.00  0.00    -0.054 NA
HETATM   15  O2  UNL     1     -16.624 -26.974 -25.541  1.00  0.00    -0.267 OA
ENDBRANCH  10  13
ENDBRANCH   9  10
TORSDOF 3
ENDMDL
