MODEL 1
REMARK VINA RESULT: -11.028520230      0.000      0.000
REMARK  8 active torsions:
REMARK  status: ('A' for Active; 'I' for Inactive)
REMARK    1  A    between atoms: C2_2  and  C4_4 
REMARK    2  A    between atoms: C10_11  and  C11_12 
REMARK    3  A    between atoms: C11_12  and  O2_14 
REMARK    4  A    between atoms: C11_12  and  C13_16 
REMARK    5  A    between atoms: C13_16  and  N1_17 
REMARK    6  A    between atoms: C13_16  and  C14_21 
REMARK       I    between atoms: C14_21  and  N2_23 
REMARK    7  A    between atoms: N3_26  and  C17_27 
REMARK    8  A    between atoms: C20_30  and  C21_31 
ROOT
HETATM    1  C13 UNL     1       5.988  11.010  16.015  1.00  0.00     0.309 C 
ENDROOT
BRANCH   1   2
HETATM    2  C11 UNL     1       6.970  12.127  16.083  1.00  0.00     0.099 C 
HETATM    3  C12 UNL     1       6.697  13.207  15.131  1.00  0.00     0.049 C 
BRANCH   2   4
HETATM    4  C10 UNL     1       8.350  11.603  16.174  1.00  0.00     0.058 C 
HETATM    5  C6  UNL     1       8.948  11.864  17.541  1.00  0.00    -0.019 A 
HETATM    6  C5  UNL     1       8.918  11.479  18.873  1.00  0.00     0.043 A 
HETATM    7  C7  UNL     1       9.904  12.846  17.461  1.00  0.00     0.060 A 
HETATM    8  C4  UNL     1       9.857  12.245  19.530  1.00  0.00     0.057 A 
HETATM    9  O1  UNL     1      10.407  13.035  18.639  1.00  0.00    -0.319 OA
HETATM   10  C8  UNL     1       9.984  13.311  16.027  1.00  0.00     0.066 C 
HETATM   11  C9  UNL     1       9.407  12.109  15.301  1.00  0.00     0.019 C 
BRANCH   8  12
HETATM   12  C2  UNL     1      10.187  12.181  20.970  1.00  0.00     0.035 C 
HETATM   13  C1  UNL     1       9.535  10.983  21.639  1.00  0.00     0.016 C 
HETATM   14  C3  UNL     1       9.829  13.434  21.733  1.00  0.00     0.016 C 
ENDBRANCH   8  12
ENDBRANCH   2   4
BRANCH   2  15
HETATM   15  O2  UNL     1       6.746  12.722  17.391  1.00  0.00    -0.387 OA
ATOM     16  H2  UNL     1       5.848  12.484  17.593  1.00  0.00     0.210 HD
ENDBRANCH   2  15
ENDBRANCH   1   2
BRANCH   1  17
HETATM   17  N1  UNL     1       6.204  10.060  17.058  1.00  0.00    -0.064 N 
ATOM     18  H13 UNL     1       6.747  10.463  17.822  1.00  0.00     0.275 HD
ATOM     19  H12 UNL     1       5.342   9.860  17.564  1.00  0.00     0.275 HD
ATOM     20  H11 UNL     1       6.635   9.207  16.702  1.00  0.00     0.275 HD
ENDBRANCH   1  17
BRANCH   1  21
HETATM   21  C14 UNL     1       5.753  10.412  14.703  1.00  0.00     0.253 C 
HETATM   22  O3  UNL     1       5.308  11.113  13.767  1.00  0.00    -0.271 OA
HETATM   23  N2  UNL     1       6.022   9.046  14.465  1.00  0.00    -0.347 N 
HETATM   24  C15 UNL     1       6.400   8.185  15.572  1.00  0.00     0.145 C 
HETATM   25  C24 UNL     1       5.953   8.545  13.119  1.00  0.00     0.145 C 
HETATM   26  C16 UNL     1       5.572   6.883  15.393  1.00  0.00     0.144 C 
HETATM   27  N3  UNL     1       6.129   6.339  14.142  1.00  0.00    -0.364 N 
HETATM   28  C23 UNL     1       5.842   7.070  12.948  1.00  0.00     0.144 C 
BRANCH  27  29
HETATM   29  C17 UNL     1       6.869   5.137  14.238  1.00  0.00     0.103 A 
HETATM   30  C18 UNL     1       7.577   4.809  15.357  1.00  0.00     0.049 A 
HETATM   31  C19 UNL     1       8.292   3.607  15.414  1.00  0.00     0.021 A 
HETATM   32  C20 UNL     1       8.246   2.787  14.311  1.00  0.00     0.063 A 
HETATM   33  C22 UNL     1       7.509   3.159  13.186  1.00  0.00     0.106 A 
HETATM   34  N4  UNL     1       6.833   4.315  13.151  1.00  0.00    -0.352 N 
ATOM     35  H4  UNL     1       6.299   4.577  12.323  1.00  0.00     0.166 HD
BRANCH  32  36
HETATM   36  C21 UNL     1       8.966   1.507  14.307  1.00  0.00     0.418 C 
HETATM   37  F1  UNL     1      10.347   1.671  14.258  1.00  0.00    -0.166 F 
HETATM   38  F2  UNL     1       8.660   0.783  15.466  1.00  0.00    -0.166 F 
HETATM   39  F3  UNL     1       8.554   0.788  13.199  1.00  0.00    -0.166 F 
ENDBRANCH  32  36
ENDBRANCH  27  29
ENDBRANCH   1  21
TORSDOF 8
ENDMDL
MODEL 2
REMARK VINA RESULT: -10.726477112      0.638      1.093
REMARK  8 active torsions:
REMARK  status: ('A' for Active; 'I' for Inactive)
REMARK    1  A    between atoms: C2_2  and  C4_4 
REMARK    2  A    between atoms: C10_11  and  C11_12 
REMARK    3  A    between atoms: C11_12  and  O2_14 
REMARK    4  A    between atoms: C11_12  and  C13_16 
REMARK    5  A    between atoms: C13_16  and  N1_17 
REMARK    6  A    between atoms: C13_16  and  C14_21 
REMARK       I    between atoms: C14_21  and  N2_23 
REMARK    7  A    between atoms: N3_26  and  C17_27 
REMARK    8  A    between atoms: C20_30  and  C21_31 
ROOT
HETATM    1  C13 UNL     1       5.961  10.971  15.843  1.00  0.00     0.309 C 
ENDROOT
BRANCH   1   2
HETATM    2  C11 UNL     1       6.924  12.106  15.887  1.00  0.00     0.099 C 
HETATM    3  C12 UNL     1       6.628  13.165  14.917  1.00  0.00     0.049 C 
BRANCH   2   4
HETATM    4  C10 UNL     1       8.312  11.607  15.980  1.00  0.00     0.058 C 
HETATM    5  C6  UNL     1       8.921  11.926  17.331  1.00  0.00    -0.019 A 
HETATM    6  C5  UNL     1       8.912  11.587  18.675  1.00  0.00     0.043 A 
HETATM    7  C7  UNL     1       9.861  12.919  17.205  1.00  0.00     0.060 A 
HETATM    8  C4  UNL     1       9.846  12.390  19.295  1.00  0.00     0.057 A 
HETATM    9  O1  UNL     1      10.374  13.157  18.370  1.00  0.00    -0.319 OA
HETATM   10  C8  UNL     1       9.918  13.334  15.754  1.00  0.00     0.066 C 
HETATM   11  C9  UNL     1       9.352  12.098  15.078  1.00  0.00     0.019 C 
BRANCH   8  12
HETATM   12  C2  UNL     1      10.192  12.383  20.732  1.00  0.00     0.035 C 
HETATM   13  C1  UNL     1       9.562  11.203  21.451  1.00  0.00     0.016 C 
HETATM   14  C3  UNL     1       9.829  13.658  21.453  1.00  0.00     0.016 C 
ENDBRANCH   8  12
ENDBRANCH   2   4
BRANCH   2  15
HETATM   15  O2  UNL     1       6.696  12.720  17.185  1.00  0.00    -0.387 OA
ATOM     16  H2  UNL     1       5.847  13.137  17.088  1.00  0.00     0.210 HD
ENDBRANCH   2  15
ENDBRANCH   1   2
BRANCH   1  17
HETATM   17  N1  UNL     1       6.160  10.075  16.935  1.00  0.00    -0.064 N 
ATOM     18  H13 UNL     1       7.127   9.755  16.983  1.00  0.00     0.275 HD
ATOM     19  H12 UNL     1       6.109  10.561  17.830  1.00  0.00     0.275 HD
ATOM     20  H11 UNL     1       5.508   9.292  16.898  1.00  0.00     0.275 HD
ENDBRANCH   1  17
BRANCH   1  21
HETATM   21  C14 UNL     1       5.773  10.310  14.554  1.00  0.00     0.253 C 
HETATM   22  O3  UNL     1       5.354  10.961  13.572  1.00  0.00    -0.271 OA
HETATM   23  N2  UNL     1       6.060   8.936  14.391  1.00  0.00    -0.347 N 
HETATM   24  C15 UNL     1       6.408   8.133  15.549  1.00  0.00     0.145 C 
HETATM   25  C24 UNL     1       6.038   8.371  13.069  1.00  0.00     0.145 C 
HETATM   26  C16 UNL     1       5.597   6.816  15.407  1.00  0.00     0.144 C 
HETATM   27  N3  UNL     1       6.199   6.218  14.202  1.00  0.00    -0.364 N 
HETATM   28  C23 UNL     1       5.945   6.889  12.966  1.00  0.00     0.144 C 
BRANCH  27  29
HETATM   29  C17 UNL     1       6.944   5.029  14.379  1.00  0.00     0.103 A 
HETATM   30  C18 UNL     1       7.029   4.075  13.408  1.00  0.00     0.049 A 
HETATM   31  C19 UNL     1       7.782   2.914  13.620  1.00  0.00     0.021 A 
HETATM   32  C20 UNL     1       8.422   2.784  14.831  1.00  0.00     0.063 A 
HETATM   33  C22 UNL     1       8.310   3.785  15.798  1.00  0.00     0.106 A 
HETATM   34  N4  UNL     1       7.583   4.887  15.576  1.00  0.00    -0.352 N 
ATOM     35  H4  UNL     1       7.508   5.609  16.291  1.00  0.00     0.166 HD
BRANCH  32  36
HETATM   36  C21 UNL     1       9.236   1.596  15.117  1.00  0.00     0.418 C 
HETATM   37  F1  UNL     1       9.406   0.784  14.000  1.00  0.00    -0.166 F 
HETATM   38  F2  UNL     1      10.506   1.983  15.563  1.00  0.00    -0.166 F 
HETATM   39  F3  UNL     1       8.603   0.874  16.112  1.00  0.00    -0.166 F 
ENDBRANCH  32  36
ENDBRANCH  27  29
ENDBRANCH   1  21
TORSDOF 8
ENDMDL
MODEL 3
REMARK VINA RESULT: -10.361247204      2.646      3.322
REMARK  8 active torsions:
REMARK  status: ('A' for Active; 'I' for Inactive)
REMARK    1  A    between atoms: C2_2  and  C4_4 
REMARK    2  A    between atoms: C10_11  and  C11_12 
REMARK    3  A    between atoms: C11_12  and  O2_14 
REMARK    4  A    between atoms: C11_12  and  C13_16 
REMARK    5  A    between atoms: C13_16  and  N1_17 
REMARK    6  A    between atoms: C13_16  and  C14_21 
REMARK       I    between atoms: C14_21  and  N2_23 
REMARK    7  A    between atoms: N3_26  and  C17_27 
REMARK    8  A    between atoms: C20_30  and  C21_31 
ROOT
HETATM    1  C13 UNL     1       6.529  10.816  14.806  1.00  0.00     0.309 C 
ENDROOT
BRANCH   1   2
HETATM    2  C11 UNL     1       7.221  11.983  15.419  1.00  0.00     0.099 C 
HETATM    3  C12 UNL     1       6.809  13.272  14.857  1.00  0.00     0.049 C 
BRANCH   2   4
HETATM    4  C10 UNL     1       8.666  11.711  15.568  1.00  0.00     0.058 C 
HETATM    5  C6  UNL     1       9.156  12.082  16.954  1.00  0.00    -0.019 A 
HETATM    6  C5  UNL     1       9.142  11.706  18.288  1.00  0.00     0.043 A 
HETATM    7  C7  UNL     1       9.926  13.217  16.896  1.00  0.00     0.060 A 
HETATM    8  C4  UNL     1       9.905  12.629  18.970  1.00  0.00     0.057 A 
HETATM    9  O1  UNL     1      10.342  13.499  18.090  1.00  0.00    -0.319 OA
HETATM   10  C8  UNL     1       9.979  13.680  15.461  1.00  0.00     0.066 C 
HETATM   11  C9  UNL     1       9.651  12.391  14.729  1.00  0.00     0.019 C 
BRANCH   8  12
HETATM   12  C2  UNL     1      10.184  12.633  20.422  1.00  0.00     0.035 C 
HETATM   13  C1  UNL     1       9.503  11.471  21.124  1.00  0.00     0.016 C 
HETATM   14  C3  UNL     1       9.807  13.922  21.111  1.00  0.00     0.016 C 
ENDBRANCH   8  12
ENDBRANCH   2   4
BRANCH   2  15
HETATM   15  O2  UNL     1       6.737  12.007  16.791  1.00  0.00    -0.387 OA
ATOM     16  H2  UNL     1       6.212  11.217  16.855  1.00  0.00     0.210 HD
ENDBRANCH   2  15
ENDBRANCH   1   2
BRANCH   1  17
HETATM   17  N1  UNL     1       5.318  11.208  14.161  1.00  0.00    -0.064 N 
ATOM     18  H13 UNL     1       4.919  12.042  14.592  1.00  0.00     0.275 HD
ATOM     19  H12 UNL     1       5.495  11.581  13.229  1.00  0.00     0.275 HD
ATOM     20  H11 UNL     1       4.644  10.443  14.135  1.00  0.00     0.275 HD
ENDBRANCH   1  17
BRANCH   1  21
HETATM   21  C14 UNL     1       6.407   9.612  15.624  1.00  0.00     0.253 C 
HETATM   22  O3  UNL     1       6.544   9.682  16.865  1.00  0.00    -0.271 OA
HETATM   23  N2  UNL     1       6.133   8.356  15.036  1.00  0.00    -0.347 N 
HETATM   24  C15 UNL     1       6.114   8.229  13.590  1.00  0.00     0.145 C 
HETATM   25  C24 UNL     1       5.840   7.237  15.889  1.00  0.00     0.145 C 
HETATM   26  C16 UNL     1       6.906   6.931  13.272  1.00  0.00     0.144 C 
HETATM   27  N3  UNL     1       6.041   5.896  13.862  1.00  0.00    -0.364 N 
HETATM   28  C23 UNL     1       5.953   5.879  15.289  1.00  0.00     0.144 C 
BRANCH  27  29
HETATM   29  C17 UNL     1       5.403   5.005  12.967  1.00  0.00     0.103 A 
HETATM   30  C18 UNL     1       5.203   3.690  13.272  1.00  0.00     0.049 A 
HETATM   31  C19 UNL     1       4.562   2.843  12.361  1.00  0.00     0.021 A 
HETATM   32  C20 UNL     1       4.150   3.387  11.166  1.00  0.00     0.063 A 
HETATM   33  C22 UNL     1       4.374   4.738  10.894  1.00  0.00     0.106 A 
HETATM   34  N4  UNL     1       4.990   5.532  11.779  1.00  0.00    -0.352 N 
ATOM     35  H4  UNL     1       5.149   6.516  11.567  1.00  0.00     0.166 HD
BRANCH  32  36
HETATM   36  C21 UNL     1       3.464   2.557  10.169  1.00  0.00     0.418 C 
HETATM   37  F1  UNL     1       4.327   1.677   9.522  1.00  0.00    -0.166 F 
HETATM   38  F2  UNL     1       2.462   1.798  10.787  1.00  0.00    -0.166 F 
HETATM   39  F3  UNL     1       2.888   3.399   9.235  1.00  0.00    -0.166 F 
ENDBRANCH  32  36
ENDBRANCH  27  29
ENDBRANCH   1  21
TORSDOF 8
ENDMDL
MODEL 4
REMARK VINA RESULT: -10.105502686      2.271      3.037
REMARK  8 active torsions:
REMARK  status: ('A' for Active; 'I' for Inactive)
REMARK    1  A    between atoms: C2_2  and  C4_4 
REMARK    2  A    between atoms: C10_11  and  C11_12 
REMARK    3  A    between atoms: C11_12  and  O2_14 
REMARK    4  A    between atoms: C11_12  and  C13_16 
REMARK    5  A    between atoms: C13_16  and  N1_17 
REMARK    6  A    between atoms: C13_16  and  C14_21 
REMARK       I    between atoms: C14_21  and  N2_23 
REMARK    7  A    between atoms: N3_26  and  C17_27 
REMARK    8  A    between atoms: C20_30  and  C21_31 
ROOT
HETATM    1  C13 UNL     1       6.219  10.652  14.731  1.00  0.00     0.309 C 
ENDROOT
BRANCH   1   2
HETATM    2  C11 UNL     1       6.951  11.860  15.202  1.00  0.00     0.099 C 
HETATM    3  C12 UNL     1       6.502  13.103  14.566  1.00  0.00     0.049 C 
BRANCH   2   4
HETATM    4  C10 UNL     1       8.403  11.594  15.276  1.00  0.00     0.058 C 
HETATM    5  C6  UNL     1       8.977  12.042  16.605  1.00  0.00    -0.019 A 
HETATM    6  C5  UNL     1       9.046  11.742  17.957  1.00  0.00     0.043 A 
HETATM    7  C7  UNL     1       9.741  13.169  16.436  1.00  0.00     0.060 A 
HETATM    8  C4  UNL     1       9.849  12.700  18.537  1.00  0.00     0.057 A 
HETATM    9  O1  UNL     1      10.230  13.517  17.584  1.00  0.00    -0.319 OA
HETATM   10  C8  UNL     1       9.705  13.550  14.975  1.00  0.00     0.066 C 
HETATM   11  C9  UNL     1       9.333  12.222  14.340  1.00  0.00     0.019 C 
BRANCH   8  12
HETATM   12  C2  UNL     1      10.218  12.786  19.966  1.00  0.00     0.035 C 
HETATM   13  C1  UNL     1       9.623  11.640  20.765  1.00  0.00     0.016 C 
HETATM   14  C3  UNL     1       9.840  14.096  20.615  1.00  0.00     0.016 C 
ENDBRANCH   8  12
ENDBRANCH   2   4
BRANCH   2  15
HETATM   15  O2  UNL     1       6.559  11.997  16.596  1.00  0.00    -0.387 OA
ATOM     16  H2  UNL     1       5.624  11.824  16.582  1.00  0.00     0.210 HD
ENDBRANCH   2  15
ENDBRANCH   1   2
BRANCH   1  17
HETATM   17  N1  UNL     1       4.895  10.975  14.311  1.00  0.00    -0.064 N 
ATOM     18  H13 UNL     1       4.249  10.206  14.491  1.00  0.00     0.275 HD
ATOM     19  H12 UNL     1       4.473  11.680  14.916  1.00  0.00     0.275 HD
ATOM     20  H11 UNL     1       4.872  11.260  13.333  1.00  0.00     0.275 HD
ENDBRANCH   1  17
BRANCH   1  21
HETATM   21  C14 UNL     1       6.307   9.456  15.566  1.00  0.00     0.253 C 
HETATM   22  O3  UNL     1       6.472   9.566  16.801  1.00  0.00    -0.271 OA
HETATM   23  N2  UNL     1       6.206   8.165  15.002  1.00  0.00    -0.347 N 
HETATM   24  C15 UNL     1       6.160   8.012  13.558  1.00  0.00     0.145 C 
HETATM   25  C24 UNL     1       6.112   7.027  15.876  1.00  0.00     0.145 C 
HETATM   26  C16 UNL     1       7.127   6.843  13.228  1.00  0.00     0.144 C 
HETATM   27  N3  UNL     1       6.446   5.699  13.859  1.00  0.00    -0.364 N 
HETATM   28  C23 UNL     1       6.408   5.692  15.288  1.00  0.00     0.144 C 
BRANCH  27  29
HETATM   29  C17 UNL     1       5.921   4.709  12.996  1.00  0.00     0.103 A 
HETATM   30  C18 UNL     1       4.739   4.876  12.335  1.00  0.00     0.049 A 
HETATM   31  C19 UNL     1       4.257   3.874  11.485  1.00  0.00     0.021 A 
HETATM   32  C20 UNL     1       5.016   2.735  11.350  1.00  0.00     0.063 A 
HETATM   33  C22 UNL     1       6.220   2.604  12.044  1.00  0.00     0.106 A 
HETATM   34  N4  UNL     1       6.663   3.574  12.853  1.00  0.00    -0.352 N 
ATOM     35  H4  UNL     1       7.544   3.466  13.356  1.00  0.00     0.166 HD
BRANCH  32  36
HETATM   36  C21 UNL     1       4.573   1.647  10.468  1.00  0.00     0.418 C 
HETATM   37  F1  UNL     1       3.836   2.108   9.382  1.00  0.00    -0.166 F 
HETATM   38  F2  UNL     1       5.683   0.954   9.970  1.00  0.00    -0.166 F 
HETATM   39  F3  UNL     1       3.792   0.783  11.215  1.00  0.00    -0.166 F 
ENDBRANCH  32  36
ENDBRANCH  27  29
ENDBRANCH   1  21
TORSDOF 8
ENDMDL
MODEL 5
REMARK VINA RESULT: -9.866775507      2.985      3.813
REMARK  8 active torsions:
REMARK  status: ('A' for Active; 'I' for Inactive)
REMARK    1  A    between atoms: C2_2  and  C4_4 
REMARK    2  A    between atoms: C10_11  and  C11_12 
REMARK    3  A    between atoms: C11_12  and  O2_14 
REMARK    4  A    between atoms: C11_12  and  C13_16 
REMARK    5  A    between atoms: C13_16  and  N1_17 
REMARK    6  A    between atoms: C13_16  and  C14_21 
REMARK       I    between atoms: C14_21  and  N2_23 
REMARK    7  A    between atoms: N3_26  and  C17_27 
REMARK    8  A    between atoms: C20_30  and  C21_31 
ROOT
HETATM    1  C13 UNL     1       5.988  11.004  15.982  1.00  0.00     0.309 C 
ENDROOT
BRANCH   1   2
HETATM    2  C11 UNL     1       6.859  12.050  15.379  1.00  0.00     0.099 C 
HETATM    3  C12 UNL     1       6.363  12.561  14.098  1.00  0.00     0.049 C 
BRANCH   2   4
HETATM    4  C10 UNL     1       8.282  11.663  15.477  1.00  0.00     0.058 C 
HETATM    5  C6  UNL     1       8.925  12.241  16.721  1.00  0.00    -0.019 A 
HETATM    6  C5  UNL     1       8.999  12.133  18.101  1.00  0.00     0.043 A 
HETATM    7  C7  UNL     1       9.785  13.256  16.382  1.00  0.00     0.060 A 
HETATM    8  C4  UNL     1       9.899  13.086  18.528  1.00  0.00     0.057 A 
HETATM    9  O1  UNL     1      10.330  13.718  17.463  1.00  0.00    -0.319 OA
HETATM   10  C8  UNL     1       9.749  13.425  14.883  1.00  0.00     0.066 C 
HETATM   11  C9  UNL     1       9.244  12.060  14.451  1.00  0.00     0.019 C 
BRANCH   8  12
HETATM   12  C2  UNL     1      10.307  13.341  19.926  1.00  0.00     0.035 C 
HETATM   13  C1  UNL     1       9.899  12.201  20.843  1.00  0.00     0.016 C 
HETATM   14  C3  UNL     1       9.786  14.642  20.485  1.00  0.00     0.016 C 
ENDBRANCH   8  12
ENDBRANCH   2   4
BRANCH   2  15
HETATM   15  O2  UNL     1       6.750  13.177  16.292  1.00  0.00    -0.387 OA
ATOM     16  H2  UNL     1       6.951  13.928  15.744  1.00  0.00     0.210 HD
ENDBRANCH   2  15
ENDBRANCH   1   2
BRANCH   1  17
HETATM   17  N1  UNL     1       5.305  11.494  17.134  1.00  0.00    -0.064 N 
ATOM     18  H13 UNL     1       4.299  11.547  16.978  1.00  0.00     0.275 HD
ATOM     19  H12 UNL     1       5.312  10.810  17.891  1.00  0.00     0.275 HD
ATOM     20  H11 UNL     1       5.683  12.391  17.439  1.00  0.00     0.275 HD
ENDBRANCH   1  17
BRANCH   1  21
HETATM   21  C14 UNL     1       6.569   9.674  16.152  1.00  0.00     0.253 C 
HETATM   22  O3  UNL     1       7.300   9.433  17.137  1.00  0.00    -0.271 OA
HETATM   23  N2  UNL     1       6.317   8.644  15.218  1.00  0.00    -0.347 N 
HETATM   24  C15 UNL     1       5.592   8.943  13.996  1.00  0.00     0.145 C 
HETATM   25  C24 UNL     1       6.754   7.308  15.520  1.00  0.00     0.145 C 
HETATM   26  C16 UNL     1       6.373   8.231  12.859  1.00  0.00     0.144 C 
HETATM   27  N3  UNL     1       6.182   6.812  13.202  1.00  0.00    -0.364 N 
HETATM   28  C23 UNL     1       6.840   6.350  14.384  1.00  0.00     0.144 C 
BRANCH  27  29
HETATM   29  C17 UNL     1       5.390   6.039  12.320  1.00  0.00     0.103 A 
HETATM   30  C18 UNL     1       5.077   4.736  12.579  1.00  0.00     0.049 A 
HETATM   31  C19 UNL     1       4.287   4.007  11.683  1.00  0.00     0.021 A 
HETATM   32  C20 UNL     1       3.846   4.654  10.552  1.00  0.00     0.063 A 
HETATM   33  C22 UNL     1       4.189   5.988  10.325  1.00  0.00     0.106 A 
HETATM   34  N4  UNL     1       4.948   6.667  11.194  1.00  0.00    -0.352 N 
ATOM     35  H4  UNL     1       5.192   7.641  11.016  1.00  0.00     0.166 HD
BRANCH  32  36
HETATM   36  C21 UNL     1       3.006   3.951   9.574  1.00  0.00     0.418 C 
HETATM   37  F1  UNL     1       2.888   4.645   8.375  1.00  0.00    -0.166 F 
HETATM   38  F2  UNL     1       3.553   2.693   9.291  1.00  0.00    -0.166 F 
HETATM   39  F3  UNL     1       1.750   3.787  10.131  1.00  0.00    -0.166 F 
ENDBRANCH  32  36
ENDBRANCH  27  29
ENDBRANCH   1  21
TORSDOF 8
ENDMDL
