MODEL 1
REMARK VINA RESULT: -6.844509436      0.000      0.000
REMARK  7 active torsions:
REMARK  status: ('A' for Active; 'I' for Inactive)
REMARK    1  A    between atoms: C2_2  and  O1_3 
REMARK    2  A    between atoms: O1_3  and  C3_4 
REMARK       I    between atoms: C3_4  and  N1_6 
REMARK    3  A    between atoms: N1_6  and  C4_8 
REMARK    4  A    between atoms: N2_12  and  C8_13 
REMARK    5  A    between atoms: C13_19  and  C14_20 
REMARK    6  A    between atoms: N3_24  and  C16_25 
REMARK    7  A    between atoms: C20_29  and  C21_30 
ROOT
HETATM    1  C8  UNL     1       5.826   8.762  13.619  1.00  0.00     0.047 A 
HETATM    2  C9  UNL     1       5.356   9.241  12.357  1.00  0.00     0.031 A 
HETATM    3  C10 UNL     1       4.965   8.338  11.451  1.00  0.00     0.020 A 
HETATM    4  C11 UNL     1       4.994   6.990  11.693  1.00  0.00     0.043 A 
HETATM    5  C12 UNL     1       4.572   6.117  10.716  1.00  0.00     0.202 A 
HETATM    6  O3  UNL     1       4.184   6.592   9.621  1.00  0.00    -0.286 OA
HETATM    7  C13 UNL     1       4.590   4.777  10.968  1.00  0.00     0.107 A 
HETATM    8  C15 UNL     1       5.018   4.327  12.183  1.00  0.00     0.114 A 
HETATM    9  N3  UNL     1       5.439   5.203  13.165  1.00  0.00    -0.349 N 
HETATM   10  C19 UNL     1       5.451   6.511  12.942  1.00  0.00     0.066 A 
HETATM   11  C20 UNL     1       5.894   7.426  13.935  1.00  0.00     0.102 A 
ENDROOT
BRANCH   1  12
HETATM   12  N2  UNL     1       6.137   9.808  14.523  1.00  0.00    -0.380 N 
HETATM   13  C7  UNL     1       6.815  10.916  13.906  1.00  0.00     0.123 C 
HETATM   14  C6  UNL     1       7.025  12.114  14.814  1.00  0.00     0.022 C 
HETATM   15  C5  UNL     1       8.052  11.743  15.840  1.00  0.00     0.027 C 
HETATM   16  C4  UNL     1       7.514  10.955  16.994  1.00  0.00     0.088 C 
HETATM   17  C23 UNL     1       6.076  10.603  16.901  1.00  0.00     0.045 C 
HETATM   18  C22 UNL     1       5.605   9.702  15.842  1.00  0.00     0.125 C 
BRANCH  16  19
HETATM   19  N1  UNL     1       7.814  11.591  18.261  1.00  0.00    -0.332 N 
HETATM   20  C3  UNL     1       9.138  11.794  18.670  1.00  0.00     0.360 C 
HETATM   21  O2  UNL     1      10.108  11.419  17.922  1.00  0.00    -0.239 OA
ATOM     22  H1  UNL     1       7.050  11.894  18.865  1.00  0.00     0.165 HD
BRANCH  20  23
HETATM   23  O1  UNL     1       9.498  12.392  19.868  1.00  0.00    -0.304 OA
BRANCH  23  24
HETATM   24  C2  UNL     1       9.977  11.676  20.963  1.00  0.00     0.176 C 
HETATM   25  C1  UNL     1       9.932  12.558  22.204  1.00  0.00     0.034 C 
ENDBRANCH  23  24
ENDBRANCH  20  23
ENDBRANCH  16  19
ENDBRANCH   1  12
BRANCH  11  26
HETATM   26  C21 UNL     1       6.589   6.837  15.057  1.00  0.00     0.421 C 
HETATM   27  F1  UNL     1       6.236   6.970  16.362  1.00  0.00    -0.166 F 
HETATM   28  F2  UNL     1       7.446   8.021  15.318  1.00  0.00    -0.166 F 
HETATM   29  F3  UNL     1       7.829   6.215  14.794  1.00  0.00    -0.166 F 
ENDBRANCH  11  26
BRANCH   9  30
HETATM   30  C16 UNL     1       5.581   4.614  14.511  1.00  0.00     0.090 A 
HETATM   31  C17 UNL     1       5.156   3.191  14.793  1.00  0.00     0.028 A 
HETATM   32  C18 UNL     1       6.495   3.331  14.376  1.00  0.00     0.028 A 
ENDBRANCH   9  30
BRANCH   7  33
HETATM   33  C14 UNL     1       4.154   3.804   9.941  1.00  0.00     0.214 C 
HETATM   34  O4  UNL     1       3.004   3.351   9.965  1.00  0.00    -0.644 OA
HETATM   35  O5  UNL     1       5.030   3.397   8.955  1.00  0.00    -0.644 OA
ENDBRANCH   7  33
TORSDOF 7
ENDMDL
MODEL 2
REMARK VINA RESULT: -6.378800067      1.107      1.217
REMARK  7 active torsions:
REMARK  status: ('A' for Active; 'I' for Inactive)
REMARK    1  A    between atoms: C2_2  and  O1_3 
REMARK    2  A    between atoms: O1_3  and  C3_4 
REMARK       I    between atoms: C3_4  and  N1_6 
REMARK    3  A    between atoms: N1_6  and  C4_8 
REMARK    4  A    between atoms: N2_12  and  C8_13 
REMARK    5  A    between atoms: C13_19  and  C14_20 
REMARK    6  A    between atoms: N3_24  and  C16_25 
REMARK    7  A    between atoms: C20_29  and  C21_30 
ROOT
HETATM    1  C8  UNL     1       5.597   8.201  13.051  1.00  0.00     0.047 A 
HETATM    2  C9  UNL     1       5.053   8.455  11.754  1.00  0.00     0.031 A 
HETATM    3  C10 UNL     1       4.709   7.403  11.002  1.00  0.00     0.020 A 
HETATM    4  C11 UNL     1       4.853   6.111  11.433  1.00  0.00     0.043 A 
HETATM    5  C12 UNL     1       4.473   5.076  10.608  1.00  0.00     0.202 A 
HETATM    6  O3  UNL     1       4.015   5.357   9.474  1.00  0.00    -0.286 OA
HETATM    7  C13 UNL     1       4.606   3.792  11.048  1.00  0.00     0.107 A 
HETATM    8  C15 UNL     1       5.104   3.557  12.296  1.00  0.00     0.114 A 
HETATM    9  N3  UNL     1       5.483   4.595  13.125  1.00  0.00    -0.349 N 
HETATM   10  C19 UNL     1       5.384   5.854  12.717  1.00  0.00     0.066 A 
HETATM   11  C20 UNL     1       5.782   6.934  13.552  1.00  0.00     0.102 A 
ENDROOT
BRANCH   1  12
HETATM   12  N2  UNL     1       5.851   9.388  13.783  1.00  0.00    -0.380 N 
HETATM   13  C7  UNL     1       6.431  10.438  12.990  1.00  0.00     0.123 C 
HETATM   14  C6  UNL     1       6.573  11.768  13.707  1.00  0.00     0.022 C 
HETATM   15  C5  UNL     1       7.647  11.625  14.741  1.00  0.00     0.027 C 
HETATM   16  C4  UNL     1       7.195  10.979  16.015  1.00  0.00     0.088 C 
HETATM   17  C23 UNL     1       5.785  10.518  16.021  1.00  0.00     0.045 C 
HETATM   18  C22 UNL     1       5.358   9.440  15.120  1.00  0.00     0.125 C 
BRANCH  16  19
HETATM   19  N1  UNL     1       7.476  11.813  17.166  1.00  0.00    -0.332 N 
HETATM   20  C3  UNL     1       8.789  12.172  17.493  1.00  0.00     0.360 C 
HETATM   21  O2  UNL     1       9.767  11.765  16.772  1.00  0.00    -0.239 OA
ATOM     22  H1  UNL     1       6.705  12.144  17.747  1.00  0.00     0.165 HD
BRANCH  20  23
HETATM   23  O1  UNL     1       9.131  12.964  18.578  1.00  0.00    -0.304 OA
BRANCH  23  24
HETATM   24  C2  UNL     1      10.424  13.032  19.094  1.00  0.00     0.176 C 
HETATM   25  C1  UNL     1      10.943  14.459  18.971  1.00  0.00     0.034 C 
ENDBRANCH  23  24
ENDBRANCH  20  23
ENDBRANCH  16  19
ENDBRANCH   1  12
BRANCH  11  26
HETATM   26  C21 UNL     1       6.555   6.569  14.716  1.00  0.00     0.421 C 
HETATM   27  F1  UNL     1       6.292   6.956  15.992  1.00  0.00    -0.166 F 
HETATM   28  F2  UNL     1       7.422   7.773  14.683  1.00  0.00    -0.166 F 
HETATM   29  F3  UNL     1       7.776   5.896  14.495  1.00  0.00    -0.166 F 
ENDBRANCH  11  26
BRANCH   9  30
HETATM   30  C16 UNL     1       5.712   4.220  14.535  1.00  0.00     0.090 A 
HETATM   31  C17 UNL     1       5.307   2.862  15.060  1.00  0.00     0.028 A 
HETATM   32  C18 UNL     1       6.616   2.924  14.542  1.00  0.00     0.028 A 
ENDBRANCH   9  30
BRANCH   7  33
HETATM   33  C14 UNL     1       4.219   2.650  10.190  1.00  0.00     0.214 C 
HETATM   34  O4  UNL     1       3.139   2.075  10.373  1.00  0.00    -0.644 OA
HETATM   35  O5  UNL     1       5.061   2.223   9.183  1.00  0.00    -0.644 OA
ENDBRANCH   7  33
TORSDOF 7
ENDMDL
MODEL 3
REMARK VINA RESULT: -4.952508429      5.485      7.815
REMARK  7 active torsions:
REMARK  status: ('A' for Active; 'I' for Inactive)
REMARK    1  A    between atoms: C2_2  and  O1_3 
REMARK    2  A    between atoms: O1_3  and  C3_4 
REMARK       I    between atoms: C3_4  and  N1_6 
REMARK    3  A    between atoms: N1_6  and  C4_8 
REMARK    4  A    between atoms: N2_12  and  C8_13 
REMARK    5  A    between atoms: C13_19  and  C14_20 
REMARK    6  A    between atoms: N3_24  and  C16_25 
REMARK    7  A    between atoms: C20_29  and  C21_30 
ROOT
HETATM    1  C8  UNL     1       8.773  11.355  18.780  1.00  0.00     0.047 A 
HETATM    2  C9  UNL     1       7.467  10.777  18.832  1.00  0.00     0.031 A 
HETATM    3  C10 UNL     1       6.731  10.792  17.714  1.00  0.00     0.020 A 
HETATM    4  C11 UNL     1       7.185  11.331  16.540  1.00  0.00     0.043 A 
HETATM    5  C12 UNL     1       6.375  11.308  15.427  1.00  0.00     0.202 A 
HETATM    6  O3  UNL     1       5.231  10.801  15.534  1.00  0.00    -0.286 OA
HETATM    7  C13 UNL     1       6.838  11.833  14.256  1.00  0.00     0.107 A 
HETATM    8  C15 UNL     1       8.094  12.362  14.208  1.00  0.00     0.114 A 
HETATM    9  N3  UNL     1       8.909  12.382  15.324  1.00  0.00    -0.349 N 
HETATM   10  C19 UNL     1       8.478  11.897  16.481  1.00  0.00     0.066 A 
HETATM   11  C20 UNL     1       9.297  11.922  17.642  1.00  0.00     0.102 A 
ENDROOT
BRANCH   1  12
HETATM   12  N2  UNL     1       9.487  11.211  19.996  1.00  0.00    -0.380 N 
HETATM   13  C7  UNL     1      10.364  10.071  20.014  1.00  0.00     0.123 C 
HETATM   14  C6  UNL     1      11.253   9.977  21.241  1.00  0.00     0.022 C 
HETATM   15  C5  UNL     1      10.388   9.634  22.415  1.00  0.00     0.027 C 
HETATM   16  C4  UNL     1       9.672  10.804  23.016  1.00  0.00     0.088 C 
HETATM   17  C23 UNL     1       9.872  12.095  22.312  1.00  0.00     0.045 C 
HETATM   18  C22 UNL     1       9.372  12.272  20.942  1.00  0.00     0.125 C 
BRANCH  16  19
HETATM   19  N1  UNL     1       9.955  10.934  24.431  1.00  0.00    -0.332 N 
HETATM   20  C3  UNL     1       9.672   9.891  25.322  1.00  0.00     0.360 C 
HETATM   21  O2  UNL     1       9.157   8.799  24.892  1.00  0.00    -0.239 OA
ATOM     22  H1  UNL     1      10.365  11.799  24.785  1.00  0.00     0.165 HD
BRANCH  20  23
HETATM   23  O1  UNL     1       9.914   9.947  26.685  1.00  0.00    -0.304 OA
BRANCH  23  24
HETATM   24  C2  UNL     1      11.081   9.461  27.272  1.00  0.00     0.176 C 
HETATM   25  C1  UNL     1      11.298  10.150  28.613  1.00  0.00     0.034 C 
ENDBRANCH  23  24
ENDBRANCH  20  23
ENDBRANCH  16  19
ENDBRANCH   1  12
BRANCH  11  26
HETATM   26  C21 UNL     1      10.475  12.755  17.556  1.00  0.00     0.421 C 
HETATM   27  F1  UNL     1      11.758  12.308  17.538  1.00  0.00    -0.166 F 
HETATM   28  F2  UNL     1      10.680  12.849  19.023  1.00  0.00    -0.166 F 
HETATM   29  F3  UNL     1      10.289  14.150  17.668  1.00  0.00    -0.166 F 
ENDBRANCH  11  26
BRANCH   9  30
HETATM   30  C16 UNL     1      10.326  12.698  15.059  1.00  0.00     0.090 A 
HETATM   31  C17 UNL     1      10.822  12.961  13.656  1.00  0.00     0.028 A 
HETATM   32  C18 UNL     1      10.376  14.107  14.344  1.00  0.00     0.028 A 
ENDBRANCH   9  30
BRANCH   7  33
HETATM   33  C14 UNL     1       5.996  11.838  13.039  1.00  0.00     0.214 C 
HETATM   34  O4  UNL     1       5.498  12.894  12.634  1.00  0.00    -0.644 OA
HETATM   35  O5  UNL     1       5.763  10.662  12.353  1.00  0.00    -0.644 OA
ENDBRANCH   7  33
TORSDOF 7
ENDMDL
MODEL 4
REMARK VINA RESULT: -4.566877177      2.198      3.370
REMARK  7 active torsions:
REMARK  status: ('A' for Active; 'I' for Inactive)
REMARK    1  A    between atoms: C2_2  and  O1_3 
REMARK    2  A    between atoms: O1_3  and  C3_4 
REMARK       I    between atoms: C3_4  and  N1_6 
REMARK    3  A    between atoms: N1_6  and  C4_8 
REMARK    4  A    between atoms: N2_12  and  C8_13 
REMARK    5  A    between atoms: C13_19  and  C14_20 
REMARK    6  A    between atoms: N3_24  and  C16_25 
REMARK    7  A    between atoms: C20_29  and  C21_30 
ROOT
HETATM    1  C8  UNL     1       6.650   8.615  15.036  1.00  0.00     0.047 A 
HETATM    2  C9  UNL     1       7.119   7.573  15.895  1.00  0.00     0.031 A 
HETATM    3  C10 UNL     1       6.906   6.307  15.516  1.00  0.00     0.020 A 
HETATM    4  C11 UNL     1       6.270   5.984  14.347  1.00  0.00     0.043 A 
HETATM    5  C12 UNL     1       6.090   4.659  14.018  1.00  0.00     0.202 A 
HETATM    6  O3  UNL     1       6.508   3.785  14.817  1.00  0.00    -0.286 OA
HETATM    7  C13 UNL     1       5.469   4.343  12.845  1.00  0.00     0.107 A 
HETATM    8  C15 UNL     1       5.046   5.343  12.019  1.00  0.00     0.114 A 
HETATM    9  N3  UNL     1       5.229   6.672  12.348  1.00  0.00    -0.349 N 
HETATM   10  C19 UNL     1       5.812   7.010  13.490  1.00  0.00     0.066 A 
HETATM   11  C20 UNL     1       5.996   8.373  13.851  1.00  0.00     0.102 A 
ENDROOT
BRANCH   1  12
HETATM   12  N2  UNL     1       7.000   9.908  15.499  1.00  0.00    -0.380 N 
HETATM   13  C7  UNL     1       7.666  10.711  14.510  1.00  0.00     0.123 C 
HETATM   14  C6  UNL     1       7.915  12.149  14.925  1.00  0.00     0.022 C 
HETATM   15  C5  UNL     1       8.972  12.148  15.987  1.00  0.00     0.027 C 
HETATM   16  C4  UNL     1       8.467  11.832  17.361  1.00  0.00     0.088 C 
HETATM   17  C23 UNL     1       7.024  11.497  17.440  1.00  0.00     0.045 C 
HETATM   18  C22 UNL     1       6.511  10.287  16.784  1.00  0.00     0.125 C 
BRANCH  16  19
HETATM   19  N1  UNL     1       8.814  12.870  18.310  1.00  0.00    -0.332 N 
HETATM   20  C3  UNL     1       9.723  12.625  19.346  1.00  0.00     0.360 C 
HETATM   21  O2  UNL     1      10.265  11.471  19.468  1.00  0.00    -0.239 OA
ATOM     22  H1  UNL     1       8.389  13.794  18.222  1.00  0.00     0.165 HD
BRANCH  20  23
HETATM   23  O1  UNL     1      10.099  13.569  20.289  1.00  0.00    -0.304 OA
BRANCH  23  24
HETATM   24  C2  UNL     1       9.710  14.906  20.225  1.00  0.00     0.176 C 
HETATM   25  C1  UNL     1      10.948  15.790  20.157  1.00  0.00     0.034 C 
ENDBRANCH  23  24
ENDBRANCH  20  23
ENDBRANCH  16  19
ENDBRANCH   1  12
BRANCH  11  26
HETATM   26  C21 UNL     1       5.261   9.331  13.057  1.00  0.00     0.421 C 
HETATM   27  F1  UNL     1       5.233   9.375  11.700  1.00  0.00    -0.166 F 
HETATM   28  F2  UNL     1       6.391  10.284  12.921  1.00  0.00    -0.166 F 
HETATM   29  F3  UNL     1       4.660  10.410  13.742  1.00  0.00    -0.166 F 
ENDBRANCH  11  26
BRANCH   9  30
HETATM   30  C16 UNL     1       5.004   7.627  11.244  1.00  0.00     0.090 A 
HETATM   31  C17 UNL     1       4.820   7.152   9.821  1.00  0.00     0.028 A 
HETATM   32  C18 UNL     1       3.627   7.254  10.564  1.00  0.00     0.028 A 
ENDBRANCH   9  30
BRANCH   7  33
HETATM   33  C14 UNL     1       5.247   2.932  12.458  1.00  0.00     0.214 C 
HETATM   34  O4  UNL     1       6.040   2.365  11.698  1.00  0.00    -0.644 OA
HETATM   35  O5  UNL     1       4.152   2.244  12.944  1.00  0.00    -0.644 OA
ENDBRANCH   7  33
TORSDOF 7
ENDMDL
MODEL 5
REMARK VINA RESULT: -4.550438388      2.570      3.306
REMARK  7 active torsions:
REMARK  status: ('A' for Active; 'I' for Inactive)
REMARK    1  A    between atoms: C2_2  and  O1_3 
REMARK    2  A    between atoms: O1_3  and  C3_4 
REMARK       I    between atoms: C3_4  and  N1_6 
REMARK    3  A    between atoms: N1_6  and  C4_8 
REMARK    4  A    between atoms: N2_12  and  C8_13 
REMARK    5  A    between atoms: C13_19  and  C14_20 
REMARK    6  A    between atoms: N3_24  and  C16_25 
REMARK    7  A    between atoms: C20_29  and  C21_30 
ROOT
HETATM    1  C8  UNL     1       5.587   6.740  12.850  1.00  0.00     0.047 A 
HETATM    2  C9  UNL     1       4.845   7.041  11.667  1.00  0.00     0.031 A 
HETATM    3  C10 UNL     1       4.269   6.025  11.014  1.00  0.00     0.020 A 
HETATM    4  C11 UNL     1       4.362   4.727  11.440  1.00  0.00     0.043 A 
HETATM    5  C12 UNL     1       3.740   3.732  10.721  1.00  0.00     0.202 A 
HETATM    6  O3  UNL     1       3.114   4.052   9.681  1.00  0.00    -0.286 OA
HETATM    7  C13 UNL     1       3.823   2.442  11.159  1.00  0.00     0.107 A 
HETATM    8  C15 UNL     1       4.513   2.165  12.302  1.00  0.00     0.114 A 
HETATM    9  N3  UNL     1       5.136   3.164  13.026  1.00  0.00    -0.349 N 
HETATM   10  C19 UNL     1       5.088   4.424  12.614  1.00  0.00     0.066 A 
HETATM   11  C20 UNL     1       5.734   5.463  13.339  1.00  0.00     0.102 A 
ENDROOT
BRANCH   1  12
HETATM   12  N2  UNL     1       6.084   7.899  13.498  1.00  0.00    -0.380 N 
HETATM   13  C7  UNL     1       5.451   8.165  14.762  1.00  0.00     0.123 C 
HETATM   14  C6  UNL     1       6.064   9.308  15.548  1.00  0.00     0.022 C 
HETATM   15  C5  UNL     1       5.736  10.587  14.839  1.00  0.00     0.027 C 
HETATM   16  C4  UNL     1       6.631  10.897  13.679  1.00  0.00     0.088 C 
HETATM   17  C23 UNL     1       7.645   9.858  13.371  1.00  0.00     0.045 C 
HETATM   18  C22 UNL     1       7.222   8.528  12.913  1.00  0.00     0.125 C 
BRANCH  16  19
HETATM   19  N1  UNL     1       7.247  12.201  13.812  1.00  0.00    -0.332 N 
HETATM   20  C3  UNL     1       8.189  12.456  14.817  1.00  0.00     0.360 C 
HETATM   21  O2  UNL     1       8.522  11.530  15.637  1.00  0.00    -0.239 OA
ATOM     22  H1  UNL     1       6.990  12.946  13.164  1.00  0.00     0.165 HD
BRANCH  20  23
HETATM   23  O1  UNL     1       8.815  13.678  15.003  1.00  0.00    -0.304 OA
BRANCH  23  24
HETATM   24  C2  UNL     1       9.939  14.075  14.281  1.00  0.00     0.176 C 
HETATM   25  C1  UNL     1      11.125  13.203  14.670  1.00  0.00     0.034 C 
ENDBRANCH  23  24
ENDBRANCH  20  23
ENDBRANCH  16  19
ENDBRANCH   1  12
BRANCH  11  26
HETATM   26  C21 UNL     1       6.666   5.027  14.354  1.00  0.00     0.421 C 
HETATM   27  F1  UNL     1       6.686   5.456  15.643  1.00  0.00    -0.166 F 
HETATM   28  F2  UNL     1       7.636   6.126  14.124  1.00  0.00    -0.166 F 
HETATM   29  F3  UNL     1       7.745   4.219  13.935  1.00  0.00    -0.166 F 
ENDBRANCH  11  26
BRANCH   9  30
HETATM   30  C16 UNL     1       5.577   2.774  14.380  1.00  0.00     0.090 A 
HETATM   31  C17 UNL     1       5.114   1.484  15.015  1.00  0.00     0.028 A 
HETATM   32  C18 UNL     1       6.299   1.373  14.261  1.00  0.00     0.028 A 
ENDBRANCH   9  30
BRANCH   7  33
HETATM   33  C14 UNL     1       3.177   1.341  10.410  1.00  0.00     0.214 C 
HETATM   34  O4  UNL     1       3.779   0.785   9.484  1.00  0.00    -0.644 OA
HETATM   35  O5  UNL     1       1.901   0.933  10.742  1.00  0.00    -0.644 OA
ENDBRANCH   7  33
TORSDOF 7
ENDMDL
