MODEL 1
REMARK VINA RESULT: -8.190057030      0.000      0.000
REMARK  6 active torsions:
REMARK  status: ('A' for Active; 'I' for Inactive)
REMARK    1  A    between atoms: C1_2  and  C2_4 
REMARK    2  A    between atoms: C5_7  and  N2_8 
REMARK    3  A    between atoms: N2_8  and  C6_10 
REMARK    4  A    between atoms: N3_13  and  C9_14 
REMARK    5  A    between atoms: C12_17  and  C13_18 
REMARK       I    between atoms: C13_18  and  N4_20 
REMARK    6  A    between atoms: C20_27  and  C21_28 
ROOT
HETATM    1  C9  UNL     1       9.980  10.996  22.156  1.00  0.00     0.103 A 
HETATM    2  C10 UNL     1       9.675  10.205  21.042  1.00  0.00     0.049 A 
HETATM    3  C11 UNL     1       9.494  10.789  19.820  1.00  0.00     0.023 A 
HETATM    4  C12 UNL     1       9.603  12.173  19.631  1.00  0.00     0.063 A 
HETATM    5  C20 UNL     1       9.904  12.924  20.739  1.00  0.00     0.134 A 
HETATM    6  N5  UNL     1      10.077  12.302  21.946  1.00  0.00    -0.338 N 
ATOM      7  H5  UNL     1      10.300  12.890  22.749  1.00  0.00     0.167 HD
ENDROOT
BRANCH   1   8
HETATM    8  N3  UNL     1      10.166  10.377  23.413  1.00  0.00    -0.367 N 
HETATM    9  C8  UNL     1      10.832  11.073  24.481  1.00  0.00     0.126 C 
HETATM   10  C7  UNL     1      11.285  10.045  25.501  1.00  0.00     0.045 C 
HETATM   11  C6  UNL     1      10.096   9.345  26.113  1.00  0.00     0.086 C 
HETATM   12  C23 UNL     1       9.179   8.845  25.042  1.00  0.00     0.045 C 
HETATM   13  C22 UNL     1       9.689   9.048  23.638  1.00  0.00     0.126 C 
BRANCH  11  14
HETATM   14  N2  UNL     1       9.399  10.135  27.096  1.00  0.00    -0.366 N 
ATOM     15  H2  UNL     1       8.379  10.156  27.076  1.00  0.00     0.162 HD
BRANCH  14  16
HETATM   16  C5  UNL     1      10.078  10.885  28.093  1.00  0.00     0.144 A 
HETATM   17  C4  UNL     1       9.499  11.611  29.105  1.00  0.00     0.059 A 
HETATM   18  C3  UNL     1      10.517  12.173  29.833  1.00  0.00     0.047 A 
HETATM   19  C2  UNL     1      11.693  11.774  29.242  1.00  0.00     0.142 A 
HETATM   20  O3  UNL     1      11.384  11.026  28.232  1.00  0.00    -0.289 OA
BRANCH  19  21
HETATM   21  C1  UNL     1      13.048  12.142  29.689  1.00  0.00     0.288 C 
HETATM   22  N1  UNL     1      13.349  13.516  29.888  1.00  0.00    -0.055 NA
HETATM   23  O1  UNL     1      13.900  11.243  29.884  1.00  0.00    -0.269 OA
ENDBRANCH  19  21
ENDBRANCH  14  16
ENDBRANCH  11  14
ENDBRANCH   1   8
BRANCH   5  24
HETATM   24  C21 UNL     1      10.092  14.367  20.694  1.00  0.00     0.433 C 
HETATM   25  F1  UNL     1      10.604  14.787  21.936  1.00  0.00    -0.165 F 
HETATM   26  F2  UNL     1      10.984  14.780  19.724  1.00  0.00    -0.165 F 
HETATM   27  F3  UNL     1       8.907  15.032  20.504  1.00  0.00    -0.165 F 
ENDBRANCH   5  24
BRANCH   4  28
HETATM   28  C13 UNL     1       9.374  12.777  18.353  1.00  0.00     0.256 C 
HETATM   29  O2  UNL     1       8.257  13.265  18.083  1.00  0.00    -0.267 OA
HETATM   30  N4  UNL     1      10.395  12.837  17.383  1.00  0.00    -0.348 N 
HETATM   31  C14 UNL     1      10.052  13.459  16.090  1.00  0.00     0.126 C 
HETATM   32  C19 UNL     1      11.725  12.346  17.657  1.00  0.00     0.126 C 
HETATM   33  C15 UNL     1      10.135  12.375  15.044  1.00  0.00     0.020 C 
HETATM   34  C16 UNL     1      11.480  12.455  14.358  1.00  0.00     0.002 C 
HETATM   35  C17 UNL     1      12.623  12.308  15.316  1.00  0.00     0.002 C 
HETATM   36  C18 UNL     1      12.286  11.499  16.542  1.00  0.00     0.020 C 
ENDBRANCH   4  28
TORSDOF 6
ENDMDL
MODEL 2
REMARK VINA RESULT: -7.808198264      7.689     11.480
REMARK  6 active torsions:
REMARK  status: ('A' for Active; 'I' for Inactive)
REMARK    1  A    between atoms: C1_2  and  C2_4 
REMARK    2  A    between atoms: C5_7  and  N2_8 
REMARK    3  A    between atoms: N2_8  and  C6_10 
REMARK    4  A    between atoms: N3_13  and  C9_14 
REMARK    5  A    between atoms: C12_17  and  C13_18 
REMARK       I    between atoms: C13_18  and  N4_20 
REMARK    6  A    between atoms: C20_27  and  C21_28 
ROOT
HETATM    1  C9  UNL     1       6.077   8.338  14.630  1.00  0.00     0.103 A 
HETATM    2  C10 UNL     1       6.420   7.604  15.772  1.00  0.00     0.049 A 
HETATM    3  C11 UNL     1       6.352   6.240  15.750  1.00  0.00     0.023 A 
HETATM    4  C12 UNL     1       5.945   5.531  14.611  1.00  0.00     0.063 A 
HETATM    5  C20 UNL     1       5.616   6.275  13.507  1.00  0.00     0.134 A 
HETATM    6  N5  UNL     1       5.698   7.641  13.569  1.00  0.00    -0.338 N 
ATOM      7  H5  UNL     1       5.445   8.164  12.731  1.00  0.00     0.167 HD
ENDROOT
BRANCH   1   8
HETATM    8  N3  UNL     1       6.155   9.750  14.668  1.00  0.00    -0.367 N 
HETATM    9  C8  UNL     1       7.020  10.412  15.607  1.00  0.00     0.126 C 
HETATM   10  C7  UNL     1       6.562  11.853  15.732  1.00  0.00     0.045 C 
HETATM   11  C6  UNL     1       6.715  12.575  14.416  1.00  0.00     0.086 C 
HETATM   12  C23 UNL     1       6.090  11.783  13.312  1.00  0.00     0.045 C 
HETATM   13  C22 UNL     1       5.372  10.537  13.766  1.00  0.00     0.126 C 
BRANCH  11  14
HETATM   14  N2  UNL     1       8.075  12.946  14.111  1.00  0.00    -0.366 N 
ATOM     15  H2  UNL     1       8.293  13.284  13.174  1.00  0.00     0.162 HD
BRANCH  14  16
HETATM   16  C5  UNL     1       9.121  12.859  15.067  1.00  0.00     0.144 A 
HETATM   17  C4  UNL     1      10.396  12.398  14.844  1.00  0.00     0.059 A 
HETATM   18  C3  UNL     1      11.073  12.489  16.033  1.00  0.00     0.047 A 
HETATM   19  C2  UNL     1      10.190  13.004  16.954  1.00  0.00     0.142 A 
HETATM   20  O3  UNL     1       9.066  13.202  16.342  1.00  0.00    -0.289 OA
BRANCH  19  21
HETATM   21  C1  UNL     1      10.485  13.273  18.372  1.00  0.00     0.288 C 
HETATM   22  N1  UNL     1      10.031  12.346  19.348  1.00  0.00    -0.055 NA
HETATM   23  O1  UNL     1      11.126  14.304  18.685  1.00  0.00    -0.269 OA
ENDBRANCH  19  21
ENDBRANCH  14  16
ENDBRANCH  11  14
ENDBRANCH   1   8
BRANCH   5  24
HETATM   24  C21 UNL     1       5.218   5.683  12.238  1.00  0.00     0.433 C 
HETATM   25  F1  UNL     1       5.166   6.702  11.270  1.00  0.00    -0.165 F 
HETATM   26  F2  UNL     1       6.095   4.722  11.775  1.00  0.00    -0.165 F 
HETATM   27  F3  UNL     1       3.964   5.130  12.304  1.00  0.00    -0.165 F 
ENDBRANCH   5  24
BRANCH   4  28
HETATM   28  C13 UNL     1       5.841   4.102  14.613  1.00  0.00     0.256 C 
HETATM   29  O2  UNL     1       4.728   3.557  14.754  1.00  0.00    -0.267 OA
HETATM   30  N4  UNL     1       6.982   3.290  14.452  1.00  0.00    -0.348 N 
HETATM   31  C14 UNL     1       6.772   1.830  14.491  1.00  0.00     0.126 C 
HETATM   32  C19 UNL     1       8.288   3.861  14.222  1.00  0.00     0.126 C 
HETATM   33  C15 UNL     1       7.485   1.315  15.716  1.00  0.00     0.020 C 
HETATM   34  C16 UNL     1       8.842   0.784  15.310  1.00  0.00     0.002 C 
HETATM   35  C17 UNL     1       9.690   1.824  14.644  1.00  0.00     0.002 C 
HETATM   36  C18 UNL     1       9.367   3.234  15.070  1.00  0.00     0.020 C 
ENDBRANCH   4  28
TORSDOF 6
ENDMDL
MODEL 3
REMARK VINA RESULT: -7.734316887      8.872     12.302
REMARK  6 active torsions:
REMARK  status: ('A' for Active; 'I' for Inactive)
REMARK    1  A    between atoms: C1_2  and  C2_4 
REMARK    2  A    between atoms: C5_7  and  N2_8 
REMARK    3  A    between atoms: N2_8  and  C6_10 
REMARK    4  A    between atoms: N3_13  and  C9_14 
REMARK    5  A    between atoms: C12_17  and  C13_18 
REMARK       I    between atoms: C13_18  and  N4_20 
REMARK    6  A    between atoms: C20_27  and  C21_28 
ROOT
HETATM    1  C9  UNL     1       6.197   7.220  14.544  1.00  0.00     0.103 A 
HETATM    2  C10 UNL     1       5.595   6.992  13.302  1.00  0.00     0.049 A 
HETATM    3  C11 UNL     1       5.683   5.760  12.716  1.00  0.00     0.023 A 
HETATM    4  C12 UNL     1       6.365   4.695  13.321  1.00  0.00     0.063 A 
HETATM    5  C20 UNL     1       6.944   4.945  14.538  1.00  0.00     0.134 A 
HETATM    6  N5  UNL     1       6.834   6.193  15.091  1.00  0.00    -0.338 N 
ATOM      7  H5  UNL     1       7.277   6.345  15.997  1.00  0.00     0.167 HD
ENDROOT
BRANCH   1   8
HETATM    8  N3  UNL     1       6.096   8.499  15.137  1.00  0.00    -0.367 N 
HETATM    9  C8  UNL     1       6.358   8.680  16.540  1.00  0.00     0.126 C 
HETATM   10  C7  UNL     1       5.740   9.998  16.967  1.00  0.00     0.045 C 
HETATM   11  C6  UNL     1       6.400  11.150  16.249  1.00  0.00     0.086 C 
HETATM   12  C23 UNL     1       6.440  10.893  14.777  1.00  0.00     0.045 C 
HETATM   13  C22 UNL     1       5.733   9.632  14.344  1.00  0.00     0.126 C 
BRANCH  11  14
HETATM   14  N2  UNL     1       7.699  11.494  16.773  1.00  0.00    -0.366 N 
ATOM     15  H2  UNL     1       7.907  11.280  17.748  1.00  0.00     0.162 HD
BRANCH  14  16
HETATM   16  C5  UNL     1       8.699  12.118  15.981  1.00  0.00     0.144 A 
HETATM   17  C4  UNL     1       8.532  13.210  15.166  1.00  0.00     0.059 A 
HETATM   18  C3  UNL     1       9.749  13.479  14.594  1.00  0.00     0.047 A 
HETATM   19  C2  UNL     1      10.630  12.539  15.077  1.00  0.00     0.142 A 
HETATM   20  O3  UNL     1       9.970  11.769  15.882  1.00  0.00    -0.289 OA
BRANCH  19  21
HETATM   21  C1  UNL     1      12.059  12.442  14.732  1.00  0.00     0.288 C 
HETATM   22  N1  UNL     1      12.938  11.811  15.652  1.00  0.00    -0.055 NA
HETATM   23  O1  UNL     1      12.465  12.912  13.644  1.00  0.00    -0.269 OA
ENDBRANCH  19  21
ENDBRANCH  14  16
ENDBRANCH  11  14
ENDBRANCH   1   8
BRANCH   5  24
HETATM   24  C21 UNL     1       7.648   3.929  15.308  1.00  0.00     0.433 C 
HETATM   25  F1  UNL     1       7.959   4.466  16.571  1.00  0.00    -0.165 F 
HETATM   26  F2  UNL     1       6.907   2.783  15.522  1.00  0.00    -0.165 F 
HETATM   27  F3  UNL     1       8.836   3.575  14.720  1.00  0.00    -0.165 F 
ENDBRANCH   5  24
BRANCH   4  28
HETATM   28  C13 UNL     1       6.482   3.419  12.680  1.00  0.00     0.256 C 
HETATM   29  O2  UNL     1       7.605   2.990  12.344  1.00  0.00    -0.267 OA
HETATM   30  N4  UNL     1       5.345   2.627  12.422  1.00  0.00    -0.348 N 
HETATM   31  C14 UNL     1       5.570   1.340  11.738  1.00  0.00     0.126 C 
HETATM   32  C19 UNL     1       4.028   3.040  12.843  1.00  0.00     0.126 C 
HETATM   33  C15 UNL     1       4.900   1.434  10.390  1.00  0.00     0.020 C 
HETATM   34  C16 UNL     1       3.537   0.784  10.471  1.00  0.00     0.002 C 
HETATM   35  C17 UNL     1       2.658   1.418  11.507  1.00  0.00     0.002 C 
HETATM   36  C18 UNL     1       2.981   2.867  11.770  1.00  0.00     0.020 C 
ENDBRANCH   4  28
TORSDOF 6
ENDMDL
MODEL 4
REMARK VINA RESULT: -7.578530432      8.472     11.400
REMARK  6 active torsions:
REMARK  status: ('A' for Active; 'I' for Inactive)
REMARK    1  A    between atoms: C1_2  and  C2_4 
REMARK    2  A    between atoms: C5_7  and  N2_8 
REMARK    3  A    between atoms: N2_8  and  C6_10 
REMARK    4  A    between atoms: N3_13  and  C9_14 
REMARK    5  A    between atoms: C12_17  and  C13_18 
REMARK       I    between atoms: C13_18  and  N4_20 
REMARK    6  A    between atoms: C20_27  and  C21_28 
ROOT
HETATM    1  C9  UNL     1       6.372   7.356  14.404  1.00  0.00     0.103 A 
HETATM    2  C10 UNL     1       5.685   7.139  13.205  1.00  0.00     0.049 A 
HETATM    3  C11 UNL     1       5.650   5.888  12.655  1.00  0.00     0.023 A 
HETATM    4  C12 UNL     1       6.287   4.793  13.255  1.00  0.00     0.063 A 
HETATM    5  C20 UNL     1       6.951   5.033  14.430  1.00  0.00     0.134 A 
HETATM    6  N5  UNL     1       6.963   6.301  14.948  1.00  0.00    -0.338 N 
ATOM      7  H5  UNL     1       7.467   6.445  15.823  1.00  0.00     0.167 HD
ENDROOT
BRANCH   1   8
HETATM    8  N3  UNL     1       6.398   8.656  14.961  1.00  0.00    -0.367 N 
HETATM    9  C8  UNL     1       6.911   8.876  16.285  1.00  0.00     0.126 C 
HETATM   10  C7  UNL     1       6.400  10.220  16.770  1.00  0.00     0.045 C 
HETATM   11  C6  UNL     1       6.935  11.335  15.905  1.00  0.00     0.086 C 
HETATM   12  C23 UNL     1       6.704  11.029  14.460  1.00  0.00     0.045 C 
HETATM   13  C22 UNL     1       5.913   9.770  14.206  1.00  0.00     0.126 C 
BRANCH  11  14
HETATM   14  N2  UNL     1       8.312  11.669  16.173  1.00  0.00    -0.366 N 
ATOM     15  H2  UNL     1       8.980  11.650  15.403  1.00  0.00     0.162 HD
BRANCH  14  16
HETATM   16  C5  UNL     1       8.772  12.022  17.470  1.00  0.00     0.144 A 
HETATM   17  C4  UNL     1       8.658  11.267  18.611  1.00  0.00     0.059 A 
HETATM   18  C3  UNL     1       9.235  11.982  19.629  1.00  0.00     0.047 A 
HETATM   19  C2  UNL     1       9.686  13.160  19.079  1.00  0.00     0.142 A 
HETATM   20  O3  UNL     1       9.392  13.135  17.819  1.00  0.00    -0.289 OA
BRANCH  19  21
HETATM   21  C1  UNL     1      10.375  14.240  19.807  1.00  0.00     0.288 C 
HETATM   22  N1  UNL     1      10.045  14.458  21.171  1.00  0.00    -0.055 NA
HETATM   23  O1  UNL     1      11.229  14.938  19.213  1.00  0.00    -0.269 OA
ENDBRANCH  19  21
ENDBRANCH  14  16
ENDBRANCH  11  14
ENDBRANCH   1   8
BRANCH   5  24
HETATM   24  C21 UNL     1       7.622   3.990  15.193  1.00  0.00     0.433 C 
HETATM   25  F1  UNL     1       7.965   4.513  16.453  1.00  0.00    -0.165 F 
HETATM   26  F2  UNL     1       6.841   2.873  15.412  1.00  0.00    -0.165 F 
HETATM   27  F3  UNL     1       8.791   3.592  14.594  1.00  0.00    -0.165 F 
ENDBRANCH   5  24
BRANCH   4  28
HETATM   28  C13 UNL     1       6.275   3.494  12.650  1.00  0.00     0.256 C 
HETATM   29  O2  UNL     1       7.303   3.052  12.100  1.00  0.00    -0.267 OA
HETATM   30  N4  UNL     1       5.114   2.694  12.667  1.00  0.00    -0.348 N 
HETATM   31  C14 UNL     1       5.198   1.383  11.998  1.00  0.00     0.126 C 
HETATM   32  C19 UNL     1       3.912   3.124  13.342  1.00  0.00     0.126 C 
HETATM   33  C15 UNL     1       4.258   1.428  10.819  1.00  0.00     0.020 C 
HETATM   34  C16 UNL     1       2.947   0.783  11.209  1.00  0.00     0.002 C 
HETATM   35  C17 UNL     1       2.302   1.456  12.384  1.00  0.00     0.002 C 
HETATM   36  C18 UNL     1       2.664   2.913  12.520  1.00  0.00     0.020 C 
ENDBRANCH   4  28
TORSDOF 6
ENDMDL
MODEL 5
REMARK VINA RESULT: -7.562796959      7.275     11.313
REMARK  6 active torsions:
REMARK  status: ('A' for Active; 'I' for Inactive)
REMARK    1  A    between atoms: C1_2  and  C2_4 
REMARK    2  A    between atoms: C5_7  and  N2_8 
REMARK    3  A    between atoms: N2_8  and  C6_10 
REMARK    4  A    between atoms: N3_13  and  C9_14 
REMARK    5  A    between atoms: C12_17  and  C13_18 
REMARK       I    between atoms: C13_18  and  N4_20 
REMARK    6  A    between atoms: C20_27  and  C21_28 
ROOT
HETATM    1  C9  UNL     1       6.125   8.390  15.160  1.00  0.00     0.103 A 
HETATM    2  C10 UNL     1       5.850   8.518  16.526  1.00  0.00     0.049 A 
HETATM    3  C11 UNL     1       6.101   9.700  17.164  1.00  0.00     0.023 A 
HETATM    4  C12 UNL     1       6.634  10.811  16.495  1.00  0.00     0.063 A 
HETATM    5  C20 UNL     1       6.893  10.658  15.157  1.00  0.00     0.134 A 
HETATM    6  N5  UNL     1       6.627   9.458  14.554  1.00  0.00    -0.338 N 
ATOM      7  H5  UNL     1       6.832   9.378  13.558  1.00  0.00     0.167 HD
ENDROOT
BRANCH   1   8
HETATM    8  N3  UNL     1       5.858   7.162  14.513  1.00  0.00    -0.367 N 
HETATM    9  C8  UNL     1       6.167   6.984  13.120  1.00  0.00     0.126 C 
HETATM   10  C7  UNL     1       5.376   5.794  12.611  1.00  0.00     0.045 C 
HETATM   11  C6  UNL     1       5.806   4.531  13.316  1.00  0.00     0.086 C 
HETATM   12  C23 UNL     1       5.802   4.734  14.798  1.00  0.00     0.045 C 
HETATM   13  C22 UNL     1       5.279   6.077  15.242  1.00  0.00     0.126 C 
BRANCH  11  14
HETATM   14  N2  UNL     1       7.063   4.002  12.847  1.00  0.00    -0.366 N 
ATOM     15  H2  UNL     1       7.493   4.418  12.021  1.00  0.00     0.162 HD
BRANCH  14  16
HETATM   16  C5  UNL     1       7.724   2.923  13.492  1.00  0.00     0.144 A 
HETATM   17  C4  UNL     1       7.678   1.600  13.126  1.00  0.00     0.059 A 
HETATM   18  C3  UNL     1       8.457   0.906  14.015  1.00  0.00     0.047 A 
HETATM   19  C2  UNL     1       8.959   1.828  14.905  1.00  0.00     0.142 A 
HETATM   20  O3  UNL     1       8.503   2.989  14.557  1.00  0.00    -0.289 OA
BRANCH  19  21
HETATM   21  C1  UNL     1       9.852   1.531  16.039  1.00  0.00     0.288 C 
HETATM   22  N1  UNL     1       9.558   2.108  17.303  1.00  0.00    -0.055 NA
HETATM   23  O1  UNL     1      10.842   0.783  15.867  1.00  0.00    -0.269 OA
ENDBRANCH  19  21
ENDBRANCH  14  16
ENDBRANCH  11  14
ENDBRANCH   1   8
BRANCH   5  24
HETATM   24  C21 UNL     1       7.405  11.732  14.318  1.00  0.00     0.433 C 
HETATM   25  F1  UNL     1       7.813  11.180  13.090  1.00  0.00    -0.165 F 
HETATM   26  F2  UNL     1       6.470  12.710  14.037  1.00  0.00    -0.165 F 
HETATM   27  F3  UNL     1       8.507  12.332  14.874  1.00  0.00    -0.165 F 
ENDBRANCH   5  24
BRANCH   4  28
HETATM   28  C13 UNL     1       6.927  12.032  17.184  1.00  0.00     0.256 C 
HETATM   29  O2  UNL     1       6.364  13.092  16.843  1.00  0.00    -0.267 OA
HETATM   30  N4  UNL     1       7.845  12.062  18.253  1.00  0.00    -0.348 N 
HETATM   31  C14 UNL     1       8.096  13.373  18.881  1.00  0.00     0.126 C 
HETATM   32  C19 UNL     1       8.482  10.859  18.734  1.00  0.00     0.126 C 
HETATM   33  C15 UNL     1       9.535  13.728  18.603  1.00  0.00     0.020 C 
HETATM   34  C16 UNL     1      10.375  13.355  19.803  1.00  0.00     0.002 C 
HETATM   35  C17 UNL     1      10.280  11.898  20.141  1.00  0.00     0.002 C 
HETATM   36  C18 UNL     1       9.966  11.021  18.955  1.00  0.00     0.020 C 
ENDBRANCH   4  28
TORSDOF 6
ENDMDL
