MODEL 1
REMARK VINA RESULT: -5.801979564      0.000      0.000
REMARK  8 active torsions:
REMARK  status: ('A' for Active; 'I' for Inactive)
REMARK    1  A    between atoms: C2_2  and  C3_3 
REMARK    2  A    between atoms: C3_3  and  O1_5 
REMARK    3  A    between atoms: O1_5  and  C5_6 
REMARK       I    between atoms: C5_6  and  N1_8 
REMARK    4  A    between atoms: N1_8  and  C6_10 
REMARK    5  A    between atoms: C6_10  and  C7_11 
REMARK    6  A    between atoms: C6_10  and  C18_31 
REMARK       I    between atoms: C7_11  and  N2_13 
REMARK    7  A    between atoms: C12_19  and  C13_20 
REMARK    8  A    between atoms: C13_20  and  N4_24 
ROOT
HETATM    1  C7  UNL     1       9.310  -5.771  -2.067  1.00  0.00     0.244 C 
HETATM    2  O3  UNL     1       9.228  -4.967  -1.085  1.00  0.00    -0.271 OA
HETATM    3  N2  UNL     1      10.066  -5.350  -3.205  1.00  0.00    -0.328 N 
HETATM    4  C8  UNL     1      10.280  -6.110  -4.413  1.00  0.00     0.201 C 
HETATM    5  S1  UNL     1      12.002  -5.608  -4.847  1.00  0.00    -0.137 SA
HETATM    6  C9  UNL     1      12.194  -4.478  -3.417  1.00  0.00     0.030 C 
HETATM    7  C10 UNL     1      13.218  -3.453  -3.570  1.00  0.00     0.029 C 
HETATM    8  C11 UNL     1      12.536  -5.303  -2.167  1.00  0.00     0.029 C 
HETATM    9  C12 UNL     1      10.769  -4.076  -3.267  1.00  0.00     0.173 C 
ENDROOT
BRANCH   1  10
HETATM   10  C6  UNL     1       8.621  -7.061  -1.930  1.00  0.00     0.182 C 
BRANCH  10  11
HETATM   11  N1  UNL     1       9.240  -7.790  -0.845  1.00  0.00    -0.323 N 
HETATM   12  C5  UNL     1      10.383  -8.582  -0.944  1.00  0.00     0.361 C 
HETATM   13  O2  UNL     1      10.953  -8.695  -2.054  1.00  0.00    -0.238 OA
ATOM     14  H1  UNL     1       8.802  -7.718   0.073  1.00  0.00     0.165 HD
BRANCH  12  15
HETATM   15  O1  UNL     1      10.941  -9.261   0.116  1.00  0.00    -0.299 OA
BRANCH  15  16
HETATM   16  C3  UNL     1      11.288  -8.567   1.273  1.00  0.00     0.129 C 
HETATM   17  C4  UNL     1      12.756  -8.680   1.618  1.00  0.00     0.040 C 
BRANCH  16  18
HETATM   18  C2  UNL     1      10.492  -9.051   2.473  1.00  0.00     0.028 C 
HETATM   19  C1  UNL     1       9.372  -9.971   2.056  1.00  0.00     0.007 C 
ENDBRANCH  16  18
ENDBRANCH  15  16
ENDBRANCH  12  15
ENDBRANCH  10  11
BRANCH  10  20
HETATM   20  C18 UNL     1       7.159  -6.849  -1.708  1.00  0.00     0.009 C 
HETATM   21  C19 UNL     1       6.485  -6.273  -2.966  1.00  0.00     0.012 C 
HETATM   22  C20 UNL     1       6.418  -8.109  -1.331  1.00  0.00     0.012 C 
ENDBRANCH  10  20
ENDBRANCH   1  10
BRANCH   9  23
HETATM   23  C13 UNL     1      10.165  -3.223  -4.258  1.00  0.00     0.098 C 
HETATM   24  N3  UNL     1       8.884  -2.980  -4.169  1.00  0.00    -0.387 N 
ATOM     25  H32 UNL     1       8.452  -3.476  -3.389  1.00  0.00     0.157 HD
ATOM     26  H31 UNL     1       8.456  -2.376  -4.870  1.00  0.00     0.157 HD
BRANCH  23  27
HETATM   27  N4  UNL     1      10.762  -2.537  -5.336  1.00  0.00    -0.366 N 
HETATM   28  C14 UNL     1      10.948  -3.204  -6.590  1.00  0.00     0.143 C 
HETATM   29  C15 UNL     1      10.548  -2.325  -7.761  1.00  0.00     0.133 C 
HETATM   30  N5  UNL     1      11.154  -1.034  -7.634  1.00  0.00    -0.418 N 
HETATM   31  C16 UNL     1      10.867  -0.341  -6.416  1.00  0.00     0.133 C 
ATOM     32  H5  UNL     1      11.748  -0.637  -8.361  1.00  0.00     0.153 HD
HETATM   33  C17 UNL     1      11.167  -1.173  -5.186  1.00  0.00     0.143 C 
ENDBRANCH  23  27
ENDBRANCH   9  23
TORSDOF 8
ENDMDL
MODEL 2
REMARK VINA RESULT: -5.535237833      5.169      7.218
REMARK  8 active torsions:
REMARK  status: ('A' for Active; 'I' for Inactive)
REMARK    1  A    between atoms: C2_2  and  C3_3 
REMARK    2  A    between atoms: C3_3  and  O1_5 
REMARK    3  A    between atoms: O1_5  and  C5_6 
REMARK       I    between atoms: C5_6  and  N1_8 
REMARK    4  A    between atoms: N1_8  and  C6_10 
REMARK    5  A    between atoms: C6_10  and  C7_11 
REMARK    6  A    between atoms: C6_10  and  C18_31 
REMARK       I    between atoms: C7_11  and  N2_13 
REMARK    7  A    between atoms: C12_19  and  C13_20 
REMARK    8  A    between atoms: C13_20  and  N4_24 
ROOT
HETATM    1  C7  UNL     1      15.601  -8.494  -0.082  1.00  0.00     0.244 C 
HETATM    2  O3  UNL     1      16.408  -7.556   0.213  1.00  0.00    -0.271 OA
HETATM    3  N2  UNL     1      15.519  -8.889  -1.453  1.00  0.00    -0.328 N 
HETATM    4  C8  UNL     1      14.671  -9.926  -1.991  1.00  0.00     0.201 C 
HETATM    5  S1  UNL     1      15.750 -10.612  -3.321  1.00  0.00    -0.137 SA
HETATM    6  C9  UNL     1      17.134  -9.453  -3.005  1.00  0.00     0.030 C 
HETATM    7  C10 UNL     1      18.051  -9.262  -4.120  1.00  0.00     0.029 C 
HETATM    8  C11 UNL     1      17.950  -9.960  -1.806  1.00  0.00     0.029 C 
HETATM    9  C12 UNL     1      16.338  -8.299  -2.503  1.00  0.00     0.173 C 
ENDROOT
BRANCH   1  10
HETATM   10  C6  UNL     1      14.836  -9.085   1.024  1.00  0.00     0.182 C 
BRANCH  10  11
HETATM   11  N1  UNL     1      15.771  -9.531   2.033  1.00  0.00    -0.323 N 
HETATM   12  C5  UNL     1      16.447 -10.750   2.032  1.00  0.00     0.361 C 
HETATM   13  O2  UNL     1      16.254 -11.555   1.092  1.00  0.00    -0.238 OA
ATOM     14  H1  UNL     1      15.952  -8.899   2.812  1.00  0.00     0.165 HD
BRANCH  12  15
HETATM   15  O1  UNL     1      17.332 -11.139   3.015  1.00  0.00    -0.299 OA
BRANCH  15  16
HETATM   16  C3  UNL     1      17.339 -12.462   3.451  1.00  0.00     0.129 C 
HETATM   17  C4  UNL     1      16.581 -12.668   4.742  1.00  0.00     0.040 C 
BRANCH  16  18
HETATM   18  C2  UNL     1      18.755 -12.972   3.657  1.00  0.00     0.028 C 
HETATM   19  C1  UNL     1      18.872 -13.774   4.929  1.00  0.00     0.007 C 
ENDBRANCH  16  18
ENDBRANCH  15  16
ENDBRANCH  12  15
ENDBRANCH  10  11
BRANCH  10  20
HETATM   20  C18 UNL     1      13.852  -8.097   1.562  1.00  0.00     0.009 C 
HETATM   21  C19 UNL     1      12.889  -7.619   0.462  1.00  0.00     0.012 C 
HETATM   22  C20 UNL     1      13.016  -8.636   2.697  1.00  0.00     0.012 C 
ENDBRANCH  10  20
ENDBRANCH   1  10
BRANCH   9  23
HETATM   23  C13 UNL     1      15.513  -7.555  -3.418  1.00  0.00     0.098 C 
HETATM   24  N3  UNL     1      15.854  -7.528  -4.680  1.00  0.00    -0.387 N 
ATOM     25  H32 UNL     1      16.719  -8.039  -4.855  1.00  0.00     0.157 HD
ATOM     26  H31 UNL     1      15.269  -7.001  -5.329  1.00  0.00     0.157 HD
BRANCH  23  27
HETATM   27  N4  UNL     1      14.316  -6.848  -3.177  1.00  0.00    -0.366 N 
HETATM   28  C14 UNL     1      14.304  -5.767  -2.238  1.00  0.00     0.143 C 
HETATM   29  C15 UNL     1      13.545  -4.565  -2.772  1.00  0.00     0.133 C 
HETATM   30  N5  UNL     1      12.273  -4.976  -3.282  1.00  0.00    -0.418 N 
HETATM   31  C16 UNL     1      12.316  -5.984  -4.296  1.00  0.00     0.133 C 
ATOM     32  H5  UNL     1      11.396  -4.578  -2.945  1.00  0.00     0.153 HD
HETATM   33  C17 UNL     1      13.119  -7.200  -3.878  1.00  0.00     0.143 C 
ENDBRANCH  23  27
ENDBRANCH   9  23
TORSDOF 8
ENDMDL
MODEL 3
REMARK VINA RESULT: -5.505122470      3.943      5.649
REMARK  8 active torsions:
REMARK  status: ('A' for Active; 'I' for Inactive)
REMARK    1  A    between atoms: C2_2  and  C3_3 
REMARK    2  A    between atoms: C3_3  and  O1_5 
REMARK    3  A    between atoms: O1_5  and  C5_6 
REMARK       I    between atoms: C5_6  and  N1_8 
REMARK    4  A    between atoms: N1_8  and  C6_10 
REMARK    5  A    between atoms: C6_10  and  C7_11 
REMARK    6  A    between atoms: C6_10  and  C18_31 
REMARK       I    between atoms: C7_11  and  N2_13 
REMARK    7  A    between atoms: C12_19  and  C13_20 
REMARK    8  A    between atoms: C13_20  and  N4_24 
ROOT
HETATM    1  C7  UNL     1      12.989  -6.272  -2.014  1.00  0.00     0.244 C 
HETATM    2  O3  UNL     1      13.059  -5.659  -0.902  1.00  0.00    -0.271 OA
HETATM    3  N2  UNL     1      12.112  -5.739  -3.009  1.00  0.00    -0.328 N 
HETATM    4  C8  UNL     1      11.891  -6.282  -4.328  1.00  0.00     0.201 C 
HETATM    5  S1  UNL     1      11.657  -4.739  -5.312  1.00  0.00    -0.137 SA
HETATM    6  C9  UNL     1      11.861  -3.615  -3.880  1.00  0.00     0.030 C 
HETATM    7  C10 UNL     1      11.279  -2.289  -4.043  1.00  0.00     0.029 C 
HETATM    8  C11 UNL     1      13.359  -3.439  -3.588  1.00  0.00     0.029 C 
HETATM    9  C12 UNL     1      11.339  -4.519  -2.819  1.00  0.00     0.173 C 
ENDROOT
BRANCH   1  10
HETATM   10  C6  UNL     1      13.828  -7.468  -2.167  1.00  0.00     0.182 C 
BRANCH  10  11
HETATM   11  N1  UNL     1      14.928  -7.371  -1.234  1.00  0.00    -0.323 N 
HETATM   12  C5  UNL     1      16.281  -7.425  -1.564  1.00  0.00     0.361 C 
HETATM   13  O2  UNL     1      16.613  -7.567  -2.764  1.00  0.00    -0.238 OA
ATOM     14  H1  UNL     1      14.694  -7.254  -0.249  1.00  0.00     0.165 HD
BRANCH  12  15
HETATM   15  O1  UNL     1      17.301  -7.329  -0.642  1.00  0.00    -0.299 OA
BRANCH  15  16
HETATM   16  C3  UNL     1      18.615  -7.179  -1.082  1.00  0.00     0.129 C 
HETATM   17  C4  UNL     1      19.422  -8.455  -0.994  1.00  0.00     0.040 C 
BRANCH  16  18
HETATM   18  C2  UNL     1      19.348  -6.111  -0.290  1.00  0.00     0.028 C 
HETATM   19  C1  UNL     1      20.801  -6.032  -0.685  1.00  0.00     0.007 C 
ENDBRANCH  16  18
ENDBRANCH  15  16
ENDBRANCH  12  15
ENDBRANCH  10  11
BRANCH  10  20
HETATM   20  C18 UNL     1      13.014  -8.704  -1.957  1.00  0.00     0.009 C 
HETATM   21  C19 UNL     1      13.701  -9.932  -2.580  1.00  0.00     0.012 C 
HETATM   22  C20 UNL     1      12.757  -9.015  -0.502  1.00  0.00     0.012 C 
ENDBRANCH  10  20
ENDBRANCH   1  10
BRANCH   9  23
HETATM   23  C13 UNL     1       9.932  -4.825  -2.776  1.00  0.00     0.098 C 
HETATM   24  N3  UNL     1       9.571  -6.055  -2.523  1.00  0.00    -0.387 N 
ATOM     25  H32 UNL     1      10.374  -6.676  -2.414  1.00  0.00     0.157 HD
ATOM     26  H31 UNL     1       8.575  -6.271  -2.492  1.00  0.00     0.157 HD
BRANCH  23  27
HETATM   27  N4  UNL     1       8.822  -3.967  -2.926  1.00  0.00    -0.366 N 
HETATM   28  C14 UNL     1       8.072  -3.980  -4.146  1.00  0.00     0.143 C 
HETATM   29  C15 UNL     1       6.575  -3.972  -3.887  1.00  0.00     0.133 C 
HETATM   30  N5  UNL     1       6.246  -2.941  -2.951  1.00  0.00    -0.418 N 
HETATM   31  C16 UNL     1       6.932  -3.009  -1.697  1.00  0.00     0.133 C 
ATOM     32  H5  UNL     1       5.569  -2.208  -3.163  1.00  0.00     0.153 HD
HETATM   33  C17 UNL     1       8.437  -3.095  -1.859  1.00  0.00     0.143 C 
ENDBRANCH  23  27
ENDBRANCH   9  23
TORSDOF 8
ENDMDL
MODEL 4
REMARK VINA RESULT: -5.366801366      6.211      8.338
REMARK  8 active torsions:
REMARK  status: ('A' for Active; 'I' for Inactive)
REMARK    1  A    between atoms: C2_2  and  C3_3 
REMARK    2  A    between atoms: C3_3  and  O1_5 
REMARK    3  A    between atoms: O1_5  and  C5_6 
REMARK       I    between atoms: C5_6  and  N1_8 
REMARK    4  A    between atoms: N1_8  and  C6_10 
REMARK    5  A    between atoms: C6_10  and  C7_11 
REMARK    6  A    between atoms: C6_10  and  C18_31 
REMARK       I    between atoms: C7_11  and  N2_13 
REMARK    7  A    between atoms: C12_19  and  C13_20 
REMARK    8  A    between atoms: C13_20  and  N4_24 
ROOT
HETATM    1  C7  UNL     1      16.398  -8.887  -0.157  1.00  0.00     0.244 C 
HETATM    2  O3  UNL     1      16.918  -7.739   0.014  1.00  0.00    -0.271 OA
HETATM    3  N2  UNL     1      16.819  -9.643  -1.295  1.00  0.00    -0.328 N 
HETATM    4  C8  UNL     1      16.353 -10.957  -1.664  1.00  0.00     0.201 C 
HETATM    5  S1  UNL     1      17.891 -11.694  -2.368  1.00  0.00    -0.137 SA
HETATM    6  C9  UNL     1      18.912 -10.196  -2.101  1.00  0.00     0.030 C 
HETATM    7  C10 UNL     1      20.099 -10.096  -2.939  1.00  0.00     0.029 C 
HETATM    8  C11 UNL     1      19.365 -10.152  -0.634  1.00  0.00     0.029 C 
HETATM    9  C12 UNL     1      17.835  -9.176  -2.229  1.00  0.00     0.173 C 
ENDROOT
BRANCH   1  10
HETATM   10  C6  UNL     1      15.415  -9.326   0.843  1.00  0.00     0.182 C 
BRANCH  10  11
HETATM   11  N1  UNL     1      16.128  -9.711   2.039  1.00  0.00    -0.323 N 
HETATM   12  C5  UNL     1      16.480 -11.014   2.392  1.00  0.00     0.361 C 
HETATM   13  O2  UNL     1      16.168 -11.959   1.631  1.00  0.00    -0.238 OA
ATOM     14  H1  UNL     1      16.398  -8.967   2.681  1.00  0.00     0.165 HD
BRANCH  12  15
HETATM   15  O1  UNL     1      17.162 -11.340   3.545  1.00  0.00    -0.299 OA
BRANCH  15  16
HETATM   16  C3  UNL     1      17.203 -12.666   3.968  1.00  0.00     0.129 C 
HETATM   17  C4  UNL     1      16.499 -12.893   5.287  1.00  0.00     0.040 C 
BRANCH  16  18
HETATM   18  C2  UNL     1      18.632 -13.159   4.115  1.00  0.00     0.028 C 
HETATM   19  C1  UNL     1      18.832 -13.889   5.419  1.00  0.00     0.007 C 
ENDBRANCH  16  18
ENDBRANCH  15  16
ENDBRANCH  12  15
ENDBRANCH  10  11
BRANCH  10  20
HETATM   20  C18 UNL     1      14.418  -8.243   1.103  1.00  0.00     0.009 C 
HETATM   21  C19 UNL     1      13.592  -7.936  -0.159  1.00  0.00     0.012 C 
HETATM   22  C20 UNL     1      13.449  -8.569   2.213  1.00  0.00     0.012 C 
ENDBRANCH  10  20
ENDBRANCH   1  10
BRANCH   9  23
HETATM   23  C13 UNL     1      17.246  -8.924  -3.519  1.00  0.00     0.098 C 
HETATM   24  N3  UNL     1      17.984  -9.101  -4.583  1.00  0.00    -0.387 N 
ATOM     25  H32 UNL     1      18.937  -9.379  -4.348  1.00  0.00     0.157 HD
ATOM     26  H31 UNL     1      17.567  -8.923  -5.496  1.00  0.00     0.157 HD
BRANCH  23  27
HETATM   27  N4  UNL     1      15.929  -8.540  -3.844  1.00  0.00    -0.366 N 
HETATM   28  C14 UNL     1      15.420  -7.282  -3.386  1.00  0.00     0.143 C 
HETATM   29  C15 UNL     1      14.669  -6.545  -4.481  1.00  0.00     0.133 C 
HETATM   30  N5  UNL     1      13.725  -7.422  -5.104  1.00  0.00    -0.418 N 
HETATM   31  C16 UNL     1      14.275  -8.626  -5.649  1.00  0.00     0.133 C 
ATOM     32  H5  UNL     1      12.731  -7.204  -5.157  1.00  0.00     0.153 HD
HETATM   33  C17 UNL     1      15.106  -9.396  -4.643  1.00  0.00     0.143 C 
ENDBRANCH  23  27
ENDBRANCH   9  23
TORSDOF 8
ENDMDL
MODEL 5
REMARK VINA RESULT: -5.310894321      1.886      3.699
REMARK  8 active torsions:
REMARK  status: ('A' for Active; 'I' for Inactive)
REMARK    1  A    between atoms: C2_2  and  C3_3 
REMARK    2  A    between atoms: C3_3  and  O1_5 
REMARK    3  A    between atoms: O1_5  and  C5_6 
REMARK       I    between atoms: C5_6  and  N1_8 
REMARK    4  A    between atoms: N1_8  and  C6_10 
REMARK    5  A    between atoms: C6_10  and  C7_11 
REMARK    6  A    between atoms: C6_10  and  C18_31 
REMARK       I    between atoms: C7_11  and  N2_13 
REMARK    7  A    between atoms: C12_19  and  C13_20 
REMARK    8  A    between atoms: C13_20  and  N4_24 
ROOT
HETATM    1  C7  UNL     1      10.540  -5.169  -3.624  1.00  0.00     0.244 C 
HETATM    2  O3  UNL     1      10.476  -5.977  -4.604  1.00  0.00    -0.271 OA
HETATM    3  N2  UNL     1       9.501  -4.194  -3.500  1.00  0.00    -0.328 N 
HETATM    4  C8  UNL     1       9.391  -3.194  -2.466  1.00  0.00     0.201 C 
HETATM    5  S1  UNL     1       7.562  -3.113  -2.244  1.00  0.00    -0.137 SA
HETATM    6  C9  UNL     1       7.199  -4.369  -3.528  1.00  0.00     0.030 C 
HETATM    7  C10 UNL     1       5.853  -4.318  -4.084  1.00  0.00     0.029 C 
HETATM    8  C11 UNL     1       7.410  -5.770  -2.934  1.00  0.00     0.029 C 
HETATM    9  C12 UNL     1       8.369  -4.117  -4.413  1.00  0.00     0.173 C 
ENDROOT
BRANCH   1  10
HETATM   10  C6  UNL     1      11.678  -5.324  -2.708  1.00  0.00     0.182 C 
BRANCH  10  11
HETATM   11  N1  UNL     1      11.551  -6.601  -2.042  1.00  0.00    -0.323 N 
HETATM   12  C5  UNL     1      10.923  -6.819  -0.816  1.00  0.00     0.361 C 
HETATM   13  O2  UNL     1      10.411  -5.849  -0.210  1.00  0.00    -0.238 OA
ATOM     14  H1  UNL     1      11.956  -7.412  -2.508  1.00  0.00     0.165 HD
BRANCH  12  15
HETATM   15  O1  UNL     1      10.823  -8.054  -0.214  1.00  0.00    -0.299 OA
BRANCH  15  16
HETATM   16  C3  UNL     1      11.273  -8.221   1.094  1.00  0.00     0.129 C 
HETATM   17  C4  UNL     1      12.691  -8.738   1.176  1.00  0.00     0.040 C 
BRANCH  16  18
HETATM   18  C2  UNL     1      10.385  -9.178   1.871  1.00  0.00     0.028 C 
HETATM   19  C1  UNL     1       9.254  -9.696   1.017  1.00  0.00     0.007 C 
ENDBRANCH  16  18
ENDBRANCH  15  16
ENDBRANCH  12  15
ENDBRANCH  10  11
BRANCH  10  20
HETATM   20  C18 UNL     1      12.967  -5.201  -3.455  1.00  0.00     0.009 C 
HETATM   21  C19 UNL     1      13.507  -3.762  -3.395  1.00  0.00     0.012 C 
HETATM   22  C20 UNL     1      14.051  -6.116  -2.939  1.00  0.00     0.012 C 
ENDBRANCH  10  20
ENDBRANCH   1  10
BRANCH   9  23
HETATM   23  C13 UNL     1       8.430  -2.899  -5.179  1.00  0.00     0.098 C 
HETATM   24  N3  UNL     1       7.420  -2.071  -5.109  1.00  0.00    -0.387 N 
ATOM     25  H32 UNL     1       6.671  -2.428  -4.516  1.00  0.00     0.157 HD
ATOM     26  H31 UNL     1       7.464  -1.209  -5.651  1.00  0.00     0.157 HD
BRANCH  23  27
HETATM   27  N4  UNL     1       9.466  -2.406  -5.999  1.00  0.00    -0.366 N 
HETATM   28  C14 UNL     1       9.430  -2.643  -7.411  1.00  0.00     0.143 C 
HETATM   29  C15 UNL     1       9.781  -1.395  -8.202  1.00  0.00     0.133 C 
HETATM   30  N5  UNL     1      10.982  -0.811  -7.686  1.00  0.00    -0.418 N 
HETATM   31  C16 UNL     1      10.956  -0.484  -6.294  1.00  0.00     0.133 C 
ATOM     32  H5  UNL     1      11.800  -0.639  -8.272  1.00  0.00     0.153 HD
HETATM   33  C17 UNL     1      10.542  -1.656  -5.427  1.00  0.00     0.143 C 
ENDBRANCH  23  27
ENDBRANCH   9  23
TORSDOF 8
ENDMDL
