MODEL 1
REMARK VINA RESULT: -6.746198453      0.000      0.000
REMARK  6 active torsions:
REMARK  status: ('A' for Active; 'I' for Inactive)
REMARK    1  A    between atoms: C2_2  and  N1_3 
REMARK    2  A    between atoms: C5_9  and  C6_10 
REMARK    3  A    between atoms: C6_10  and  C7_11 
REMARK    4  A    between atoms: C9_13  and  C10_14 
REMARK    5  A    between atoms: C12_18  and  C13_19 
REMARK    6  A    between atoms: C19_33  and  N7_34 
ROOT
HETATM    1  C7  UNL     1      10.985  -8.922   0.303  1.00  0.00     0.018 A 
HETATM    2  C8  UNL     1      12.348  -8.827  -0.056  1.00  0.00     0.046 A 
HETATM    3  C9  UNL     1      13.346  -8.666   0.866  1.00  0.00     0.076 A 
HETATM    4  N5  UNL     1      12.961  -8.607   2.154  1.00  0.00    -0.296 N 
ATOM      5  H5  UNL     1      13.674  -8.491   2.874  1.00  0.00     0.187 HD
HETATM    6  N6  UNL     1      11.701  -8.693   2.523  1.00  0.00    -0.266 N 
ATOM      7  H6  UNL     1      11.477  -8.640   3.516  1.00  0.00     0.190 HD
HETATM    8  C18 UNL     1      10.683  -8.851   1.628  1.00  0.00     0.266 A 
HETATM    9  O2  UNL     1       9.513  -8.929   2.014  1.00  0.00    -0.266 OA
ENDROOT
BRANCH   1  10
HETATM   10  C6  UNL     1      10.026  -8.999  -0.816  1.00  0.00     0.088 C 
BRANCH  10  11
HETATM   11  C5  UNL     1       9.157  -7.868  -1.056  1.00  0.00     0.007 A 
HETATM   12  C4  UNL     1       9.689  -6.586  -1.148  1.00  0.00     0.117 A 
HETATM   13  N2  UNL     1       8.924  -5.544  -1.495  1.00  0.00    -0.201 N 
HETATM   14  C3  UNL     1       7.621  -5.632  -1.777  1.00  0.00     0.683 A 
ATOM     15  H2  UNL     1       9.364  -4.625  -1.548  1.00  0.00     0.183 HD
HETATM   16  N1  UNL     1       6.841  -4.674  -2.102  1.00  0.00    -0.206 N 
HETATM   17  N8  UNL     1       7.081  -6.892  -1.690  1.00  0.00    -0.176 N 
ATOM     18  H1  UNL     1       5.878  -4.961  -2.277  1.00  0.00     0.183 HD
HETATM   19  C19 UNL     1       7.823  -7.970  -1.339  1.00  0.00     0.126 A 
ATOM     20  H8  UNL     1       6.091  -7.020  -1.896  1.00  0.00     0.186 HD
BRANCH  16  21
HETATM   21  C2  UNL     1       7.069  -3.309  -2.260  1.00  0.00     0.074 C 
HETATM   22  C1  UNL     1       5.888  -2.388  -2.362  1.00  0.00     0.055 C 
ENDBRANCH  16  21
BRANCH  19  23
HETATM   23  N7  UNL     1       7.069  -9.181  -1.156  1.00  0.00    -0.375 N 
HETATM   24  C20 UNL     1       6.836 -10.026  -2.295  1.00  0.00     0.150 C 
HETATM   25  C21 UNL     1       6.500  -9.534   0.116  1.00  0.00     0.150 C 
ENDBRANCH  19  23
ENDBRANCH  10  11
ENDBRANCH   1  10
BRANCH   3  26
HETATM   26  C10 UNL     1      14.773  -8.513   0.531  1.00  0.00     0.077 A 
HETATM   27  C11 UNL     1      15.808  -8.966   1.315  1.00  0.00     0.121 A 
HETATM   28  N3  UNL     1      16.956  -8.631   0.721  1.00  0.00    -0.353 N 
HETATM   29  C12 UNL     1      16.699  -7.980  -0.415  1.00  0.00     0.086 A 
ATOM     30  H3  UNL     1      17.887  -8.841   1.080  1.00  0.00     0.166 HD
HETATM   31  N4  UNL     1      15.326  -7.918  -0.519  1.00  0.00    -0.343 N 
ATOM     32  H4  UNL     1      14.813  -7.483  -1.286  1.00  0.00     0.167 HD
BRANCH  29  33
HETATM   33  C13 UNL     1      17.691  -7.392  -1.347  1.00  0.00     0.057 C 
HETATM   34  C14 UNL     1      18.783  -6.666  -0.570  1.00  0.00     0.038 C 
HETATM   35  C15 UNL     1      20.134  -7.282  -0.763  1.00  0.00     0.168 C 
HETATM   36  O1  UNL     1      20.116  -8.666  -0.567  1.00  0.00    -0.391 OA
HETATM   37  C16 UNL     1      19.290  -9.316  -1.451  1.00  0.00     0.168 C 
HETATM   38  C17 UNL     1      18.335  -8.429  -2.195  1.00  0.00     0.038 C 
ENDBRANCH  29  33
ENDBRANCH   3  26
TORSDOF 6
ENDMDL
MODEL 2
REMARK VINA RESULT: -6.741951518      2.103      2.512
REMARK  6 active torsions:
REMARK  status: ('A' for Active; 'I' for Inactive)
REMARK    1  A    between atoms: C2_2  and  N1_3 
REMARK    2  A    between atoms: C5_9  and  C6_10 
REMARK    3  A    between atoms: C6_10  and  C7_11 
REMARK    4  A    between atoms: C9_13  and  C10_14 
REMARK    5  A    between atoms: C12_18  and  C13_19 
REMARK    6  A    between atoms: C19_33  and  N7_34 
ROOT
HETATM    1  C7  UNL     1      11.196  -8.592   0.449  1.00  0.00     0.018 A 
HETATM    2  C8  UNL     1      12.549  -8.546   0.046  1.00  0.00     0.046 A 
HETATM    3  C9  UNL     1      13.588  -8.576   0.936  1.00  0.00     0.076 A 
HETATM    4  N5  UNL     1      13.252  -8.656   2.238  1.00  0.00    -0.296 N 
ATOM      5  H5  UNL     1      13.996  -8.684   2.934  1.00  0.00     0.187 HD
HETATM    6  N6  UNL     1      12.003  -8.701   2.647  1.00  0.00    -0.266 N 
ATOM      7  H6  UNL     1      11.817  -8.760   3.648  1.00  0.00     0.190 HD
HETATM    8  C18 UNL     1      10.945  -8.671   1.785  1.00  0.00     0.266 A 
HETATM    9  O2  UNL     1       9.787  -8.716   2.208  1.00  0.00    -0.266 OA
ENDROOT
BRANCH   1  10
HETATM   10  C6  UNL     1      10.197  -8.457  -0.628  1.00  0.00     0.088 C 
BRANCH  10  11
HETATM   11  C5  UNL     1      10.300  -7.327  -1.526  1.00  0.00     0.007 A 
HETATM   12  C4  UNL     1      10.129  -6.034  -1.042  1.00  0.00     0.117 A 
HETATM   13  N2  UNL     1      10.346  -4.970  -1.825  1.00  0.00    -0.201 N 
HETATM   14  C3  UNL     1      10.733  -5.045  -3.102  1.00  0.00     0.683 A 
ATOM     15  H2  UNL     1      10.206  -4.043  -1.421  1.00  0.00     0.183 HD
HETATM   16  N1  UNL     1      10.942  -4.068  -3.897  1.00  0.00    -0.206 N 
HETATM   17  N8  UNL     1      10.905  -6.316  -3.593  1.00  0.00    -0.176 N 
ATOM     18  H1  UNL     1      11.234  -4.348  -4.834  1.00  0.00     0.183 HD
HETATM   19  C19 UNL     1      10.692  -7.416  -2.832  1.00  0.00     0.126 A 
ATOM     20  H8  UNL     1      11.202  -6.435  -4.561  1.00  0.00     0.186 HD
BRANCH  16  21
HETATM   21  C2  UNL     1      10.845  -2.691  -3.715  1.00  0.00     0.074 C 
HETATM   22  C1  UNL     1      10.974  -1.794  -4.914  1.00  0.00     0.055 C 
ENDBRANCH  16  21
BRANCH  19  23
HETATM   23  N7  UNL     1      10.778  -8.663  -3.545  1.00  0.00    -0.375 N 
HETATM   24  C20 UNL     1      12.061  -9.298  -3.672  1.00  0.00     0.150 C 
HETATM   25  C21 UNL     1       9.630  -9.253  -4.179  1.00  0.00     0.150 C 
ENDBRANCH  19  23
ENDBRANCH  10  11
ENDBRANCH   1  10
BRANCH   3  26
HETATM   26  C10 UNL     1      15.010  -8.482   0.562  1.00  0.00     0.077 A 
HETATM   27  C11 UNL     1      16.042  -9.031   1.285  1.00  0.00     0.121 A 
HETATM   28  N3  UNL     1      17.187  -8.726   0.671  1.00  0.00    -0.353 N 
HETATM   29  C12 UNL     1      16.932  -8.001  -0.420  1.00  0.00     0.086 A 
ATOM     30  H3  UNL     1      18.116  -9.005   0.986  1.00  0.00     0.166 HD
HETATM   31  N4  UNL     1      15.561  -7.861  -0.474  1.00  0.00    -0.343 N 
ATOM     32  H4  UNL     1      15.049  -7.357  -1.199  1.00  0.00     0.167 HD
BRANCH  29  33
HETATM   33  C13 UNL     1      17.925  -7.418  -1.353  1.00  0.00     0.057 C 
HETATM   34  C14 UNL     1      18.960  -6.605  -0.584  1.00  0.00     0.038 C 
HETATM   35  C15 UNL     1      20.342  -7.169  -0.707  1.00  0.00     0.168 C 
HETATM   36  O1  UNL     1      20.378  -8.540  -0.440  1.00  0.00    -0.391 OA
HETATM   37  C16 UNL     1      19.609  -9.271  -1.312  1.00  0.00     0.168 C 
HETATM   38  C17 UNL     1      18.639  -8.467  -2.128  1.00  0.00     0.038 C 
ENDBRANCH  29  33
ENDBRANCH   3  26
TORSDOF 6
ENDMDL
MODEL 3
REMARK VINA RESULT: -6.734019718      3.908      8.786
REMARK  6 active torsions:
REMARK  status: ('A' for Active; 'I' for Inactive)
REMARK    1  A    between atoms: C2_2  and  N1_3 
REMARK    2  A    between atoms: C5_9  and  C6_10 
REMARK    3  A    between atoms: C6_10  and  C7_11 
REMARK    4  A    between atoms: C9_13  and  C10_14 
REMARK    5  A    between atoms: C12_18  and  C13_19 
REMARK    6  A    between atoms: C19_33  and  N7_34 
ROOT
HETATM    1  C7  UNL     1      13.391  -8.118  -0.474  1.00  0.00     0.018 A 
HETATM    2  C8  UNL     1      13.328  -7.059  -1.407  1.00  0.00     0.046 A 
HETATM    3  C9  UNL     1      12.312  -6.143  -1.417  1.00  0.00     0.076 A 
HETATM    4  N5  UNL     1      11.362  -6.299  -0.477  1.00  0.00    -0.296 N 
ATOM      5  H5  UNL     1      10.589  -5.635  -0.447  1.00  0.00     0.187 HD
HETATM    6  N6  UNL     1      11.391  -7.273   0.407  1.00  0.00    -0.266 N 
ATOM      7  H6  UNL     1      10.639  -7.335   1.092  1.00  0.00     0.190 HD
HETATM    8  C18 UNL     1      12.388  -8.204   0.442  1.00  0.00     0.266 A 
HETATM    9  O2  UNL     1      12.381  -9.102   1.287  1.00  0.00    -0.266 OA
ENDROOT
BRANCH   1  10
HETATM   10  C6  UNL     1      14.501  -9.074  -0.657  1.00  0.00     0.088 C 
BRANCH  10  11
HETATM   11  C5  UNL     1      15.825  -8.551  -0.913  1.00  0.00     0.007 A 
HETATM   12  C4  UNL     1      16.590  -8.046   0.134  1.00  0.00     0.117 A 
HETATM   13  N2  UNL     1      17.862  -7.676  -0.056  1.00  0.00    -0.201 N 
HETATM   14  C3  UNL     1      18.498  -7.754  -1.229  1.00  0.00     0.683 A 
ATOM     15  H2  UNL     1      18.379  -7.312   0.745  1.00  0.00     0.183 HD
HETATM   16  N1  UNL     1      19.702  -7.406  -1.471  1.00  0.00    -0.206 N 
HETATM   17  N8  UNL     1      17.755  -8.250  -2.272  1.00  0.00    -0.176 N 
ATOM     18  H1  UNL     1      19.992  -7.550  -2.439  1.00  0.00     0.183 HD
HETATM   19  C19 UNL     1      16.464  -8.631  -2.118  1.00  0.00     0.126 A 
ATOM     20  H8  UNL     1      18.189  -8.334  -3.191  1.00  0.00     0.186 HD
BRANCH  16  21
HETATM   21  C2  UNL     1      20.691  -6.866  -0.653  1.00  0.00     0.074 C 
HETATM   22  C1  UNL     1      20.530  -5.456  -0.161  1.00  0.00     0.055 C 
ENDBRANCH  16  21
BRANCH  19  23
HETATM   23  N7  UNL     1      15.796  -8.989  -3.341  1.00  0.00    -0.375 N 
HETATM   24  C20 UNL     1      15.762 -10.372  -3.729  1.00  0.00     0.150 C 
HETATM   25  C21 UNL     1      15.218  -7.996  -4.206  1.00  0.00     0.150 C 
ENDBRANCH  19  23
ENDBRANCH  10  11
ENDBRANCH   1  10
BRANCH   3  26
HETATM   26  C10 UNL     1      12.182  -5.054  -2.402  1.00  0.00     0.077 A 
HETATM   27  C11 UNL     1      13.223  -4.261  -2.825  1.00  0.00     0.121 A 
HETATM   28  N3  UNL     1      12.738  -3.368  -3.691  1.00  0.00    -0.353 N 
HETATM   29  C12 UNL     1      11.425  -3.555  -3.840  1.00  0.00     0.086 A 
ATOM     30  H3  UNL     1      13.287  -2.652  -4.166  1.00  0.00     0.166 HD
HETATM   31  N4  UNL     1      11.095  -4.618  -3.027  1.00  0.00    -0.343 N 
ATOM     32  H4  UNL     1      10.159  -5.010  -2.922  1.00  0.00     0.167 HD
BRANCH  29  33
HETATM   33  C13 UNL     1      10.500  -2.747  -4.669  1.00  0.00     0.057 C 
HETATM   34  C14 UNL     1      11.154  -1.427  -5.060  1.00  0.00     0.038 C 
HETATM   35  C15 UNL     1      11.345  -1.294  -6.540  1.00  0.00     0.168 C 
HETATM   36  O1  UNL     1      11.954  -2.422  -7.096  1.00  0.00    -0.391 OA
HETATM   37  C16 UNL     1      11.212  -3.564  -6.927  1.00  0.00     0.168 C 
HETATM   38  C17 UNL     1      10.108  -3.458  -5.915  1.00  0.00     0.038 C 
ENDBRANCH  29  33
ENDBRANCH   3  26
TORSDOF 6
ENDMDL
MODEL 4
REMARK VINA RESULT: -6.672218211      1.480      2.583
REMARK  6 active torsions:
REMARK  status: ('A' for Active; 'I' for Inactive)
REMARK    1  A    between atoms: C2_2  and  N1_3 
REMARK    2  A    between atoms: C5_9  and  C6_10 
REMARK    3  A    between atoms: C6_10  and  C7_11 
REMARK    4  A    between atoms: C9_13  and  C10_14 
REMARK    5  A    between atoms: C12_18  and  C13_19 
REMARK    6  A    between atoms: C19_33  and  N7_34 
ROOT
HETATM    1  C7  UNL     1      11.490  -8.487  -0.301  1.00  0.00     0.018 A 
HETATM    2  C8  UNL     1      12.879  -8.431  -0.556  1.00  0.00     0.046 A 
HETATM    3  C9  UNL     1      13.816  -8.492   0.439  1.00  0.00     0.076 A 
HETATM    4  N5  UNL     1      13.343  -8.613   1.694  1.00  0.00    -0.296 N 
ATOM      5  H5  UNL     1      14.009  -8.665   2.465  1.00  0.00     0.187 HD
HETATM    6  N6  UNL     1      12.057  -8.668   1.966  1.00  0.00    -0.266 N 
ATOM      7  H6  UNL     1      11.766  -8.759   2.939  1.00  0.00     0.190 HD
HETATM    8  C18 UNL     1      11.098  -8.608   0.997  1.00  0.00     0.266 A 
HETATM    9  O2  UNL     1       9.902  -8.665   1.292  1.00  0.00    -0.266 OA
ENDROOT
BRANCH   1  10
HETATM   10  C6  UNL     1      10.611  -8.315  -1.473  1.00  0.00     0.088 C 
BRANCH  10  11
HETATM   11  C5  UNL     1      10.022  -7.015  -1.708  1.00  0.00     0.007 A 
HETATM   12  C4  UNL     1       8.692  -6.781  -1.373  1.00  0.00     0.117 A 
HETATM   13  N2  UNL     1       8.164  -5.554  -1.462  1.00  0.00    -0.201 N 
HETATM   14  C3  UNL     1       8.839  -4.474  -1.867  1.00  0.00     0.683 A 
ATOM     15  H2  UNL     1       7.184  -5.436  -1.204  1.00  0.00     0.183 HD
HETATM   16  N1  UNL     1       8.386  -3.287  -1.983  1.00  0.00    -0.206 N 
HETATM   17  N8  UNL     1      10.153  -4.691  -2.202  1.00  0.00    -0.176 N 
ATOM     18  H1  UNL     1       9.073  -2.607  -2.309  1.00  0.00     0.183 HD
HETATM   19  C19 UNL     1      10.722  -5.918  -2.128  1.00  0.00     0.126 A 
ATOM     20  H8  UNL     1      10.719  -3.902  -2.517  1.00  0.00     0.186 HD
BRANCH  16  21
HETATM   21  C2  UNL     1       7.122  -2.752  -1.743  1.00  0.00     0.074 C 
HETATM   22  C1  UNL     1       6.083  -2.841  -2.824  1.00  0.00     0.055 C 
ENDBRANCH  16  21
BRANCH  19  23
HETATM   23  N7  UNL     1      12.059  -5.991  -2.652  1.00  0.00    -0.375 N 
HETATM   24  C20 UNL     1      13.107  -5.285  -1.967  1.00  0.00     0.150 C 
HETATM   25  C21 UNL     1      12.359  -6.699  -3.867  1.00  0.00     0.150 C 
ENDBRANCH  19  23
ENDBRANCH  10  11
ENDBRANCH   1  10
BRANCH   3  26
HETATM   26  C10 UNL     1      15.270  -8.388   0.222  1.00  0.00     0.077 A 
HETATM   27  C11 UNL     1      16.221  -8.859   1.096  1.00  0.00     0.121 A 
HETATM   28  N3  UNL     1      17.424  -8.570   0.593  1.00  0.00    -0.353 N 
HETATM   29  C12 UNL     1      17.283  -7.930  -0.569  1.00  0.00     0.086 A 
ATOM     30  H3  UNL     1      18.315  -8.802   1.032  1.00  0.00     0.166 HD
HETATM   31  N4  UNL     1      15.926  -7.829  -0.788  1.00  0.00    -0.343 N 
ATOM     32  H4  UNL     1      15.492  -7.391  -1.601  1.00  0.00     0.167 HD
BRANCH  29  33
HETATM   33  C13 UNL     1      18.366  -7.389  -1.424  1.00  0.00     0.057 C 
HETATM   34  C14 UNL     1      19.352  -6.585  -0.584  1.00  0.00     0.038 C 
HETATM   35  C15 UNL     1      20.725  -7.182  -0.578  1.00  0.00     0.168 C 
HETATM   36  O1  UNL     1      20.704  -8.548  -0.282  1.00  0.00    -0.391 OA
HETATM   37  C16 UNL     1      19.995  -9.279  -1.203  1.00  0.00     0.168 C 
HETATM   38  C17 UNL     1      19.118  -8.470  -2.115  1.00  0.00     0.038 C 
ENDBRANCH  29  33
ENDBRANCH   3  26
TORSDOF 6
ENDMDL
MODEL 5
REMARK VINA RESULT: -6.664880837      3.219      9.575
REMARK  6 active torsions:
REMARK  status: ('A' for Active; 'I' for Inactive)
REMARK    1  A    between atoms: C2_2  and  N1_3 
REMARK    2  A    between atoms: C5_9  and  C6_10 
REMARK    3  A    between atoms: C6_10  and  C7_11 
REMARK    4  A    between atoms: C9_13  and  C10_14 
REMARK    5  A    between atoms: C12_18  and  C13_19 
REMARK    6  A    between atoms: C19_33  and  N7_34 
ROOT
HETATM    1  C7  UNL     1      13.317  -7.093  -1.106  1.00  0.00     0.018 A 
HETATM    2  C8  UNL     1      12.444  -8.042  -0.531  1.00  0.00     0.046 A 
HETATM    3  C9  UNL     1      11.157  -7.743  -0.175  1.00  0.00     0.076 A 
HETATM    4  N5  UNL     1      10.756  -6.479  -0.406  1.00  0.00    -0.296 N 
ATOM      5  H5  UNL     1       9.802  -6.215  -0.158  1.00  0.00     0.187 HD
HETATM    6  N6  UNL     1      11.543  -5.570  -0.940  1.00  0.00    -0.266 N 
ATOM      7  H6  UNL     1      11.177  -4.630  -1.087  1.00  0.00     0.190 HD
HETATM    8  C18 UNL     1      12.831  -5.837  -1.304  1.00  0.00     0.266 A 
HETATM    9  O2  UNL     1      13.538  -4.958  -1.803  1.00  0.00    -0.266 OA
ENDROOT
BRANCH   1  10
HETATM   10  C6  UNL     1      14.700  -7.549  -1.346  1.00  0.00     0.088 C 
BRANCH  10  11
HETATM   11  C5  UNL     1      15.321  -8.411  -0.364  1.00  0.00     0.007 A 
HETATM   12  C4  UNL     1      14.903  -8.371   0.963  1.00  0.00     0.117 A 
HETATM   13  N2  UNL     1      15.372  -9.246   1.860  1.00  0.00    -0.201 N 
HETATM   14  C3  UNL     1      16.256 -10.207   1.580  1.00  0.00     0.683 A 
ATOM     15  H2  UNL     1      15.033  -9.173   2.820  1.00  0.00     0.183 HD
HETATM   16  N1  UNL     1      16.746 -11.059   2.395  1.00  0.00    -0.206 N 
HETATM   17  N8  UNL     1      16.679 -10.258   0.274  1.00  0.00    -0.176 N 
ATOM     18  H1  UNL     1      17.408 -11.710   1.972  1.00  0.00     0.183 HD
HETATM   19  C19 UNL     1      16.228  -9.389  -0.662  1.00  0.00     0.126 A 
ATOM     20  H8  UNL     1      17.352 -10.974   0.000  1.00  0.00     0.186 HD
BRANCH  16  21
HETATM   21  C2  UNL     1      16.539 -11.260   3.758  1.00  0.00     0.074 C 
HETATM   22  C1  UNL     1      16.424 -12.667   4.271  1.00  0.00     0.055 C 
ENDBRANCH  16  21
BRANCH  19  23
HETATM   23  N7  UNL     1      16.882  -9.493  -1.939  1.00  0.00    -0.375 N 
HETATM   24  C20 UNL     1      18.018  -8.653  -2.203  1.00  0.00     0.150 C 
HETATM   25  C21 UNL     1      16.394 -10.368  -2.970  1.00  0.00     0.150 C 
ENDBRANCH  19  23
ENDBRANCH  10  11
ENDBRANCH   1  10
BRANCH   3  26
HETATM   26  C10 UNL     1      10.229  -8.688   0.471  1.00  0.00     0.077 A 
HETATM   27  C11 UNL     1      10.348  -9.130   1.768  1.00  0.00     0.121 A 
HETATM   28  N3  UNL     1       9.358  -9.993   2.004  1.00  0.00    -0.353 N 
HETATM   29  C12 UNL     1       8.606 -10.124   0.909  1.00  0.00     0.086 A 
ATOM     30  H3  UNL     1       9.199 -10.477   2.887  1.00  0.00     0.166 HD
HETATM   31  N4  UNL     1       9.166  -9.296  -0.041  1.00  0.00    -0.343 N 
ATOM     32  H4  UNL     1       8.816  -9.170  -0.991  1.00  0.00     0.167 HD
BRANCH  29  33
HETATM   33  C13 UNL     1       7.440 -11.022   0.733  1.00  0.00     0.057 C 
HETATM   34  C14 UNL     1       7.025 -11.621   2.072  1.00  0.00     0.038 C 
HETATM   35  C15 UNL     1       5.649 -11.204   2.489  1.00  0.00     0.168 C 
HETATM   36  O1  UNL     1       5.467  -9.821   2.400  1.00  0.00    -0.391 OA
HETATM   37  C16 UNL     1       5.619  -9.347   1.120  1.00  0.00     0.168 C 
HETATM   38  C17 UNL     1       6.269 -10.303   0.164  1.00  0.00     0.038 C 
ENDBRANCH  29  33
ENDBRANCH   3  26
TORSDOF 6
ENDMDL
