MODEL 1
REMARK VINA RESULT: -6.551969338      0.000      0.000
REMARK  8 active torsions:
REMARK  status: ('A' for Active; 'I' for Inactive)
REMARK    1  A    between atoms: C2_2  and  C3_3 
REMARK    2  A    between atoms: C3_3  and  N1_4 
REMARK    3  A    between atoms: C6_8  and  C7_9 
REMARK    4  A    between atoms: C10_14  and  N3_15 
REMARK    5  A    between atoms: C11_20  and  C12_21 
REMARK    6  A    between atoms: C12_21  and  N5_22 
REMARK       I    between atoms: N6_25  and  C15_26 
REMARK    7  A    between atoms: C15_26  and  O3_28 
REMARK    8  A    between atoms: O3_28  and  C16_29 
ROOT
HETATM    1  C7  UNL     1      16.462  -9.456   0.576  1.00  0.00     0.017 A 
HETATM    2  C8  UNL     1      16.432  -9.969   1.857  1.00  0.00     0.100 A 
HETATM    3  N2  UNL     1      15.225  -9.697   2.387  1.00  0.00    -0.360 N 
ATOM      4  H2  UNL     1      14.912  -9.954   3.323  1.00  0.00     0.165 HD
HETATM    5  C9  UNL     1      14.499  -9.026   1.470  1.00  0.00     0.104 A 
HETATM    6  C10 UNL     1      13.220  -8.521   1.494  1.00  0.00     0.129 A 
HETATM    7  N4  UNL     1      12.754  -7.893   0.410  1.00  0.00    -0.329 N 
ATOM      8  H4  UNL     1      11.803  -7.524   0.441  1.00  0.00     0.168 HD
HETATM    9  C11 UNL     1      13.460  -7.720  -0.713  1.00  0.00     0.112 A 
HETATM   10  N7  UNL     1      14.717  -8.210  -0.746  1.00  0.00    -0.342 N 
ATOM     11  H7  UNL     1      15.283  -8.095  -1.586  1.00  0.00     0.167 HD
HETATM   12  C20 UNL     1      15.228  -8.847   0.315  1.00  0.00     0.074 A 
ENDROOT
BRANCH   9  13
HETATM   13  C12 UNL     1      12.906  -7.012  -1.914  1.00  0.00     0.348 C 
BRANCH  13  14
HETATM   14  N5  UNL     1      13.941  -6.145  -2.444  1.00  0.00     0.098 N 
HETATM   15  C13 UNL     1      13.646  -4.749  -2.168  1.00  0.00     0.293 C 
HETATM   16  C14 UNL     1      13.581  -3.906  -3.400  1.00  0.00     0.158 C 
HETATM   17  N6  UNL     1      12.794  -4.507  -4.441  1.00  0.00    -0.325 N 
HETATM   18  C15 UNL     1      11.853  -3.747  -5.174  1.00  0.00     0.362 C 
HETATM   19  C18 UNL     1      13.000  -5.916  -4.705  1.00  0.00     0.158 C 
HETATM   20  O2  UNL     1      11.188  -4.307  -6.075  1.00  0.00    -0.238 OA
HETATM   21  C19 UNL     1      14.189  -6.333  -3.846  1.00  0.00     0.293 C 
BRANCH  18  22
HETATM   22  O3  UNL     1      11.638  -2.402  -4.932  1.00  0.00    -0.304 OA
BRANCH  22  23
HETATM   23  C16 UNL     1      10.604  -1.626  -5.470  1.00  0.00     0.176 C 
HETATM   24  C17 UNL     1      11.082  -0.407  -6.208  1.00  0.00     0.034 C 
ENDBRANCH  22  23
ENDBRANCH  18  22
ENDBRANCH  13  14
ENDBRANCH   9  13
BRANCH   6  25
HETATM   25  N3  UNL     1      12.478  -8.660   2.568  1.00  0.00    -0.384 N 
ATOM     26  H32 UNL     1      11.473  -8.821   2.497  1.00  0.00     0.157 HD
ATOM     27  H31 UNL     1      12.904  -8.608   3.493  1.00  0.00     0.157 HD
ENDBRANCH   6  25
BRANCH   1  28
HETATM   28  C6  UNL     1      17.595  -9.514  -0.370  1.00  0.00     0.186 C 
HETATM   29  O1  UNL     1      18.613 -10.261   0.166  1.00  0.00    -0.378 OA
HETATM   30  C5  UNL     1      19.789 -10.182  -0.584  1.00  0.00     0.199 C 
HETATM   31  C4  UNL     1      19.590  -9.427  -1.868  1.00  0.00     0.298 C 
HETATM   32  N1  UNL     1      19.101  -8.073  -1.659  1.00  0.00     0.093 N 
HETATM   33  C21 UNL     1      18.022  -8.105  -0.722  1.00  0.00     0.309 C 
BRANCH  32  34
HETATM   34  C3  UNL     1      20.189  -7.200  -1.279  1.00  0.00     0.272 C 
BRANCH  34  35
HETATM   35  C2  UNL     1      19.646  -6.099  -0.405  1.00  0.00     0.026 C 
HETATM   36  C1  UNL     1      20.795  -5.395   0.291  1.00  0.00     0.007 C 
ENDBRANCH  34  35
ENDBRANCH  32  34
ENDBRANCH   1  28
TORSDOF 8
ENDMDL
MODEL 2
REMARK VINA RESULT: -6.392554130      0.882      1.061
REMARK  8 active torsions:
REMARK  status: ('A' for Active; 'I' for Inactive)
REMARK    1  A    between atoms: C2_2  and  C3_3 
REMARK    2  A    between atoms: C3_3  and  N1_4 
REMARK    3  A    between atoms: C6_8  and  C7_9 
REMARK    4  A    between atoms: C10_14  and  N3_15 
REMARK    5  A    between atoms: C11_20  and  C12_21 
REMARK    6  A    between atoms: C12_21  and  N5_22 
REMARK       I    between atoms: N6_25  and  C15_26 
REMARK    7  A    between atoms: C15_26  and  O3_28 
REMARK    8  A    between atoms: O3_28  and  C16_29 
ROOT
HETATM    1  C7  UNL     1      16.458  -9.190   0.310  1.00  0.00     0.017 A 
HETATM    2  C8  UNL     1      16.418  -9.710   1.588  1.00  0.00     0.100 A 
HETATM    3  N2  UNL     1      15.180  -9.512   2.079  1.00  0.00    -0.360 N 
ATOM      4  H2  UNL     1      14.852  -9.792   3.004  1.00  0.00     0.165 HD
HETATM    5  C9  UNL     1      14.445  -8.882   1.140  1.00  0.00     0.104 A 
HETATM    6  C10 UNL     1      13.138  -8.455   1.123  1.00  0.00     0.129 A 
HETATM    7  N4  UNL     1      12.671  -7.850   0.026  1.00  0.00    -0.329 N 
ATOM      8  H4  UNL     1      11.700  -7.538   0.027  1.00  0.00     0.168 HD
HETATM    9  C11 UNL     1      13.402  -7.630  -1.073  1.00  0.00     0.112 A 
HETATM   10  N7  UNL     1      14.687  -8.045  -1.065  1.00  0.00    -0.342 N 
ATOM     11  H7  UNL     1      15.272  -7.892  -1.886  1.00  0.00     0.167 HD
HETATM   12  C20 UNL     1      15.199  -8.655   0.010  1.00  0.00     0.074 A 
ENDROOT
BRANCH   9  13
HETATM   13  C12 UNL     1      12.847  -6.951  -2.290  1.00  0.00     0.348 C 
BRANCH  13  14
HETATM   14  N5  UNL     1      12.576  -5.567  -1.951  1.00  0.00     0.098 N 
HETATM   15  C13 UNL     1      11.195  -5.219  -2.239  1.00  0.00     0.293 C 
HETATM   16  C14 UNL     1      11.061  -4.065  -3.177  1.00  0.00     0.158 C 
HETATM   17  N6  UNL     1      11.918  -4.182  -4.325  1.00  0.00    -0.325 N 
HETATM   18  C15 UNL     1      11.436  -3.905  -5.626  1.00  0.00     0.362 C 
HETATM   19  C18 UNL     1      13.287  -4.597  -4.096  1.00  0.00     0.158 C 
HETATM   20  O2  UNL     1      12.215  -4.017  -6.599  1.00  0.00    -0.238 OA
HETATM   21  C19 UNL     1      13.465  -4.634  -2.583  1.00  0.00     0.293 C 
BRANCH  18  22
HETATM   22  O3  UNL     1      10.131  -3.514  -5.864  1.00  0.00    -0.304 OA
BRANCH  22  23
HETATM   23  C16 UNL     1       9.696  -2.204  -6.096  1.00  0.00     0.176 C 
HETATM   24  C17 UNL     1      10.719  -1.156  -5.757  1.00  0.00     0.034 C 
ENDBRANCH  22  23
ENDBRANCH  18  22
ENDBRANCH  13  14
ENDBRANCH   9  13
BRANCH   6  25
HETATM   25  N3  UNL     1      12.371  -8.643   2.172  1.00  0.00    -0.384 N 
ATOM     26  H32 UNL     1      12.642  -8.294   3.092  1.00  0.00     0.157 HD
ATOM     27  H31 UNL     1      11.488  -9.144   2.076  1.00  0.00     0.157 HD
ENDBRANCH   6  25
BRANCH   1  28
HETATM   28  C6  UNL     1      17.623  -9.176  -0.598  1.00  0.00     0.186 C 
HETATM   29  O1  UNL     1      18.601 -10.009  -0.117  1.00  0.00    -0.378 OA
HETATM   30  C5  UNL     1      19.805  -9.883  -0.813  1.00  0.00     0.199 C 
HETATM   31  C4  UNL     1      19.674  -8.983  -2.009  1.00  0.00     0.298 C 
HETATM   32  N1  UNL     1      19.214  -7.646  -1.665  1.00  0.00     0.093 N 
HETATM   33  C21 UNL     1      18.101  -7.751  -0.774  1.00  0.00     0.309 C 
BRANCH  32  34
HETATM   34  C3  UNL     1      20.310  -6.855  -1.152  1.00  0.00     0.272 C 
BRANCH  34  35
HETATM   35  C2  UNL     1      19.749  -5.712  -0.346  1.00  0.00     0.026 C 
HETATM   36  C1  UNL     1      20.756  -5.297   0.710  1.00  0.00     0.007 C 
ENDBRANCH  34  35
ENDBRANCH  32  34
ENDBRANCH   1  28
TORSDOF 8
ENDMDL
MODEL 3
REMARK VINA RESULT: -6.234665565      1.956      8.229
REMARK  8 active torsions:
REMARK  status: ('A' for Active; 'I' for Inactive)
REMARK    1  A    between atoms: C2_2  and  C3_3 
REMARK    2  A    between atoms: C3_3  and  N1_4 
REMARK    3  A    between atoms: C6_8  and  C7_9 
REMARK    4  A    between atoms: C10_14  and  N3_15 
REMARK    5  A    between atoms: C11_20  and  C12_21 
REMARK    6  A    between atoms: C12_21  and  N5_22 
REMARK       I    between atoms: N6_25  and  C15_26 
REMARK    7  A    between atoms: C15_26  and  O3_28 
REMARK    8  A    between atoms: O3_28  and  C16_29 
ROOT
HETATM    1  C7  UNL     1      11.230  -6.307  -1.706  1.00  0.00     0.017 A 
HETATM    2  C8  UNL     1       9.873  -6.511  -1.564  1.00  0.00     0.100 A 
HETATM    3  N2  UNL     1       9.684  -7.343  -0.523  1.00  0.00    -0.360 N 
ATOM      4  H2  UNL     1       8.782  -7.675  -0.179  1.00  0.00     0.165 HD
HETATM    5  C9  UNL     1      10.889  -7.664  -0.010  1.00  0.00     0.104 A 
HETATM    6  C10 UNL     1      11.260  -8.462   1.046  1.00  0.00     0.129 A 
HETATM    7  N4  UNL     1      12.559  -8.592   1.332  1.00  0.00    -0.329 N 
ATOM      8  H4  UNL     1      12.821  -9.188   2.118  1.00  0.00     0.168 HD
HETATM    9  C11 UNL     1      13.537  -7.987   0.648  1.00  0.00     0.112 A 
HETATM   10  N7  UNL     1      13.183  -7.201  -0.392  1.00  0.00    -0.342 N 
ATOM     11  H7  UNL     1      13.903  -6.726  -0.935  1.00  0.00     0.167 HD
HETATM   12  C20 UNL     1      11.894  -7.041  -0.715  1.00  0.00     0.074 A 
ENDROOT
BRANCH   9  13
HETATM   13  C12 UNL     1      14.987  -8.151   0.996  1.00  0.00     0.348 C 
BRANCH  13  14
HETATM   14  N5  UNL     1      15.449  -9.402   0.428  1.00  0.00     0.098 N 
HETATM   15  C13 UNL     1      16.657  -9.863   1.092  1.00  0.00     0.293 C 
HETATM   16  C14 UNL     1      17.804 -10.066   0.156  1.00  0.00     0.158 C 
HETATM   17  N6  UNL     1      17.982  -8.964  -0.749  1.00  0.00    -0.325 N 
HETATM   18  C15 UNL     1      19.267  -8.432  -1.005  1.00  0.00     0.362 C 
HETATM   19  C18 UNL     1      16.797  -8.422  -1.381  1.00  0.00     0.158 C 
HETATM   20  O2  UNL     1      19.380  -7.473  -1.802  1.00  0.00    -0.238 OA
HETATM   21  C19 UNL     1      15.653  -9.351  -0.992  1.00  0.00     0.293 C 
BRANCH  18  22
HETATM   22  O3  UNL     1      20.409  -8.933  -0.405  1.00  0.00    -0.304 OA
BRANCH  22  23
HETATM   23  C16 UNL     1      21.397  -9.700  -1.033  1.00  0.00     0.176 C 
HETATM   24  C17 UNL     1      22.324 -10.396  -0.077  1.00  0.00     0.034 C 
ENDBRANCH  22  23
ENDBRANCH  18  22
ENDBRANCH  13  14
ENDBRANCH   9  13
BRANCH   6  25
HETATM   25  N3  UNL     1      10.345  -9.083   1.755  1.00  0.00    -0.384 N 
ATOM     26  H32 UNL     1       9.382  -9.155   1.425  1.00  0.00     0.157 HD
ATOM     27  H31 UNL     1      10.591  -9.503   2.651  1.00  0.00     0.157 HD
ENDBRANCH   6  25
BRANCH   1  28
HETATM   28  C6  UNL     1      11.893  -5.473  -2.730  1.00  0.00     0.186 C 
HETATM   29  O1  UNL     1      12.979  -4.838  -2.183  1.00  0.00    -0.378 OA
HETATM   30  C5  UNL     1      13.524  -3.875  -3.037  1.00  0.00     0.199 C 
HETATM   31  C4  UNL     1      12.880  -3.895  -4.394  1.00  0.00     0.298 C 
HETATM   32  N1  UNL     1      11.441  -3.682  -4.342  1.00  0.00     0.093 N 
HETATM   33  C21 UNL     1      10.884  -4.511  -3.319  1.00  0.00     0.309 C 
BRANCH  32  34
HETATM   34  C3  UNL     1      11.148  -2.275  -4.189  1.00  0.00     0.272 C 
BRANCH  34  35
HETATM   35  C2  UNL     1      10.489  -1.776  -5.449  1.00  0.00     0.026 C 
HETATM   36  C1  UNL     1      11.202  -0.528  -5.932  1.00  0.00     0.007 C 
ENDBRANCH  34  35
ENDBRANCH  32  34
ENDBRANCH   1  28
TORSDOF 8
ENDMDL
MODEL 4
REMARK VINA RESULT: -6.215373572      3.570      3.908
REMARK  8 active torsions:
REMARK  status: ('A' for Active; 'I' for Inactive)
REMARK    1  A    between atoms: C2_2  and  C3_3 
REMARK    2  A    between atoms: C3_3  and  N1_4 
REMARK    3  A    between atoms: C6_8  and  C7_9 
REMARK    4  A    between atoms: C10_14  and  N3_15 
REMARK    5  A    between atoms: C11_20  and  C12_21 
REMARK    6  A    between atoms: C12_21  and  N5_22 
REMARK       I    between atoms: N6_25  and  C15_26 
REMARK    7  A    between atoms: C15_26  and  O3_28 
REMARK    8  A    between atoms: O3_28  and  C16_29 
ROOT
HETATM    1  C7  UNL     1      14.272  -8.699   0.255  1.00  0.00     0.017 A 
HETATM    2  C8  UNL     1      14.633  -8.863   1.576  1.00  0.00     0.100 A 
HETATM    3  N2  UNL     1      13.513  -8.821   2.322  1.00  0.00    -0.360 N 
ATOM      4  H2  UNL     1      13.468  -8.914   3.337  1.00  0.00     0.165 HD
HETATM    5  C9  UNL     1      12.461  -8.637   1.500  1.00  0.00     0.104 A 
HETATM    6  C10 UNL     1      11.111  -8.528   1.738  1.00  0.00     0.129 A 
HETATM    7  N4  UNL     1      10.285  -8.351   0.702  1.00  0.00    -0.329 N 
ATOM      8  H4  UNL     1       9.286  -8.272   0.893  1.00  0.00     0.168 HD
HETATM    9  C11 UNL     1      10.691  -8.270  -0.570  1.00  0.00     0.112 A 
HETATM   10  N7  UNL     1      12.015  -8.374  -0.814  1.00  0.00    -0.342 N 
ATOM     11  H7  UNL     1      12.359  -8.317  -1.772  1.00  0.00     0.167 HD
HETATM   12  C20 UNL     1      12.881  -8.553   0.191  1.00  0.00     0.074 A 
ENDROOT
BRANCH   9  13
HETATM   13  C12 UNL     1       9.738  -8.073  -1.712  1.00  0.00     0.348 C 
BRANCH  13  14
HETATM   14  N5  UNL     1      10.120  -6.865  -2.416  1.00  0.00     0.098 N 
HETATM   15  C13 UNL     1       9.929  -5.691  -1.580  1.00  0.00     0.293 C 
HETATM   16  C14 UNL     1       9.024  -4.673  -2.193  1.00  0.00     0.158 C 
HETATM   17  N6  UNL     1       7.821  -5.250  -2.726  1.00  0.00    -0.325 N 
HETATM   18  C15 UNL     1       6.560  -4.654  -2.491  1.00  0.00     0.362 C 
HETATM   19  C18 UNL     1       7.953  -6.464  -3.506  1.00  0.00     0.158 C 
HETATM   20  O2  UNL     1       5.536  -5.188  -2.975  1.00  0.00    -0.238 OA
HETATM   21  C19 UNL     1       9.450  -6.693  -3.674  1.00  0.00     0.293 C 
BRANCH  18  22
HETATM   22  O3  UNL     1       6.415  -3.499  -1.744  1.00  0.00    -0.304 OA
BRANCH  22  23
HETATM   23  C16 UNL     1       5.213  -2.999  -1.231  1.00  0.00     0.176 C 
HETATM   24  C17 UNL     1       4.664  -1.831  -2.001  1.00  0.00     0.034 C 
ENDBRANCH  22  23
ENDBRANCH  18  22
ENDBRANCH  13  14
ENDBRANCH   9  13
BRANCH   6  25
HETATM   25  N3  UNL     1      10.652  -8.600   2.966  1.00  0.00    -0.384 N 
ATOM     26  H32 UNL     1       9.659  -8.751   3.150  1.00  0.00     0.157 HD
ATOM     27  H31 UNL     1      11.289  -8.502   3.756  1.00  0.00     0.157 HD
ENDBRANCH   6  25
BRANCH   1  28
HETATM   28  C6  UNL     1      15.181  -8.667  -0.909  1.00  0.00     0.186 C 
HETATM   29  O1  UNL     1      15.623  -9.934  -1.193  1.00  0.00    -0.378 OA
HETATM   30  C5  UNL     1      16.644  -9.946  -2.146  1.00  0.00     0.199 C 
HETATM   31  C4  UNL     1      16.887  -8.584  -2.731  1.00  0.00     0.298 C 
HETATM   32  N1  UNL     1      17.225  -7.587  -1.726  1.00  0.00     0.093 N 
HETATM   33  C21 UNL     1      16.311  -7.699  -0.632  1.00  0.00     0.309 C 
BRANCH  32  34
HETATM   34  C3  UNL     1      18.616  -7.707  -1.350  1.00  0.00     0.272 C 
BRANCH  34  35
HETATM   35  C2  UNL     1      19.035  -6.450  -0.631  1.00  0.00     0.026 C 
HETATM   36  C1  UNL     1      20.542  -6.305  -0.706  1.00  0.00     0.007 C 
ENDBRANCH  34  35
ENDBRANCH  32  34
ENDBRANCH   1  28
TORSDOF 8
ENDMDL
MODEL 5
REMARK VINA RESULT: -6.212258734      6.307     12.065
REMARK  8 active torsions:
REMARK  status: ('A' for Active; 'I' for Inactive)
REMARK    1  A    between atoms: C2_2  and  C3_3 
REMARK    2  A    between atoms: C3_3  and  N1_4 
REMARK    3  A    between atoms: C6_8  and  C7_9 
REMARK    4  A    between atoms: C10_14  and  N3_15 
REMARK    5  A    between atoms: C11_20  and  C12_21 
REMARK    6  A    between atoms: C12_21  and  N5_22 
REMARK       I    between atoms: N6_25  and  C15_26 
REMARK    7  A    between atoms: C15_26  and  O3_28 
REMARK    8  A    between atoms: O3_28  and  C16_29 
ROOT
HETATM    1  C7  UNL     1      17.779 -11.265   1.587  1.00  0.00     0.017 A 
HETATM    2  C8  UNL     1      16.562 -10.663   1.830  1.00  0.00     0.100 A 
HETATM    3  N2  UNL     1      16.105 -11.111   3.015  1.00  0.00    -0.360 N 
ATOM      4  H2  UNL     1      15.226 -10.841   3.457  1.00  0.00     0.165 HD
HETATM    5  C9  UNL     1      17.008 -11.978   3.519  1.00  0.00     0.104 A 
HETATM    6  C10 UNL     1      17.037 -12.707   4.684  1.00  0.00     0.129 A 
HETATM    7  N4  UNL     1      18.087 -13.497   4.925  1.00  0.00    -0.329 N 
ATOM      8  H4  UNL     1      18.096 -14.032   5.793  1.00  0.00     0.168 HD
HETATM    9  C11 UNL     1      19.129 -13.627   4.095  1.00  0.00     0.112 A 
HETATM   10  N7  UNL     1      19.108 -12.916   2.947  1.00  0.00    -0.342 N 
ATOM     11  H7  UNL     1      19.886 -12.992   2.291  1.00  0.00     0.167 HD
HETATM   12  C20 UNL     1      18.077 -12.111   2.662  1.00  0.00     0.074 A 
ENDROOT
BRANCH   9  13
HETATM   13  C12 UNL     1      20.295 -14.521   4.395  1.00  0.00     0.348 C 
BRANCH  13  14
HETATM   14  N5  UNL     1      20.307 -15.591   3.418  1.00  0.00     0.098 N 
HETATM   15  C13 UNL     1      19.171 -16.479   3.601  1.00  0.00     0.293 C 
HETATM   16  C14 UNL     1      19.565 -17.903   3.820  1.00  0.00     0.158 C 
HETATM   17  N6  UNL     1      20.617 -18.044   4.788  1.00  0.00    -0.325 N 
HETATM   18  C15 UNL     1      20.552 -19.033   5.797  1.00  0.00     0.362 C 
HETATM   19  C18 UNL     1      21.739 -17.133   4.692  1.00  0.00     0.158 C 
HETATM   20  O2  UNL     1      21.490 -19.125   6.620  1.00  0.00    -0.238 OA
HETATM   21  C19 UNL     1      21.529 -16.346   3.403  1.00  0.00     0.293 C 
BRANCH  18  22
HETATM   22  O3  UNL     1      19.485 -19.908   5.908  1.00  0.00    -0.304 OA
BRANCH  22  23
HETATM   23  C16 UNL     1      18.528 -19.909   6.930  1.00  0.00     0.176 C 
HETATM   24  C17 UNL     1      17.267 -19.169   6.580  1.00  0.00     0.034 C 
ENDBRANCH  22  23
ENDBRANCH  18  22
ENDBRANCH  13  14
ENDBRANCH   9  13
BRANCH   6  25
HETATM   25  N3  UNL     1      16.043 -12.621   5.539  1.00  0.00    -0.384 N 
ATOM     26  H32 UNL     1      15.451 -13.427   5.741  1.00  0.00     0.157 HD
ATOM     27  H31 UNL     1      15.853 -11.739   6.014  1.00  0.00     0.157 HD
ENDBRANCH   6  25
BRANCH   1  28
HETATM   28  C6  UNL     1      18.633 -11.075   0.396  1.00  0.00     0.186 C 
HETATM   29  O1  UNL     1      19.955 -11.167   0.750  1.00  0.00    -0.378 OA
HETATM   30  C5  UNL     1      20.815 -10.790  -0.284  1.00  0.00     0.199 C 
HETATM   31  C4  UNL     1      20.077 -10.535  -1.568  1.00  0.00     0.298 C 
HETATM   32  N1  UNL     1      19.056  -9.507  -1.439  1.00  0.00     0.093 N 
HETATM   33  C21 UNL     1      18.290  -9.754  -0.258  1.00  0.00     0.309 C 
BRANCH  32  34
HETATM   34  C3  UNL     1      19.659  -8.194  -1.489  1.00  0.00     0.272 C 
BRANCH  34  35
HETATM   35  C2  UNL     1      18.744  -7.213  -0.802  1.00  0.00     0.026 C 
HETATM   36  C1  UNL     1      19.548  -6.014  -0.336  1.00  0.00     0.007 C 
ENDBRANCH  34  35
ENDBRANCH  32  34
ENDBRANCH   1  28
TORSDOF 8
ENDMDL
