MODEL 1
REMARK VINA RESULT: -6.265088455      0.000      0.000
REMARK  7 active torsions:
REMARK  status: ('A' for Active; 'I' for Inactive)
REMARK    1  A    between atoms: C2_2  and  C3_3 
REMARK    2  A    between atoms: C3_3  and  N1_4 
REMARK    3  A    between atoms: N2_6  and  C5_8 
REMARK    4  A    between atoms: C7_12  and  N4_13 
REMARK    5  A    between atoms: N5_16  and  C10_17 
REMARK    6  A    between atoms: C15_24  and  C16_25 
REMARK    7  A    between atoms: C22_34  and  N9_35 
ROOT
HETATM    1  N1  UNL     1      10.925  -6.871  -0.814  1.00  0.00    -0.165 N 
HETATM    2  C4  UNL     1      12.300  -6.756  -0.929  1.00  0.00     0.141 A 
HETATM    3  N2  UNL     1      12.971  -7.554  -0.290  1.00  0.00    -0.176 N 
ATOM      4  H2  UNL     1      12.341  -8.174   0.222  1.00  0.00     0.186 HD
HETATM    5  C14 UNL     1      12.800  -5.754  -1.761  1.00  0.00     0.075 A 
HETATM    6  C15 UNL     1      11.948  -4.922  -2.433  1.00  0.00     0.034 A 
HETATM    7  N8  UNL     1      10.626  -5.089  -2.275  1.00  0.00    -0.195 N 
ATOM      8  H8  UNL     1       9.982  -4.473  -2.772  1.00  0.00     0.184 HD
HETATM    9  C22 UNL     1      10.131  -6.052  -1.475  1.00  0.00     0.680 A 
ENDROOT
BRANCH   1  10
HETATM   10  C3  UNL     1      10.415  -7.908   0.096  1.00  0.00     0.176 C 
BRANCH  10  11
HETATM   11  C2  UNL     1      10.146  -9.145  -0.673  1.00  0.00    -0.016 C 
HETATM   12  C1  UNL     1       9.000  -9.786  -0.563  1.00  0.00     0.008 C 
ENDBRANCH  10  11
ENDBRANCH   1  10
BRANCH   3  13
HETATM   13  C5  UNL     1      14.251  -7.912  -0.016  1.00  0.00     0.685 A 
HETATM   14  N3  UNL     1      14.734  -8.353   1.169  1.00  0.00    -0.198 N 
HETATM   15  C6  UNL     1      16.013  -8.659   0.997  1.00  0.00     0.155 A 
ATOM     16  H3  UNL     1      14.208  -8.435   2.040  1.00  0.00     0.183 HD
HETATM   17  C7  UNL     1      16.358  -8.408  -0.320  1.00  0.00     0.136 A 
HETATM   18  N6  UNL     1      15.259  -7.946  -0.931  1.00  0.00    -0.175 N 
ATOM     19  H6  UNL     1      15.190  -7.668  -1.910  1.00  0.00     0.186 HD
BRANCH  17  20
HETATM   20  N4  UNL     1      17.629  -8.656  -0.929  1.00  0.00    -0.338 N 
HETATM   21  C8  UNL     1      18.560  -9.679  -0.563  1.00  0.00     0.156 C 
HETATM   22  C9  UNL     1      19.757  -9.469  -1.464  1.00  0.00     0.294 C 
HETATM   23  N5  UNL     1      19.688  -8.036  -1.783  1.00  0.00     0.112 N 
HETATM   24  C13 UNL     1      18.249  -7.909  -1.991  1.00  0.00     0.399 C 
BRANCH  23  25
HETATM   25  C10 UNL     1      20.149  -7.347  -0.602  1.00  0.00     0.225 A 
HETATM   26  C11 UNL     1      19.725  -5.991  -0.242  1.00  0.00     0.038 A 
HETATM   27  C12 UNL     1      21.048  -6.135  -0.938  1.00  0.00     0.038 A 
ENDBRANCH  23  25
ENDBRANCH  17  20
ENDBRANCH   3  13
BRANCH   9  28
HETATM   28  N9  UNL     1       8.842  -6.209  -1.314  1.00  0.00    -0.234 N 
ATOM     29  H92 UNL     1       8.466  -6.788  -0.563  1.00  0.00     0.174 HD
ATOM     30  H91 UNL     1       8.228  -5.732  -1.973  1.00  0.00     0.174 HD
ENDBRANCH   9  28
BRANCH   6  31
HETATM   31  C16 UNL     1      12.428  -3.843  -3.334  1.00  0.00     0.039 C 
HETATM   32  C17 UNL     1      12.725  -4.404  -4.689  1.00  0.00     0.030 C 
HETATM   33  C18 UNL     1      11.723  -4.110  -5.736  1.00  0.00     0.117 C 
HETATM   34  N7  UNL     1      11.398  -2.736  -5.744  1.00  0.00    -0.417 N 
HETATM   35  C19 UNL     1      12.047  -1.909  -6.702  1.00  0.00     0.143 C 
HETATM   36  C20 UNL     1      10.983  -2.134  -4.537  1.00  0.00     0.117 C 
HETATM   37  C21 UNL     1      11.441  -2.743  -3.265  1.00  0.00     0.030 C 
ENDBRANCH   6  31
TORSDOF 7
ENDMDL
MODEL 2
REMARK VINA RESULT: -6.035987253      2.829     10.212
REMARK  7 active torsions:
REMARK  status: ('A' for Active; 'I' for Inactive)
REMARK    1  A    between atoms: C2_2  and  C3_3 
REMARK    2  A    between atoms: C3_3  and  N1_4 
REMARK    3  A    between atoms: N2_6  and  C5_8 
REMARK    4  A    between atoms: C7_12  and  N4_13 
REMARK    5  A    between atoms: N5_16  and  C10_17 
REMARK    6  A    between atoms: C15_24  and  C16_25 
REMARK    7  A    between atoms: C22_34  and  N9_35 
ROOT
HETATM    1  N1  UNL     1      19.322  -8.903  -0.938  1.00  0.00    -0.165 N 
HETATM    2  C4  UNL     1      18.165  -9.325  -0.306  1.00  0.00     0.141 A 
HETATM    3  N2  UNL     1      17.211  -8.562  -0.347  1.00  0.00    -0.176 N 
ATOM      4  H2  UNL     1      17.481  -7.728  -0.869  1.00  0.00     0.186 HD
HETATM    5  C14 UNL     1      18.183 -10.576   0.311  1.00  0.00     0.075 A 
HETATM    6  C15 UNL     1      19.313 -11.346   0.285  1.00  0.00     0.034 A 
HETATM    7  N8  UNL     1      20.400 -10.875  -0.346  1.00  0.00    -0.195 N 
ATOM      8  H8  UNL     1      21.247 -11.442  -0.371  1.00  0.00     0.184 HD
HETATM    9  C22 UNL     1      20.396  -9.669  -0.945  1.00  0.00     0.680 A 
ENDROOT
BRANCH   1  10
HETATM   10  C3  UNL     1      19.299  -7.566  -1.553  1.00  0.00     0.176 C 
BRANCH  10  11
HETATM   11  C2  UNL     1      19.583  -6.546  -0.516  1.00  0.00    -0.016 C 
HETATM   12  C1  UNL     1      20.672  -5.806  -0.562  1.00  0.00     0.008 C 
ENDBRANCH  10  11
ENDBRANCH   1  10
BRANCH   3  13
HETATM   13  C5  UNL     1      15.921  -8.425   0.053  1.00  0.00     0.685 A 
HETATM   14  N3  UNL     1      15.443  -8.567   1.312  1.00  0.00    -0.198 N 
HETATM   15  C6  UNL     1      14.146  -8.284   1.286  1.00  0.00     0.155 A 
ATOM     16  H3  UNL     1      15.982  -8.842   2.132  1.00  0.00     0.183 HD
HETATM   17  C7  UNL     1      13.787  -7.958  -0.010  1.00  0.00     0.136 A 
HETATM   18  N6  UNL     1      14.893  -8.052  -0.759  1.00  0.00    -0.175 N 
ATOM     19  H6  UNL     1      14.954  -7.875  -1.761  1.00  0.00     0.186 HD
BRANCH  17  20
HETATM   20  N4  UNL     1      12.492  -7.538  -0.454  1.00  0.00    -0.338 N 
HETATM   21  C8  UNL     1      11.593  -8.288  -1.275  1.00  0.00     0.156 C 
HETATM   22  C9  UNL     1      10.407  -7.377  -1.503  1.00  0.00     0.294 C 
HETATM   23  N5  UNL     1      10.985  -6.034  -1.359  1.00  0.00     0.112 N 
HETATM   24  C13 UNL     1      11.854  -6.272  -0.211  1.00  0.00     0.399 C 
BRANCH  23  25
HETATM   25  C10 UNL     1      11.719  -5.788  -2.578  1.00  0.00     0.225 A 
HETATM   26  C11 UNL     1      12.771  -4.774  -2.696  1.00  0.00     0.038 A 
HETATM   27  C12 UNL     1      11.401  -4.404  -3.188  1.00  0.00     0.038 A 
ENDBRANCH  23  25
ENDBRANCH  17  20
ENDBRANCH   3  13
BRANCH   9  28
HETATM   28  N9  UNL     1      21.458  -9.206  -1.552  1.00  0.00    -0.234 N 
ATOM     29  H92 UNL     1      21.384  -8.650  -2.405  1.00  0.00     0.174 HD
ATOM     30  H91 UNL     1      22.364  -9.427  -1.141  1.00  0.00     0.174 HD
ENDBRANCH   9  28
BRANCH   6  31
HETATM   31  C16 UNL     1      19.382 -12.685   0.922  1.00  0.00     0.039 C 
HETATM   32  C17 UNL     1      20.779 -13.216   0.845  1.00  0.00     0.030 C 
HETATM   33  C18 UNL     1      21.555 -13.159   2.103  1.00  0.00     0.117 C 
HETATM   34  N7  UNL     1      20.803 -13.682   3.178  1.00  0.00    -0.417 N 
HETATM   35  C19 UNL     1      21.047 -15.029   3.561  1.00  0.00     0.143 C 
HETATM   36  C20 UNL     1      19.514 -13.159   3.416  1.00  0.00     0.117 C 
HETATM   37  C21 UNL     1      18.786 -12.560   2.271  1.00  0.00     0.030 C 
ENDBRANCH   6  31
TORSDOF 7
ENDMDL
MODEL 3
REMARK VINA RESULT: -6.021046112      2.640      9.897
REMARK  7 active torsions:
REMARK  status: ('A' for Active; 'I' for Inactive)
REMARK    1  A    between atoms: C2_2  and  C3_3 
REMARK    2  A    between atoms: C3_3  and  N1_4 
REMARK    3  A    between atoms: N2_6  and  C5_8 
REMARK    4  A    between atoms: C7_12  and  N4_13 
REMARK    5  A    between atoms: N5_16  and  C10_17 
REMARK    6  A    between atoms: C15_24  and  C16_25 
REMARK    7  A    between atoms: C22_34  and  N9_35 
ROOT
HETATM    1  N1  UNL     1      19.218  -8.720  -0.901  1.00  0.00    -0.165 N 
HETATM    2  C4  UNL     1      18.050  -9.200  -0.333  1.00  0.00     0.141 A 
HETATM    3  N2  UNL     1      17.100  -8.431  -0.304  1.00  0.00    -0.176 N 
ATOM      4  H2  UNL     1      17.382  -7.548  -0.731  1.00  0.00     0.186 HD
HETATM    5  C14 UNL     1      18.054 -10.510   0.149  1.00  0.00     0.075 A 
HETATM    6  C15 UNL     1      19.180 -11.279   0.055  1.00  0.00     0.034 A 
HETATM    7  N8  UNL     1      20.277 -10.751  -0.507  1.00  0.00    -0.195 N 
ATOM      8  H8  UNL     1      21.122 -11.318  -0.582  1.00  0.00     0.184 HD
HETATM    9  C22 UNL     1      20.287  -9.488  -0.975  1.00  0.00     0.680 A 
ENDROOT
BRANCH   1  10
HETATM   10  C3  UNL     1      19.210  -7.326  -1.370  1.00  0.00     0.176 C 
BRANCH  10  11
HETATM   11  C2  UNL     1      19.512  -6.425  -0.233  1.00  0.00    -0.016 C 
HETATM   12  C1  UNL     1      20.550  -5.615  -0.256  1.00  0.00     0.008 C 
ENDBRANCH  10  11
ENDBRANCH   1  10
BRANCH   3  13
HETATM   13  C5  UNL     1      15.806  -8.329   0.091  1.00  0.00     0.685 A 
HETATM   14  N3  UNL     1      15.329  -8.470   1.350  1.00  0.00    -0.198 N 
HETATM   15  C6  UNL     1      14.024  -8.227   1.318  1.00  0.00     0.155 A 
ATOM     16  H3  UNL     1      15.874  -8.717   2.175  1.00  0.00     0.183 HD
HETATM   17  C7  UNL     1      13.658  -7.929   0.017  1.00  0.00     0.136 A 
HETATM   18  N6  UNL     1      14.769  -7.998  -0.728  1.00  0.00    -0.175 N 
ATOM     19  H6  UNL     1      14.827  -7.832  -1.733  1.00  0.00     0.186 HD
BRANCH  17  20
HETATM   20  N4  UNL     1      12.353  -7.555  -0.435  1.00  0.00    -0.338 N 
HETATM   21  C8  UNL     1      11.491  -8.331  -1.273  1.00  0.00     0.156 C 
HETATM   22  C9  UNL     1      10.273  -7.464  -1.503  1.00  0.00     0.294 C 
HETATM   23  N5  UNL     1      10.797  -6.101  -1.340  1.00  0.00     0.112 N 
HETATM   24  C13 UNL     1      11.663  -6.317  -0.186  1.00  0.00     0.399 C 
BRANCH  23  25
HETATM   25  C10 UNL     1      11.531  -5.814  -2.549  1.00  0.00     0.225 A 
HETATM   26  C11 UNL     1      12.575  -4.788  -2.635  1.00  0.00     0.038 A 
HETATM   27  C12 UNL     1      11.204  -4.416  -3.121  1.00  0.00     0.038 A 
ENDBRANCH  23  25
ENDBRANCH  17  20
ENDBRANCH   3  13
BRANCH   9  28
HETATM   28  N9  UNL     1      21.360  -8.970  -1.515  1.00  0.00    -0.234 N 
ATOM     29  H92 UNL     1      22.284  -9.114  -1.107  1.00  0.00     0.174 HD
ATOM     30  H91 UNL     1      21.235  -8.410  -2.358  1.00  0.00     0.174 HD
ENDBRANCH   9  28
BRANCH   6  31
HETATM   31  C16 UNL     1      19.234 -12.680   0.547  1.00  0.00     0.039 C 
HETATM   32  C17 UNL     1      19.853 -12.720   1.908  1.00  0.00     0.030 C 
HETATM   33  C18 UNL     1      18.913 -12.917   3.033  1.00  0.00     0.117 C 
HETATM   34  N7  UNL     1      18.039 -13.995   2.770  1.00  0.00    -0.417 N 
HETATM   35  C19 UNL     1      18.357 -15.257   3.343  1.00  0.00     0.143 C 
HETATM   36  C20 UNL     1      17.309 -13.992   1.563  1.00  0.00     0.117 C 
HETATM   37  C21 UNL     1      17.872 -13.244   0.413  1.00  0.00     0.030 C 
ENDBRANCH   6  31
TORSDOF 7
ENDMDL
MODEL 4
REMARK VINA RESULT: -5.996053025      3.951      7.037
REMARK  7 active torsions:
REMARK  status: ('A' for Active; 'I' for Inactive)
REMARK    1  A    between atoms: C2_2  and  C3_3 
REMARK    2  A    between atoms: C3_3  and  N1_4 
REMARK    3  A    between atoms: N2_6  and  C5_8 
REMARK    4  A    between atoms: C7_12  and  N4_13 
REMARK    5  A    between atoms: N5_16  and  C10_17 
REMARK    6  A    between atoms: C15_24  and  C16_25 
REMARK    7  A    between atoms: C22_34  and  N9_35 
ROOT
HETATM    1  N1  UNL     1      15.568  -8.179  -0.691  1.00  0.00    -0.165 N 
HETATM    2  C4  UNL     1      15.211  -8.910   0.429  1.00  0.00     0.141 A 
HETATM    3  N2  UNL     1      16.090  -9.585   0.945  1.00  0.00    -0.176 N 
ATOM      4  H2  UNL     1      16.952  -9.460   0.413  1.00  0.00     0.186 HD
HETATM    5  C14 UNL     1      13.892  -8.810   0.875  1.00  0.00     0.075 A 
HETATM    6  C15 UNL     1      12.996  -8.014   0.216  1.00  0.00     0.034 A 
HETATM    7  N8  UNL     1      13.411  -7.334  -0.864  1.00  0.00    -0.195 N 
ATOM      8  H8  UNL     1      12.750  -6.737  -1.362  1.00  0.00     0.184 HD
HETATM    9  C22 UNL     1      14.680  -7.421  -1.305  1.00  0.00     0.680 A 
ENDROOT
BRANCH   1  10
HETATM   10  C3  UNL     1      16.952  -8.324  -1.171  1.00  0.00     0.176 C 
BRANCH  10  11
HETATM   11  C2  UNL     1      17.757  -7.176  -0.695  1.00  0.00    -0.016 C 
HETATM   12  C1  UNL     1      19.042  -7.079  -0.969  1.00  0.00     0.008 C 
ENDBRANCH  10  11
ENDBRANCH   1  10
BRANCH   3  13
HETATM   13  C5  UNL     1      16.331 -10.440   1.970  1.00  0.00     0.685 A 
HETATM   14  N3  UNL     1      15.952 -10.287   3.261  1.00  0.00    -0.198 N 
HETATM   15  C6  UNL     1      16.324 -11.375   3.924  1.00  0.00     0.155 A 
ATOM     16  H3  UNL     1      15.468  -9.480   3.654  1.00  0.00     0.183 HD
HETATM   17  C7  UNL     1      16.954 -12.239   3.046  1.00  0.00     0.136 A 
HETATM   18  N6  UNL     1      16.952 -11.646   1.845  1.00  0.00    -0.175 N 
ATOM     19  H6  UNL     1      17.346 -12.031   0.986  1.00  0.00     0.186 HD
BRANCH  17  20
HETATM   20  N4  UNL     1      17.455 -13.544   3.349  1.00  0.00    -0.338 N 
HETATM   21  C8  UNL     1      17.441 -14.182   4.629  1.00  0.00     0.156 C 
HETATM   22  C9  UNL     1      18.141 -15.507   4.421  1.00  0.00     0.294 C 
HETATM   23  N5  UNL     1      19.023 -15.244   3.277  1.00  0.00     0.112 N 
HETATM   24  C13 UNL     1      18.113 -14.457   2.452  1.00  0.00     0.399 C 
BRANCH  23  25
HETATM   25  C10 UNL     1      20.123 -14.468   3.798  1.00  0.00     0.225 A 
HETATM   26  C11 UNL     1      21.013 -13.662   2.956  1.00  0.00     0.038 A 
HETATM   27  C12 UNL     1      21.498 -15.024   3.361  1.00  0.00     0.038 A 
ENDBRANCH  23  25
ENDBRANCH  17  20
ENDBRANCH   3  13
BRANCH   9  28
HETATM   28  N9  UNL     1      15.081  -6.765  -2.363  1.00  0.00    -0.234 N 
ATOM     29  H92 UNL     1      15.576  -7.233  -3.122  1.00  0.00     0.174 HD
ATOM     30  H91 UNL     1      14.884  -5.766  -2.395  1.00  0.00     0.174 HD
ENDBRANCH   9  28
BRANCH   6  31
HETATM   31  C16 UNL     1      11.584  -7.869   0.652  1.00  0.00     0.039 C 
HETATM   32  C17 UNL     1      10.663  -8.206  -0.478  1.00  0.00     0.030 C 
HETATM   33  C18 UNL     1      10.002  -9.526  -0.393  1.00  0.00     0.117 C 
HETATM   34  N7  UNL     1       9.433  -9.718   0.885  1.00  0.00    -0.417 N 
HETATM   35  C19 UNL     1       8.043  -9.463   1.035  1.00  0.00     0.143 C 
HETATM   36  C20 UNL     1      10.253  -9.547   2.021  1.00  0.00     0.117 C 
HETATM   37  C21 UNL     1      11.428  -8.651   1.899  1.00  0.00     0.030 C 
ENDBRANCH   6  31
TORSDOF 7
ENDMDL
MODEL 5
REMARK VINA RESULT: -5.983171126      1.296      1.574
REMARK  7 active torsions:
REMARK  status: ('A' for Active; 'I' for Inactive)
REMARK    1  A    between atoms: C2_2  and  C3_3 
REMARK    2  A    between atoms: C3_3  and  N1_4 
REMARK    3  A    between atoms: N2_6  and  C5_8 
REMARK    4  A    between atoms: C7_12  and  N4_13 
REMARK    5  A    between atoms: N5_16  and  C10_17 
REMARK    6  A    between atoms: C15_24  and  C16_25 
REMARK    7  A    between atoms: C22_34  and  N9_35 
ROOT
HETATM    1  N1  UNL     1      12.306  -7.045  -0.562  1.00  0.00    -0.165 N 
HETATM    2  C4  UNL     1      13.432  -7.345  -1.308  1.00  0.00     0.141 A 
HETATM    3  N2  UNL     1      14.115  -8.280  -0.916  1.00  0.00    -0.176 N 
ATOM      4  H2  UNL     1      13.687  -8.666  -0.074  1.00  0.00     0.186 HD
HETATM    5  C14 UNL     1      13.687  -6.568  -2.439  1.00  0.00     0.075 A 
HETATM    6  C15 UNL     1      12.844  -5.548  -2.783  1.00  0.00     0.034 A 
HETATM    7  N8  UNL     1      11.770  -5.312  -2.015  1.00  0.00    -0.195 N 
ATOM      8  H8  UNL     1      11.135  -4.553  -2.264  1.00  0.00     0.184 HD
HETATM    9  C22 UNL     1      11.513  -6.054  -0.921  1.00  0.00     0.680 A 
ENDROOT
BRANCH   1  10
HETATM   10  C3  UNL     1      12.071  -7.849   0.648  1.00  0.00     0.176 C 
BRANCH  10  11
HETATM   11  C2  UNL     1      11.171  -8.978   0.318  1.00  0.00    -0.016 C 
HETATM   12  C1  UNL     1      10.085  -9.219   1.024  1.00  0.00     0.008 C 
ENDBRANCH  10  11
ENDBRANCH   1  10
BRANCH   3  13
HETATM   13  C5  UNL     1      15.238  -8.989  -1.196  1.00  0.00     0.685 A 
HETATM   14  N3  UNL     1      15.300 -10.249  -1.688  1.00  0.00    -0.198 N 
HETATM   15  C6  UNL     1      16.579 -10.544  -1.883  1.00  0.00     0.155 A 
ATOM     16  H3  UNL     1      14.507 -10.861  -1.874  1.00  0.00     0.183 HD
HETATM   17  C7  UNL     1      17.350  -9.458  -1.509  1.00  0.00     0.136 A 
HETATM   18  N6  UNL     1      16.508  -8.507  -1.086  1.00  0.00    -0.175 N 
ATOM     19  H6  UNL     1      16.770  -7.584  -0.741  1.00  0.00     0.186 HD
BRANCH  17  20
HETATM   20  N4  UNL     1      18.773  -9.347  -1.615  1.00  0.00    -0.338 N 
HETATM   21  C8  UNL     1      19.739 -10.060  -0.837  1.00  0.00     0.156 C 
HETATM   22  C9  UNL     1      21.083  -9.535  -1.293  1.00  0.00     0.294 C 
HETATM   23  N5  UNL     1      20.767  -8.186  -1.780  1.00  0.00     0.112 N 
HETATM   24  C13 UNL     1      19.519  -8.472  -2.480  1.00  0.00     0.399 C 
BRANCH  23  25
HETATM   25  C10 UNL     1      20.578  -7.376  -0.600  1.00  0.00     0.225 A 
HETATM   26  C11 UNL     1      19.646  -6.246  -0.539  1.00  0.00     0.038 A 
HETATM   27  C12 UNL     1      21.092  -5.930  -0.788  1.00  0.00     0.038 A 
ENDBRANCH  23  25
ENDBRANCH  17  20
ENDBRANCH   3  13
BRANCH   9  28
HETATM   28  N9  UNL     1      10.471  -5.817  -0.166  1.00  0.00    -0.234 N 
ATOM     29  H92 UNL     1       9.593  -6.319  -0.299  1.00  0.00     0.174 HD
ATOM     30  H91 UNL     1      10.571  -5.107   0.558  1.00  0.00     0.174 HD
ENDBRANCH   9  28
BRANCH   6  31
HETATM   31  C16 UNL     1      13.068  -4.695  -3.979  1.00  0.00     0.039 C 
HETATM   32  C17 UNL     1      12.560  -5.388  -5.204  1.00  0.00     0.030 C 
HETATM   33  C18 UNL     1      11.275  -4.885  -5.737  1.00  0.00     0.117 C 
HETATM   34  N7  UNL     1      11.296  -3.477  -5.844  1.00  0.00    -0.417 N 
HETATM   35  C19 UNL     1      11.582  -2.915  -7.118  1.00  0.00     0.143 C 
HETATM   36  C20 UNL     1      11.642  -2.720  -4.704  1.00  0.00     0.117 C 
HETATM   37  C21 UNL     1      12.499  -3.362  -3.678  1.00  0.00     0.030 C 
ENDBRANCH   6  31
TORSDOF 7
ENDMDL
