MODEL 1
REMARK VINA RESULT: -6.967830091      0.000      0.000
REMARK  6 active torsions:
REMARK  status: ('A' for Active; 'I' for Inactive)
REMARK    1  A    between atoms: C5_14  and  C6_15 
REMARK    2  A    between atoms: C6_15  and  C7_16 
REMARK    3  A    between atoms: C9_18  and  N5_19 
REMARK    4  A    between atoms: N5_19  and  S1_21 
REMARK    5  A    between atoms: S1_21  and  C10_24 
REMARK    6  A    between atoms: C10_24  and  C11_25 
ROOT
HETATM    1  C7  UNL     1      16.197  -9.625   1.162  1.00  0.00     0.017 A 
HETATM    2  C8  UNL     1      17.017 -10.242   0.303  1.00  0.00     0.055 A 
HETATM    3  C9  UNL     1      17.803 -11.352   0.631  1.00  0.00     0.045 A 
HETATM    4  C17 UNL     1      17.710 -11.820   1.916  1.00  0.00     0.047 A 
HETATM    5  C18 UNL     1      16.853 -11.176   2.814  1.00  0.00     0.090 A 
HETATM    6  N6  UNL     1      16.136 -10.125   2.432  1.00  0.00    -0.369 N 
ATOM      7  H6  UNL     1      15.520  -9.676   3.109  1.00  0.00     0.165 HD
ENDROOT
BRANCH   1   8
HETATM    8  C6  UNL     1      15.316  -8.435   0.900  1.00  0.00     0.118 C 
BRANCH   8   9
HETATM    9  C5  UNL     1      14.092  -8.727   0.182  1.00  0.00     0.060 A 
HETATM   10  N4  UNL     1      14.114  -8.954  -1.187  1.00  0.00    -0.302 N 
HETATM   11  N3  UNL     1      12.908  -9.100  -1.654  1.00  0.00    -0.293 N 
ATOM     12  H4  UNL     1      14.962  -9.001  -1.752  1.00  0.00     0.186 HD
HETATM   13  C4  UNL     1      12.032  -8.982  -0.644  1.00  0.00     0.145 A 
ATOM     14  H3  UNL     1      12.668  -9.276  -2.630  1.00  0.00     0.187 HD
HETATM   15  C3  UNL     1      10.650  -9.063  -0.583  1.00  0.00     0.280 A 
HETATM   16  C19 UNL     1      12.778  -8.749   0.516  1.00  0.00     0.096 A 
HETATM   17  N2  UNL     1      10.078  -8.913   0.623  1.00  0.00    -0.273 N 
HETATM   18  O2  UNL     1       9.998  -9.274  -1.648  1.00  0.00    -0.265 OA
HETATM   19  C2  UNL     1      10.812  -8.691   1.727  1.00  0.00     0.329 A 
ATOM     20  H2  UNL     1       9.063  -8.968   0.703  1.00  0.00     0.173 HD
HETATM   21  N1  UNL     1      12.175  -8.606   1.702  1.00  0.00    -0.300 N 
HETATM   22  O1  UNL     1      10.223  -8.557   2.834  1.00  0.00    -0.246 OA
HETATM   23  C1  UNL     1      12.932  -8.428   2.909  1.00  0.00     0.161 C 
ENDBRANCH   8   9
ENDBRANCH   1   8
BRANCH   3  24
HETATM   24  N5  UNL     1      18.656 -11.938  -0.351  1.00  0.00    -0.284 N 
ATOM     25  H5  UNL     1      18.342 -12.759  -0.870  1.00  0.00     0.178 HD
BRANCH  24  26
HETATM   26  S1  UNL     1      20.211 -11.269  -0.666  1.00  0.00     0.231 S 
HETATM   27  O3  UNL     1      21.033 -12.364  -1.314  1.00  0.00    -0.206 OA
HETATM   28  O4  UNL     1      20.809 -10.859   0.643  1.00  0.00    -0.206 OA
BRANCH  26  29
HETATM   29  C10 UNL     1      19.970  -9.925  -1.786  1.00  0.00     0.168 C 
BRANCH  29  30
HETATM   30  C11 UNL     1      20.038  -8.572  -1.177  1.00  0.00     0.001 C 
HETATM   31  C12 UNL     1      18.869  -7.686  -1.590  1.00  0.00     0.005 C 
HETATM   32  C13 UNL     1      18.698  -6.656  -0.489  1.00  0.00     0.000 C 
HETATM   33  C14 UNL     1      20.032  -6.063  -0.108  1.00  0.00     0.000 C 
HETATM   34  C15 UNL     1      21.096  -6.335  -1.146  1.00  0.00     0.000 C 
HETATM   35  C16 UNL     1      21.315  -7.831  -1.336  1.00  0.00     0.005 C 
ENDBRANCH  29  30
ENDBRANCH  26  29
ENDBRANCH  24  26
ENDBRANCH   3  24
TORSDOF 6
ENDMDL
MODEL 2
REMARK VINA RESULT: -6.923006860      3.518      4.810
REMARK  6 active torsions:
REMARK  status: ('A' for Active; 'I' for Inactive)
REMARK    1  A    between atoms: C5_14  and  C6_15 
REMARK    2  A    between atoms: C6_15  and  C7_16 
REMARK    3  A    between atoms: C9_18  and  N5_19 
REMARK    4  A    between atoms: N5_19  and  S1_21 
REMARK    5  A    between atoms: S1_21  and  C10_24 
REMARK    6  A    between atoms: C10_24  and  C11_25 
ROOT
HETATM    1  C7  UNL     1      12.430  -8.220  -0.416  1.00  0.00     0.017 A 
HETATM    2  C8  UNL     1      13.760  -8.163  -0.279  1.00  0.00     0.055 A 
HETATM    3  C9  UNL     1      14.430  -8.352   0.934  1.00  0.00     0.045 A 
HETATM    4  C17 UNL     1      13.657  -8.611   2.036  1.00  0.00     0.047 A 
HETATM    5  C18 UNL     1      12.268  -8.671   1.894  1.00  0.00     0.090 A 
HETATM    6  N6  UNL     1      11.699  -8.481   0.708  1.00  0.00    -0.369 N 
ATOM      7  H6  UNL     1      10.683  -8.531   0.635  1.00  0.00     0.165 HD
ENDROOT
BRANCH   1   8
HETATM    8  C6  UNL     1      11.625  -8.035  -1.673  1.00  0.00     0.118 C 
BRANCH   8   9
HETATM    9  C5  UNL     1      10.725  -6.900  -1.659  1.00  0.00     0.060 A 
HETATM   10  N4  UNL     1       9.459  -7.009  -1.102  1.00  0.00    -0.302 N 
HETATM   11  N3  UNL     1       8.777  -5.914  -1.277  1.00  0.00    -0.293 N 
ATOM     12  H4  UNL     1       9.110  -7.836  -0.618  1.00  0.00     0.186 HD
HETATM   13  C4  UNL     1       9.534  -5.031  -1.947  1.00  0.00     0.145 A 
ATOM     14  H3  UNL     1       7.821  -5.754  -0.957  1.00  0.00     0.187 HD
HETATM   15  C3  UNL     1       9.309  -3.733  -2.376  1.00  0.00     0.280 A 
HETATM   16  C19 UNL     1      10.764  -5.650  -2.187  1.00  0.00     0.096 A 
HETATM   17  N2  UNL     1      10.313  -3.114  -3.018  1.00  0.00    -0.273 N 
HETATM   18  O2  UNL     1       8.184  -3.195  -2.148  1.00  0.00    -0.265 OA
HETATM   19  C2  UNL     1      11.490  -3.726  -3.237  1.00  0.00     0.329 A 
ATOM     20  H2  UNL     1      10.180  -2.158  -3.346  1.00  0.00     0.173 HD
HETATM   21  N1  UNL     1      11.745  -5.003  -2.828  1.00  0.00    -0.300 N 
HETATM   22  O1  UNL     1      12.399  -3.097  -3.846  1.00  0.00    -0.246 OA
HETATM   23  C1  UNL     1      13.034  -5.605  -3.027  1.00  0.00     0.161 C 
ENDBRANCH   8   9
ENDBRANCH   1   8
BRANCH   3  24
HETATM   24  N5  UNL     1      15.853  -8.263   0.984  1.00  0.00    -0.284 N 
ATOM     25  H5  UNL     1      16.296  -7.409   1.326  1.00  0.00     0.178 HD
BRANCH  24  26
HETATM   26  S1  UNL     1      16.829  -9.586   0.472  1.00  0.00     0.231 S 
HETATM   27  O3  UNL     1      15.888 -10.741   0.197  1.00  0.00    -0.206 OA
HETATM   28  O4  UNL     1      17.771  -9.921   1.585  1.00  0.00    -0.206 OA
BRANCH  26  29
HETATM   29  C10 UNL     1      17.639  -9.076  -1.012  1.00  0.00     0.168 C 
BRANCH  29  30
HETATM   30  C11 UNL     1      18.827  -8.205  -0.820  1.00  0.00     0.001 C 
HETATM   31  C12 UNL     1      18.490  -6.724  -0.942  1.00  0.00     0.005 C 
HETATM   32  C13 UNL     1      19.539  -5.975  -0.140  1.00  0.00     0.000 C 
HETATM   33  C14 UNL     1      20.918  -6.492  -0.463  1.00  0.00     0.000 C 
HETATM   34  C15 UNL     1      20.942  -7.305  -1.737  1.00  0.00     0.000 C 
HETATM   35  C16 UNL     1      20.026  -8.519  -1.635  1.00  0.00     0.005 C 
ENDBRANCH  29  30
ENDBRANCH  26  29
ENDBRANCH  24  26
ENDBRANCH   3  24
TORSDOF 6
ENDMDL
MODEL 3
REMARK VINA RESULT: -6.869838793      3.620      4.860
REMARK  6 active torsions:
REMARK  status: ('A' for Active; 'I' for Inactive)
REMARK    1  A    between atoms: C5_14  and  C6_15 
REMARK    2  A    between atoms: C6_15  and  C7_16 
REMARK    3  A    between atoms: C9_18  and  N5_19 
REMARK    4  A    between atoms: N5_19  and  S1_21 
REMARK    5  A    between atoms: S1_21  and  C10_24 
REMARK    6  A    between atoms: C10_24  and  C11_25 
ROOT
HETATM    1  C7  UNL     1      12.744  -8.256  -0.486  1.00  0.00     0.017 A 
HETATM    2  C8  UNL     1      14.068  -8.273  -0.293  1.00  0.00     0.055 A 
HETATM    3  C9  UNL     1      14.675  -8.476   0.951  1.00  0.00     0.045 A 
HETATM    4  C17 UNL     1      13.843  -8.668   2.023  1.00  0.00     0.047 A 
HETATM    5  C18 UNL     1      12.459  -8.651   1.823  1.00  0.00     0.090 A 
HETATM    6  N6  UNL     1      11.953  -8.451   0.611  1.00  0.00    -0.369 N 
ATOM      7  H6  UNL     1      10.939  -8.444   0.495  1.00  0.00     0.165 HD
ENDROOT
BRANCH   1   8
HETATM    8  C6  UNL     1      12.004  -8.050  -1.779  1.00  0.00     0.118 C 
BRANCH   8   9
HETATM    9  C5  UNL     1      11.461  -6.720  -1.966  1.00  0.00     0.060 A 
HETATM   10  N4  UNL     1      10.213  -6.389  -1.458  1.00  0.00    -0.302 N 
HETATM   11  N3  UNL     1       9.868  -5.186  -1.816  1.00  0.00    -0.293 N 
ATOM     12  H4  UNL     1       9.641  -7.006  -0.881  1.00  0.00     0.186 HD
HETATM   13  C4  UNL     1      10.847  -4.657  -2.567  1.00  0.00     0.145 A 
ATOM     14  H3  UNL     1       8.995  -4.720  -1.567  1.00  0.00     0.187 HD
HETATM   15  C3  UNL     1      11.000  -3.425  -3.183  1.00  0.00     0.280 A 
HETATM   16  C19 UNL     1      11.854  -5.623  -2.660  1.00  0.00     0.096 A 
HETATM   17  N2  UNL     1      12.142  -3.212  -3.857  1.00  0.00    -0.273 N 
HETATM   18  O2  UNL     1      10.072  -2.568  -3.084  1.00  0.00    -0.265 OA
HETATM   19  C2  UNL     1      13.099  -4.152  -3.934  1.00  0.00     0.329 A 
ATOM     20  H2  UNL     1      12.286  -2.315  -4.321  1.00  0.00     0.173 HD
HETATM   21  N1  UNL     1      12.981  -5.376  -3.338  1.00  0.00    -0.300 N 
HETATM   22  O1  UNL     1      14.152  -3.898  -4.580  1.00  0.00    -0.246 OA
HETATM   23  C1  UNL     1      14.049  -6.335  -3.391  1.00  0.00     0.161 C 
ENDBRANCH   8   9
ENDBRANCH   1   8
BRANCH   3  24
HETATM   24  N5  UNL     1      16.097  -8.468   1.060  1.00  0.00    -0.284 N 
ATOM     25  H5  UNL     1      16.573  -7.644   1.431  1.00  0.00     0.178 HD
BRANCH  24  26
HETATM   26  S1  UNL     1      17.018  -9.838   0.570  1.00  0.00     0.231 S 
HETATM   27  O3  UNL     1      16.030 -10.958   0.316  1.00  0.00    -0.206 OA
HETATM   28  O4  UNL     1      17.948 -10.191   1.688  1.00  0.00    -0.206 OA
BRANCH  26  29
HETATM   29  C10 UNL     1      17.846  -9.387  -0.923  1.00  0.00     0.168 C 
BRANCH  29  30
HETATM   30  C11 UNL     1      18.920  -8.371  -0.771  1.00  0.00     0.001 C 
HETATM   31  C12 UNL     1      18.426  -6.955  -1.041  1.00  0.00     0.005 C 
HETATM   32  C13 UNL     1      19.349  -6.024  -0.277  1.00  0.00     0.000 C 
HETATM   33  C14 UNL     1      20.790  -6.406  -0.503  1.00  0.00     0.000 C 
HETATM   34  C15 UNL     1      20.960  -7.319  -1.696  1.00  0.00     0.000 C 
HETATM   35  C16 UNL     1      20.182  -8.617  -1.513  1.00  0.00     0.005 C 
ENDBRANCH  29  30
ENDBRANCH  26  29
ENDBRANCH  24  26
ENDBRANCH   3  24
TORSDOF 6
ENDMDL
MODEL 4
REMARK VINA RESULT: -6.835197575      0.740      2.022
REMARK  6 active torsions:
REMARK  status: ('A' for Active; 'I' for Inactive)
REMARK    1  A    between atoms: C5_14  and  C6_15 
REMARK    2  A    between atoms: C6_15  and  C7_16 
REMARK    3  A    between atoms: C9_18  and  N5_19 
REMARK    4  A    between atoms: N5_19  and  S1_21 
REMARK    5  A    between atoms: S1_21  and  C10_24 
REMARK    6  A    between atoms: C10_24  and  C11_25 
ROOT
HETATM    1  C7  UNL     1      16.086  -9.544   1.149  1.00  0.00     0.017 A 
HETATM    2  C8  UNL     1      16.890 -10.185   0.293  1.00  0.00     0.055 A 
HETATM    3  C9  UNL     1      17.611 -11.341   0.610  1.00  0.00     0.045 A 
HETATM    4  C17 UNL     1      17.469 -11.830   1.883  1.00  0.00     0.047 A 
HETATM    5  C18 UNL     1      16.629 -11.162   2.779  1.00  0.00     0.090 A 
HETATM    6  N6  UNL     1      15.974 -10.067   2.406  1.00  0.00    -0.369 N 
ATOM      7  H6  UNL     1      15.368  -9.601   3.082  1.00  0.00     0.165 HD
ENDROOT
BRANCH   1   8
HETATM    8  C6  UNL     1      15.273  -8.305   0.897  1.00  0.00     0.118 C 
BRANCH   8   9
HETATM    9  C5  UNL     1      13.877  -8.404   1.272  1.00  0.00     0.060 A 
HETATM   10  N4  UNL     1      13.490  -8.268   2.597  1.00  0.00    -0.302 N 
HETATM   11  N3  UNL     1      12.214  -8.487   2.736  1.00  0.00    -0.293 N 
ATOM     12  H4  UNL     1      14.121  -8.028   3.362  1.00  0.00     0.186 HD
HETATM   13  C4  UNL     1      11.689  -8.773   1.534  1.00  0.00     0.145 A 
ATOM     14  H3  UNL     1      11.697  -8.446   3.615  1.00  0.00     0.187 HD
HETATM   15  C3  UNL     1      10.401  -9.068   1.116  1.00  0.00     0.280 A 
HETATM   16  C19 UNL     1      12.736  -8.719   0.609  1.00  0.00     0.096 A 
HETATM   17  N2  UNL     1      10.215  -9.291  -0.195  1.00  0.00    -0.273 N 
HETATM   18  O2  UNL     1       9.470  -9.113   1.975  1.00  0.00    -0.265 OA
HETATM   19  C2  UNL     1      11.235  -9.232  -1.069  1.00  0.00     0.329 A 
ATOM     20  H2  UNL     1       9.280  -9.509  -0.536  1.00  0.00     0.173 HD
HETATM   21  N1  UNL     1      12.515  -8.945  -0.692  1.00  0.00    -0.300 N 
HETATM   22  O1  UNL     1      11.004  -9.451  -2.290  1.00  0.00    -0.246 OA
HETATM   23  C1  UNL     1      13.569  -8.832  -1.660  1.00  0.00     0.161 C 
ENDBRANCH   8   9
ENDBRANCH   1   8
BRANCH   3  24
HETATM   24  N5  UNL     1      18.452 -11.949  -0.368  1.00  0.00    -0.284 N 
ATOM     25  H5  UNL     1      18.114 -12.753  -0.898  1.00  0.00     0.178 HD
BRANCH  24  26
HETATM   26  S1  UNL     1      20.035 -11.336  -0.661  1.00  0.00     0.231 S 
HETATM   27  O3  UNL     1      20.829 -12.462  -1.289  1.00  0.00    -0.206 OA
HETATM   28  O4  UNL     1      20.624 -10.938   0.656  1.00  0.00    -0.206 OA
BRANCH  26  29
HETATM   29  C10 UNL     1      19.858  -9.991  -1.791  1.00  0.00     0.168 C 
BRANCH  29  30
HETATM   30  C11 UNL     1      19.986  -8.637  -1.193  1.00  0.00     0.001 C 
HETATM   31  C12 UNL     1      18.843  -7.712  -1.592  1.00  0.00     0.005 C 
HETATM   32  C13 UNL     1      18.729  -6.670  -0.494  1.00  0.00     0.000 C 
HETATM   33  C14 UNL     1      20.089  -6.124  -0.140  1.00  0.00     0.000 C 
HETATM   34  C15 UNL     1      21.125  -6.440  -1.194  1.00  0.00     0.000 C 
HETATM   35  C16 UNL     1      21.286  -7.944  -1.378  1.00  0.00     0.005 C 
ENDBRANCH  29  30
ENDBRANCH  26  29
ENDBRANCH  24  26
ENDBRANCH   3  24
TORSDOF 6
ENDMDL
MODEL 5
REMARK VINA RESULT: -6.647923287      3.391      4.410
REMARK  6 active torsions:
REMARK  status: ('A' for Active; 'I' for Inactive)
REMARK    1  A    between atoms: C5_14  and  C6_15 
REMARK    2  A    between atoms: C6_15  and  C7_16 
REMARK    3  A    between atoms: C9_18  and  N5_19 
REMARK    4  A    between atoms: N5_19  and  S1_21 
REMARK    5  A    between atoms: S1_21  and  C10_24 
REMARK    6  A    between atoms: C10_24  and  C11_25 
ROOT
HETATM    1  C7  UNL     1      12.834  -8.341  -0.724  1.00  0.00     0.017 A 
HETATM    2  C8  UNL     1      14.143  -8.364  -0.447  1.00  0.00     0.055 A 
HETATM    3  C9  UNL     1      14.668  -8.516   0.840  1.00  0.00     0.045 A 
HETATM    4  C17 UNL     1      13.768  -8.649   1.866  1.00  0.00     0.047 A 
HETATM    5  C18 UNL     1      12.400  -8.624   1.578  1.00  0.00     0.090 A 
HETATM    6  N6  UNL     1      11.973  -8.476   0.328  1.00  0.00    -0.369 N 
ATOM      7  H6  UNL     1      10.969  -8.462   0.149  1.00  0.00     0.165 HD
ENDROOT
BRANCH   1   8
HETATM    8  C6  UNL     1      12.180  -8.186  -2.069  1.00  0.00     0.118 C 
BRANCH   8   9
HETATM    9  C5  UNL     1      12.116  -6.826  -2.564  1.00  0.00     0.060 A 
HETATM   10  N4  UNL     1      13.211  -6.250  -3.191  1.00  0.00    -0.302 N 
HETATM   11  N3  UNL     1      12.985  -5.000  -3.471  1.00  0.00    -0.293 N 
ATOM     12  H4  UNL     1      14.079  -6.742  -3.405  1.00  0.00     0.186 HD
HETATM   13  C4  UNL     1      11.750  -4.677  -3.056  1.00  0.00     0.145 A 
ATOM     14  H3  UNL     1      13.639  -4.367  -3.932  1.00  0.00     0.187 HD
HETATM   15  C3  UNL     1      11.012  -3.505  -3.115  1.00  0.00     0.280 A 
HETATM   16  C19 UNL     1      11.199  -5.829  -2.485  1.00  0.00     0.096 A 
HETATM   17  N2  UNL     1       9.768  -3.535  -2.610  1.00  0.00    -0.273 N 
HETATM   18  O2  UNL     1      11.535  -2.475  -3.636  1.00  0.00    -0.265 OA
HETATM   19  C2  UNL     1       9.256  -4.653  -2.067  1.00  0.00     0.329 A 
ATOM     20  H2  UNL     1       9.199  -2.689  -2.639  1.00  0.00     0.173 HD
HETATM   21  N1  UNL     1       9.955  -5.824  -1.993  1.00  0.00    -0.300 N 
HETATM   22  O1  UNL     1       8.082  -4.624  -1.607  1.00  0.00    -0.246 OA
HETATM   23  C1  UNL     1       9.355  -7.015  -1.460  1.00  0.00     0.161 C 
ENDBRANCH   8   9
ENDBRANCH   1   8
BRANCH   3  24
HETATM   24  N5  UNL     1      16.081  -8.520   1.039  1.00  0.00    -0.284 N 
ATOM     25  H5  UNL     1      16.535  -7.714   1.470  1.00  0.00     0.178 HD
BRANCH  24  26
HETATM   26  S1  UNL     1      17.026  -9.876   0.555  1.00  0.00     0.231 S 
HETATM   27  O3  UNL     1      16.060 -11.016   0.308  1.00  0.00    -0.206 OA
HETATM   28  O4  UNL     1      17.964 -10.206   1.674  1.00  0.00    -0.206 OA
BRANCH  26  29
HETATM   29  C10 UNL     1      17.845  -9.417  -0.941  1.00  0.00     0.168 C 
BRANCH  29  30
HETATM   30  C11 UNL     1      18.924  -8.408  -0.791  1.00  0.00     0.001 C 
HETATM   31  C12 UNL     1      18.438  -6.989  -1.059  1.00  0.00     0.005 C 
HETATM   32  C13 UNL     1      19.367  -6.063  -0.296  1.00  0.00     0.000 C 
HETATM   33  C14 UNL     1      20.806  -6.453  -0.524  1.00  0.00     0.000 C 
HETATM   34  C15 UNL     1      20.970  -7.367  -1.717  1.00  0.00     0.000 C 
HETATM   35  C16 UNL     1      20.184  -8.660  -1.534  1.00  0.00     0.005 C 
ENDBRANCH  29  30
ENDBRANCH  26  29
ENDBRANCH  24  26
ENDBRANCH   3  24
TORSDOF 6
ENDMDL
