MODEL 1
REMARK VINA RESULT: -6.994775632      0.000      0.000
REMARK  1 active torsions:
REMARK  status: ('A' for Active; 'I' for Inactive)
REMARK       I    between atoms: C1_4  and  N3_6 
REMARK    1  A    between atoms: N3_6  and  C2_8 
REMARK       I    between atoms: N7_15  and  C3_16 
ROOT
HETATM    1  C2  UNL     1     -12.305 -29.740 -25.951  1.00  0.00     0.727 A 
HETATM    2  N4  UNL     1     -13.186 -30.009 -24.982  1.00  0.00    -0.114 N 
ATOM      3  H4  UNL     1     -12.989 -30.541 -24.134  1.00  0.00     0.207 HD
HETATM    4  N5  UNL     1     -14.343 -29.478 -25.297  1.00  0.00    -0.213 N 
ATOM      5  H5  UNL     1     -15.195 -29.527 -24.738  1.00  0.00     0.210 HD
HETATM    6  N6  UNL     1     -14.218 -28.871 -26.461  1.00  0.00    -0.203 N 
ATOM      7  H6  UNL     1     -14.957 -28.372 -26.954  1.00  0.00     0.211 HD
HETATM    8  N7  UNL     1     -12.954 -29.021 -26.886  1.00  0.00    -0.017 N 
HETATM    9  C3  UNL     1     -12.450 -28.496 -28.108  1.00  0.00     0.370 C 
HETATM   10  N8  UNL     1     -13.274 -27.759 -28.980  1.00  0.00    -0.037 NA
HETATM   11  O1  UNL     1     -11.240 -28.713 -28.383  1.00  0.00    -0.248 OA
ENDROOT
BRANCH   1  12
HETATM   12  N3  UNL     1     -11.070 -30.061 -26.053  1.00  0.00    -0.160 N 
HETATM   13  C1  UNL     1     -10.022 -29.651 -25.226  1.00  0.00     0.200 C 
HETATM   14  N1  UNL     1      -9.735 -28.420 -24.952  1.00  0.00    -0.373 N 
HETATM   15  N2  UNL     1      -9.186 -30.638 -24.620  1.00  0.00    -0.063 NA
ATOM     16  H12 UNL     1      -8.969 -28.120 -24.348  1.00  0.00     0.158 HD
ATOM     17  H11 UNL     1     -10.332 -27.715 -25.384  1.00  0.00     0.158 HD
ATOM     18  H3  UNL     1     -10.825 -30.684 -26.822  1.00  0.00     0.187 HD
ENDBRANCH   1  12
TORSDOF 1
ENDMDL
MODEL 2
REMARK VINA RESULT: -6.920895788      2.045      3.888
REMARK  1 active torsions:
REMARK  status: ('A' for Active; 'I' for Inactive)
REMARK       I    between atoms: C1_4  and  N3_6 
REMARK    1  A    between atoms: N3_6  and  C2_8 
REMARK       I    between atoms: N7_15  and  C3_16 
ROOT
HETATM    1  C2  UNL     1     -12.228 -27.440 -25.819  1.00  0.00     0.727 A 
HETATM    2  N4  UNL     1     -11.277 -27.480 -24.882  1.00  0.00    -0.114 N 
ATOM      3  H4  UNL     1     -11.359 -27.098 -23.939  1.00  0.00     0.207 HD
HETATM    4  N5  UNL     1     -10.222 -28.088 -25.368  1.00  0.00    -0.213 N 
ATOM      5  H5  UNL     1      -9.348 -28.260 -24.869  1.00  0.00     0.210 HD
HETATM    6  N6  UNL     1     -10.483 -28.440 -26.611  1.00  0.00    -0.203 N 
ATOM      7  H6  UNL     1      -9.844 -28.929 -27.238  1.00  0.00     0.211 HD
HETATM    8  N7  UNL     1     -11.730 -28.046 -26.913  1.00  0.00    -0.017 N 
HETATM    9  C3  UNL     1     -12.356 -28.257 -28.173  1.00  0.00     0.370 C 
HETATM   10  N8  UNL     1     -11.683 -28.917 -29.220  1.00  0.00    -0.037 NA
HETATM   11  O1  UNL     1     -13.532 -27.834 -28.319  1.00  0.00    -0.248 OA
ENDROOT
BRANCH   1  12
HETATM   12  N3  UNL     1     -13.408 -26.945 -25.775  1.00  0.00    -0.160 N 
HETATM   13  C1  UNL     1     -14.551 -27.541 -25.239  1.00  0.00     0.200 C 
HETATM   14  N1  UNL     1     -14.997 -28.712 -25.563  1.00  0.00    -0.373 N 
HETATM   15  N2  UNL     1     -15.309 -26.833 -24.256  1.00  0.00    -0.063 NA
ATOM     16  H12 UNL     1     -15.832 -29.147 -25.171  1.00  0.00     0.158 HD
ATOM     17  H11 UNL     1     -14.455 -29.217 -26.264  1.00  0.00     0.158 HD
ATOM     18  H3  UNL     1     -13.526 -26.014 -26.176  1.00  0.00     0.187 HD
ENDBRANCH   1  12
TORSDOF 1
ENDMDL
MODEL 3
REMARK VINA RESULT: -6.883271687      2.272      3.732
REMARK  1 active torsions:
REMARK  status: ('A' for Active; 'I' for Inactive)
REMARK       I    between atoms: C1_4  and  N3_6 
REMARK    1  A    between atoms: N3_6  and  C2_8 
REMARK       I    between atoms: N7_15  and  C3_16 
ROOT
HETATM    1  C2  UNL     1     -13.086 -28.130 -25.836  1.00  0.00     0.727 A 
HETATM    2  N4  UNL     1     -13.076 -29.029 -24.847  1.00  0.00    -0.114 N 
ATOM      3  H4  UNL     1     -13.402 -28.865 -23.894  1.00  0.00     0.207 HD
HETATM    4  N5  UNL     1     -12.580 -30.157 -25.297  1.00  0.00    -0.213 N 
ATOM      5  H5  UNL     1     -12.457 -31.014 -24.758  1.00  0.00     0.210 HD
HETATM    6  N6  UNL     1     -12.268 -29.993 -26.568  1.00  0.00    -0.203 N 
ATOM      7  H6  UNL     1     -11.861 -30.703 -27.177  1.00  0.00     0.211 HD
HETATM    8  N7  UNL     1     -12.577 -28.737 -26.925  1.00  0.00    -0.017 N 
HETATM    9  C3  UNL     1     -12.378 -28.200 -28.227  1.00  0.00     0.370 C 
HETATM   10  N8  UNL     1     -11.827 -28.981 -29.261  1.00  0.00    -0.037 NA
HETATM   11  O1  UNL     1     -12.713 -27.002 -28.422  1.00  0.00    -0.248 OA
ENDROOT
BRANCH   1  12
HETATM   12  N3  UNL     1     -13.482 -26.913 -25.839  1.00  0.00    -0.160 N 
HETATM   13  C1  UNL     1     -14.654 -26.408 -25.272  1.00  0.00     0.200 C 
HETATM   14  N1  UNL     1     -15.845 -26.853 -25.516  1.00  0.00    -0.373 N 
HETATM   15  N2  UNL     1     -14.569 -25.321 -24.350  1.00  0.00    -0.063 NA
ATOM     16  H12 UNL     1     -16.701 -26.484 -25.103  1.00  0.00     0.158 HD
ATOM     17  H11 UNL     1     -15.905 -27.629 -26.175  1.00  0.00     0.158 HD
ATOM     18  H3  UNL     1     -12.875 -26.239 -26.305  1.00  0.00     0.187 HD
ENDBRANCH   1  12
TORSDOF 1
ENDMDL
MODEL 4
REMARK VINA RESULT: -6.608527859      2.391      3.581
REMARK  1 active torsions:
REMARK  status: ('A' for Active; 'I' for Inactive)
REMARK       I    between atoms: C1_4  and  N3_6 
REMARK    1  A    between atoms: N3_6  and  C2_8 
REMARK       I    between atoms: N7_15  and  C3_16 
ROOT
HETATM    1  C2  UNL     1     -13.353 -29.305 -26.656  1.00  0.00     0.727 A 
HETATM    2  N4  UNL     1     -12.459 -30.064 -26.015  1.00  0.00    -0.114 N 
ATOM      3  H4  UNL     1     -11.546 -30.338 -26.378  1.00  0.00     0.207 HD
HETATM    4  N5  UNL     1     -12.944 -30.398 -24.843  1.00  0.00    -0.213 N 
ATOM      5  H5  UNL     1     -12.474 -30.973 -24.143  1.00  0.00     0.210 HD
HETATM    6  N6  UNL     1     -14.143 -29.864 -24.723  1.00  0.00    -0.203 N 
ATOM      7  H6  UNL     1     -14.759 -29.957 -23.915  1.00  0.00     0.211 HD
HETATM    8  N7  UNL     1     -14.418 -29.176 -25.842  1.00  0.00    -0.017 N 
HETATM    9  C3  UNL     1     -15.628 -28.464 -26.071  1.00  0.00     0.370 C 
HETATM   10  N8  UNL     1     -16.650 -28.433 -25.103  1.00  0.00    -0.037 NA
HETATM   11  O1  UNL     1     -15.752 -27.862 -27.170  1.00  0.00    -0.248 OA
ENDROOT
BRANCH   1  12
HETATM   12  N3  UNL     1     -13.294 -28.765 -27.815  1.00  0.00    -0.160 N 
HETATM   13  C1  UNL     1     -12.148 -28.324 -28.481  1.00  0.00     0.200 C 
HETATM   14  N1  UNL     1     -11.280 -27.498 -27.993  1.00  0.00    -0.373 N 
HETATM   15  N2  UNL     1     -11.883 -28.802 -29.801  1.00  0.00    -0.063 NA
ATOM     16  H12 UNL     1     -10.443 -27.177 -28.479  1.00  0.00     0.158 HD
ATOM     17  H11 UNL     1     -11.469 -27.157 -27.050  1.00  0.00     0.158 HD
ATOM     18  H3  UNL     1     -14.180 -28.643 -28.305  1.00  0.00     0.187 HD
ENDBRANCH   1  12
TORSDOF 1
ENDMDL
MODEL 5
REMARK VINA RESULT: -6.543196701      1.937      4.275
REMARK  1 active torsions:
REMARK  status: ('A' for Active; 'I' for Inactive)
REMARK       I    between atoms: C1_4  and  N3_6 
REMARK    1  A    between atoms: N3_6  and  C2_8 
REMARK       I    between atoms: N7_15  and  C3_16 
ROOT
HETATM    1  C2  UNL     1     -12.708 -28.597 -27.096  1.00  0.00     0.727 A 
HETATM    2  N4  UNL     1     -12.692 -27.693 -28.080  1.00  0.00    -0.114 N 
ATOM      3  H4  UNL     1     -13.502 -27.398 -28.627  1.00  0.00     0.207 HD
HETATM    4  N5  UNL     1     -11.469 -27.244 -28.230  1.00  0.00    -0.213 N 
ATOM      5  H5  UNL     1     -11.167 -26.544 -28.908  1.00  0.00     0.210 HD
HETATM    6  N6  UNL     1     -10.695 -27.852 -27.353  1.00  0.00    -0.203 N 
ATOM      7  H6  UNL     1      -9.692 -27.703 -27.239  1.00  0.00     0.211 HD
HETATM    8  N7  UNL     1     -11.448 -28.700 -26.635  1.00  0.00    -0.017 N 
HETATM    9  C3  UNL     1     -10.951 -29.530 -25.591  1.00  0.00     0.370 C 
HETATM   10  N8  UNL     1      -9.589 -29.512 -25.233  1.00  0.00    -0.037 NA
HETATM   11  O1  UNL     1     -11.772 -30.279 -25.000  1.00  0.00    -0.248 OA
ENDROOT
BRANCH   1  12
HETATM   12  N3  UNL     1     -13.681 -29.280 -26.621  1.00  0.00    -0.160 N 
HETATM   13  C1  UNL     1     -14.754 -28.803 -25.865  1.00  0.00     0.200 C 
HETATM   14  N1  UNL     1     -14.642 -28.105 -24.781  1.00  0.00    -0.373 N 
HETATM   15  N2  UNL     1     -16.087 -29.086 -26.292  1.00  0.00    -0.063 NA
ATOM     16  H12 UNL     1     -15.426 -27.757 -24.228  1.00  0.00     0.158 HD
ATOM     17  H11 UNL     1     -13.691 -27.903 -24.476  1.00  0.00     0.158 HD
ATOM     18  H3  UNL     1     -13.672 -30.281 -26.816  1.00  0.00     0.187 HD
ENDBRANCH   1  12
TORSDOF 1
ENDMDL
