MODEL 1
REMARK VINA RESULT: -6.409875702      0.000      0.000
REMARK  1 active torsions:
REMARK  status: ('A' for Active; 'I' for Inactive)
REMARK       I    between atoms: C1_2  and  N2_4 
REMARK    1  A    between atoms: N2_4  and  N3_5 
ROOT
HETATM    1  N3  UNL     1     -14.375 -27.800 -27.060  1.00  0.00    -0.059 N 
ATOM      2  H3  UNL     1     -15.122 -27.927 -27.744  1.00  0.00     0.221 HD
HETATM    3  C2  UNL     1     -15.010 -27.502 -26.069  1.00  0.00     0.721 A 
HETATM    4  N4  UNL     1     -16.378 -27.436 -26.145  1.00  0.00    -0.195 N 
ATOM      5  H4  UNL     1     -16.846 -27.643 -27.027  1.00  0.00     0.183 HD
HETATM    6  C3  UNL     1     -17.102 -27.104 -25.072  1.00  0.00     0.152 A 
HETATM    7  C4  UNL     1     -16.453 -26.825 -23.878  1.00  0.00     0.147 A 
HETATM    8  N5  UNL     1     -17.241 -26.477 -22.751  1.00  0.00    -0.080 NA
HETATM    9  N6  UNL     1     -15.098 -26.887 -23.791  1.00  0.00    -0.272 N 
ATOM     10  H6  UNL     1     -14.617 -26.683 -22.915  1.00  0.00     0.189 HD
HETATM   11  N7  UNL     1     -14.423 -27.221 -24.880  1.00  0.00    -0.129 N 
ATOM     12  H7  UNL     1     -13.406 -27.269 -24.822  1.00  0.00     0.205 HD
ENDROOT
BRANCH   1  13
HETATM   13  N2  UNL     1     -13.356 -28.049 -27.760  1.00  0.00    -0.253 NA
HETATM   14  C1  UNL     1     -12.265 -28.314 -28.507  1.00  0.00     0.424 C 
HETATM   15  N1  UNL     1     -11.008 -27.775 -27.980  1.00  0.00    -0.024 NA
HETATM   16  O1  UNL     1     -12.149 -28.961 -29.597  1.00  0.00    -0.232 OA
ENDBRANCH   1  13
TORSDOF 1
ENDMDL
MODEL 2
REMARK VINA RESULT: -6.378385587      1.227      1.227
REMARK  1 active torsions:
REMARK  status: ('A' for Active; 'I' for Inactive)
REMARK       I    between atoms: C1_2  and  N2_4 
REMARK    1  A    between atoms: N2_4  and  N3_5 
ROOT
HETATM    1  N3  UNL     1     -14.213 -28.344 -26.781  1.00  0.00    -0.059 N 
ATOM      2  H3  UNL     1     -14.782 -29.020 -27.290  1.00  0.00     0.221 HD
HETATM    3  C2  UNL     1     -14.909 -28.133 -25.809  1.00  0.00     0.721 A 
HETATM    4  N4  UNL     1     -16.108 -28.788 -25.689  1.00  0.00    -0.195 N 
ATOM      5  H4  UNL     1     -16.398 -29.447 -26.411  1.00  0.00     0.183 HD
HETATM    6  C3  UNL     1     -16.898 -28.571 -24.633  1.00  0.00     0.152 A 
HETATM    7  C4  UNL     1     -16.491 -27.671 -23.658  1.00  0.00     0.147 A 
HETATM    8  N5  UNL     1     -17.344 -27.457 -22.545  1.00  0.00    -0.080 NA
HETATM    9  N6  UNL     1     -15.305 -27.016 -23.767  1.00  0.00    -0.272 N 
ATOM     10  H6  UNL     1     -15.002 -26.354 -23.052  1.00  0.00     0.189 HD
HETATM   11  N7  UNL     1     -14.556 -27.264 -24.830  1.00  0.00    -0.129 N 
ATOM     12  H7  UNL     1     -13.665 -26.775 -24.918  1.00  0.00     0.205 HD
ENDROOT
BRANCH   1  13
HETATM   13  N2  UNL     1     -13.215 -28.237 -27.545  1.00  0.00    -0.253 NA
HETATM   14  C1  UNL     1     -12.149 -28.124 -28.363  1.00  0.00     0.424 C 
HETATM   15  N1  UNL     1     -12.217 -28.934 -29.583  1.00  0.00    -0.024 NA
HETATM   16  O1  UNL     1     -11.092 -27.425 -28.250  1.00  0.00    -0.232 OA
ENDBRANCH   1  13
TORSDOF 1
ENDMDL
MODEL 3
REMARK VINA RESULT: -6.173899921      3.382      5.624
REMARK  1 active torsions:
REMARK  status: ('A' for Active; 'I' for Inactive)
REMARK       I    between atoms: C1_2  and  N2_4 
REMARK    1  A    between atoms: N2_4  and  N3_5 
ROOT
HETATM    1  N3  UNL     1     -14.223 -26.637 -24.768  1.00  0.00    -0.059 N 
ATOM      2  H3  UNL     1     -14.991 -27.308 -24.729  1.00  0.00     0.221 HD
HETATM    3  C2  UNL     1     -13.295 -27.359 -25.073  1.00  0.00     0.721 A 
HETATM    4  N4  UNL     1     -13.523 -28.698 -25.260  1.00  0.00    -0.195 N 
ATOM      5  H4  UNL     1     -14.465 -29.072 -25.146  1.00  0.00     0.183 HD
HETATM    6  C3  UNL     1     -12.519 -29.518 -25.590  1.00  0.00     0.152 A 
HETATM    7  C4  UNL     1     -11.243 -28.996 -25.741  1.00  0.00     0.147 A 
HETATM    8  N5  UNL     1     -10.193 -29.883 -26.093  1.00  0.00    -0.080 NA
HETATM    9  N6  UNL     1     -11.006 -27.670 -25.558  1.00  0.00    -0.272 N 
ATOM     10  H6  UNL     1     -10.069 -27.283 -25.668  1.00  0.00     0.189 HD
HETATM   11  N7  UNL     1     -12.031 -26.898 -25.232  1.00  0.00    -0.129 N 
ATOM     12  H7  UNL     1     -11.860 -25.902 -25.094  1.00  0.00     0.205 HD
ENDROOT
BRANCH   1  13
HETATM   13  N2  UNL     1     -14.816 -25.565 -24.470  1.00  0.00    -0.253 NA
HETATM   14  C1  UNL     1     -15.452 -24.420 -24.152  1.00  0.00     0.424 C 
HETATM   15  N1  UNL     1     -16.916 -24.493 -24.191  1.00  0.00    -0.024 NA
HETATM   16  O1  UNL     1     -14.987 -23.283 -23.819  1.00  0.00    -0.232 OA
ENDBRANCH   1  13
TORSDOF 1
ENDMDL
MODEL 4
REMARK VINA RESULT: -6.098977658      3.145      5.760
REMARK  1 active torsions:
REMARK  status: ('A' for Active; 'I' for Inactive)
REMARK       I    between atoms: C1_2  and  N2_4 
REMARK    1  A    between atoms: N2_4  and  N3_5 
ROOT
HETATM    1  N3  UNL     1     -15.136 -27.070 -24.422  1.00  0.00    -0.059 N 
ATOM      2  H3  UNL     1     -15.940 -27.499 -24.882  1.00  0.00     0.221 HD
HETATM    3  C2  UNL     1     -14.281 -27.198 -25.275  1.00  0.00     0.721 A 
HETATM    4  N4  UNL     1     -14.605 -27.801 -26.463  1.00  0.00    -0.195 N 
ATOM      5  H4  UNL     1     -15.557 -28.130 -26.620  1.00  0.00     0.183 HD
HETATM    6  C3  UNL     1     -13.682 -27.961 -27.417  1.00  0.00     0.152 A 
HETATM    7  C4  UNL     1     -12.390 -27.510 -27.190  1.00  0.00     0.147 A 
HETATM    8  N5  UNL     1     -11.427 -27.688 -28.216  1.00  0.00    -0.080 NA
HETATM    9  N6  UNL     1     -12.058 -26.911 -26.016  1.00  0.00    -0.272 N 
ATOM     10  H6  UNL     1     -11.109 -26.577 -25.845  1.00  0.00     0.189 HD
HETATM   11  N7  UNL     1     -13.006 -26.774 -25.101  1.00  0.00    -0.129 N 
ATOM     12  H7  UNL     1     -12.762 -26.326 -24.218  1.00  0.00     0.205 HD
ENDROOT
BRANCH   1  13
HETATM   13  N2  UNL     1     -15.637 -26.731 -23.316  1.00  0.00    -0.253 NA
HETATM   14  C1  UNL     1     -16.174 -26.368 -22.134  1.00  0.00     0.424 C 
HETATM   15  N1  UNL     1     -17.258 -25.385 -22.223  1.00  0.00    -0.024 NA
HETATM   16  O1  UNL     1     -15.894 -26.742 -20.950  1.00  0.00    -0.232 OA
ENDBRANCH   1  13
TORSDOF 1
ENDMDL
MODEL 5
REMARK VINA RESULT: -6.064273458      3.145      5.425
REMARK  1 active torsions:
REMARK  status: ('A' for Active; 'I' for Inactive)
REMARK       I    between atoms: C1_2  and  N2_4 
REMARK    1  A    between atoms: N2_4  and  N3_5 
ROOT
HETATM    1  N3  UNL     1     -14.749 -27.892 -25.204  1.00  0.00    -0.059 N 
ATOM      2  H3  UNL     1     -15.199 -28.785 -25.408  1.00  0.00     0.221 HD
HETATM    3  C2  UNL     1     -13.576 -28.192 -25.295  1.00  0.00     0.721 A 
HETATM    4  N4  UNL     1     -13.238 -29.483 -25.613  1.00  0.00    -0.195 N 
ATOM      5  H4  UNL     1     -13.971 -30.173 -25.774  1.00  0.00     0.183 HD
HETATM    6  C3  UNL     1     -11.954 -29.843 -25.714  1.00  0.00     0.152 A 
HETATM    7  C4  UNL     1     -10.967 -28.894 -25.491  1.00  0.00     0.147 A 
HETATM    8  N5  UNL     1      -9.611 -29.297 -25.606  1.00  0.00    -0.080 NA
HETATM    9  N6  UNL     1     -11.290 -27.612 -25.176  1.00  0.00    -0.272 N 
ATOM     10  H6  UNL     1     -10.567 -26.912 -25.012  1.00  0.00     0.189 HD
HETATM   11  N7  UNL     1     -12.575 -27.302 -25.088  1.00  0.00    -0.129 N 
ATOM     12  H7  UNL     1     -12.824 -26.342 -24.851  1.00  0.00     0.205 HD
ENDROOT
BRANCH   1  13
HETATM   13  N2  UNL     1     -15.751 -27.151 -25.011  1.00  0.00    -0.253 NA
HETATM   14  C1  UNL     1     -16.821 -26.357 -24.804  1.00  0.00     0.424 C 
HETATM   15  N1  UNL     1     -16.564 -25.176 -23.973  1.00  0.00    -0.024 NA
HETATM   16  O1  UNL     1     -18.020 -26.464 -25.216  1.00  0.00    -0.232 OA
ENDBRANCH   1  13
TORSDOF 1
ENDMDL
