MODEL 1
REMARK VINA RESULT: -6.734743206      0.000      0.000
REMARK  3 active torsions:
REMARK  status: ('A' for Active; 'I' for Inactive)
REMARK    1  A    between atoms: N2_4  and  N3_6 
REMARK    2  A    between atoms: N3_6  and  C1_8 
REMARK    3  A    between atoms: C4_17  and  N7_18 
ROOT
HETATM    1  C1  UNL     1     -13.060 -27.330 -25.425  1.00  0.00     0.721 C 
HETATM    2  N4  UNL     1     -13.958 -26.804 -24.651  1.00  0.00    -0.221 N 
ATOM      3  H4  UNL     1     -13.601 -26.049 -24.066  1.00  0.00     0.177 HD
HETATM    4  C2  UNL     1     -15.354 -27.072 -24.452  1.00  0.00     0.159 C 
HETATM    5  C3  UNL     1     -16.120 -27.211 -25.743  1.00  0.00     0.163 C 
HETATM    6  N5  UNL     1     -15.754 -28.364 -26.508  1.00  0.00    -0.292 N 
ATOM      7  H5  UNL     1     -16.524 -28.913 -26.891  1.00  0.00     0.184 HD
HETATM    8  N6  UNL     1     -14.459 -28.829 -26.794  1.00  0.00    -0.064 N 
HETATM    9  O1  UNL     1     -13.804 -29.716 -27.484  1.00  0.00    -0.160 OA
HETATM   10  C4  UNL     1     -12.626 -29.325 -27.062  1.00  0.00     0.286 A 
HETATM   11  N8  UNL     1     -13.290 -28.402 -26.343  1.00  0.00    -0.002 N 
ENDROOT
BRANCH   1  12
HETATM   12  N3  UNL     1     -11.741 -26.811 -25.367  1.00  0.00    -0.116 N 
ATOM     13  H3  UNL     1     -11.490 -26.051 -25.998  1.00  0.00     0.207 HD
BRANCH  12  14
HETATM   14  N2  UNL     1     -10.765 -27.298 -24.478  1.00  0.00    -0.235 N 
HETATM   15  N1  UNL     1      -9.874 -28.133 -24.839  1.00  0.00    -0.330 N 
ATOM     16  H12 UNL     1      -9.882 -28.450 -25.808  1.00  0.00     0.178 HD
ATOM     17  H11 UNL     1      -9.167 -28.485 -24.194  1.00  0.00     0.178 HD
ATOM     18  H2  UNL     1     -10.772 -26.971 -23.511  1.00  0.00     0.208 HD
ENDBRANCH  12  14
ENDBRANCH   1  12
BRANCH  10  19
HETATM   19  N7  UNL     1     -11.370 -29.654 -27.237  1.00  0.00    -0.361 N 
ATOM     20  H72 UNL     1     -10.859 -30.517 -27.422  1.00  0.00     0.159 HD
ATOM     21  H71 UNL     1     -10.461 -29.193 -27.253  1.00  0.00     0.159 HD
ENDBRANCH  10  19
TORSDOF 3
ENDMDL
MODEL 2
REMARK VINA RESULT: -6.508062241      1.193      1.262
REMARK  3 active torsions:
REMARK  status: ('A' for Active; 'I' for Inactive)
REMARK    1  A    between atoms: N2_4  and  N3_6 
REMARK    2  A    between atoms: N3_6  and  C1_8 
REMARK    3  A    between atoms: C4_17  and  N7_18 
ROOT
HETATM    1  C1  UNL     1     -13.515 -26.962 -25.163  1.00  0.00     0.721 C 
HETATM    2  N4  UNL     1     -14.024 -26.121 -24.316  1.00  0.00    -0.221 N 
ATOM      3  H4  UNL     1     -13.363 -25.415 -23.994  1.00  0.00     0.177 HD
HETATM    4  C2  UNL     1     -15.333 -25.986 -23.741  1.00  0.00     0.159 C 
HETATM    5  C3  UNL     1     -16.440 -26.091 -24.758  1.00  0.00     0.163 C 
HETATM    6  N5  UNL     1     -16.562 -27.390 -25.345  1.00  0.00    -0.292 N 
ATOM      7  H5  UNL     1     -17.508 -27.765 -25.417  1.00  0.00     0.184 HD
HETATM    8  N6  UNL     1     -15.531 -28.211 -25.835  1.00  0.00    -0.064 N 
HETATM    9  O1  UNL     1     -15.304 -29.321 -26.473  1.00  0.00    -0.160 OA
HETATM   10  C4  UNL     1     -13.999 -29.199 -26.430  1.00  0.00     0.286 A 
HETATM   11  N8  UNL     1     -14.219 -28.048 -25.770  1.00  0.00    -0.002 N 
ENDROOT
BRANCH   1  12
HETATM   12  N3  UNL     1     -12.153 -26.802 -25.525  1.00  0.00    -0.116 N 
ATOM     13  H3  UNL     1     -11.936 -26.363 -26.419  1.00  0.00     0.207 HD
BRANCH  12  14
HETATM   14  N2  UNL     1     -11.089 -27.222 -24.707  1.00  0.00    -0.235 N 
HETATM   15  N1  UNL     1     -10.282 -28.142 -25.061  1.00  0.00    -0.330 N 
ATOM     16  H12 UNL     1     -10.427 -28.578 -25.971  1.00  0.00     0.178 HD
ATOM     17  H11 UNL     1      -9.511 -28.446 -24.467  1.00  0.00     0.178 HD
ATOM     18  H2  UNL     1     -10.959 -26.775 -23.798  1.00  0.00     0.208 HD
ENDBRANCH  12  14
ENDBRANCH   1  12
BRANCH  10  19
HETATM   19  N7  UNL     1     -12.945 -29.865 -26.832  1.00  0.00    -0.361 N 
ATOM     20  H72 UNL     1     -12.564 -30.158 -27.731  1.00  0.00     0.159 HD
ATOM     21  H71 UNL     1     -12.137 -30.327 -26.416  1.00  0.00     0.159 HD
ENDBRANCH  10  19
TORSDOF 3
ENDMDL
MODEL 3
REMARK VINA RESULT: -6.299330114      1.554      3.722
REMARK  3 active torsions:
REMARK  status: ('A' for Active; 'I' for Inactive)
REMARK    1  A    between atoms: N2_4  and  N3_6 
REMARK    2  A    between atoms: N3_6  and  C1_8 
REMARK    3  A    between atoms: C4_17  and  N7_18 
ROOT
HETATM    1  C1  UNL     1     -13.809 -27.104 -25.213  1.00  0.00     0.721 C 
HETATM    2  N4  UNL     1     -12.515 -27.159 -25.277  1.00  0.00    -0.221 N 
ATOM      3  H4  UNL     1     -12.048 -26.457 -24.705  1.00  0.00     0.177 HD
HETATM    4  C2  UNL     1     -11.608 -28.012 -25.993  1.00  0.00     0.159 C 
HETATM    5  C3  UNL     1     -11.963 -29.474 -25.890  1.00  0.00     0.163 C 
HETATM    6  N5  UNL     1     -13.190 -29.815 -26.542  1.00  0.00    -0.292 N 
ATOM      7  H5  UNL     1     -13.173 -30.655 -27.121  1.00  0.00     0.184 HD
HETATM    8  N6  UNL     1     -14.416 -29.131 -26.478  1.00  0.00    -0.064 N 
HETATM    9  O1  UNL     1     -15.665 -29.204 -26.835  1.00  0.00    -0.160 OA
HETATM   10  C4  UNL     1     -15.995 -28.058 -26.291  1.00  0.00     0.286 A 
HETATM   11  N8  UNL     1     -14.706 -27.969 -25.914  1.00  0.00    -0.002 N 
ENDROOT
BRANCH   1  12
HETATM   12  N3  UNL     1     -14.395 -26.111 -24.387  1.00  0.00    -0.116 N 
ATOM     13  H3  UNL     1     -14.295 -25.133 -24.657  1.00  0.00     0.207 HD
BRANCH  12  14
HETATM   14  N2  UNL     1     -15.106 -26.415 -23.212  1.00  0.00    -0.235 N 
HETATM   15  N1  UNL     1     -15.004 -25.711 -22.155  1.00  0.00    -0.330 N 
ATOM     16  H12 UNL     1     -14.382 -24.904 -22.178  1.00  0.00     0.178 HD
ATOM     17  H11 UNL     1     -15.520 -25.932 -21.304  1.00  0.00     0.178 HD
ATOM     18  H2  UNL     1     -15.725 -27.227 -23.206  1.00  0.00     0.208 HD
ENDBRANCH  12  14
ENDBRANCH   1  12
BRANCH  10  19
HETATM   19  N7  UNL     1     -17.066 -27.316 -26.156  1.00  0.00    -0.361 N 
ATOM     20  H72 UNL     1     -17.715 -27.099 -25.399  1.00  0.00     0.159 HD
ATOM     21  H71 UNL     1     -17.638 -26.699 -26.731  1.00  0.00     0.159 HD
ENDBRANCH  10  19
TORSDOF 3
ENDMDL
MODEL 4
REMARK VINA RESULT: -6.256797047      1.796      1.960
REMARK  3 active torsions:
REMARK  status: ('A' for Active; 'I' for Inactive)
REMARK    1  A    between atoms: N2_4  and  N3_6 
REMARK    2  A    between atoms: N3_6  and  C1_8 
REMARK    3  A    between atoms: C4_17  and  N7_18 
ROOT
HETATM    1  C1  UNL     1     -13.556 -26.835 -25.174  1.00  0.00     0.721 C 
HETATM    2  N4  UNL     1     -14.072 -25.784 -24.616  1.00  0.00    -0.221 N 
ATOM      3  H4  UNL     1     -13.469 -24.962 -24.659  1.00  0.00     0.177 HD
HETATM    4  C2  UNL     1     -15.321 -25.545 -23.950  1.00  0.00     0.159 C 
HETATM    5  C3  UNL     1     -16.507 -26.095 -24.701  1.00  0.00     0.163 C 
HETATM    6  N5  UNL     1     -16.533 -27.524 -24.769  1.00  0.00    -0.292 N 
ATOM      7  H5  UNL     1     -17.430 -27.968 -24.573  1.00  0.00     0.184 HD
HETATM    8  N6  UNL     1     -15.468 -28.389 -25.076  1.00  0.00    -0.064 N 
HETATM    9  O1  UNL     1     -15.177 -29.635 -25.306  1.00  0.00    -0.160 OA
HETATM   10  C4  UNL     1     -13.898 -29.410 -25.490  1.00  0.00     0.286 A 
HETATM   11  N8  UNL     1     -14.184 -28.117 -25.254  1.00  0.00    -0.002 N 
ENDROOT
BRANCH   1  12
HETATM   12  N3  UNL     1     -12.267 -26.719 -25.754  1.00  0.00    -0.116 N 
ATOM     13  H3  UNL     1     -11.492 -26.423 -25.161  1.00  0.00     0.207 HD
BRANCH  12  14
HETATM   14  N2  UNL     1     -12.009 -26.992 -27.110  1.00  0.00    -0.235 N 
HETATM   15  N1  UNL     1     -10.947 -27.580 -27.494  1.00  0.00    -0.330 N 
ATOM     16  H12 UNL     1     -10.271 -27.856 -26.782  1.00  0.00     0.178 HD
ATOM     17  H11 UNL     1     -10.761 -27.778 -28.477  1.00  0.00     0.178 HD
ATOM     18  H2  UNL     1     -12.697 -26.709 -27.809  1.00  0.00     0.208 HD
ENDBRANCH  12  14
ENDBRANCH   1  12
BRANCH  10  19
HETATM   19  N7  UNL     1     -12.819 -30.097 -25.773  1.00  0.00    -0.361 N 
ATOM     20  H72 UNL     1     -12.225 -30.220 -26.593  1.00  0.00     0.159 HD
ATOM     21  H71 UNL     1     -12.187 -30.744 -25.302  1.00  0.00     0.159 HD
ENDBRANCH  10  19
TORSDOF 3
ENDMDL
MODEL 5
REMARK VINA RESULT: -6.097723420      1.408      3.059
REMARK  3 active torsions:
REMARK  status: ('A' for Active; 'I' for Inactive)
REMARK    1  A    between atoms: N2_4  and  N3_6 
REMARK    2  A    between atoms: N3_6  and  C1_8 
REMARK    3  A    between atoms: C4_17  and  N7_18 
ROOT
HETATM    1  C1  UNL     1     -12.205 -27.454 -26.143  1.00  0.00     0.721 C 
HETATM    2  N4  UNL     1     -11.508 -27.347 -27.232  1.00  0.00    -0.221 N 
ATOM      3  H4  UNL     1     -10.648 -26.813 -27.114  1.00  0.00     0.177 HD
HETATM    4  C2  UNL     1     -11.705 -27.829 -28.570  1.00  0.00     0.159 C 
HETATM    5  C3  UNL     1     -12.115 -29.279 -28.622  1.00  0.00     0.163 C 
HETATM    6  N5  UNL     1     -13.414 -29.530 -28.076  1.00  0.00    -0.292 N 
ATOM      7  H5  UNL     1     -14.023 -30.138 -28.623  1.00  0.00     0.184 HD
HETATM    8  N6  UNL     1     -13.950 -29.037 -26.873  1.00  0.00    -0.064 N 
HETATM    9  O1  UNL     1     -14.976 -29.129 -26.080  1.00  0.00    -0.160 OA
HETATM   10  C4  UNL     1     -14.519 -28.253 -25.218  1.00  0.00     0.286 A 
HETATM   11  N8  UNL     1     -13.450 -28.148 -26.028  1.00  0.00    -0.002 N 
ENDROOT
BRANCH   1  12
HETATM   12  N3  UNL     1     -11.706 -26.840 -24.967  1.00  0.00    -0.116 N 
ATOM     13  H3  UNL     1     -12.215 -26.047 -24.579  1.00  0.00     0.207 HD
BRANCH  12  14
HETATM   14  N2  UNL     1     -10.539 -27.275 -24.312  1.00  0.00    -0.235 N 
HETATM   15  N1  UNL     1      -9.843 -28.251 -24.742  1.00  0.00    -0.330 N 
ATOM     16  H12 UNL     1     -10.155 -28.722 -25.591  1.00  0.00     0.178 HD
ATOM     17  H11 UNL     1      -8.997 -28.566 -24.267  1.00  0.00     0.178 HD
ATOM     18  H2  UNL     1     -10.241 -26.793 -23.464  1.00  0.00     0.208 HD
ENDBRANCH  12  14
ENDBRANCH   1  12
BRANCH  10  19
HETATM   19  N7  UNL     1     -14.897 -27.711 -24.087  1.00  0.00    -0.361 N 
ATOM     20  H72 UNL     1     -15.786 -27.547 -23.616  1.00  0.00     0.159 HD
ATOM     21  H71 UNL     1     -14.464 -27.264 -23.279  1.00  0.00     0.159 HD
ENDBRANCH  10  19
TORSDOF 3
ENDMDL
