MODEL 1
REMARK VINA RESULT: -7.488507009      0.000      0.000
REMARK  2 active torsions:
REMARK  status: ('A' for Active; 'I' for Inactive)
REMARK    1  A    between atoms: C3_4  and  C4_5 
REMARK       I    between atoms: C4_5  and  N2_7 
REMARK    2  A    between atoms: N2_7  and  N3_9 
ROOT
HETATM    1  C4  UNL     1     -14.621 -27.380 -26.042  1.00  0.00     0.290 C 
HETATM    2  O1  UNL     1     -14.530 -28.037 -27.106  1.00  0.00    -0.264 OA
HETATM    3  N2  UNL     1     -13.440 -27.015 -25.360  1.00  0.00    -0.225 N 
ATOM      4  H2  UNL     1     -13.489 -26.480 -24.493  1.00  0.00     0.194 HD
ENDROOT
BRANCH   3   5
HETATM    5  N3  UNL     1     -12.208 -27.393 -25.887  1.00  0.00    -0.096 N 
HETATM    6  N4  UNL     1     -11.777 -27.225 -27.133  1.00  0.00    -0.189 N 
HETATM    7  N5  UNL     1     -10.560 -27.735 -27.174  1.00  0.00    -0.209 N 
ATOM      8  H4  UNL     1     -12.285 -26.790 -27.902  1.00  0.00     0.213 HD
HETATM    9  N6  UNL     1     -10.220 -28.216 -25.991  1.00  0.00    -0.209 N 
ATOM     10  H5  UNL     1      -9.966 -27.755 -28.002  1.00  0.00     0.211 HD
HETATM   11  N7  UNL     1     -11.254 -27.998 -25.201  1.00  0.00    -0.189 N 
ATOM     12  H6  UNL     1      -9.339 -28.665 -25.740  1.00  0.00     0.211 HD
ATOM     13  H7  UNL     1     -11.308 -28.254 -24.216  1.00  0.00     0.213 HD
ENDBRANCH   3   5
BRANCH   1  14
HETATM   14  C3  UNL     1     -15.949 -27.005 -25.529  1.00  0.00     0.120 A 
HETATM   15  C2  UNL     1     -16.167 -26.106 -24.508  1.00  0.00     0.083 A 
HETATM   16  C1  UNL     1     -17.538 -26.027 -24.322  1.00  0.00     0.133 A 
HETATM   17  N1  UNL     1     -18.127 -25.195 -23.348  1.00  0.00    -0.081 NA
HETATM   18  N9  UNL     1     -18.078 -26.851 -25.207  1.00  0.00    -0.287 N 
HETATM   19  N8  UNL     1     -17.142 -27.440 -25.932  1.00  0.00    -0.294 N 
ATOM     20  H9  UNL     1     -19.080 -27.010 -25.315  1.00  0.00     0.188 HD
ATOM     21  H8  UNL     1     -17.306 -28.117 -26.678  1.00  0.00     0.187 HD
ENDBRANCH   1  14
TORSDOF 2
ENDMDL
MODEL 2
REMARK VINA RESULT: -7.476471882      2.298      5.841
REMARK  2 active torsions:
REMARK  status: ('A' for Active; 'I' for Inactive)
REMARK    1  A    between atoms: C3_4  and  C4_5 
REMARK       I    between atoms: C4_5  and  N2_7 
REMARK    2  A    between atoms: N2_7  and  N3_9 
ROOT
HETATM    1  C4  UNL     1     -13.921 -26.880 -25.497  1.00  0.00     0.290 C 
HETATM    2  O1  UNL     1     -13.974 -25.685 -25.122  1.00  0.00    -0.264 OA
HETATM    3  N2  UNL     1     -14.780 -27.824 -24.894  1.00  0.00    -0.225 N 
ATOM      4  H2  UNL     1     -14.756 -28.802 -25.183  1.00  0.00     0.194 HD
ENDROOT
BRANCH   3   5
HETATM    5  N3  UNL     1     -15.663 -27.403 -23.902  1.00  0.00    -0.096 N 
HETATM    6  N4  UNL     1     -15.403 -26.591 -22.883  1.00  0.00    -0.189 N 
HETATM    7  N5  UNL     1     -16.530 -26.476 -22.206  1.00  0.00    -0.209 N 
ATOM      8  H4  UNL     1     -14.510 -26.146 -22.667  1.00  0.00     0.213 HD
HETATM    9  N6  UNL     1     -17.484 -27.193 -22.773  1.00  0.00    -0.209 N 
ATOM     10  H5  UNL     1     -16.647 -25.914 -21.364  1.00  0.00     0.211 HD
HETATM   11  N7  UNL     1     -16.931 -27.764 -23.826  1.00  0.00    -0.189 N 
ATOM     12  H6  UNL     1     -18.451 -27.285 -22.460  1.00  0.00     0.211 HD
ATOM     13  H7  UNL     1     -17.408 -28.386 -24.478  1.00  0.00     0.213 HD
ENDBRANCH   3   5
BRANCH   1  14
HETATM   14  C3  UNL     1     -12.971 -27.272 -26.550  1.00  0.00     0.120 A 
HETATM   15  C2  UNL     1     -13.297 -28.024 -27.657  1.00  0.00     0.083 A 
HETATM   16  C1  UNL     1     -12.138 -28.176 -28.401  1.00  0.00     0.133 A 
HETATM   17  N1  UNL     1     -12.101 -28.899 -29.612  1.00  0.00    -0.081 NA
HETATM   18  N9  UNL     1     -11.188 -27.533 -27.740  1.00  0.00    -0.287 N 
HETATM   19  N8  UNL     1     -11.671 -26.990 -26.635  1.00  0.00    -0.294 N 
ATOM     20  H9  UNL     1     -10.216 -27.465 -28.042  1.00  0.00     0.188 HD
ATOM     21  H8  UNL     1     -11.136 -26.445 -25.958  1.00  0.00     0.187 HD
ENDBRANCH   1  14
TORSDOF 2
ENDMDL
MODEL 3
REMARK VINA RESULT: -7.427607242      2.204      5.802
REMARK  2 active torsions:
REMARK  status: ('A' for Active; 'I' for Inactive)
REMARK    1  A    between atoms: C3_4  and  C4_5 
REMARK       I    between atoms: C4_5  and  N2_7 
REMARK    2  A    between atoms: N2_7  and  N3_9 
ROOT
HETATM    1  C4  UNL     1     -14.017 -27.029 -25.522  1.00  0.00     0.290 C 
HETATM    2  O1  UNL     1     -14.834 -27.901 -25.143  1.00  0.00    -0.264 OA
HETATM    3  N2  UNL     1     -14.063 -25.747 -24.932  1.00  0.00    -0.225 N 
ATOM      4  H2  UNL     1     -13.408 -25.021 -25.224  1.00  0.00     0.194 HD
ENDROOT
BRANCH   3   5
HETATM    5  N3  UNL     1     -15.012 -25.487 -23.947  1.00  0.00    -0.096 N 
HETATM    6  N4  UNL     1     -15.177 -26.129 -22.795  1.00  0.00    -0.189 N 
HETATM    7  N5  UNL     1     -16.190 -25.542 -22.187  1.00  0.00    -0.209 N 
ATOM      8  H4  UNL     1     -14.629 -26.917 -22.451  1.00  0.00     0.213 HD
HETATM    9  N6  UNL     1     -16.662 -24.553 -22.926  1.00  0.00    -0.209 N 
ATOM     10  H5  UNL     1     -16.557 -25.813 -21.275  1.00  0.00     0.211 HD
HETATM   11  N7  UNL     1     -15.922 -24.531 -24.017  1.00  0.00    -0.189 N 
ATOM     12  H6  UNL     1     -17.441 -23.934 -22.698  1.00  0.00     0.211 HD
ATOM     13  H7  UNL     1     -16.033 -23.878 -24.792  1.00  0.00     0.213 HD
ENDBRANCH   3   5
BRANCH   1  14
HETATM   14  C3  UNL     1     -13.033 -27.356 -26.567  1.00  0.00     0.120 A 
HETATM   15  C2  UNL     1     -13.303 -28.114 -27.686  1.00  0.00     0.083 A 
HETATM   16  C1  UNL     1     -12.129 -28.193 -28.416  1.00  0.00     0.133 A 
HETATM   17  N1  UNL     1     -12.037 -28.900 -29.633  1.00  0.00    -0.081 NA
HETATM   18  N9  UNL     1     -11.224 -27.505 -27.737  1.00  0.00    -0.287 N 
HETATM   19  N8  UNL     1     -11.750 -27.001 -26.633  1.00  0.00    -0.294 N 
ATOM     20  H9  UNL     1     -10.254 -27.380 -28.025  1.00  0.00     0.188 HD
ATOM     21  H8  UNL     1     -11.256 -26.434 -25.944  1.00  0.00     0.187 HD
ENDBRANCH   1  14
TORSDOF 2
ENDMDL
MODEL 4
REMARK VINA RESULT: -7.392118088      2.366      6.115
REMARK  2 active torsions:
REMARK  status: ('A' for Active; 'I' for Inactive)
REMARK    1  A    between atoms: C3_4  and  C4_5 
REMARK       I    between atoms: C4_5  and  N2_7 
REMARK    2  A    between atoms: N2_7  and  N3_9 
ROOT
HETATM    1  C4  UNL     1     -13.128 -27.906 -25.905  1.00  0.00     0.290 C 
HETATM    2  O1  UNL     1     -13.359 -27.332 -26.996  1.00  0.00    -0.264 OA
HETATM    3  N2  UNL     1     -14.201 -28.152 -25.022  1.00  0.00    -0.225 N 
ATOM      4  H2  UNL     1     -14.038 -28.618 -24.128  1.00  0.00     0.194 HD
ENDROOT
BRANCH   3   5
HETATM    5  N3  UNL     1     -15.485 -27.752 -25.385  1.00  0.00    -0.096 N 
HETATM    6  N4  UNL     1     -16.079 -27.918 -26.561  1.00  0.00    -0.189 N 
HETATM    7  N5  UNL     1     -17.280 -27.385 -26.446  1.00  0.00    -0.209 N 
ATOM      8  H4  UNL     1     -15.685 -28.368 -27.387  1.00  0.00     0.213 HD
HETATM    9  N6  UNL     1     -17.452 -26.890 -25.233  1.00  0.00    -0.209 N 
ATOM     10  H5  UNL     1     -17.978 -27.358 -27.189  1.00  0.00     0.211 HD
HETATM   11  N7  UNL     1     -16.328 -27.125 -24.584  1.00  0.00    -0.189 N 
ATOM     12  H6  UNL     1     -18.284 -26.423 -24.872  1.00  0.00     0.211 HD
ATOM     13  H7  UNL     1     -16.140 -26.864 -23.616  1.00  0.00     0.213 HD
ENDBRANCH   3   5
BRANCH   1  14
HETATM   14  C3  UNL     1     -11.752 -28.309 -25.570  1.00  0.00     0.120 A 
HETATM   15  C2  UNL     1     -11.209 -29.543 -25.851  1.00  0.00     0.083 A 
HETATM   16  C1  UNL     1      -9.905 -29.529 -25.381  1.00  0.00     0.133 A 
HETATM   17  N1  UNL     1      -9.042 -30.639 -25.500  1.00  0.00    -0.081 NA
HETATM   18  N9  UNL     1      -9.715 -28.329 -24.854  1.00  0.00    -0.287 N 
HETATM   19  N8  UNL     1     -10.808 -27.593 -24.959  1.00  0.00    -0.294 N 
ATOM     20  H9  UNL     1      -8.845 -28.016 -24.424  1.00  0.00     0.188 HD
ATOM     21  H8  UNL     1     -10.913 -26.633 -24.628  1.00  0.00     0.187 HD
ENDBRANCH   1  14
TORSDOF 2
ENDMDL
MODEL 5
REMARK VINA RESULT: -7.345167173      0.911      1.313
REMARK  2 active torsions:
REMARK  status: ('A' for Active; 'I' for Inactive)
REMARK    1  A    between atoms: C3_4  and  C4_5 
REMARK       I    between atoms: C4_5  and  N2_7 
REMARK    2  A    between atoms: N2_7  and  N3_9 
ROOT
HETATM    1  C4  UNL     1     -14.715 -28.137 -25.712  1.00  0.00     0.290 C 
HETATM    2  O1  UNL     1     -14.519 -29.114 -26.473  1.00  0.00    -0.264 OA
HETATM    3  N2  UNL     1     -13.622 -27.319 -25.354  1.00  0.00    -0.225 N 
ATOM      4  H2  UNL     1     -13.757 -26.518 -24.737  1.00  0.00     0.194 HD
ENDROOT
BRANCH   3   5
HETATM    5  N3  UNL     1     -12.357 -27.619 -25.855  1.00  0.00    -0.096 N 
HETATM    6  N4  UNL     1     -11.406 -28.335 -25.266  1.00  0.00    -0.189 N 
HETATM    7  N5  UNL     1     -10.387 -28.354 -26.104  1.00  0.00    -0.209 N 
ATOM      8  H4  UNL     1     -11.454 -28.781 -24.350  1.00  0.00     0.213 HD
HETATM    9  N6  UNL     1     -10.674 -27.671 -27.197  1.00  0.00    -0.209 N 
ATOM     10  H5  UNL     1      -9.501 -28.830 -25.932  1.00  0.00     0.211 HD
HETATM   11  N7  UNL     1     -11.902 -27.218 -27.029  1.00  0.00    -0.189 N 
ATOM     12  H6  UNL     1     -10.071 -27.523 -28.007  1.00  0.00     0.211 HD
ATOM     13  H7  UNL     1     -12.418 -26.650 -27.699  1.00  0.00     0.213 HD
ENDBRANCH   3   5
BRANCH   1  14
HETATM   14  C3  UNL     1     -16.073 -27.864 -25.212  1.00  0.00     0.120 A 
HETATM   15  C2  UNL     1     -16.614 -26.606 -25.068  1.00  0.00     0.083 A 
HETATM   16  C1  UNL     1     -17.898 -26.770 -24.573  1.00  0.00     0.133 A 
HETATM   17  N1  UNL     1     -18.754 -25.682 -24.301  1.00  0.00    -0.081 NA
HETATM   18  N9  UNL     1     -18.078 -28.075 -24.442  1.00  0.00    -0.287 N 
HETATM   19  N8  UNL     1     -16.998 -28.738 -24.818  1.00  0.00    -0.294 N 
ATOM     20  H9  UNL     1     -18.934 -28.510 -24.096  1.00  0.00     0.188 HD
ATOM     21  H8  UNL     1     -16.890 -29.753 -24.809  1.00  0.00     0.187 HD
ENDBRANCH   1  14
TORSDOF 2
ENDMDL
