MODEL 1
REMARK VINA RESULT: -7.723628962      0.000      0.000
REMARK  7 active torsions:
REMARK  status: ('A' for Active; 'I' for Inactive)
REMARK    1  A    between atoms: C7_7  and  C8_8 
REMARK    2  A    between atoms: C8_8  and  C9_9 
REMARK    3  A    between atoms: C9_9  and  N1_10 
REMARK    4  A    between atoms: C9_9  and  C10_14 
REMARK    5  A    between atoms: C10_14  and  N2_15 
REMARK    6  A    between atoms: C10_14  and  C11_19 
REMARK    7  A    between atoms: C11_19  and  C12_20 
ROOT
HETATM    1  C9  UNL     1      -8.076 -25.031   0.536  1.00  0.00     0.218 C 
ENDROOT
BRANCH   1   2
HETATM    2  C8  UNL     1      -8.700 -25.990  -0.385  1.00  0.00     0.074 C 
BRANCH   2   3
HETATM    3  C7  UNL     1      -8.164 -26.207  -1.722  1.00  0.00    -0.050 A 
HETATM    4  C2  UNL     1      -8.757 -27.121  -2.567  1.00  0.00    -0.056 A 
HETATM    5  C1  UNL     1      -9.947 -27.882  -2.123  1.00  0.00     0.049 C 
HETATM    6  C3  UNL     1      -8.271 -27.399  -3.843  1.00  0.00     0.007 A 
HETATM    7  C4  UNL     1      -7.148 -26.741  -4.294  1.00  0.00     0.001 A 
HETATM    8  C5  UNL     1      -6.537 -25.824  -3.466  1.00  0.00     0.001 A 
HETATM    9  C6  UNL     1      -7.043 -25.570  -2.209  1.00  0.00     0.007 A 
ENDBRANCH   2   3
ENDBRANCH   1   2
BRANCH   1  10
HETATM   10  N1  UNL     1      -9.227 -24.286   1.234  1.00  0.00    -0.073 N 
ATOM     11  H13 UNL     1      -9.072 -23.280   1.304  1.00  0.00     0.274 HD
ATOM     12  H12 UNL     1     -10.078 -24.244   0.675  1.00  0.00     0.274 HD
ATOM     13  H11 UNL     1      -9.358 -24.740   2.138  1.00  0.00     0.274 HD
ENDBRANCH   1  10
BRANCH   1  14
HETATM   14  C10 UNL     1      -7.289 -25.474   1.697  1.00  0.00     0.219 C 
BRANCH  14  15
HETATM   15  N2  UNL     1      -7.310 -26.961   1.788  1.00  0.00    -0.073 N 
ATOM     16  H23 UNL     1      -8.235 -27.317   2.026  1.00  0.00     0.274 HD
ATOM     17  H22 UNL     1      -7.214 -27.401   0.873  1.00  0.00     0.274 HD
ATOM     18  H21 UNL     1      -6.596 -27.279   2.442  1.00  0.00     0.274 HD
ENDBRANCH  14  15
BRANCH  14  19
HETATM   19  C11 UNL     1      -7.520 -24.984   3.059  1.00  0.00     0.093 C 
BRANCH  19  20
HETATM   20  C12 UNL     1      -8.203 -25.895   3.993  1.00  0.00     0.027 A 
HETATM   21  C13 UNL     1      -9.494 -26.289   4.117  1.00  0.00     0.114 A 
HETATM   22  N3  UNL     1      -9.597 -27.131   5.149  1.00  0.00    -0.360 N 
HETATM   23  C14 UNL     1      -8.372 -27.275   5.681  1.00  0.00     0.180 A 
ATOM     24  H3  UNL     1     -10.452 -27.583   5.474  1.00  0.00     0.166 HD
HETATM   25  N4  UNL     1      -7.523 -26.533   4.990  1.00  0.00    -0.355 N 
ATOM     26  H4  UNL     1      -6.523 -26.450   5.172  1.00  0.00     0.166 HD
ENDBRANCH  19  20
ENDBRANCH  14  19
ENDBRANCH   1  14
TORSDOF 7
ENDMDL
MODEL 2
REMARK VINA RESULT: -7.685449145      1.957      3.998
REMARK  7 active torsions:
REMARK  status: ('A' for Active; 'I' for Inactive)
REMARK    1  A    between atoms: C7_7  and  C8_8 
REMARK    2  A    between atoms: C8_8  and  C9_9 
REMARK    3  A    between atoms: C9_9  and  N1_10 
REMARK    4  A    between atoms: C9_9  and  C10_14 
REMARK    5  A    between atoms: C10_14  and  N2_15 
REMARK    6  A    between atoms: C10_14  and  C11_19 
REMARK    7  A    between atoms: C11_19  and  C12_20 
ROOT
HETATM    1  C9  UNL     1      -7.793 -26.383   3.583  1.00  0.00     0.218 C 
ENDROOT
BRANCH   1   2
HETATM    2  C8  UNL     1      -7.694 -25.264   2.636  1.00  0.00     0.074 C 
BRANCH   2   3
HETATM    3  C7  UNL     1      -7.757 -25.487   1.198  1.00  0.00    -0.050 A 
HETATM    4  C2  UNL     1      -8.934 -25.269   0.513  1.00  0.00    -0.056 A 
HETATM    5  C1  UNL     1     -10.139 -24.800   1.235  1.00  0.00     0.049 C 
HETATM    6  C3  UNL     1      -9.068 -25.498  -0.855  1.00  0.00     0.007 A 
HETATM    7  C4  UNL     1      -7.985 -25.965  -1.568  1.00  0.00     0.001 A 
HETATM    8  C5  UNL     1      -6.799 -26.192  -0.904  1.00  0.00     0.001 A 
HETATM    9  C6  UNL     1      -6.698 -25.954   0.450  1.00  0.00     0.007 A 
ENDBRANCH   2   3
ENDBRANCH   1   2
BRANCH   1  10
HETATM   10  N1  UNL     1      -7.358 -25.834   4.952  1.00  0.00    -0.073 N 
ATOM     11  H13 UNL     1      -6.354 -25.665   5.018  1.00  0.00     0.274 HD
ATOM     12  H12 UNL     1      -7.660 -24.875   5.118  1.00  0.00     0.274 HD
ATOM     13  H11 UNL     1      -7.705 -26.493   5.650  1.00  0.00     0.274 HD
ENDBRANCH   1  10
BRANCH   1  14
HETATM   14  C10 UNL     1      -9.087 -26.992   3.927  1.00  0.00     0.219 C 
BRANCH  14  15
HETATM   15  N2  UNL     1      -9.303 -26.927   5.400  1.00  0.00    -0.073 N 
ATOM     16  H23 UNL     1      -8.818 -27.677   5.892  1.00  0.00     0.274 HD
ATOM     17  H22 UNL     1      -8.819 -26.136   5.822  1.00  0.00     0.274 HD
ATOM     18  H21 UNL     1     -10.302 -26.918   5.604  1.00  0.00     0.274 HD
ENDBRANCH  14  15
BRANCH  14  19
HETATM   19  C11 UNL     1      -9.469 -28.348   3.523  1.00  0.00     0.093 C 
BRANCH  19  20
HETATM   20  C12 UNL     1      -9.277 -28.706   2.108  1.00  0.00     0.027 A 
HETATM   21  C13 UNL     1      -8.223 -29.213   1.421  1.00  0.00     0.114 A 
HETATM   22  N3  UNL     1      -8.562 -29.347   0.137  1.00  0.00    -0.360 N 
HETATM   23  C14 UNL     1      -9.832 -28.928   0.004  1.00  0.00     0.180 A 
ATOM     24  H3  UNL     1      -7.965 -29.703  -0.610  1.00  0.00     0.166 HD
HETATM   25  N4  UNL     1     -10.272 -28.539   1.189  1.00  0.00    -0.355 N 
ATOM     26  H4  UNL     1     -11.204 -28.174   1.385  1.00  0.00     0.166 HD
ENDBRANCH  19  20
ENDBRANCH  14  19
ENDBRANCH   1  14
TORSDOF 7
ENDMDL
MODEL 3
REMARK VINA RESULT: -7.682677344      2.254      6.450
REMARK  7 active torsions:
REMARK  status: ('A' for Active; 'I' for Inactive)
REMARK    1  A    between atoms: C7_7  and  C8_8 
REMARK    2  A    between atoms: C8_8  and  C9_9 
REMARK    3  A    between atoms: C9_9  and  N1_10 
REMARK    4  A    between atoms: C9_9  and  C10_14 
REMARK    5  A    between atoms: C10_14  and  N2_15 
REMARK    6  A    between atoms: C10_14  and  C11_19 
REMARK    7  A    between atoms: C11_19  and  C12_20 
ROOT
HETATM    1  C9  UNL     1      -9.798 -26.058   0.638  1.00  0.00     0.218 C 
ENDROOT
BRANCH   1   2
HETATM    2  C8  UNL     1      -9.705 -25.341   1.916  1.00  0.00     0.074 C 
BRANCH   2   3
HETATM    3  C7  UNL     1      -9.360 -26.039   3.147  1.00  0.00    -0.050 A 
HETATM    4  C2  UNL     1      -8.182 -25.749   3.803  1.00  0.00    -0.056 A 
HETATM    5  C1  UNL     1      -7.264 -24.721   3.261  1.00  0.00     0.049 C 
HETATM    6  C3  UNL     1      -7.778 -26.406   4.963  1.00  0.00     0.007 A 
HETATM    7  C4  UNL     1      -8.582 -27.393   5.492  1.00  0.00     0.001 A 
HETATM    8  C5  UNL     1      -9.763 -27.701   4.853  1.00  0.00     0.001 A 
HETATM    9  C6  UNL     1     -10.135 -27.032   3.707  1.00  0.00     0.007 A 
ENDBRANCH   2   3
ENDBRANCH   1   2
BRANCH   1  10
HETATM   10  N1  UNL     1     -10.120 -25.002  -0.431  1.00  0.00    -0.073 N 
ATOM     11  H13 UNL     1      -9.312 -24.439  -0.699  1.00  0.00     0.274 HD
ATOM     12  H12 UNL     1     -10.306 -25.401  -1.351  1.00  0.00     0.274 HD
ATOM     13  H11 UNL     1     -10.896 -24.449  -0.067  1.00  0.00     0.274 HD
ENDBRANCH   1  10
BRANCH   1  14
HETATM   14  C10 UNL     1      -8.629 -26.717   0.034  1.00  0.00     0.219 C 
BRANCH  14  15
HETATM   15  N2  UNL     1      -8.522 -28.117   0.530  1.00  0.00    -0.073 N 
ATOM     16  H23 UNL     1      -9.001 -28.245   1.421  1.00  0.00     0.274 HD
ATOM     17  H22 UNL     1      -9.077 -28.764  -0.030  1.00  0.00     0.274 HD
ATOM     18  H21 UNL     1      -7.542 -28.395   0.578  1.00  0.00     0.274 HD
ENDBRANCH  14  15
BRANCH  14  19
HETATM   19  C11 UNL     1      -7.274 -26.163   0.096  1.00  0.00     0.093 C 
BRANCH  19  20
HETATM   20  C12 UNL     1      -6.607 -25.873  -1.185  1.00  0.00     0.027 A 
HETATM   21  C13 UNL     1      -7.076 -25.520  -2.408  1.00  0.00     0.114 A 
HETATM   22  N3  UNL     1      -6.047 -25.385  -3.247  1.00  0.00    -0.360 N 
HETATM   23  C14 UNL     1      -4.923 -25.650  -2.561  1.00  0.00     0.180 A 
ATOM     24  H3  UNL     1      -6.104 -25.126  -4.233  1.00  0.00     0.166 HD
HETATM   25  N4  UNL     1      -5.251 -25.946  -1.315  1.00  0.00    -0.355 N 
ATOM     26  H4  UNL     1      -4.597 -26.189  -0.571  1.00  0.00     0.166 HD
ENDBRANCH  19  20
ENDBRANCH  14  19
ENDBRANCH   1  14
TORSDOF 7
ENDMDL
MODEL 4
REMARK VINA RESULT: -7.666043647      2.900      6.738
REMARK  7 active torsions:
REMARK  status: ('A' for Active; 'I' for Inactive)
REMARK    1  A    between atoms: C7_7  and  C8_8 
REMARK    2  A    between atoms: C8_8  and  C9_9 
REMARK    3  A    between atoms: C9_9  and  N1_10 
REMARK    4  A    between atoms: C9_9  and  C10_14 
REMARK    5  A    between atoms: C10_14  and  N2_15 
REMARK    6  A    between atoms: C10_14  and  C11_19 
REMARK    7  A    between atoms: C11_19  and  C12_20 
ROOT
HETATM    1  C9  UNL     1      -6.436 -26.220  -0.530  1.00  0.00     0.218 C 
ENDROOT
BRANCH   1   2
HETATM    2  C8  UNL     1      -7.586 -25.365  -0.207  1.00  0.00     0.074 C 
BRANCH   2   3
HETATM    3  C7  UNL     1      -8.080 -25.253   1.158  1.00  0.00    -0.050 A 
HETATM    4  C2  UNL     1      -9.427 -25.078   1.397  1.00  0.00    -0.056 A 
HETATM    5  C1  UNL     1     -10.380 -25.011   0.266  1.00  0.00     0.049 C 
HETATM    6  C3  UNL     1      -9.957 -24.928   2.677  1.00  0.00     0.007 A 
HETATM    7  C4  UNL     1      -9.109 -24.952   3.763  1.00  0.00     0.001 A 
HETATM    8  C5  UNL     1      -7.758 -25.123   3.549  1.00  0.00     0.001 A 
HETATM    9  C6  UNL     1      -7.265 -25.271   2.270  1.00  0.00     0.007 A 
ENDBRANCH   2   3
ENDBRANCH   1   2
BRANCH   1  10
HETATM   10  N1  UNL     1      -6.930 -27.672  -0.424  1.00  0.00    -0.073 N 
ATOM     11  H13 UNL     1      -7.945 -27.749  -0.350  1.00  0.00     0.274 HD
ATOM     12  H12 UNL     1      -6.826 -28.199  -1.291  1.00  0.00     0.274 HD
ATOM     13  H11 UNL     1      -6.434 -28.089   0.364  1.00  0.00     0.274 HD
ENDBRANCH   1  10
BRANCH   1  14
HETATM   14  C10 UNL     1      -5.833 -26.230  -1.872  1.00  0.00     0.219 C 
BRANCH  14  15
HETATM   15  N2  UNL     1      -4.422 -25.756  -1.797  1.00  0.00    -0.073 N 
ATOM     16  H23 UNL     1      -4.351 -24.834  -1.367  1.00  0.00     0.274 HD
ATOM     17  H22 UNL     1      -3.878 -26.281  -1.114  1.00  0.00     0.274 HD
ATOM     18  H21 UNL     1      -3.998 -25.780  -2.724  1.00  0.00     0.274 HD
ENDBRANCH  14  15
BRANCH  14  19
HETATM   19  C11 UNL     1      -6.427 -25.550  -3.025  1.00  0.00     0.093 C 
BRANCH  19  20
HETATM   20  C12 UNL     1      -7.200 -26.376  -3.967  1.00  0.00     0.027 A 
HETATM   21  C13 UNL     1      -8.152 -27.327  -3.792  1.00  0.00     0.114 A 
HETATM   22  N3  UNL     1      -8.533 -27.788  -4.986  1.00  0.00    -0.360 N 
HETATM   23  C14 UNL     1      -7.827 -27.132  -5.921  1.00  0.00     0.180 A 
ATOM     24  H3  UNL     1      -9.234 -28.509  -5.156  1.00  0.00     0.166 HD
HETATM   25  N4  UNL     1      -7.020 -26.277  -5.316  1.00  0.00    -0.355 N 
ATOM     26  H4  UNL     1      -6.367 -25.646  -5.782  1.00  0.00     0.166 HD
ENDBRANCH  19  20
ENDBRANCH  14  19
ENDBRANCH   1  14
TORSDOF 7
ENDMDL
MODEL 5
REMARK VINA RESULT: -7.615929116      1.539      1.844
REMARK  7 active torsions:
REMARK  status: ('A' for Active; 'I' for Inactive)
REMARK    1  A    between atoms: C7_7  and  C8_8 
REMARK    2  A    between atoms: C8_8  and  C9_9 
REMARK    3  A    between atoms: C9_9  and  N1_10 
REMARK    4  A    between atoms: C9_9  and  C10_14 
REMARK    5  A    between atoms: C10_14  and  N2_15 
REMARK    6  A    between atoms: C10_14  and  C11_19 
REMARK    7  A    between atoms: C11_19  and  C12_20 
ROOT
HETATM    1  C9  UNL     1      -9.086 -24.959   1.415  1.00  0.00     0.218 C 
ENDROOT
BRANCH   1   2
HETATM    2  C8  UNL     1      -9.706 -25.670   0.290  1.00  0.00     0.074 C 
BRANCH   2   3
HETATM    3  C7  UNL     1      -8.949 -25.977  -0.915  1.00  0.00    -0.050 A 
HETATM    4  C2  UNL     1      -9.359 -26.993  -1.753  1.00  0.00    -0.056 A 
HETATM    5  C1  UNL     1     -10.575 -27.775  -1.433  1.00  0.00     0.049 C 
HETATM    6  C3  UNL     1      -8.659 -27.358  -2.901  1.00  0.00     0.007 A 
HETATM    7  C4  UNL     1      -7.502 -26.683  -3.227  1.00  0.00     0.001 A 
HETATM    8  C5  UNL     1      -7.072 -25.665  -2.404  1.00  0.00     0.001 A 
HETATM    9  C6  UNL     1      -7.788 -25.326  -1.276  1.00  0.00     0.007 A 
ENDBRANCH   2   3
ENDBRANCH   1   2
BRANCH   1  10
HETATM   10  N1  UNL     1     -10.238 -24.366   2.244  1.00  0.00    -0.073 N 
ATOM     11  H13 UNL     1     -11.151 -24.752   2.000  1.00  0.00     0.274 HD
ATOM     12  H12 UNL     1     -10.230 -24.665   3.219  1.00  0.00     0.274 HD
ATOM     13  H11 UNL     1     -10.183 -23.354   2.132  1.00  0.00     0.274 HD
ENDBRANCH   1  10
BRANCH   1  14
HETATM   14  C10 UNL     1      -8.332 -25.670   2.459  1.00  0.00     0.219 C 
BRANCH  14  15
HETATM   15  N2  UNL     1      -6.903 -25.247   2.431  1.00  0.00    -0.073 N 
ATOM     16  H23 UNL     1      -6.435 -25.539   1.574  1.00  0.00     0.274 HD
ATOM     17  H22 UNL     1      -6.806 -24.239   2.316  1.00  0.00     0.274 HD
ATOM     18  H21 UNL     1      -6.424 -25.586   3.265  1.00  0.00     0.274 HD
ENDBRANCH  14  15
BRANCH  14  19
HETATM   19  C11 UNL     1      -8.317 -27.130   2.587  1.00  0.00     0.093 C 
BRANCH  19  20
HETATM   20  C12 UNL     1      -9.299 -27.733   3.504  1.00  0.00     0.027 A 
HETATM   21  C13 UNL     1      -9.598 -27.511   4.808  1.00  0.00     0.114 A 
HETATM   22  N3  UNL     1     -10.574 -28.344   5.180  1.00  0.00    -0.360 N 
HETATM   23  C14 UNL     1     -10.897 -29.095   4.114  1.00  0.00     0.180 A 
ATOM     24  H3  UNL     1     -10.997 -28.399   6.106  1.00  0.00     0.166 HD
HETATM   25  N4  UNL     1     -10.133 -28.733   3.098  1.00  0.00    -0.355 N 
ATOM     26  H4  UNL     1     -10.162 -29.137   2.161  1.00  0.00     0.166 HD
ENDBRANCH  19  20
ENDBRANCH  14  19
ENDBRANCH   1  14
TORSDOF 7
ENDMDL
