MODEL 1
REMARK VINA RESULT: -9.132057532      0.000      0.000
REMARK  12 active torsions:
REMARK  status: ('A' for Active; 'I' for Inactive)
REMARK    1  A    between atoms: O1_2  and  C2_3 
REMARK    2  A    between atoms: C2_3  and  C3_4 
REMARK    3  A    between atoms: C3_4  and  O2_5 
REMARK    4  A    between atoms: O2_5  and  C4_6 
REMARK    5  A    between atoms: C4_6  and  C5_7 
REMARK    6  A    between atoms: C9_11  and  C10_12 
REMARK    7  A    between atoms: C19_28  and  C20_29 
REMARK       I    between atoms: C20_29  and  N5_31 
REMARK    8  A    between atoms: N5_31  and  C21_33 
REMARK    9  A    between atoms: C25_39  and  N7_40 
REMARK   10  A    between atoms: N7_40  and  C26_42 
REMARK   11  A    between atoms: C26_42  and  C27_43 
REMARK   12  A    between atoms: C27_43  and  N8_44 
ROOT
HETATM    1  C5  UNL     1      -2.026  -2.311 -20.296  1.00  0.00    -0.015 A 
HETATM    2  C6  UNL     1      -1.967  -3.405 -19.455  1.00  0.00     0.042 A 
HETATM    3  C7  UNL     1      -0.779  -3.781 -18.849  1.00  0.00     0.059 A 
HETATM    4  C8  UNL     1      -0.455  -4.819 -17.978  1.00  0.00     0.066 A 
HETATM    5  C9  UNL     1       0.883  -4.719 -17.692  1.00  0.00     0.095 A 
HETATM    6  N3  UNL     1       1.330  -3.663 -18.367  1.00  0.00    -0.290 N 
ATOM      7  H3  UNL     1       2.296  -3.334 -18.353  1.00  0.00     0.187 HD
HETATM    8  N4  UNL     1       0.348  -3.089 -19.066  1.00  0.00    -0.266 N 
HETATM    9  C18 UNL     1       0.303  -2.022 -19.883  1.00  0.00     0.134 A 
HETATM   10  C19 UNL     1      -0.875  -1.606 -20.516  1.00  0.00     0.058 A 
ENDROOT
BRANCH  10  11
HETATM   11  C20 UNL     1      -0.880  -0.455 -21.389  1.00  0.00     0.259 C 
HETATM   12  O3  UNL     1      -1.585   0.536 -21.132  1.00  0.00    -0.267 OA
HETATM   13  N5  UNL     1      -0.092  -0.383 -22.578  1.00  0.00    -0.308 N 
ATOM     14  H5  UNL     1       0.923  -0.318 -22.495  1.00  0.00     0.170 HD
BRANCH  13  15
HETATM   15  C21 UNL     1      -0.625  -0.397 -23.752  1.00  0.00     0.125 A 
HETATM   16  C22 UNL     1       0.072  -0.097 -24.891  1.00  0.00     0.074 A 
HETATM   17  C23 UNL     1      -0.578  -0.143 -26.094  1.00  0.00     0.026 A 
HETATM   18  C24 UNL     1       0.158   0.178 -27.343  1.00  0.00     0.069 C 
HETATM   19  N6  UNL     1      -1.885  -0.476 -26.193  1.00  0.00    -0.196 N 
HETATM   20  C25 UNL     1      -2.549  -0.768 -25.062  1.00  0.00     0.679 A 
ATOM     21  H6  UNL     1      -2.352  -0.506 -27.099  1.00  0.00     0.184 HD
HETATM   22  N9  UNL     1      -1.919  -0.726 -23.863  1.00  0.00    -0.177 N 
ATOM     23  H9  UNL     1      -2.446  -0.951 -23.019  1.00  0.00     0.186 HD
BRANCH  20  24
HETATM   24  N7  UNL     1      -3.793  -1.100 -25.066  1.00  0.00    -0.224 N 
ATOM     25  H7  UNL     1      -4.015  -2.093 -25.141  1.00  0.00     0.177 HD
BRANCH  24  26
HETATM   26  C26 UNL     1      -4.890  -0.184 -24.974  1.00  0.00     0.157 C 
BRANCH  26  27
HETATM   27  C27 UNL     1      -5.878  -0.366 -26.099  1.00  0.00     0.136 C 
BRANCH  27  28
HETATM   28  N8  UNL     1      -5.925  -1.700 -26.597  1.00  0.00    -0.419 N 
HETATM   29  C28 UNL     1      -5.726  -1.858 -28.001  1.00  0.00     0.142 C 
HETATM   30  C29 UNL     1      -6.958  -2.528 -26.052  1.00  0.00     0.142 C 
ENDBRANCH  27  28
ENDBRANCH  26  27
ENDBRANCH  24  26
ENDBRANCH  20  24
ENDBRANCH  13  15
ENDBRANCH  10  11
BRANCH   1  31
HETATM   31  C4  UNL     1      -3.343  -1.953 -20.924  1.00  0.00     0.207 C 
BRANCH  31  32
HETATM   32  O2  UNL     1      -3.357  -2.451 -22.234  1.00  0.00    -0.385 OA
BRANCH  32  33
HETATM   33  C3  UNL     1      -3.367  -3.815 -22.292  1.00  0.00     0.194 C 
BRANCH  33  34
HETATM   34  C2  UNL     1      -2.288  -4.434 -23.144  1.00  0.00     0.193 C 
BRANCH  34  35
HETATM   35  O1  UNL     1      -1.833  -5.555 -22.438  1.00  0.00    -0.394 OA
HETATM   36  C1  UNL     1      -2.835  -6.056 -21.600  1.00  0.00     0.201 C 
ENDBRANCH  34  35
ENDBRANCH  33  34
ENDBRANCH  32  33
ENDBRANCH  31  32
ENDBRANCH   1  31
BRANCH   5  37
HETATM   37  C10 UNL     1       1.676  -5.593 -16.815  1.00  0.00     0.135 A 
HETATM   38  N1  UNL     1       2.020  -6.869 -17.067  1.00  0.00    -0.339 N 
HETATM   39  C11 UNL     1       2.751  -7.350 -16.035  1.00  0.00     0.061 A 
ATOM     40  H1  UNL     1       1.768  -7.392 -17.905  1.00  0.00     0.167 HD
HETATM   41  C12 UNL     1       3.352  -8.561 -15.759  1.00  0.00     0.038 A 
HETATM   42  C17 UNL     1       2.865  -6.325 -15.102  1.00  0.00     0.060 A 
HETATM   43  C13 UNL     1       4.062  -8.797 -14.596  1.00  0.00    -0.060 A 
HETATM   44  C14 UNL     1       4.703 -10.131 -14.332  1.00  0.00     0.048 C 
HETATM   45  C15 UNL     1       4.155  -7.759 -13.692  1.00  0.00     0.009 A 
HETATM   46  C16 UNL     1       3.567  -6.532 -13.932  1.00  0.00     0.032 A 
HETATM   47  N2  UNL     1       2.193  -5.285 -15.631  1.00  0.00    -0.339 N 
ATOM     48  H2  UNL     1       2.094  -4.376 -15.181  1.00  0.00     0.167 HD
ENDBRANCH   5  37
TORSDOF 12
ENDMDL
MODEL 2
REMARK VINA RESULT: -9.130419860      0.998      1.600
REMARK  12 active torsions:
REMARK  status: ('A' for Active; 'I' for Inactive)
REMARK    1  A    between atoms: O1_2  and  C2_3 
REMARK    2  A    between atoms: C2_3  and  C3_4 
REMARK    3  A    between atoms: C3_4  and  O2_5 
REMARK    4  A    between atoms: O2_5  and  C4_6 
REMARK    5  A    between atoms: C4_6  and  C5_7 
REMARK    6  A    between atoms: C9_11  and  C10_12 
REMARK    7  A    between atoms: C19_28  and  C20_29 
REMARK       I    between atoms: C20_29  and  N5_31 
REMARK    8  A    between atoms: N5_31  and  C21_33 
REMARK    9  A    between atoms: C25_39  and  N7_40 
REMARK   10  A    between atoms: N7_40  and  C26_42 
REMARK   11  A    between atoms: C26_42  and  C27_43 
REMARK   12  A    between atoms: C27_43  and  N8_44 
ROOT
HETATM    1  C5  UNL     1      -1.721  -2.247 -20.120  1.00  0.00    -0.015 A 
HETATM    2  C6  UNL     1      -1.736  -3.326 -19.257  1.00  0.00     0.042 A 
HETATM    3  C7  UNL     1      -0.563  -3.833 -18.721  1.00  0.00     0.059 A 
HETATM    4  C8  UNL     1      -0.307  -4.888 -17.848  1.00  0.00     0.066 A 
HETATM    5  C9  UNL     1       1.050  -4.945 -17.652  1.00  0.00     0.095 A 
HETATM    6  N3  UNL     1       1.573  -3.963 -18.382  1.00  0.00    -0.290 N 
ATOM      7  H3  UNL     1       2.569  -3.753 -18.439  1.00  0.00     0.187 HD
HETATM    8  N4  UNL     1       0.621  -3.286 -19.029  1.00  0.00    -0.266 N 
HETATM    9  C18 UNL     1       0.649  -2.236 -19.867  1.00  0.00     0.134 A 
HETATM   10  C19 UNL     1      -0.512  -1.691 -20.432  1.00  0.00     0.058 A 
ENDROOT
BRANCH  10  11
HETATM   11  C20 UNL     1      -0.438  -0.563 -21.332  1.00  0.00     0.259 C 
HETATM   12  O3  UNL     1      -1.023   0.502 -21.067  1.00  0.00    -0.267 OA
HETATM   13  N5  UNL     1       0.295  -0.596 -22.556  1.00  0.00    -0.308 N 
ATOM     14  H5  UNL     1       1.314  -0.637 -22.522  1.00  0.00     0.170 HD
BRANCH  13  15
HETATM   15  C21 UNL     1      -0.293  -0.577 -23.704  1.00  0.00     0.125 A 
HETATM   16  C22 UNL     1       0.193   0.119 -24.779  1.00  0.00     0.074 A 
HETATM   17  C23 UNL     1      -0.497   0.077 -25.959  1.00  0.00     0.026 A 
HETATM   18  C24 UNL     1       0.011   0.823 -27.137  1.00  0.00     0.069 C 
HETATM   19  N6  UNL     1      -1.641  -0.630 -26.098  1.00  0.00    -0.196 N 
HETATM   20  C25 UNL     1      -2.099  -1.306 -25.030  1.00  0.00     0.679 A 
ATOM     21  H6  UNL     1      -2.142  -0.650 -26.986  1.00  0.00     0.184 HD
HETATM   22  N9  UNL     1      -1.427  -1.273 -23.854  1.00  0.00    -0.177 N 
ATOM     23  H9  UNL     1      -1.795  -1.795 -23.059  1.00  0.00     0.186 HD
BRANCH  20  24
HETATM   24  N7  UNL     1      -3.178  -2.008 -25.077  1.00  0.00    -0.224 N 
ATOM     25  H7  UNL     1      -3.139  -2.956 -24.701  1.00  0.00     0.177 HD
BRANCH  24  26
HETATM   26  C26 UNL     1      -4.427  -1.562 -25.616  1.00  0.00     0.157 C 
BRANCH  26  27
HETATM   27  C27 UNL     1      -5.003  -0.409 -24.834  1.00  0.00     0.136 C 
BRANCH  27  28
HETATM   28  N8  UNL     1      -5.016   0.815 -25.563  1.00  0.00    -0.419 N 
HETATM   29  C28 UNL     1      -5.007   0.702 -26.985  1.00  0.00     0.142 C 
HETATM   30  C29 UNL     1      -4.172   1.851 -25.049  1.00  0.00     0.142 C 
ENDBRANCH  27  28
ENDBRANCH  26  27
ENDBRANCH  24  26
ENDBRANCH  20  24
ENDBRANCH  13  15
ENDBRANCH  10  11
BRANCH   1  31
HETATM   31  C4  UNL     1      -3.026  -1.744 -20.668  1.00  0.00     0.207 C 
BRANCH  31  32
HETATM   32  O2  UNL     1      -3.209  -2.293 -21.945  1.00  0.00    -0.385 OA
BRANCH  32  33
HETATM   33  C3  UNL     1      -3.923  -3.456 -21.934  1.00  0.00     0.194 C 
BRANCH  33  34
HETATM   34  C2  UNL     1      -3.164  -4.685 -22.364  1.00  0.00     0.193 C 
BRANCH  34  35
HETATM   35  O1  UNL     1      -2.096  -4.228 -23.146  1.00  0.00    -0.394 OA
HETATM   36  C1  UNL     1      -0.875  -4.680 -22.632  1.00  0.00     0.201 C 
ENDBRANCH  34  35
ENDBRANCH  33  34
ENDBRANCH  32  33
ENDBRANCH  31  32
ENDBRANCH   1  31
BRANCH   5  37
HETATM   37  C10 UNL     1       1.790  -5.894 -16.808  1.00  0.00     0.135 A 
HETATM   38  N1  UNL     1       2.315  -5.636 -15.595  1.00  0.00    -0.339 N 
HETATM   39  C11 UNL     1       2.919  -6.749 -15.120  1.00  0.00     0.061 A 
ATOM     40  H1  UNL     1       2.264  -4.740 -15.110  1.00  0.00     0.167 HD
HETATM   41  C12 UNL     1       3.603  -7.057 -13.963  1.00  0.00     0.038 A 
HETATM   42  C17 UNL     1       2.762  -7.742 -16.083  1.00  0.00     0.060 A 
HETATM   43  C13 UNL     1       4.137  -8.310 -13.719  1.00  0.00    -0.060 A 
HETATM   44  C14 UNL     1       4.875  -8.607 -12.444  1.00  0.00     0.048 C 
HETATM   45  C15 UNL     1       3.963  -9.271 -14.694  1.00  0.00     0.009 A 
HETATM   46  C16 UNL     1       3.285  -9.000 -15.867  1.00  0.00     0.032 A 
HETATM   47  N2  UNL     1       2.069  -7.162 -17.081  1.00  0.00    -0.339 N 
ATOM     48  H2  UNL     1       1.793  -7.638 -17.940  1.00  0.00     0.167 HD
ENDBRANCH   5  37
TORSDOF 12
ENDMDL
MODEL 3
REMARK VINA RESULT: -8.803954699      3.287      6.347
REMARK  12 active torsions:
REMARK  status: ('A' for Active; 'I' for Inactive)
REMARK    1  A    between atoms: O1_2  and  C2_3 
REMARK    2  A    between atoms: C2_3  and  C3_4 
REMARK    3  A    between atoms: C3_4  and  O2_5 
REMARK    4  A    between atoms: O2_5  and  C4_6 
REMARK    5  A    between atoms: C4_6  and  C5_7 
REMARK    6  A    between atoms: C9_11  and  C10_12 
REMARK    7  A    between atoms: C19_28  and  C20_29 
REMARK       I    between atoms: C20_29  and  N5_31 
REMARK    8  A    between atoms: N5_31  and  C21_33 
REMARK    9  A    between atoms: C25_39  and  N7_40 
REMARK   10  A    between atoms: N7_40  and  C26_42 
REMARK   11  A    between atoms: C26_42  and  C27_43 
REMARK   12  A    between atoms: C27_43  and  N8_44 
ROOT
HETATM    1  C5  UNL     1      -0.754   1.123 -26.068  1.00  0.00    -0.015 A 
HETATM    2  C6  UNL     1       0.271   0.598 -25.305  1.00  0.00     0.042 A 
HETATM    3  C7  UNL     1       0.008  -0.147 -24.166  1.00  0.00     0.059 A 
HETATM    4  C8  UNL     1       0.840  -0.774 -23.240  1.00  0.00     0.066 A 
HETATM    5  C9  UNL     1       0.037  -1.374 -22.302  1.00  0.00     0.095 A 
HETATM    6  N3  UNL     1      -1.216  -1.111 -22.662  1.00  0.00    -0.290 N 
ATOM      7  H3  UNL     1      -2.042  -1.429 -22.153  1.00  0.00     0.187 HD
HETATM    8  N4  UNL     1      -1.253  -0.377 -23.775  1.00  0.00    -0.266 N 
HETATM    9  C18 UNL     1      -2.258   0.129 -24.510  1.00  0.00     0.134 A 
HETATM   10  C19 UNL     1      -2.039   0.887 -25.668  1.00  0.00     0.058 A 
ENDROOT
BRANCH  10  11
HETATM   11  C20 UNL     1      -3.149   1.415 -26.429  1.00  0.00     0.259 C 
HETATM   12  O3  UNL     1      -4.059   2.052 -25.870  1.00  0.00    -0.267 OA
HETATM   13  N5  UNL     1      -3.269   1.244 -27.841  1.00  0.00    -0.308 N 
ATOM     14  H5  UNL     1      -2.615   1.728 -28.456  1.00  0.00     0.170 HD
BRANCH  13  15
HETATM   15  C21 UNL     1      -4.180   0.494 -28.362  1.00  0.00     0.125 A 
HETATM   16  C22 UNL     1      -4.461   0.483 -29.702  1.00  0.00     0.074 A 
HETATM   17  C23 UNL     1      -5.443  -0.350 -30.165  1.00  0.00     0.026 A 
HETATM   18  C24 UNL     1      -5.763  -0.377 -31.614  1.00  0.00     0.069 C 
HETATM   19  N6  UNL     1      -6.142  -1.162 -29.341  1.00  0.00    -0.196 N 
HETATM   20  C25 UNL     1      -5.850  -1.136 -28.030  1.00  0.00     0.679 A 
ATOM     21  H6  UNL     1      -6.871  -1.777 -29.704  1.00  0.00     0.184 HD
HETATM   22  N9  UNL     1      -4.880  -0.316 -27.557  1.00  0.00    -0.177 N 
ATOM     23  H9  UNL     1      -4.677  -0.315 -26.557  1.00  0.00     0.186 HD
BRANCH  20  24
HETATM   24  N7  UNL     1      -6.463  -1.881 -27.178  1.00  0.00    -0.224 N 
ATOM     25  H7  UNL     1      -6.880  -2.746 -27.523  1.00  0.00     0.177 HD
BRANCH  24  26
HETATM   26  C26 UNL     1      -6.606  -1.591 -25.783  1.00  0.00     0.157 C 
BRANCH  26  27
HETATM   27  C27 UNL     1      -6.106  -2.717 -24.914  1.00  0.00     0.136 C 
BRANCH  27  28
HETATM   28  N8  UNL     1      -4.760  -2.541 -24.482  1.00  0.00    -0.419 N 
HETATM   29  C28 UNL     1      -3.750  -3.108 -25.315  1.00  0.00     0.142 C 
HETATM   30  C29 UNL     1      -4.532  -2.715 -23.079  1.00  0.00     0.142 C 
ENDBRANCH  27  28
ENDBRANCH  26  27
ENDBRANCH  24  26
ENDBRANCH  20  24
ENDBRANCH  13  15
ENDBRANCH  10  11
BRANCH   1  31
HETATM   31  C4  UNL     1      -0.405   1.922 -27.292  1.00  0.00     0.207 C 
BRANCH  31  32
HETATM   32  O2  UNL     1      -0.868   3.233 -27.109  1.00  0.00    -0.385 OA
BRANCH  32  33
HETATM   33  C3  UNL     1       0.067   4.063 -26.562  1.00  0.00     0.194 C 
BRANCH  33  34
HETATM   34  C2  UNL     1      -0.374   4.814 -25.332  1.00  0.00     0.193 C 
BRANCH  34  35
HETATM   35  O1  UNL     1      -1.747   4.569 -25.200  1.00  0.00    -0.394 OA
HETATM   36  C1  UNL     1      -2.084   4.336 -23.861  1.00  0.00     0.201 C 
ENDBRANCH  34  35
ENDBRANCH  33  34
ENDBRANCH  32  33
ENDBRANCH  31  32
ENDBRANCH   1  31
BRANCH   5  37
HETATM   37  C10 UNL     1       0.465  -2.156 -21.133  1.00  0.00     0.135 A 
HETATM   38  N1  UNL     1       1.124  -1.683 -20.059  1.00  0.00    -0.339 N 
HETATM   39  C11 UNL     1       1.343  -2.693 -19.185  1.00  0.00     0.061 A 
ATOM     40  H1  UNL     1       1.412  -0.714 -19.925  1.00  0.00     0.167 HD
HETATM   41  C12 UNL     1       1.956  -2.786 -17.953  1.00  0.00     0.038 A 
HETATM   42  C17 UNL     1       0.796  -3.843 -19.744  1.00  0.00     0.060 A 
HETATM   43  C13 UNL     1       2.047  -3.975 -17.250  1.00  0.00    -0.060 A 
HETATM   44  C14 UNL     1       2.723  -4.036 -15.909  1.00  0.00     0.048 C 
HETATM   45  C15 UNL     1       1.494  -5.096 -17.833  1.00  0.00     0.009 A 
HETATM   46  C16 UNL     1       0.873  -5.042 -19.066  1.00  0.00     0.032 A 
HETATM   47  N2  UNL     1       0.277  -3.454 -20.924  1.00  0.00    -0.339 N 
ATOM     48  H2  UNL     1      -0.200  -4.077 -21.575  1.00  0.00     0.167 HD
ENDBRANCH   5  37
TORSDOF 12
ENDMDL
MODEL 4
REMARK VINA RESULT: -8.744138171      1.143      1.719
REMARK  12 active torsions:
REMARK  status: ('A' for Active; 'I' for Inactive)
REMARK    1  A    between atoms: O1_2  and  C2_3 
REMARK    2  A    between atoms: C2_3  and  C3_4 
REMARK    3  A    between atoms: C3_4  and  O2_5 
REMARK    4  A    between atoms: O2_5  and  C4_6 
REMARK    5  A    between atoms: C4_6  and  C5_7 
REMARK    6  A    between atoms: C9_11  and  C10_12 
REMARK    7  A    between atoms: C19_28  and  C20_29 
REMARK       I    between atoms: C20_29  and  N5_31 
REMARK    8  A    between atoms: N5_31  and  C21_33 
REMARK    9  A    between atoms: C25_39  and  N7_40 
REMARK   10  A    between atoms: N7_40  and  C26_42 
REMARK   11  A    between atoms: C26_42  and  C27_43 
REMARK   12  A    between atoms: C27_43  and  N8_44 
ROOT
HETATM    1  C5  UNL     1      -1.781  -2.555 -21.180  1.00  0.00    -0.015 A 
HETATM    2  C6  UNL     1      -1.665  -3.728 -20.460  1.00  0.00     0.042 A 
HETATM    3  C7  UNL     1      -0.613  -3.927 -19.580  1.00  0.00     0.059 A 
HETATM    4  C8  UNL     1      -0.269  -4.993 -18.751  1.00  0.00     0.066 A 
HETATM    5  C9  UNL     1       0.884  -4.650 -18.090  1.00  0.00     0.095 A 
HETATM    6  N3  UNL     1       1.206  -3.430 -18.513  1.00  0.00    -0.290 N 
ATOM      7  H3  UNL     1       2.022  -2.906 -18.196  1.00  0.00     0.187 HD
HETATM    8  N4  UNL     1       0.321  -2.982 -19.405  1.00  0.00    -0.266 N 
HETATM    9  C18 UNL     1       0.218  -1.836 -20.101  1.00  0.00     0.134 A 
HETATM   10  C19 UNL     1      -0.828  -1.592 -21.001  1.00  0.00     0.058 A 
ENDROOT
BRANCH  10  11
HETATM   11  C20 UNL     1      -0.901  -0.348 -21.732  1.00  0.00     0.259 C 
HETATM   12  O3  UNL     1      -1.649   0.571 -21.352  1.00  0.00    -0.267 OA
HETATM   13  N5  UNL     1      -0.136  -0.097 -22.911  1.00  0.00    -0.308 N 
ATOM     14  H5  UNL     1       0.875   0.008 -22.831  1.00  0.00     0.170 HD
BRANCH  13  15
HETATM   15  C21 UNL     1      -0.687   0.001 -24.073  1.00  0.00     0.125 A 
HETATM   16  C22 UNL     1       0.033   0.061 -25.236  1.00  0.00     0.074 A 
HETATM   17  C23 UNL     1      -0.639   0.159 -26.424  1.00  0.00     0.026 A 
HETATM   18  C24 UNL     1       0.121   0.225 -27.697  1.00  0.00     0.069 C 
HETATM   19  N6  UNL     1      -1.989   0.199 -26.485  1.00  0.00    -0.196 N 
HETATM   20  C25 UNL     1      -2.675   0.138 -25.330  1.00  0.00     0.679 A 
ATOM     21  H6  UNL     1      -2.472   0.272 -27.380  1.00  0.00     0.184 HD
HETATM   22  N9  UNL     1      -2.024   0.041 -24.147  1.00  0.00    -0.177 N 
ATOM     23  H9  UNL     1      -2.567  -0.004 -23.285  1.00  0.00     0.186 HD
BRANCH  20  24
HETATM   24  N7  UNL     1      -3.962   0.164 -25.299  1.00  0.00    -0.224 N 
ATOM     25  H7  UNL     1      -4.433  -0.543 -24.733  1.00  0.00     0.177 HD
BRANCH  24  26
HETATM   26  C26 UNL     1      -4.784   1.108 -25.995  1.00  0.00     0.157 C 
BRANCH  26  27
HETATM   27  C27 UNL     1      -5.727   0.436 -26.960  1.00  0.00     0.136 C 
BRANCH  27  28
HETATM   28  N8  UNL     1      -5.063  -0.186 -28.057  1.00  0.00    -0.419 N 
HETATM   29  C28 UNL     1      -4.677   0.672 -29.129  1.00  0.00     0.142 C 
HETATM   30  C29 UNL     1      -5.602  -1.445 -28.475  1.00  0.00     0.142 C 
ENDBRANCH  27  28
ENDBRANCH  26  27
ENDBRANCH  24  26
ENDBRANCH  20  24
ENDBRANCH  13  15
ENDBRANCH  10  11
BRANCH   1  31
HETATM   31  C4  UNL     1      -2.944  -2.398 -22.119  1.00  0.00     0.207 C 
BRANCH  31  32
HETATM   32  O2  UNL     1      -2.538  -2.808 -23.397  1.00  0.00    -0.385 OA
BRANCH  32  33
HETATM   33  C3  UNL     1      -3.530  -3.418 -24.108  1.00  0.00     0.194 C 
BRANCH  33  34
HETATM   34  C2  UNL     1      -4.934  -3.022 -23.731  1.00  0.00     0.193 C 
BRANCH  34  35
HETATM   35  O1  UNL     1      -5.464  -2.361 -24.846  1.00  0.00    -0.394 OA
HETATM   36  C1  UNL     1      -6.705  -2.902 -25.202  1.00  0.00     0.201 C 
ENDBRANCH  34  35
ENDBRANCH  33  34
ENDBRANCH  32  33
ENDBRANCH  31  32
ENDBRANCH   1  31
BRANCH   5  37
HETATM   37  C10 UNL     1       1.623  -5.457 -17.108  1.00  0.00     0.135 A 
HETATM   38  N1  UNL     1       1.918  -6.766 -17.217  1.00  0.00    -0.339 N 
HETATM   39  C11 UNL     1       2.609  -7.164 -16.124  1.00  0.00     0.061 A 
ATOM     40  H1  UNL     1       1.660  -7.364 -18.001  1.00  0.00     0.167 HD
HETATM   41  C12 UNL     1       3.153  -8.361 -15.709  1.00  0.00     0.038 A 
HETATM   42  C17 UNL     1       2.748  -6.050 -15.301  1.00  0.00     0.060 A 
HETATM   43  C13 UNL     1       3.831  -8.501 -14.511  1.00  0.00    -0.060 A 
HETATM   44  C14 UNL     1       4.410  -9.824 -14.094  1.00  0.00     0.048 C 
HETATM   45  C15 UNL     1       3.951  -7.378 -13.719  1.00  0.00     0.009 A 
HETATM   46  C16 UNL     1       3.419  -6.161 -14.100  1.00  0.00     0.032 A 
HETATM   47  N2  UNL     1       2.130  -5.047 -15.952  1.00  0.00    -0.339 N 
ATOM     48  H2  UNL     1       2.060  -4.092 -15.602  1.00  0.00     0.167 HD
ENDBRANCH   5  37
TORSDOF 12
ENDMDL
MODEL 5
REMARK VINA RESULT: -8.734962262      2.896      5.894
REMARK  12 active torsions:
REMARK  status: ('A' for Active; 'I' for Inactive)
REMARK    1  A    between atoms: O1_2  and  C2_3 
REMARK    2  A    between atoms: C2_3  and  C3_4 
REMARK    3  A    between atoms: C3_4  and  O2_5 
REMARK    4  A    between atoms: O2_5  and  C4_6 
REMARK    5  A    between atoms: C4_6  and  C5_7 
REMARK    6  A    between atoms: C9_11  and  C10_12 
REMARK    7  A    between atoms: C19_28  and  C20_29 
REMARK       I    between atoms: C20_29  and  N5_31 
REMARK    8  A    between atoms: N5_31  and  C21_33 
REMARK    9  A    between atoms: C25_39  and  N7_40 
REMARK   10  A    between atoms: N7_40  and  C26_42 
REMARK   11  A    between atoms: C26_42  and  C27_43 
REMARK   12  A    between atoms: C27_43  and  N8_44 
ROOT
HETATM    1  C5  UNL     1      -1.050   0.882 -25.575  1.00  0.00    -0.015 A 
HETATM    2  C6  UNL     1       0.043   0.389 -24.889  1.00  0.00     0.042 A 
HETATM    3  C7  UNL     1      -0.112  -0.326 -23.712  1.00  0.00     0.059 A 
HETATM    4  C8  UNL     1       0.804  -0.919 -22.845  1.00  0.00     0.066 A 
HETATM    5  C9  UNL     1       0.093  -1.501 -21.825  1.00  0.00     0.095 A 
HETATM    6  N3  UNL     1      -1.191  -1.259 -22.082  1.00  0.00    -0.290 N 
ATOM      7  H3  UNL     1      -1.965  -1.571 -21.495  1.00  0.00     0.187 HD
HETATM    8  N4  UNL     1      -1.332  -0.557 -23.207  1.00  0.00    -0.266 N 
HETATM    9  C18 UNL     1      -2.403  -0.082 -23.866  1.00  0.00     0.134 A 
HETATM   10  C19 UNL     1      -2.293   0.646 -25.059  1.00  0.00     0.058 A 
ENDROOT
BRANCH  10  11
HETATM   11  C20 UNL     1      -3.470   1.141 -25.735  1.00  0.00     0.259 C 
HETATM   12  O3  UNL     1      -4.449   1.556 -25.088  1.00  0.00    -0.267 OA
HETATM   13  N5  UNL     1      -3.583   1.187 -27.157  1.00  0.00    -0.308 N 
ATOM     14  H5  UNL     1      -3.005   1.846 -27.679  1.00  0.00     0.170 HD
BRANCH  13  15
HETATM   15  C21 UNL     1      -4.396   0.420 -27.801  1.00  0.00     0.125 A 
HETATM   16  C22 UNL     1      -4.533   0.456 -29.163  1.00  0.00     0.074 A 
HETATM   17  C23 UNL     1      -5.418  -0.400 -29.761  1.00  0.00     0.026 A 
HETATM   18  C24 UNL     1      -5.583  -0.378 -31.236  1.00  0.00     0.069 C 
HETATM   19  N6  UNL     1      -6.158  -1.280 -29.049  1.00  0.00    -0.196 N 
HETATM   20  C25 UNL     1      -6.006  -1.298 -27.714  1.00  0.00     0.679 A 
ATOM     21  H6  UNL     1      -6.812  -1.910 -29.512  1.00  0.00     0.184 HD
HETATM   22  N9  UNL     1      -5.135  -0.456 -27.108  1.00  0.00    -0.177 N 
ATOM     23  H9  UNL     1      -5.038  -0.490 -26.094  1.00  0.00     0.186 HD
BRANCH  20  24
HETATM   24  N7  UNL     1      -6.668  -2.108 -26.963  1.00  0.00    -0.224 N 
ATOM     25  H7  UNL     1      -7.112  -2.910 -27.411  1.00  0.00     0.177 HD
BRANCH  24  26
HETATM   26  C26 UNL     1      -6.828  -1.971 -25.546  1.00  0.00     0.157 C 
BRANCH  26  27
HETATM   27  C27 UNL     1      -6.174  -3.100 -24.789  1.00  0.00     0.136 C 
BRANCH  27  28
HETATM   28  N8  UNL     1      -4.853  -2.794 -24.352  1.00  0.00    -0.419 N 
HETATM   29  C28 UNL     1      -3.794  -3.179 -25.227  1.00  0.00     0.142 C 
HETATM   30  C29 UNL     1      -4.588  -3.035 -22.965  1.00  0.00     0.142 C 
ENDBRANCH  27  28
ENDBRANCH  26  27
ENDBRANCH  24  26
ENDBRANCH  20  24
ENDBRANCH  13  15
ENDBRANCH  10  11
BRANCH   1  31
HETATM   31  C4  UNL     1      -0.818   1.650 -26.845  1.00  0.00     0.207 C 
BRANCH  31  32
HETATM   32  O2  UNL     1      -0.679   0.733 -27.896  1.00  0.00    -0.385 OA
BRANCH  32  33
HETATM   33  C3  UNL     1      -0.437   1.325 -29.101  1.00  0.00     0.194 C 
BRANCH  33  34
HETATM   34  C2  UNL     1       0.961   1.154 -29.638  1.00  0.00     0.193 C 
BRANCH  34  35
HETATM   35  O1  UNL     1       1.441  -0.044 -29.094  1.00  0.00    -0.394 OA
HETATM   36  C1  UNL     1       2.521  -0.531 -29.840  1.00  0.00     0.201 C 
ENDBRANCH  34  35
ENDBRANCH  33  34
ENDBRANCH  32  33
ENDBRANCH  31  32
ENDBRANCH   1  31
BRANCH   5  37
HETATM   37  C10 UNL     1       0.628  -2.245 -20.676  1.00  0.00     0.135 A 
HETATM   38  N1  UNL     1       0.551  -3.575 -20.486  1.00  0.00    -0.339 N 
HETATM   39  C11 UNL     1       1.158  -3.899 -19.321  1.00  0.00     0.061 A 
ATOM     40  H1  UNL     1       0.105  -4.236 -21.122  1.00  0.00     0.167 HD
HETATM   41  C12 UNL     1       1.375  -5.080 -18.641  1.00  0.00     0.038 A 
HETATM   42  C17 UNL     1       1.631  -2.715 -18.764  1.00  0.00     0.060 A 
HETATM   43  C13 UNL     1       2.043  -5.135 -17.431  1.00  0.00    -0.060 A 
HETATM   44  C14 UNL     1       2.260  -6.442 -16.721  1.00  0.00     0.048 C 
HETATM   45  C15 UNL     1       2.499  -3.944 -16.907  1.00  0.00     0.009 A 
HETATM   46  C16 UNL     1       2.301  -2.741 -17.558  1.00  0.00     0.032 A 
HETATM   47  N2  UNL     1       1.280  -1.748 -19.632  1.00  0.00    -0.339 N 
ATOM     48  H2  UNL     1       1.489  -0.758 -19.504  1.00  0.00     0.167 HD
ENDBRANCH   5  37
TORSDOF 12
ENDMDL
