MODEL 1
REMARK VINA RESULT: -8.933829926      0.000      0.000
REMARK  13 active torsions:
REMARK  status: ('A' for Active; 'I' for Inactive)
REMARK    1  A    between atoms: C3_3  and  C5_5 
REMARK    2  A    between atoms: C5_5  and  C6_6 
REMARK    3  A    between atoms: C6_6  and  C7_7 
REMARK    4  A    between atoms: C6_6  and  C15_18 
REMARK    5  A    between atoms: C7_7  and  O1_8 
REMARK    6  A    between atoms: C7_7  and  N1_10 
REMARK    7  A    between atoms: C10_13  and  C11_14 
REMARK    8  A    between atoms: C15_18  and  N2_19 
REMARK    9  A    between atoms: C15_18  and  C17_22 
REMARK       I    between atoms: C17_22  and  N3_24 
REMARK   10  A    between atoms: N3_24  and  C18_26 
REMARK   11  A    between atoms: C18_26  and  C19_27 
REMARK       I    between atoms: C19_27  and  N4_29 
REMARK   12  A    between atoms: N4_29  and  N5_31 
REMARK   13  A    between atoms: C20_33  and  C21_34 
ROOT
HETATM    1  C17 UNL     1      -3.699  -2.283 -23.083  1.00  0.00     0.245 C 
HETATM    2  O2  UNL     1      -3.870  -2.856 -24.216  1.00  0.00    -0.271 OA
HETATM    3  N3  UNL     1      -3.070  -1.049 -23.065  1.00  0.00    -0.340 N 
ATOM      4  H3  UNL     1      -2.952  -0.641 -22.137  1.00  0.00     0.163 HD
ENDROOT
BRANCH   1   5
HETATM    5  C15 UNL     1      -4.165  -2.947 -21.840  1.00  0.00     0.203 C 
BRANCH   5   6
HETATM    6  C6  UNL     1      -3.510  -4.241 -21.481  1.00  0.00     0.006 C 
BRANCH   6   7
HETATM    7  C5  UNL     1      -4.389  -5.461 -21.587  1.00  0.00     0.074 C 
BRANCH   7   8
HETATM    8  C3  UNL     1      -4.021  -6.456 -20.491  1.00  0.00    -0.084 C 
HETATM    9  C2  UNL     1      -3.928  -6.043 -19.234  1.00  0.00    -0.028 C 
HETATM   10  C1  UNL     1      -3.568  -7.040 -18.190  1.00  0.00     0.036 C 
HETATM   11  C4  UNL     1      -3.762  -7.884 -20.787  1.00  0.00     0.043 C 
ENDBRANCH   7   8
ENDBRANCH   6   7
BRANCH   6  12
HETATM   12  C7  UNL     1      -2.128  -4.430 -21.908  1.00  0.00     0.143 C 
BRANCH  12  13
HETATM   13  O1  UNL     1      -2.019  -5.002 -23.102  1.00  0.00    -0.346 OA
ATOM     14  H1  UNL     1      -1.204  -5.474 -23.220  1.00  0.00     0.219 HD
ENDBRANCH  12  13
BRANCH  12  15
HETATM   15  N1  UNL     1      -0.900  -4.153 -21.362  1.00  0.00    -0.362 N 
HETATM   16  C8  UNL     1      -0.417  -5.005 -20.244  1.00  0.00     0.125 C 
HETATM   17  C9  UNL     1       1.013  -4.673 -19.948  1.00  0.00     0.024 C 
HETATM   18  C10 UNL     1       1.284  -3.235 -19.654  1.00  0.00    -0.012 C 
HETATM   19  C13 UNL     1       0.371  -2.356 -20.440  1.00  0.00     0.024 C 
HETATM   20  C14 UNL     1       0.022  -3.140 -21.730  1.00  0.00     0.125 C 
BRANCH  18  21
HETATM   21  C11 UNL     1       1.254  -2.939 -18.170  1.00  0.00     0.000 C 
HETATM   22  C12 UNL     1       2.501  -3.376 -17.473  1.00  0.00     0.005 C 
ENDBRANCH  18  21
ENDBRANCH  12  15
ENDBRANCH   6  12
ENDBRANCH   5   6
BRANCH   5  23
HETATM   23  N2  UNL     1      -4.005  -1.952 -20.789  1.00  0.00    -0.410 N 
HETATM   24  C16 UNL     1      -3.189  -2.339 -19.685  1.00  0.00     0.141 C 
ATOM     25  H2  UNL     1      -4.448  -1.035 -20.840  1.00  0.00     0.153 HD
ENDBRANCH   5  23
ENDBRANCH   1   5
BRANCH   3  26
HETATM   26  C18 UNL     1      -2.547  -0.239 -24.163  1.00  0.00     0.124 C 
HETATM   27  C25 UNL     1      -1.945   1.030 -23.622  1.00  0.00     0.042 C 
HETATM   28  C26 UNL     1      -1.793   2.098 -24.683  1.00  0.00     0.013 C 
HETATM   29  C27 UNL     1      -0.562   1.779 -25.531  1.00  0.00     0.074 C 
HETATM   30  S1  UNL     1      -0.063   0.060 -25.230  1.00  0.00    -0.166 SA
HETATM   31  C28 UNL     1      -1.449  -1.009 -24.878  1.00  0.00     0.115 C 
BRANCH  26  32
HETATM   32  C19 UNL     1      -3.638   0.067 -25.094  1.00  0.00     0.265 C 
HETATM   33  O3  UNL     1      -4.666   0.690 -24.776  1.00  0.00    -0.269 OA
HETATM   34  N4  UNL     1      -3.564  -0.356 -26.455  1.00  0.00    -0.268 N 
ATOM     35  H4  UNL     1      -2.731  -0.873 -26.738  1.00  0.00     0.190 HD
BRANCH  34  36
HETATM   36  N5  UNL     1      -4.521  -0.126 -27.421  1.00  0.00    -0.307 N 
HETATM   37  C20 UNL     1      -4.581   0.832 -28.254  1.00  0.00     0.138 C 
ATOM     38  H5  UNL     1      -5.275  -0.811 -27.473  1.00  0.00     0.186 HD
BRANCH  37  39
HETATM   39  C21 UNL     1      -5.723   0.827 -29.179  1.00  0.00     0.064 A 
HETATM   40  C22 UNL     1      -5.989  -0.239 -30.011  1.00  0.00     0.118 A 
HETATM   41  N6  UNL     1      -7.038  -0.228 -30.855  1.00  0.00    -0.372 N 
HETATM   42  C23 UNL     1      -7.878   0.821 -30.930  1.00  0.00     0.104 A 
ATOM     43  H6  UNL     1      -7.201  -1.037 -31.454  1.00  0.00     0.164 HD
HETATM   44  C24 UNL     1      -7.606   1.887 -30.093  1.00  0.00     0.105 A 
HETATM   45  N7  UNL     1      -6.564   1.887 -29.248  1.00  0.00    -0.362 N 
ATOM     46  H7  UNL     1      -6.404   2.697 -28.649  1.00  0.00     0.165 HD
ENDBRANCH  37  39
ENDBRANCH  34  36
ENDBRANCH  26  32
ENDBRANCH   3  26
TORSDOF 13
ENDMDL
MODEL 2
REMARK VINA RESULT: -8.741487558      3.856     10.787
REMARK  13 active torsions:
REMARK  status: ('A' for Active; 'I' for Inactive)
REMARK    1  A    between atoms: C3_3  and  C5_5 
REMARK    2  A    between atoms: C5_5  and  C6_6 
REMARK    3  A    between atoms: C6_6  and  C7_7 
REMARK    4  A    between atoms: C6_6  and  C15_18 
REMARK    5  A    between atoms: C7_7  and  O1_8 
REMARK    6  A    between atoms: C7_7  and  N1_10 
REMARK    7  A    between atoms: C10_13  and  C11_14 
REMARK    8  A    between atoms: C15_18  and  N2_19 
REMARK    9  A    between atoms: C15_18  and  C17_22 
REMARK       I    between atoms: C17_22  and  N3_24 
REMARK   10  A    between atoms: N3_24  and  C18_26 
REMARK   11  A    between atoms: C18_26  and  C19_27 
REMARK       I    between atoms: C19_27  and  N4_29 
REMARK   12  A    between atoms: N4_29  and  N5_31 
REMARK   13  A    between atoms: C20_33  and  C21_34 
ROOT
HETATM    1  C17 UNL     1      -2.373  -4.548 -20.004  1.00  0.00     0.245 C 
HETATM    2  O2  UNL     1      -2.822  -3.991 -18.941  1.00  0.00    -0.271 OA
HETATM    3  N3  UNL     1      -1.043  -4.935 -20.026  1.00  0.00    -0.340 N 
ATOM      4  H3  UNL     1      -0.736  -5.367 -20.897  1.00  0.00     0.163 HD
ENDROOT
BRANCH   1   5
HETATM    5  C15 UNL     1      -3.273  -4.756 -21.166  1.00  0.00     0.203 C 
BRANCH   5   6
HETATM    6  C6  UNL     1      -3.403  -3.621 -22.129  1.00  0.00     0.006 C 
BRANCH   6   7
HETATM    7  C5  UNL     1      -2.179  -3.339 -22.963  1.00  0.00     0.074 C 
BRANCH   7   8
HETATM    8  C3  UNL     1      -1.366  -2.221 -22.319  1.00  0.00    -0.084 C 
HETATM    9  C2  UNL     1      -0.047  -2.332 -22.240  1.00  0.00    -0.028 C 
HETATM   10  C1  UNL     1       0.717  -1.223 -21.608  1.00  0.00     0.036 C 
HETATM   11  C4  UNL     1      -2.006  -1.002 -21.774  1.00  0.00     0.043 C 
ENDBRANCH   7   8
ENDBRANCH   6   7
BRANCH   6  12
HETATM   12  C7  UNL     1      -4.678  -3.480 -22.824  1.00  0.00     0.143 C 
BRANCH  12  13
HETATM   13  O1  UNL     1      -5.612  -4.315 -22.384  1.00  0.00    -0.346 OA
ATOM     14  H1  UNL     1      -5.937  -4.904 -23.055  1.00  0.00     0.219 HD
ENDBRANCH  12  13
BRANCH  12  15
HETATM   15  N1  UNL     1      -5.145  -2.680 -23.836  1.00  0.00    -0.362 N 
HETATM   16  C8  UNL     1      -6.265  -3.183 -24.674  1.00  0.00     0.125 C 
HETATM   17  C9  UNL     1      -6.755  -2.081 -25.562  1.00  0.00     0.024 C 
HETATM   18  C10 UNL     1      -5.713  -1.448 -26.422  1.00  0.00    -0.012 C 
HETATM   19  C13 UNL     1      -4.394  -1.431 -25.726  1.00  0.00     0.024 C 
HETATM   20  C14 UNL     1      -4.708  -1.382 -24.209  1.00  0.00     0.125 C 
BRANCH  18  21
HETATM   21  C11 UNL     1      -5.645  -2.078 -27.797  1.00  0.00     0.000 C 
HETATM   22  C12 UNL     1      -5.539  -1.062 -28.888  1.00  0.00     0.005 C 
ENDBRANCH  18  21
ENDBRANCH  12  15
ENDBRANCH   6  12
ENDBRANCH   5   6
BRANCH   5  23
HETATM   23  N2  UNL     1      -2.785  -5.963 -21.818  1.00  0.00    -0.410 N 
HETATM   24  C16 UNL     1      -3.212  -7.197 -21.246  1.00  0.00     0.141 C 
ATOM     25  H2  UNL     1      -2.174  -5.928 -22.635  1.00  0.00     0.153 HD
ENDBRANCH   5  23
ENDBRANCH   1   5
BRANCH   3  26
HETATM   26  C18 UNL     1      -0.010  -4.823 -18.999  1.00  0.00     0.124 C 
HETATM   27  C25 UNL     1       1.350  -4.990 -19.620  1.00  0.00     0.042 C 
HETATM   28  C26 UNL     1       2.416  -5.330 -18.601  1.00  0.00     0.013 C 
HETATM   29  C27 UNL     1       2.819  -4.053 -17.866  1.00  0.00     0.074 C 
HETATM   30  S1  UNL     1       1.573  -2.770 -18.175  1.00  0.00    -0.166 SA
HETATM   31  C28 UNL     1      -0.070  -3.439 -18.373  1.00  0.00     0.115 C 
BRANCH  26  32
HETATM   32  C19 UNL     1      -0.236  -5.849 -17.976  1.00  0.00     0.265 C 
HETATM   33  O3  UNL     1      -0.127  -5.645 -16.754  1.00  0.00    -0.269 OA
HETATM   34  N4  UNL     1      -0.601  -7.176 -18.354  1.00  0.00    -0.268 N 
ATOM     35  H4  UNL     1      -0.692  -7.368 -19.352  1.00  0.00     0.190 HD
BRANCH  34  36
HETATM   36  N5  UNL     1      -0.842  -8.221 -17.487  1.00  0.00    -0.307 N 
HETATM   37  C20 UNL     1      -1.687  -9.162 -17.608  1.00  0.00     0.138 C 
ATOM     38  H5  UNL     1      -0.270  -8.241 -16.643  1.00  0.00     0.186 HD
BRANCH  37  39
HETATM   39  C21 UNL     1      -1.728 -10.151 -16.522  1.00  0.00     0.064 A 
HETATM   40  C22 UNL     1      -1.223  -9.886 -15.267  1.00  0.00     0.118 A 
HETATM   41  N6  UNL     1      -1.266 -10.803 -14.283  1.00  0.00    -0.372 N 
HETATM   42  C23 UNL     1      -1.800 -12.023 -14.472  1.00  0.00     0.104 A 
ATOM     43  H6  UNL     1      -0.881 -10.567 -13.368  1.00  0.00     0.164 HD
HETATM   44  C24 UNL     1      -2.305 -12.284 -15.733  1.00  0.00     0.105 A 
HETATM   45  N7  UNL     1      -2.269 -11.378 -16.721  1.00  0.00    -0.362 N 
ATOM     46  H7  UNL     1      -2.654 -11.616 -17.635  1.00  0.00     0.165 HD
ENDBRANCH  37  39
ENDBRANCH  34  36
ENDBRANCH  26  32
ENDBRANCH   3  26
TORSDOF 13
ENDMDL
MODEL 3
REMARK VINA RESULT: -8.613547824      5.511     12.332
REMARK  13 active torsions:
REMARK  status: ('A' for Active; 'I' for Inactive)
REMARK    1  A    between atoms: C3_3  and  C5_5 
REMARK    2  A    between atoms: C5_5  and  C6_6 
REMARK    3  A    between atoms: C6_6  and  C7_7 
REMARK    4  A    between atoms: C6_6  and  C15_18 
REMARK    5  A    between atoms: C7_7  and  O1_8 
REMARK    6  A    between atoms: C7_7  and  N1_10 
REMARK    7  A    between atoms: C10_13  and  C11_14 
REMARK    8  A    between atoms: C15_18  and  N2_19 
REMARK    9  A    between atoms: C15_18  and  C17_22 
REMARK       I    between atoms: C17_22  and  N3_24 
REMARK   10  A    between atoms: N3_24  and  C18_26 
REMARK   11  A    between atoms: C18_26  and  C19_27 
REMARK       I    between atoms: C19_27  and  N4_29 
REMARK   12  A    between atoms: N4_29  and  N5_31 
REMARK   13  A    between atoms: C20_33  and  C21_34 
ROOT
HETATM    1  C17 UNL     1      -2.281  -6.724 -18.744  1.00  0.00     0.245 C 
HETATM    2  O2  UNL     1      -2.966  -7.726 -19.155  1.00  0.00    -0.271 OA
HETATM    3  N3  UNL     1      -1.552  -6.868 -17.575  1.00  0.00    -0.340 N 
ATOM      4  H3  UNL     1      -1.030  -6.039 -17.290  1.00  0.00     0.163 HD
ENDROOT
BRANCH   1   5
HETATM    5  C15 UNL     1      -2.291  -5.456 -19.514  1.00  0.00     0.203 C 
BRANCH   5   6
HETATM    6  C6  UNL     1      -1.149  -4.519 -19.285  1.00  0.00     0.006 C 
BRANCH   6   7
HETATM    7  C5  UNL     1       0.174  -4.963 -19.856  1.00  0.00     0.074 C 
BRANCH   7   8
HETATM    8  C3  UNL     1       1.252  -4.877 -18.781  1.00  0.00    -0.084 C 
HETATM    9  C2  UNL     1       1.014  -4.199 -17.666  1.00  0.00    -0.028 C 
HETATM   10  C1  UNL     1       2.086  -4.136 -16.637  1.00  0.00     0.036 C 
HETATM   11  C4  UNL     1       2.571  -5.531 -18.942  1.00  0.00     0.043 C 
ENDBRANCH   7   8
ENDBRANCH   6   7
BRANCH   6  12
HETATM   12  C7  UNL     1      -1.426  -3.091 -19.392  1.00  0.00     0.143 C 
BRANCH  12  13
HETATM   13  O1  UNL     1      -2.427  -2.690 -18.615  1.00  0.00    -0.346 OA
ATOM     14  H1  UNL     1      -2.370  -3.023 -17.727  1.00  0.00     0.219 HD
ENDBRANCH  12  13
BRANCH  12  15
HETATM   15  N1  UNL     1      -0.893  -2.052 -20.112  1.00  0.00    -0.362 N 
HETATM   16  C8  UNL     1      -1.547  -1.673 -21.392  1.00  0.00     0.125 C 
HETATM   17  C9  UNL     1      -0.946  -0.398 -21.899  1.00  0.00     0.024 C 
HETATM   18  C10 UNL     1       0.537  -0.416 -22.063  1.00  0.00    -0.012 C 
HETATM   19  C13 UNL     1       1.172  -1.280 -21.027  1.00  0.00     0.024 C 
HETATM   20  C14 UNL     1       0.229  -1.243 -19.797  1.00  0.00     0.125 C 
BRANCH  18  21
HETATM   21  C11 UNL     1       0.952  -0.783 -23.472  1.00  0.00     0.000 C 
HETATM   22  C12 UNL     1      -0.061  -0.376 -24.492  1.00  0.00     0.005 C 
ENDBRANCH  18  21
ENDBRANCH  12  15
ENDBRANCH   6  12
ENDBRANCH   5   6
BRANCH   5  23
HETATM   23  N2  UNL     1      -2.387  -5.856 -20.911  1.00  0.00    -0.410 N 
HETATM   24  C16 UNL     1      -3.403  -5.209 -21.676  1.00  0.00     0.141 C 
ATOM     25  H2  UNL     1      -1.766  -6.555 -21.318  1.00  0.00     0.153 HD
ENDBRANCH   5  23
ENDBRANCH   1   5
BRANCH   3  26
HETATM   26  C18 UNL     1      -1.410  -8.019 -16.686  1.00  0.00     0.124 C 
HETATM   27  C25 UNL     1      -2.656  -8.182 -15.857  1.00  0.00     0.042 C 
HETATM   28  C26 UNL     1      -2.429  -9.041 -14.632  1.00  0.00     0.013 C 
HETATM   29  C27 UNL     1      -2.420 -10.509 -15.055  1.00  0.00     0.074 C 
HETATM   30  S1  UNL     1      -2.228 -10.607 -16.857  1.00  0.00    -0.166 SA
HETATM   31  C28 UNL     1      -1.236  -9.279 -17.518  1.00  0.00     0.115 C 
BRANCH  26  32
HETATM   32  C19 UNL     1      -0.242  -7.818 -15.823  1.00  0.00     0.265 C 
HETATM   33  O3  UNL     1       0.014  -6.748 -15.243  1.00  0.00    -0.269 OA
HETATM   34  N4  UNL     1       0.687  -8.880 -15.609  1.00  0.00    -0.268 N 
ATOM     35  H4  UNL     1       0.500  -9.766 -16.079  1.00  0.00     0.190 HD
BRANCH  34  36
HETATM   36  N5  UNL     1       1.817  -8.812 -14.820  1.00  0.00    -0.307 N 
HETATM   37  C20 UNL     1       3.032  -8.909 -15.180  1.00  0.00     0.138 C 
ATOM     38  H5  UNL     1       1.657  -8.665 -13.824  1.00  0.00     0.186 HD
BRANCH  37  39
HETATM   39  C21 UNL     1       4.041  -8.797 -14.118  1.00  0.00     0.064 A 
HETATM   40  C22 UNL     1       3.716  -8.424 -12.831  1.00  0.00     0.118 A 
HETATM   41  N6  UNL     1       4.654  -8.323 -11.871  1.00  0.00    -0.372 N 
HETATM   42  C23 UNL     1       5.952  -8.579 -12.115  1.00  0.00     0.104 A 
ATOM     43  H6  UNL     1       4.372  -8.045 -10.931  1.00  0.00     0.164 HD
HETATM   44  C24 UNL     1       6.272  -8.952 -13.408  1.00  0.00     0.105 A 
HETATM   45  N7  UNL     1       5.347  -9.056 -14.373  1.00  0.00    -0.362 N 
ATOM     46  H7  UNL     1       5.631  -9.336 -15.312  1.00  0.00     0.165 HD
ENDBRANCH  37  39
ENDBRANCH  34  36
ENDBRANCH  26  32
ENDBRANCH   3  26
TORSDOF 13
ENDMDL
MODEL 4
REMARK VINA RESULT: -8.603845266      2.297      3.597
REMARK  13 active torsions:
REMARK  status: ('A' for Active; 'I' for Inactive)
REMARK    1  A    between atoms: C3_3  and  C5_5 
REMARK    2  A    between atoms: C5_5  and  C6_6 
REMARK    3  A    between atoms: C6_6  and  C7_7 
REMARK    4  A    between atoms: C6_6  and  C15_18 
REMARK    5  A    between atoms: C7_7  and  O1_8 
REMARK    6  A    between atoms: C7_7  and  N1_10 
REMARK    7  A    between atoms: C10_13  and  C11_14 
REMARK    8  A    between atoms: C15_18  and  N2_19 
REMARK    9  A    between atoms: C15_18  and  C17_22 
REMARK       I    between atoms: C17_22  and  N3_24 
REMARK   10  A    between atoms: N3_24  and  C18_26 
REMARK   11  A    between atoms: C18_26  and  C19_27 
REMARK       I    between atoms: C19_27  and  N4_29 
REMARK   12  A    between atoms: N4_29  and  N5_31 
REMARK   13  A    between atoms: C20_33  and  C21_34 
ROOT
HETATM    1  C17 UNL     1      -2.139  -4.960 -21.491  1.00  0.00     0.245 C 
HETATM    2  O2  UNL     1      -1.380  -5.280 -22.473  1.00  0.00    -0.271 OA
HETATM    3  N3  UNL     1      -2.189  -3.629 -21.113  1.00  0.00    -0.340 N 
ATOM      4  H3  UNL     1      -2.802  -3.430 -20.322  1.00  0.00     0.163 HD
ENDROOT
BRANCH   1   5
HETATM    5  C15 UNL     1      -2.926  -6.007 -20.793  1.00  0.00     0.203 C 
BRANCH   5   6
HETATM    6  C6  UNL     1      -2.380  -6.508 -19.496  1.00  0.00     0.006 C 
BRANCH   6   7
HETATM    7  C5  UNL     1      -1.977  -7.961 -19.484  1.00  0.00     0.074 C 
BRANCH   7   8
HETATM    8  C3  UNL     1      -2.035  -8.498 -18.058  1.00  0.00    -0.084 C 
HETATM    9  C2  UNL     1      -3.014  -8.113 -17.251  1.00  0.00    -0.028 C 
HETATM   10  C1  UNL     1      -3.042  -8.657 -15.867  1.00  0.00     0.036 C 
HETATM   11  C4  UNL     1      -1.022  -9.445 -17.538  1.00  0.00     0.043 C 
ENDBRANCH   7   8
ENDBRANCH   6   7
BRANCH   6  12
HETATM   12  C7  UNL     1      -1.504  -5.611 -18.750  1.00  0.00     0.143 C 
BRANCH  12  13
HETATM   13  O1  UNL     1      -2.137  -4.559 -18.243  1.00  0.00    -0.346 OA
ATOM     14  H1  UNL     1      -1.629  -3.757 -18.288  1.00  0.00     0.219 HD
ENDBRANCH  12  13
BRANCH  12  15
HETATM   15  N1  UNL     1      -0.167  -5.597 -18.445  1.00  0.00    -0.362 N 
HETATM   16  C8  UNL     1       0.246  -5.962 -17.064  1.00  0.00     0.125 C 
HETATM   17  C9  UNL     1       1.737  -6.091 -17.009  1.00  0.00     0.024 C 
HETATM   18  C10 UNL     1       2.497  -4.893 -17.475  1.00  0.00    -0.012 C 
HETATM   19  C13 UNL     1       1.762  -4.197 -18.569  1.00  0.00     0.024 C 
HETATM   20  C14 UNL     1       0.929  -5.286 -19.291  1.00  0.00     0.125 C 
BRANCH  18  21
HETATM   21  C11 UNL     1       2.866  -3.970 -16.333  1.00  0.00     0.000 C 
HETATM   22  C12 UNL     1       3.218  -4.714 -15.086  1.00  0.00     0.005 C 
ENDBRANCH  18  21
ENDBRANCH  12  15
ENDBRANCH   6  12
ENDBRANCH   5   6
BRANCH   5  23
HETATM   23  N2  UNL     1      -4.259  -5.442 -20.634  1.00  0.00    -0.410 N 
HETATM   24  C16 UNL     1      -5.001  -5.248 -21.837  1.00  0.00     0.141 C 
ATOM     25  H2  UNL     1      -4.639  -5.201 -19.719  1.00  0.00     0.153 HD
ENDBRANCH   5  23
ENDBRANCH   1   5
BRANCH   3  26
HETATM   26  C18 UNL     1      -1.502  -2.463 -21.666  1.00  0.00     0.124 C 
HETATM   27  C25 UNL     1      -1.809  -1.246 -20.836  1.00  0.00     0.042 C 
HETATM   28  C26 UNL     1      -1.519   0.045 -21.570  1.00  0.00     0.013 C 
HETATM   29  C27 UNL     1      -0.013   0.302 -21.537  1.00  0.00     0.074 C 
HETATM   30  S1  UNL     1       0.840  -1.224 -21.052  1.00  0.00    -0.166 SA
HETATM   31  C28 UNL     1      -0.000  -2.694 -21.618  1.00  0.00     0.115 C 
BRANCH  26  32
HETATM   32  C19 UNL     1      -1.938  -2.263 -23.052  1.00  0.00     0.265 C 
HETATM   33  O3  UNL     1      -1.168  -2.280 -24.028  1.00  0.00    -0.269 OA
HETATM   34  N4  UNL     1      -3.314  -2.027 -23.348  1.00  0.00    -0.268 N 
ATOM     35  H4  UNL     1      -3.963  -2.004 -22.561  1.00  0.00     0.190 HD
BRANCH  34  36
HETATM   36  N5  UNL     1      -3.841  -1.827 -24.607  1.00  0.00    -0.307 N 
HETATM   37  C20 UNL     1      -4.299  -0.751 -25.104  1.00  0.00     0.138 C 
ATOM     38  H5  UNL     1      -3.868  -2.646 -25.214  1.00  0.00     0.186 HD
BRANCH  37  39
HETATM   39  C21 UNL     1      -4.802  -0.827 -26.483  1.00  0.00     0.064 A 
HETATM   40  C22 UNL     1      -5.701  -1.792 -26.885  1.00  0.00     0.118 A 
HETATM   41  N6  UNL     1      -6.150  -1.850 -28.152  1.00  0.00    -0.372 N 
HETATM   42  C23 UNL     1      -5.747  -0.973 -29.090  1.00  0.00     0.104 A 
ATOM     43  H6  UNL     1      -6.815  -2.580 -28.409  1.00  0.00     0.164 HD
HETATM   44  C24 UNL     1      -4.845  -0.008 -28.681  1.00  0.00     0.105 A 
HETATM   45  N7  UNL     1      -4.391   0.061 -27.421  1.00  0.00    -0.362 N 
ATOM     46  H7  UNL     1      -3.727   0.792 -27.165  1.00  0.00     0.165 HD
ENDBRANCH  37  39
ENDBRANCH  34  36
ENDBRANCH  26  32
ENDBRANCH   3  26
TORSDOF 13
ENDMDL
MODEL 5
REMARK VINA RESULT: -8.583906126      3.883     10.231
REMARK  13 active torsions:
REMARK  status: ('A' for Active; 'I' for Inactive)
REMARK    1  A    between atoms: C3_3  and  C5_5 
REMARK    2  A    between atoms: C5_5  and  C6_6 
REMARK    3  A    between atoms: C6_6  and  C7_7 
REMARK    4  A    between atoms: C6_6  and  C15_18 
REMARK    5  A    between atoms: C7_7  and  O1_8 
REMARK    6  A    between atoms: C7_7  and  N1_10 
REMARK    7  A    between atoms: C10_13  and  C11_14 
REMARK    8  A    between atoms: C15_18  and  N2_19 
REMARK    9  A    between atoms: C15_18  and  C17_22 
REMARK       I    between atoms: C17_22  and  N3_24 
REMARK   10  A    between atoms: N3_24  and  C18_26 
REMARK   11  A    between atoms: C18_26  and  C19_27 
REMARK       I    between atoms: C19_27  and  N4_29 
REMARK   12  A    between atoms: N4_29  and  N5_31 
REMARK   13  A    between atoms: C20_33  and  C21_34 
ROOT
HETATM    1  C17 UNL     1      -2.625  -4.709 -19.871  1.00  0.00     0.245 C 
HETATM    2  O2  UNL     1      -3.044  -4.245 -18.752  1.00  0.00    -0.271 OA
HETATM    3  N3  UNL     1      -1.282  -5.025 -19.984  1.00  0.00    -0.340 N 
ATOM      4  H3  UNL     1      -1.000  -5.383 -20.897  1.00  0.00     0.163 HD
ENDROOT
BRANCH   1   5
HETATM    5  C15 UNL     1      -3.573  -4.886 -20.999  1.00  0.00     0.203 C 
BRANCH   5   6
HETATM    6  C6  UNL     1      -3.772  -3.712 -21.903  1.00  0.00     0.006 C 
BRANCH   6   7
HETATM    7  C5  UNL     1      -5.072  -3.699 -22.666  1.00  0.00     0.074 C 
BRANCH   7   8
HETATM    8  C3  UNL     1      -4.820  -3.252 -24.102  1.00  0.00    -0.084 C 
HETATM    9  C2  UNL     1      -5.817  -2.750 -24.818  1.00  0.00    -0.028 C 
HETATM   10  C1  UNL     1      -5.537  -2.323 -26.215  1.00  0.00     0.036 C 
HETATM   11  C4  UNL     1      -3.484  -3.361 -24.732  1.00  0.00     0.043 C 
ENDBRANCH   7   8
ENDBRANCH   6   7
BRANCH   6  12
HETATM   12  C7  UNL     1      -3.321  -2.412 -21.417  1.00  0.00     0.143 C 
BRANCH  12  13
HETATM   13  O1  UNL     1      -4.147  -1.866 -20.531  1.00  0.00    -0.346 OA
ATOM     14  H1  UNL     1      -3.994  -2.163 -19.641  1.00  0.00     0.219 HD
ENDBRANCH  12  13
BRANCH  12  15
HETATM   15  N1  UNL     1      -2.235  -1.612 -21.661  1.00  0.00    -0.362 N 
HETATM   16  C8  UNL     1      -2.309  -0.645 -22.788  1.00  0.00     0.125 C 
HETATM   17  C9  UNL     1      -1.120   0.264 -22.743  1.00  0.00     0.024 C 
HETATM   18  C10 UNL     1       0.205  -0.422 -22.740  1.00  0.00    -0.012 C 
HETATM   19  C13 UNL     1       0.124  -1.721 -22.014  1.00  0.00     0.024 C 
HETATM   20  C14 UNL     1      -1.002  -1.557 -20.961  1.00  0.00     0.125 C 
BRANCH  18  21
HETATM   21  C11 UNL     1       0.781  -0.561 -24.133  1.00  0.00     0.000 C 
HETATM   22  C12 UNL     1       0.097   0.322 -25.126  1.00  0.00     0.005 C 
ENDBRANCH  18  21
ENDBRANCH  12  15
ENDBRANCH   6  12
ENDBRANCH   5   6
BRANCH   5  23
HETATM   23  N2  UNL     1      -3.090  -6.050 -21.728  1.00  0.00    -0.410 N 
HETATM   24  C16 UNL     1      -3.469  -7.318 -21.198  1.00  0.00     0.141 C 
ATOM     25  H2  UNL     1      -2.516  -5.964 -22.567  1.00  0.00     0.153 HD
ENDBRANCH   5  23
ENDBRANCH   1   5
BRANCH   3  26
HETATM   26  C18 UNL     1      -0.203  -4.929 -19.004  1.00  0.00     0.124 C 
HETATM   27  C25 UNL     1       1.130  -4.998 -19.699  1.00  0.00     0.042 C 
HETATM   28  C26 UNL     1       2.259  -5.350 -18.756  1.00  0.00     0.013 C 
HETATM   29  C27 UNL     1       2.646  -4.102 -17.964  1.00  0.00     0.074 C 
HETATM   30  S1  UNL     1       1.334  -2.860 -18.134  1.00  0.00    -0.166 SA
HETATM   31  C28 UNL     1      -0.288  -3.587 -18.292  1.00  0.00     0.115 C 
BRANCH  26  32
HETATM   32  C19 UNL     1      -0.334  -6.022 -18.036  1.00  0.00     0.265 C 
HETATM   33  O3  UNL     1      -0.170  -5.886 -16.811  1.00  0.00    -0.269 OA
HETATM   34  N4  UNL     1      -0.665  -7.339 -18.476  1.00  0.00    -0.268 N 
ATOM     35  H4  UNL     1      -0.800  -7.475 -19.478  1.00  0.00     0.190 HD
BRANCH  34  36
HETATM   36  N5  UNL     1      -0.818  -8.443 -17.663  1.00  0.00    -0.307 N 
HETATM   37  C20 UNL     1      -1.804  -9.243 -17.604  1.00  0.00     0.138 C 
ATOM     38  H5  UNL     1      -0.043  -8.642 -17.031  1.00  0.00     0.186 HD
BRANCH  37  39
HETATM   39  C21 UNL     1      -1.697 -10.345 -16.638  1.00  0.00     0.064 A 
HETATM   40  C22 UNL     1      -1.139 -10.176 -15.389  1.00  0.00     0.118 A 
HETATM   41  N6  UNL     1      -1.046 -11.196 -14.516  1.00  0.00    -0.372 N 
HETATM   42  C23 UNL     1      -1.490 -12.430 -14.815  1.00  0.00     0.104 A 
ATOM     43  H6  UNL     1      -0.627 -11.029 -13.601  1.00  0.00     0.164 HD
HETATM   44  C24 UNL     1      -2.049 -12.594 -16.070  1.00  0.00     0.105 A 
HETATM   45  N7  UNL     1      -2.148 -11.585 -16.948  1.00  0.00    -0.362 N 
ATOM     46  H7  UNL     1      -2.568 -11.754 -17.862  1.00  0.00     0.165 HD
ENDBRANCH  37  39
ENDBRANCH  34  36
ENDBRANCH  26  32
ENDBRANCH   3  26
TORSDOF 13
ENDMDL
