MODEL 1
REMARK VINA RESULT: -6.207467036      0.000      0.000
REMARK  10 active torsions:
REMARK  status: ('A' for Active; 'I' for Inactive)
REMARK    1  A    between atoms: N1_2  and  O1_3 
REMARK    2  A    between atoms: N1_2  and  N2_5 
REMARK    3  A    between atoms: C3_7  and  C4_8 
REMARK    4  A    between atoms: C5_9  and  C10_19 
REMARK    5  A    between atoms: C6_10  and  O2_11 
REMARK    6  A    between atoms: N3_13  and  C7_14 
REMARK    7  A    between atoms: C9_16  and  O3_17 
REMARK    8  A    between atoms: C11_20  and  C12_21 
REMARK    9  A    between atoms: C13_22  and  C15_24 
REMARK   10  A    between atoms: C17_27  and  C18_28 
ROOT
HETATM    1  N2  UNL     1      22.561  19.923  60.894  1.00  0.00    -0.247 N 
HETATM    2  C2  UNL     1      22.541  20.774  61.864  1.00  0.00     0.100 C 
HETATM    3  C3  UNL     1      23.514  20.526  62.962  1.00  0.00     0.108 C 
HETATM    4  C10 UNL     1      24.857  18.959  60.610  1.00  0.00     0.116 C 
HETATM    5  C11 UNL     1      24.969  17.855  61.664  1.00  0.00     0.262 C 
HETATM    6  N4  UNL     1      23.664  18.190  62.125  1.00  0.00     0.139 N 
HETATM    7  C17 UNL     1      23.544  19.057  63.226  1.00  0.00     0.339 C 
HETATM    8  C19 UNL     1      23.409  18.790  60.834  1.00  0.00     0.358 C 
ENDROOT
BRANCH   5   9
HETATM    9  C12 UNL     1      25.180  16.505  61.085  1.00  0.00     0.012 C 
HETATM   10  C13 UNL     1      25.350  15.413  61.782  1.00  0.00    -0.086 C 
HETATM   11  C14 UNL     1      25.553  14.111  61.128  1.00  0.00     0.043 C 
BRANCH  10  12
HETATM   12  C15 UNL     1      25.338  15.490  63.256  1.00  0.00     0.029 C 
HETATM   13  C16 UNL     1      24.042  14.820  63.736  1.00  0.00     0.010 C 
ENDBRANCH  10  12
ENDBRANCH   5   9
BRANCH   4  14
HETATM   14  C5  UNL     1      25.389  20.169  61.260  1.00  0.00     0.015 A 
HETATM   15  C4  UNL     1      26.095  20.248  62.429  1.00  0.00     0.016 A 
HETATM   16  C9  UNL     1      26.404  21.554  62.654  1.00  0.00     0.152 A 
HETATM   17  N3  UNL     1      25.900  22.273  61.645  1.00  0.00    -0.308 N 
HETATM   18  C6  UNL     1      25.266  21.438  60.768  1.00  0.00     0.151 A 
BRANCH  16  19
HETATM   19  O3  UNL     1      27.112  22.033  63.735  1.00  0.00    -0.345 OA
ATOM     20  H3  UNL     1      27.731  22.753  63.712  1.00  0.00     0.219 HD
ENDBRANCH  16  19
BRANCH  17  21
HETATM   21  C7  UNL     1      26.005  23.730  61.494  1.00  0.00     0.129 C 
HETATM   22  C8  UNL     1      27.355  23.978  60.841  1.00  0.00     0.027 C 
ENDBRANCH  17  21
BRANCH  18  23
HETATM   23  O2  UNL     1      24.631  21.873  59.603  1.00  0.00    -0.345 OA
ATOM     24  H2  UNL     1      24.066  22.625  59.474  1.00  0.00     0.219 HD
ENDBRANCH  18  23
ENDBRANCH   4  14
BRANCH   7  25
HETATM   25  C18 UNL     1      22.288  18.717  63.962  1.00  0.00     0.208 C 
HETATM   26  O4  UNL     1      21.757  17.597  63.866  1.00  0.00    -0.646 OA
HETATM   27  O5  UNL     1      21.703  19.676  64.768  1.00  0.00    -0.646 OA
ENDBRANCH   7  25
BRANCH   1  28
HETATM   28  N1  UNL     1      21.637  20.181  59.869  1.00  0.00    -0.182 N 
HETATM   29  C1  UNL     1      20.409  20.479  60.083  1.00  0.00     0.178 C 
BRANCH  28  30
HETATM   30  O1  UNL     1      22.087  20.105  58.579  1.00  0.00    -0.269 OA
ATOM     31  H1  UNL     1      22.821  19.536  58.379  1.00  0.00     0.247 HD
ENDBRANCH  28  30
ENDBRANCH   1  28
TORSDOF 10
ENDMDL
MODEL 2
REMARK VINA RESULT: -5.818737705      2.702      4.355
REMARK  10 active torsions:
REMARK  status: ('A' for Active; 'I' for Inactive)
REMARK    1  A    between atoms: N1_2  and  O1_3 
REMARK    2  A    between atoms: N1_2  and  N2_5 
REMARK    3  A    between atoms: C3_7  and  C4_8 
REMARK    4  A    between atoms: C5_9  and  C10_19 
REMARK    5  A    between atoms: C6_10  and  O2_11 
REMARK    6  A    between atoms: N3_13  and  C7_14 
REMARK    7  A    between atoms: C9_16  and  O3_17 
REMARK    8  A    between atoms: C11_20  and  C12_21 
REMARK    9  A    between atoms: C13_22  and  C15_24 
REMARK   10  A    between atoms: C17_27  and  C18_28 
ROOT
HETATM    1  N2  UNL     1      22.670  18.466  60.997  1.00  0.00    -0.247 N 
HETATM    2  C2  UNL     1      23.739  18.992  61.493  1.00  0.00     0.100 C 
HETATM    3  C3  UNL     1      24.150  18.484  62.829  1.00  0.00     0.108 C 
HETATM    4  C10 UNL     1      22.384  16.112  61.806  1.00  0.00     0.116 C 
HETATM    5  C11 UNL     1      21.756  16.231  63.197  1.00  0.00     0.262 C 
HETATM    6  N4  UNL     1      21.822  17.649  63.083  1.00  0.00     0.139 N 
HETATM    7  C17 UNL     1      22.918  18.318  63.657  1.00  0.00     0.339 C 
HETATM    8  C19 UNL     1      21.878  17.487  61.647  1.00  0.00     0.358 C 
ENDROOT
BRANCH   5   9
HETATM    9  C12 UNL     1      20.417  15.600  63.296  1.00  0.00     0.012 C 
HETATM   10  C13 UNL     1      20.170  14.466  63.896  1.00  0.00    -0.086 C 
HETATM   11  C14 UNL     1      18.809  13.907  63.949  1.00  0.00     0.043 C 
BRANCH  10  12
HETATM   12  C15 UNL     1      21.280  13.730  64.533  1.00  0.00     0.029 C 
HETATM   13  C16 UNL     1      21.579  12.507  63.654  1.00  0.00     0.010 C 
ENDBRANCH  10  12
ENDBRANCH   5   9
BRANCH   4  14
HETATM   14  C5  UNL     1      23.837  16.071  62.040  1.00  0.00     0.015 A 
HETATM   15  C4  UNL     1      24.487  15.918  63.234  1.00  0.00     0.016 A 
HETATM   16  C9  UNL     1      25.827  15.921  62.995  1.00  0.00     0.152 A 
HETATM   17  N3  UNL     1      26.006  16.072  61.679  1.00  0.00    -0.308 N 
HETATM   18  C6  UNL     1      24.789  16.167  61.065  1.00  0.00     0.151 A 
BRANCH  16  19
HETATM   19  O3  UNL     1      26.809  15.788  63.952  1.00  0.00    -0.345 OA
ATOM     20  H3  UNL     1      27.697  16.120  63.880  1.00  0.00     0.219 HD
ENDBRANCH  16  19
BRANCH  17  21
HETATM   21  C7  UNL     1      27.303  16.129  60.991  1.00  0.00     0.129 C 
HETATM   22  C8  UNL     1      27.706  17.594  60.996  1.00  0.00     0.027 C 
ENDBRANCH  17  21
BRANCH  18  23
HETATM   23  O2  UNL     1      24.624  16.334  59.688  1.00  0.00    -0.345 OA
ATOM     24  H2  UNL     1      24.103  16.976  59.221  1.00  0.00     0.219 HD
ENDBRANCH  18  23
ENDBRANCH   4  14
BRANCH   7  25
HETATM   25  C18 UNL     1      22.476  19.686  64.065  1.00  0.00     0.208 C 
HETATM   26  O4  UNL     1      21.559  19.860  64.887  1.00  0.00    -0.646 OA
HETATM   27  O5  UNL     1      23.106  20.787  63.513  1.00  0.00    -0.646 OA
ENDBRANCH   7  25
BRANCH   1  28
HETATM   28  N1  UNL     1      22.305  18.960  59.734  1.00  0.00    -0.182 N 
HETATM   29  C1  UNL     1      21.828  20.134  59.545  1.00  0.00     0.178 C 
BRANCH  28  30
HETATM   30  O1  UNL     1      22.474  18.130  58.660  1.00  0.00    -0.269 OA
ATOM     31  H1  UNL     1      23.311  17.698  58.537  1.00  0.00     0.247 HD
ENDBRANCH  28  30
ENDBRANCH   1  28
TORSDOF 10
ENDMDL
MODEL 3
REMARK VINA RESULT: -5.749399827      2.634      5.197
REMARK  10 active torsions:
REMARK  status: ('A' for Active; 'I' for Inactive)
REMARK    1  A    between atoms: N1_2  and  O1_3 
REMARK    2  A    between atoms: N1_2  and  N2_5 
REMARK    3  A    between atoms: C3_7  and  C4_8 
REMARK    4  A    between atoms: C5_9  and  C10_19 
REMARK    5  A    between atoms: C6_10  and  O2_11 
REMARK    6  A    between atoms: N3_13  and  C7_14 
REMARK    7  A    between atoms: C9_16  and  O3_17 
REMARK    8  A    between atoms: C11_20  and  C12_21 
REMARK    9  A    between atoms: C13_22  and  C15_24 
REMARK   10  A    between atoms: C17_27  and  C18_28 
ROOT
HETATM    1  N2  UNL     1      27.161  18.617  61.775  1.00  0.00    -0.247 N 
HETATM    2  C2  UNL     1      26.784  19.194  60.684  1.00  0.00     0.100 C 
HETATM    3  C3  UNL     1      25.871  18.404  59.815  1.00  0.00     0.108 C 
HETATM    4  C10 UNL     1      25.404  17.024  62.584  1.00  0.00     0.116 C 
HETATM    5  C11 UNL     1      25.602  15.746  61.765  1.00  0.00     0.262 C 
HETATM    6  N4  UNL     1      26.651  16.392  61.049  1.00  0.00     0.139 N 
HETATM    7  C17 UNL     1      26.349  16.989  59.813  1.00  0.00     0.339 C 
HETATM    8  C19 UNL     1      26.788  17.306  62.162  1.00  0.00     0.358 C 
ENDROOT
BRANCH   5   9
HETATM    9  C12 UNL     1      25.947  14.563  62.591  1.00  0.00     0.012 C 
HETATM   10  C13 UNL     1      25.169  14.036  63.498  1.00  0.00    -0.086 C 
HETATM   11  C14 UNL     1      25.587  12.859  64.277  1.00  0.00     0.043 C 
BRANCH  10  12
HETATM   12  C15 UNL     1      23.842  14.633  63.747  1.00  0.00     0.029 C 
HETATM   13  C16 UNL     1      22.825  13.483  63.788  1.00  0.00     0.010 C 
ENDBRANCH  10  12
ENDBRANCH   5   9
BRANCH   4  14
HETATM   14  C5  UNL     1      24.415  17.815  61.833  1.00  0.00     0.015 A 
HETATM   15  C4  UNL     1      23.684  17.423  60.745  1.00  0.00     0.016 A 
HETATM   16  C9  UNL     1      22.880  18.457  60.375  1.00  0.00     0.152 A 
HETATM   17  N3  UNL     1      23.106  19.471  61.216  1.00  0.00    -0.308 N 
HETATM   18  C6  UNL     1      24.053  19.099  62.129  1.00  0.00     0.151 A 
BRANCH  16  19
HETATM   19  O3  UNL     1      21.995  18.443  59.319  1.00  0.00    -0.345 OA
ATOM     20  H3  UNL     1      21.433  19.165  59.062  1.00  0.00     0.219 HD
ENDBRANCH  16  19
BRANCH  17  21
HETATM   21  C7  UNL     1      22.448  20.784  61.175  1.00  0.00     0.129 C 
HETATM   22  C8  UNL     1      23.320  21.652  60.284  1.00  0.00     0.027 C 
ENDBRANCH  17  21
BRANCH  18  23
HETATM   23  O2  UNL     1      24.519  19.931  63.150  1.00  0.00    -0.345 OA
ATOM     24  H2  UNL     1      24.041  20.566  63.669  1.00  0.00     0.219 HD
ENDBRANCH  18  23
ENDBRANCH   4  14
BRANCH   7  25
HETATM   25  C18 UNL     1      27.571  16.940  58.953  1.00  0.00     0.208 C 
HETATM   26  O4  UNL     1      27.544  17.283  57.758  1.00  0.00    -0.646 OA
HETATM   27  O5  UNL     1      28.761  16.501  59.503  1.00  0.00    -0.646 OA
ENDBRANCH   7  25
BRANCH   1  28
HETATM   28  N1  UNL     1      28.019  19.384  62.578  1.00  0.00    -0.182 N 
HETATM   29  C1  UNL     1      29.297  19.303  62.526  1.00  0.00     0.178 C 
BRANCH  28  30
HETATM   30  O1  UNL     1      27.444  20.260  63.458  1.00  0.00    -0.269 OA
ATOM     31  H1  UNL     1      27.993  20.700  64.096  1.00  0.00     0.247 HD
ENDBRANCH  28  30
ENDBRANCH   1  28
TORSDOF 10
ENDMDL
MODEL 4
REMARK VINA RESULT: -5.699799838      2.849      5.052
REMARK  10 active torsions:
REMARK  status: ('A' for Active; 'I' for Inactive)
REMARK    1  A    between atoms: N1_2  and  O1_3 
REMARK    2  A    between atoms: N1_2  and  N2_5 
REMARK    3  A    between atoms: C3_7  and  C4_8 
REMARK    4  A    between atoms: C5_9  and  C10_19 
REMARK    5  A    between atoms: C6_10  and  O2_11 
REMARK    6  A    between atoms: N3_13  and  C7_14 
REMARK    7  A    between atoms: C9_16  and  O3_17 
REMARK    8  A    between atoms: C11_20  and  C12_21 
REMARK    9  A    between atoms: C13_22  and  C15_24 
REMARK   10  A    between atoms: C17_27  and  C18_28 
ROOT
HETATM    1  N2  UNL     1      27.641  18.954  62.081  1.00  0.00    -0.247 N 
HETATM    2  C2  UNL     1      28.125  19.512  61.023  1.00  0.00     0.100 C 
HETATM    3  C3  UNL     1      27.154  19.770  59.926  1.00  0.00     0.108 C 
HETATM    4  C10 UNL     1      25.235  19.580  62.390  1.00  0.00     0.116 C 
HETATM    5  C11 UNL     1      24.447  18.650  61.463  1.00  0.00     0.262 C 
HETATM    6  N4  UNL     1      25.678  18.091  61.013  1.00  0.00     0.139 N 
HETATM    7  C17 UNL     1      26.246  18.588  59.827  1.00  0.00     0.339 C 
HETATM    8  C19 UNL     1      26.289  18.561  62.237  1.00  0.00     0.358 C 
ENDROOT
BRANCH   5   9
HETATM    9  C12 UNL     1      23.500  17.764  62.182  1.00  0.00     0.012 C 
HETATM   10  C13 UNL     1      22.271  17.526  61.805  1.00  0.00    -0.086 C 
HETATM   11  C14 UNL     1      21.393  16.632  62.578  1.00  0.00     0.043 C 
BRANCH  10  12
HETATM   12  C15 UNL     1      21.755  18.167  60.581  1.00  0.00     0.029 C 
HETATM   13  C16 UNL     1      20.917  19.377  61.019  1.00  0.00     0.010 C 
ENDBRANCH  10  12
ENDBRANCH   5   9
BRANCH   4  14
HETATM   14  C5  UNL     1      25.501  20.788  61.591  1.00  0.00     0.015 A 
HETATM   15  C4  UNL     1      24.966  21.121  60.376  1.00  0.00     0.016 A 
HETATM   16  C9  UNL     1      25.471  22.328  60.003  1.00  0.00     0.152 A 
HETATM   17  N3  UNL     1      26.303  22.738  60.966  1.00  0.00    -0.308 N 
HETATM   18  C6  UNL     1      26.339  21.801  61.962  1.00  0.00     0.151 A 
BRANCH  16  19
HETATM   19  O3  UNL     1      25.167  22.996  58.837  1.00  0.00    -0.345 OA
ATOM     20  H3  UNL     1      25.161  22.612  57.968  1.00  0.00     0.219 HD
ENDBRANCH  16  19
BRANCH  17  21
HETATM   21  C7  UNL     1      27.064  23.995  60.965  1.00  0.00     0.129 C 
HETATM   22  C8  UNL     1      28.343  23.699  60.200  1.00  0.00     0.027 C 
ENDBRANCH  17  21
BRANCH  18  23
HETATM   23  O2  UNL     1      27.114  21.924  63.116  1.00  0.00    -0.345 OA
ATOM     24  H2  UNL     1      27.048  22.561  63.817  1.00  0.00     0.219 HD
ENDBRANCH  18  23
ENDBRANCH   4  14
BRANCH   7  25
HETATM   25  C18 UNL     1      27.026  17.490  59.179  1.00  0.00     0.208 C 
HETATM   26  O4  UNL     1      27.380  17.553  57.989  1.00  0.00    -0.646 OA
HETATM   27  O5  UNL     1      27.361  16.374  59.925  1.00  0.00    -0.646 OA
ENDBRANCH   7  25
BRANCH   1  28
HETATM   28  N1  UNL     1      28.576  18.723  63.102  1.00  0.00    -0.182 N 
HETATM   29  C1  UNL     1      29.453  17.789  63.061  1.00  0.00     0.178 C 
BRANCH  28  30
HETATM   30  O1  UNL     1      28.536  19.548  64.193  1.00  0.00    -0.269 OA
ATOM     31  H1  UNL     1      27.922  19.359  64.893  1.00  0.00     0.247 HD
ENDBRANCH  28  30
ENDBRANCH   1  28
TORSDOF 10
ENDMDL
MODEL 5
REMARK VINA RESULT: -5.681862544      4.029      6.547
REMARK  10 active torsions:
REMARK  status: ('A' for Active; 'I' for Inactive)
REMARK    1  A    between atoms: N1_2  and  O1_3 
REMARK    2  A    between atoms: N1_2  and  N2_5 
REMARK    3  A    between atoms: C3_7  and  C4_8 
REMARK    4  A    between atoms: C5_9  and  C10_19 
REMARK    5  A    between atoms: C6_10  and  O2_11 
REMARK    6  A    between atoms: N3_13  and  C7_14 
REMARK    7  A    between atoms: C9_16  and  O3_17 
REMARK    8  A    between atoms: C11_20  and  C12_21 
REMARK    9  A    between atoms: C13_22  and  C15_24 
REMARK   10  A    between atoms: C17_27  and  C18_28 
ROOT
HETATM    1  N2  UNL     1      28.038  17.076  59.713  1.00  0.00    -0.247 N 
HETATM    2  C2  UNL     1      29.044  17.334  60.480  1.00  0.00     0.100 C 
HETATM    3  C3  UNL     1      28.722  17.557  61.916  1.00  0.00     0.108 C 
HETATM    4  C10 UNL     1      26.225  15.913  60.993  1.00  0.00     0.116 C 
HETATM    5  C11 UNL     1      25.463  17.022  61.723  1.00  0.00     0.262 C 
HETATM    6  N4  UNL     1      26.380  17.973  61.191  1.00  0.00     0.139 N 
HETATM    7  C17 UNL     1      27.471  18.370  61.985  1.00  0.00     0.339 C 
HETATM    8  C19 UNL     1      26.690  17.024  60.143  1.00  0.00     0.358 C 
ENDROOT
BRANCH   5   9
HETATM    9  C12 UNL     1      24.039  17.124  61.320  1.00  0.00     0.012 C 
HETATM   10  C13 UNL     1      23.024  17.001  62.133  1.00  0.00    -0.086 C 
HETATM   11  C14 UNL     1      21.638  17.116  61.651  1.00  0.00     0.043 C 
BRANCH  10  12
HETATM   12  C15 UNL     1      23.274  16.741  63.564  1.00  0.00     0.029 C 
HETATM   13  C16 UNL     1      23.007  15.249  63.809  1.00  0.00     0.010 C 
ENDBRANCH  10  12
ENDBRANCH   5   9
BRANCH   4  14
HETATM   14  C5  UNL     1      27.256  15.461  61.943  1.00  0.00     0.015 A 
HETATM   15  C4  UNL     1      27.411  15.838  63.249  1.00  0.00     0.016 A 
HETATM   16  C9  UNL     1      28.479  15.170  63.762  1.00  0.00     0.152 A 
HETATM   17  N3  UNL     1      28.979  14.393  62.796  1.00  0.00    -0.308 N 
HETATM   18  C6  UNL     1      28.238  14.555  61.658  1.00  0.00     0.151 A 
BRANCH  16  19
HETATM   19  O3  UNL     1      28.948  15.285  65.053  1.00  0.00    -0.345 OA
ATOM     20  H3  UNL     1      29.751  14.899  65.384  1.00  0.00     0.219 HD
ENDBRANCH  16  19
BRANCH  17  21
HETATM   21  C7  UNL     1      30.139  13.502  62.924  1.00  0.00     0.129 C 
HETATM   22  C8  UNL     1      29.577  12.155  63.348  1.00  0.00     0.027 C 
ENDBRANCH  17  21
BRANCH  18  23
HETATM   23  O2  UNL     1      28.497  13.886  60.460  1.00  0.00    -0.345 OA
ATOM     24  H2  UNL     1      29.284  13.892  59.929  1.00  0.00     0.219 HD
ENDBRANCH  18  23
ENDBRANCH   4  14
BRANCH   7  25
HETATM   25  C18 UNL     1      27.838  19.772  61.619  1.00  0.00     0.208 C 
HETATM   26  O4  UNL     1      28.727  20.394  62.225  1.00  0.00    -0.646 OA
HETATM   27  O5  UNL     1      27.168  20.391  60.580  1.00  0.00    -0.646 OA
ENDBRANCH   7  25
BRANCH   1  28
HETATM   28  N1  UNL     1      28.369  16.866  58.365  1.00  0.00    -0.182 N 
HETATM   29  C1  UNL     1      29.408  16.219  57.984  1.00  0.00     0.178 C 
BRANCH  28  30
HETATM   30  O1  UNL     1      27.526  17.386  57.421  1.00  0.00    -0.269 OA
ATOM     31  H1  UNL     1      27.289  16.854  56.670  1.00  0.00     0.247 HD
ENDBRANCH  28  30
ENDBRANCH   1  28
TORSDOF 10
ENDMDL
