MODEL 1
REMARK VINA RESULT: -8.912300032      0.000      0.000
REMARK  5 active torsions:
REMARK  status: ('A' for Active; 'I' for Inactive)
REMARK    1  A    between atoms: N2_7  and  S1_9 
REMARK    2  A    between atoms: S1_9  and  C4_12 
REMARK    3  A    between atoms: C6_16  and  S2_17 
REMARK    4  A    between atoms: S2_17  and  C7_18 
REMARK    5  A    between atoms: C11_25  and  C12_26 
ROOT
HETATM    1  S1  UNL     1      17.815  15.014  65.560  1.00  0.00     0.271 S 
HETATM    2  O2  UNL     1      18.186  13.596  65.201  1.00  0.00    -0.200 OA
HETATM    3  O3  UNL     1      18.104  15.194  67.037  1.00  0.00    -0.200 OA
ENDROOT
BRANCH   1   4
HETATM    4  N2  UNL     1      18.757  16.089  64.637  1.00  0.00    -0.258 N 
HETATM    5  C3  UNL     1      19.949  15.817  64.218  1.00  0.00     0.189 A 
HETATM    6  O1  UNL     1      20.534  14.646  64.490  1.00  0.00    -0.218 OA
HETATM    7  C11 UNL     1      20.832  16.559  63.475  1.00  0.00     0.027 A 
HETATM    8  N1  UNL     1      21.704  14.600  63.977  1.00  0.00    -0.263 N 
HETATM    9  C2  UNL     1      21.969  15.741  63.331  1.00  0.00     0.040 A 
ATOM     10  H1  UNL     1      22.343  13.808  64.050  1.00  0.00     0.194 HD
HETATM   11  C1  UNL     1      23.170  16.164  62.590  1.00  0.00     0.071 C 
ATOM     12  H2  UNL     1      18.359  16.997  64.401  1.00  0.00     0.181 HD
BRANCH   7  13
HETATM   13  C12 UNL     1      20.652  17.909  62.937  1.00  0.00    -0.018 C 
HETATM   14  C13 UNL     1      19.212  18.381  63.017  1.00  0.00     0.019 C 
HETATM   15  C14 UNL     1      21.114  17.999  61.483  1.00  0.00     0.019 C 
HETATM   16  C15 UNL     1      21.461  18.908  63.723  1.00  0.00     0.019 C 
ENDBRANCH   7  13
ENDBRANCH   1   4
BRANCH   1  17
HETATM   17  C4  UNL     1      16.112  15.234  65.344  1.00  0.00     0.163 A 
HETATM   18  C5  UNL     1      15.232  14.819  66.312  1.00  0.00     0.121 A 
HETATM   19  N3  UNL     1      13.887  14.989  66.145  1.00  0.00    -0.345 N 
HETATM   20  C6  UNL     1      13.378  15.564  65.040  1.00  0.00     0.147 A 
ATOM     21  H3  UNL     1      13.252  14.672  66.878  1.00  0.00     0.167 HD
HETATM   22  N4  UNL     1      14.263  15.960  64.109  1.00  0.00    -0.302 N 
HETATM   23  C10 UNL     1      15.580  15.818  64.221  1.00  0.00     0.272 A 
ATOM     24  H4  UNL     1      13.900  16.399  63.262  1.00  0.00     0.171 HD
HETATM   25  O4  UNL     1      16.403  16.197  63.336  1.00  0.00    -0.266 OA
BRANCH  20  26
HETATM   26  S2  UNL     1      11.616  15.781  64.832  1.00  0.00    -0.090 SA
BRANCH  26  27
HETATM   27  C7  UNL     1      10.678  14.500  65.666  1.00  0.00     0.047 C 
HETATM   28  C8  UNL     1       9.394  15.099  66.211  1.00  0.00     0.021 C 
HETATM   29  C9  UNL     1      10.288  13.419  64.676  1.00  0.00     0.021 C 
ENDBRANCH  26  27
ENDBRANCH  20  26
ENDBRANCH   1  17
TORSDOF 5
ENDMDL
MODEL 2
REMARK VINA RESULT: -8.520336257      0.589      1.259
REMARK  5 active torsions:
REMARK  status: ('A' for Active; 'I' for Inactive)
REMARK    1  A    between atoms: N2_7  and  S1_9 
REMARK    2  A    between atoms: S1_9  and  C4_12 
REMARK    3  A    between atoms: C6_16  and  S2_17 
REMARK    4  A    between atoms: S2_17  and  C7_18 
REMARK    5  A    between atoms: C11_25  and  C12_26 
ROOT
HETATM    1  S1  UNL     1      17.767  15.014  65.543  1.00  0.00     0.271 S 
HETATM    2  O2  UNL     1      18.107  13.590  65.177  1.00  0.00    -0.200 OA
HETATM    3  O3  UNL     1      18.034  15.173  67.027  1.00  0.00    -0.200 OA
ENDROOT
BRANCH   1   4
HETATM    4  N2  UNL     1      18.753  16.072  64.646  1.00  0.00    -0.258 N 
HETATM    5  C3  UNL     1      19.944  15.772  64.244  1.00  0.00     0.189 A 
HETATM    6  O1  UNL     1      20.492  14.583  64.513  1.00  0.00    -0.218 OA
HETATM    7  C11 UNL     1      20.858  16.497  63.523  1.00  0.00     0.027 A 
HETATM    8  N1  UNL     1      21.669  14.510  64.020  1.00  0.00    -0.263 N 
HETATM    9  C2  UNL     1      21.975  15.650  63.389  1.00  0.00     0.040 A 
ATOM     10  H1  UNL     1      22.285  13.701  64.095  1.00  0.00     0.194 HD
HETATM   11  C1  UNL     1      23.199  16.047  62.672  1.00  0.00     0.071 C 
ATOM     12  H2  UNL     1      18.383  16.993  64.413  1.00  0.00     0.181 HD
BRANCH   7  13
HETATM   13  C12 UNL     1      20.723  17.857  62.996  1.00  0.00    -0.018 C 
HETATM   14  C13 UNL     1      21.120  17.958  61.535  1.00  0.00     0.019 C 
HETATM   15  C14 UNL     1      21.558  18.854  63.799  1.00  0.00     0.019 C 
HETATM   16  C15 UNL     1      19.290  18.317  63.070  1.00  0.00     0.019 C 
ENDBRANCH   7  13
ENDBRANCH   1   4
BRANCH   1  17
HETATM   17  C4  UNL     1      16.074  15.280  65.299  1.00  0.00     0.163 A 
HETATM   18  C5  UNL     1      15.166  14.873  66.244  1.00  0.00     0.121 A 
HETATM   19  N3  UNL     1      13.829  15.080  66.055  1.00  0.00    -0.345 N 
HETATM   20  C6  UNL     1      13.355  15.683  64.950  1.00  0.00     0.147 A 
ATOM     21  H3  UNL     1      13.172  14.768  66.772  1.00  0.00     0.167 HD
HETATM   22  N4  UNL     1      14.267  16.071  64.041  1.00  0.00    -0.302 N 
HETATM   23  C10 UNL     1      15.577  15.894  64.175  1.00  0.00     0.272 A 
ATOM     24  H4  UNL     1      13.931  16.531  63.194  1.00  0.00     0.171 HD
HETATM   25  O4  UNL     1      16.427  16.265  63.311  1.00  0.00    -0.266 OA
BRANCH  20  26
HETATM   26  S2  UNL     1      11.604  15.948  64.713  1.00  0.00    -0.090 SA
BRANCH  26  27
HETATM   27  C7  UNL     1      10.819  14.560  63.891  1.00  0.00     0.047 C 
HETATM   28  C8  UNL     1      11.730  14.056  62.787  1.00  0.00     0.021 C 
HETATM   29  C9  UNL     1      10.625  13.422  64.874  1.00  0.00     0.021 C 
ENDBRANCH  26  27
ENDBRANCH  20  26
ENDBRANCH   1  17
TORSDOF 5
ENDMDL
MODEL 3
REMARK VINA RESULT: -8.423075810      0.751      1.291
REMARK  5 active torsions:
REMARK  status: ('A' for Active; 'I' for Inactive)
REMARK    1  A    between atoms: N2_7  and  S1_9 
REMARK    2  A    between atoms: S1_9  and  C4_12 
REMARK    3  A    between atoms: C6_16  and  S2_17 
REMARK    4  A    between atoms: S2_17  and  C7_18 
REMARK    5  A    between atoms: C11_25  and  C12_26 
ROOT
HETATM    1  S1  UNL     1      17.832  15.023  65.570  1.00  0.00     0.271 S 
HETATM    2  O2  UNL     1      18.215  13.598  65.254  1.00  0.00    -0.200 OA
HETATM    3  O3  UNL     1      18.097  15.242  67.046  1.00  0.00    -0.200 OA
ENDROOT
BRANCH   1   4
HETATM    4  N2  UNL     1      18.784  16.077  64.633  1.00  0.00    -0.258 N 
HETATM    5  C3  UNL     1      19.973  15.790  64.217  1.00  0.00     0.189 A 
HETATM    6  O1  UNL     1      20.547  14.616  64.503  1.00  0.00    -0.218 OA
HETATM    7  C11 UNL     1      20.862  16.514  63.465  1.00  0.00     0.027 A 
HETATM    8  N1  UNL     1      21.716  14.553  63.991  1.00  0.00    -0.263 N 
HETATM    9  C2  UNL     1      21.992  15.684  63.331  1.00  0.00     0.040 A 
ATOM     10  H1  UNL     1      22.348  13.757  64.073  1.00  0.00     0.194 HD
HETATM   11  C1  UNL     1      23.196  16.086  62.584  1.00  0.00     0.071 C 
ATOM     12  H2  UNL     1      18.394  16.987  64.386  1.00  0.00     0.181 HD
BRANCH   7  13
HETATM   13  C12 UNL     1      20.694  17.859  62.911  1.00  0.00    -0.018 C 
HETATM   14  C13 UNL     1      19.260  18.349  62.993  1.00  0.00     0.019 C 
HETATM   15  C14 UNL     1      21.150  17.925  61.453  1.00  0.00     0.019 C 
HETATM   16  C15 UNL     1      21.519  18.858  63.679  1.00  0.00     0.019 C 
ENDBRANCH   7  13
ENDBRANCH   1   4
BRANCH   1  17
HETATM   17  C4  UNL     1      16.132  15.228  65.321  1.00  0.00     0.163 A 
HETATM   18  C5  UNL     1      15.670  15.898  64.216  1.00  0.00     0.121 A 
HETATM   19  N3  UNL     1      14.329  16.063  64.015  1.00  0.00    -0.345 N 
HETATM   20  C6  UNL     1      13.419  15.582  64.882  1.00  0.00     0.147 A 
ATOM     21  H3  UNL     1      14.009  16.565  63.186  1.00  0.00     0.167 HD
HETATM   22  N4  UNL     1      13.899  14.931  65.955  1.00  0.00    -0.302 N 
HETATM   23  C10 UNL     1      15.193  14.743  66.197  1.00  0.00     0.272 A 
ATOM     24  H4  UNL     1      13.228  14.557  66.627  1.00  0.00     0.171 HD
HETATM   25  O4  UNL     1      15.633  14.126  67.214  1.00  0.00    -0.266 OA
BRANCH  20  26
HETATM   26  S2  UNL     1      11.666  15.804  64.610  1.00  0.00    -0.090 SA
BRANCH  26  27
HETATM   27  C7  UNL     1      10.692  14.551  65.445  1.00  0.00     0.047 C 
HETATM   28  C8  UNL     1       9.438  15.192  66.012  1.00  0.00     0.021 C 
HETATM   29  C9  UNL     1      10.251  13.494  64.451  1.00  0.00     0.021 C 
ENDBRANCH  26  27
ENDBRANCH  20  26
ENDBRANCH   1  17
TORSDOF 5
ENDMDL
MODEL 4
REMARK VINA RESULT: -7.313080824      5.192      9.514
REMARK  5 active torsions:
REMARK  status: ('A' for Active; 'I' for Inactive)
REMARK    1  A    between atoms: N2_7  and  S1_9 
REMARK    2  A    between atoms: S1_9  and  C4_12 
REMARK    3  A    between atoms: C6_16  and  S2_17 
REMARK    4  A    between atoms: S2_17  and  C7_18 
REMARK    5  A    between atoms: C11_25  and  C12_26 
ROOT
HETATM    1  S1  UNL     1      21.473  18.937  63.012  1.00  0.00     0.271 S 
HETATM    2  O2  UNL     1      20.557  19.861  62.246  1.00  0.00    -0.200 OA
HETATM    3  O3  UNL     1      21.860  19.650  64.292  1.00  0.00    -0.200 OA
ENDROOT
BRANCH   1   4
HETATM    4  N2  UNL     1      20.642  17.495  63.364  1.00  0.00    -0.258 N 
HETATM    5  C3  UNL     1      21.231  16.372  63.614  1.00  0.00     0.189 A 
HETATM    6  O1  UNL     1      22.564  16.268  63.613  1.00  0.00    -0.218 OA
HETATM    7  C11 UNL     1      20.719  15.135  63.913  1.00  0.00     0.027 A 
HETATM    8  N1  UNL     1      22.920  15.071  63.885  1.00  0.00    -0.263 N 
HETATM    9  C2  UNL     1      21.843  14.304  64.085  1.00  0.00     0.040 A 
ATOM     10  H1  UNL     1      23.886  14.748  63.941  1.00  0.00     0.194 HD
HETATM   11  C1  UNL     1      21.736  12.874  64.421  1.00  0.00     0.071 C 
ATOM     12  H2  UNL     1      19.622  17.517  63.378  1.00  0.00     0.181 HD
BRANCH   7  13
HETATM   13  C12 UNL     1      19.313  14.741  64.031  1.00  0.00    -0.018 C 
HETATM   14  C13 UNL     1      18.825  14.747  65.467  1.00  0.00     0.019 C 
HETATM   15  C14 UNL     1      19.069  13.354  63.438  1.00  0.00     0.019 C 
HETATM   16  C15 UNL     1      18.426  15.705  63.286  1.00  0.00     0.019 C 
ENDBRANCH   7  13
ENDBRANCH   1   4
BRANCH   1  17
HETATM   17  C4  UNL     1      22.926  18.690  62.106  1.00  0.00     0.163 A 
HETATM   18  C5  UNL     1      24.142  19.042  62.638  1.00  0.00     0.121 A 
HETATM   19  N3  UNL     1      25.292  18.849  61.927  1.00  0.00    -0.345 N 
HETATM   20  C6  UNL     1      25.279  18.312  60.692  1.00  0.00     0.147 A 
ATOM     21  H3  UNL     1      26.184  19.118  62.342  1.00  0.00     0.167 HD
HETATM   22  N4  UNL     1      24.075  17.978  60.196  1.00  0.00    -0.302 N 
HETATM   23  C10 UNL     1      22.928  18.144  60.846  1.00  0.00     0.272 A 
ATOM     24  H4  UNL     1      24.041  17.570  59.262  1.00  0.00     0.171 HD
HETATM   25  O4  UNL     1      21.799  17.823  60.367  1.00  0.00    -0.266 OA
BRANCH  20  26
HETATM   26  S2  UNL     1      26.790  18.065  59.770  1.00  0.00    -0.090 SA
BRANCH  26  27
HETATM   27  C7  UNL     1      27.742  16.681  60.398  1.00  0.00     0.047 C 
HETATM   28  C8  UNL     1      28.650  17.167  61.513  1.00  0.00     0.021 C 
HETATM   29  C9  UNL     1      26.811  15.642  60.993  1.00  0.00     0.021 C 
ENDBRANCH  26  27
ENDBRANCH  20  26
ENDBRANCH   1  17
TORSDOF 5
ENDMDL
MODEL 5
REMARK VINA RESULT: -7.223608770      1.862      2.558
REMARK  5 active torsions:
REMARK  status: ('A' for Active; 'I' for Inactive)
REMARK    1  A    between atoms: N2_7  and  S1_9 
REMARK    2  A    between atoms: S1_9  and  C4_12 
REMARK    3  A    between atoms: C6_16  and  S2_17 
REMARK    4  A    between atoms: S2_17  and  C7_18 
REMARK    5  A    between atoms: C11_25  and  C12_26 
ROOT
HETATM    1  S1  UNL     1      19.723  15.010  63.985  1.00  0.00     0.271 S 
HETATM    2  O2  UNL     1      19.745  13.889  62.975  1.00  0.00    -0.200 OA
HETATM    3  O3  UNL     1      20.660  14.620  65.111  1.00  0.00    -0.200 OA
ENDROOT
BRANCH   1   4
HETATM    4  N2  UNL     1      20.257  16.443  63.239  1.00  0.00    -0.258 N 
HETATM    5  C3  UNL     1      21.423  16.579  62.700  1.00  0.00     0.189 A 
HETATM    6  O1  UNL     1      22.309  15.576  62.693  1.00  0.00    -0.218 OA
HETATM    7  C11 UNL     1      22.003  17.648  62.067  1.00  0.00     0.027 A 
HETATM    8  N1  UNL     1      23.387  15.936  62.109  1.00  0.00    -0.263 N 
HETATM    9  C2  UNL     1      23.284  17.203  61.690  1.00  0.00     0.040 A 
ATOM     10  H1  UNL     1      24.207  15.344  61.981  1.00  0.00     0.194 HD
HETATM   11  C1  UNL     1      24.249  18.055  60.975  1.00  0.00     0.071 C 
ATOM     12  H2  UNL     1      19.620  17.240  63.217  1.00  0.00     0.181 HD
BRANCH   7  13
HETATM   13  C12 UNL     1      21.432  18.975  61.825  1.00  0.00    -0.018 C 
HETATM   14  C13 UNL     1      21.203  19.251  60.350  1.00  0.00     0.019 C 
HETATM   15  C14 UNL     1      22.320  20.080  62.396  1.00  0.00     0.019 C 
HETATM   16  C15 UNL     1      20.084  19.104  62.485  1.00  0.00     0.019 C 
ENDBRANCH   7  13
ENDBRANCH   1   4
BRANCH   1  17
HETATM   17  C4  UNL     1      18.136  15.139  64.664  1.00  0.00     0.163 A 
HETATM   18  C5  UNL     1      17.805  14.426  65.789  1.00  0.00     0.121 A 
HETATM   19  N3  UNL     1      16.554  14.524  66.329  1.00  0.00    -0.345 N 
HETATM   20  C6  UNL     1      15.609  15.313  65.786  1.00  0.00     0.147 A 
ATOM     21  H3  UNL     1      16.330  13.985  67.166  1.00  0.00     0.167 HD
HETATM   22  N4  UNL     1      15.960  15.999  64.684  1.00  0.00    -0.302 N 
HETATM   23  C10 UNL     1      17.163  15.940  64.120  1.00  0.00     0.272 A 
ATOM     24  H4  UNL     1      15.260  16.604  64.254  1.00  0.00     0.171 HD
HETATM   25  O4  UNL     1      17.482  16.592  63.082  1.00  0.00    -0.266 OA
BRANCH  20  26
HETATM   26  S2  UNL     1      13.974  15.433  66.499  1.00  0.00    -0.090 SA
BRANCH  26  27
HETATM   27  C7  UNL     1      12.739  15.880  65.278  1.00  0.00     0.047 C 
HETATM   28  C8  UNL     1      13.153  15.329  63.926  1.00  0.00     0.021 C 
HETATM   29  C9  UNL     1      11.407  15.247  65.636  1.00  0.00     0.021 C 
ENDBRANCH  26  27
ENDBRANCH  20  26
ENDBRANCH   1  17
TORSDOF 5
ENDMDL
