MODEL 1
REMARK VINA RESULT: -7.910691479      0.000      0.000
REMARK  4 active torsions:
REMARK  status: ('A' for Active; 'I' for Inactive)
REMARK    1  A    between atoms: O1_2  and  C2_3 
REMARK    2  A    between atoms: C2_3  and  C3_5 
REMARK    3  A    between atoms: C3_5  and  C5_8 
REMARK    4  A    between atoms: C5_8  and  C6_10 
ROOT
HETATM    1  C3  UNL     1      25.532  24.381  13.582  1.00  0.00     0.266 C 
HETATM    2  C4  UNL     1      26.681  23.791  14.257  1.00  0.00     0.082 C 
HETATM    3  N1  UNL     1      27.589  23.323  14.789  1.00  0.00    -0.196 NA
ENDROOT
BRANCH   1   4
HETATM    4  C2  UNL     1      25.680  24.222  12.112  1.00  0.00     0.284 C 
HETATM    5  O2  UNL     1      26.736  23.743  11.631  1.00  0.00    -0.263 OA
BRANCH   4   6
HETATM    6  O1  UNL     1      24.687  24.578  11.220  1.00  0.00    -0.325 OA
HETATM    7  C1  UNL     1      23.300  24.408  11.487  1.00  0.00     0.213 C 
ENDBRANCH   4   6
ENDBRANCH   1   4
BRANCH   1   8
HETATM    8  C5  UNL     1      25.365  25.784  13.911  1.00  0.00     0.186 C 
HETATM    9  O3  UNL     1      26.415  26.519  13.710  1.00  0.00    -0.290 OA
BRANCH   8  10
HETATM   10  C6  UNL     1      24.202  26.463  14.431  1.00  0.00     0.012 A 
HETATM   11  C7  UNL     1      23.689  27.600  13.849  1.00  0.00     0.015 A 
HETATM   12  C8  UNL     1      22.569  28.242  14.343  1.00  0.00     0.001 A 
HETATM   13  C9  UNL     1      21.915  27.757  15.452  1.00  0.00     0.000 A 
HETATM   14  C10 UNL     1      22.411  26.622  16.046  1.00  0.00     0.001 A 
HETATM   15  C11 UNL     1      23.548  25.987  15.530  1.00  0.00     0.015 A 
ENDBRANCH   8  10
ENDBRANCH   1   8
TORSDOF 4
ENDMDL
MODEL 2
REMARK VINA RESULT: -7.901482582      0.024      1.211
REMARK  4 active torsions:
REMARK  status: ('A' for Active; 'I' for Inactive)
REMARK    1  A    between atoms: O1_2  and  C2_3 
REMARK    2  A    between atoms: C2_3  and  C3_5 
REMARK    3  A    between atoms: C3_5  and  C5_8 
REMARK    4  A    between atoms: C5_8  and  C6_10 
ROOT
HETATM    1  C3  UNL     1      25.524  24.376  13.584  1.00  0.00     0.266 C 
HETATM    2  C4  UNL     1      26.675  23.792  14.261  1.00  0.00     0.082 C 
HETATM    3  N1  UNL     1      27.583  23.327  14.794  1.00  0.00    -0.196 NA
ENDROOT
BRANCH   1   4
HETATM    4  C2  UNL     1      25.676  24.221  12.114  1.00  0.00     0.284 C 
HETATM    5  O2  UNL     1      26.734  23.743  11.636  1.00  0.00    -0.263 OA
BRANCH   4   6
HETATM    6  O1  UNL     1      24.686  24.580  11.220  1.00  0.00    -0.325 OA
HETATM    7  C1  UNL     1      23.299  24.417  11.486  1.00  0.00     0.213 C 
ENDBRANCH   4   6
ENDBRANCH   1   4
BRANCH   1   8
HETATM    8  C5  UNL     1      25.349  25.778  13.916  1.00  0.00     0.186 C 
HETATM    9  O3  UNL     1      26.391  26.521  13.708  1.00  0.00    -0.290 OA
BRANCH   8  10
HETATM   10  C6  UNL     1      24.184  26.448  14.444  1.00  0.00     0.012 A 
HETATM   11  C7  UNL     1      23.525  26.005  15.569  1.00  0.00     0.015 A 
HETATM   12  C8  UNL     1      22.415  26.654  16.078  1.00  0.00     0.001 A 
HETATM   13  C9  UNL     1      21.924  27.786  15.468  1.00  0.00     0.000 A 
HETATM   14  C10 UNL     1      22.569  28.243  14.345  1.00  0.00     0.001 A 
HETATM   15  C11 UNL     1      23.692  27.570  13.845  1.00  0.00     0.015 A 
ENDBRANCH   8  10
ENDBRANCH   1   8
TORSDOF 4
ENDMDL
MODEL 3
REMARK VINA RESULT: -7.780684547      1.761      2.448
REMARK  4 active torsions:
REMARK  status: ('A' for Active; 'I' for Inactive)
REMARK    1  A    between atoms: O1_2  and  C2_3 
REMARK    2  A    between atoms: C2_3  and  C3_5 
REMARK    3  A    between atoms: C3_5  and  C5_8 
REMARK    4  A    between atoms: C5_8  and  C6_10 
ROOT
HETATM    1  C3  UNL     1      24.998  24.760  13.107  1.00  0.00     0.266 C 
HETATM    2  C4  UNL     1      25.772  24.661  11.876  1.00  0.00     0.082 C 
HETATM    3  N1  UNL     1      26.383  24.580  10.904  1.00  0.00    -0.196 NA
ENDROOT
BRANCH   1   4
HETATM    4  C2  UNL     1      23.598  24.332  12.853  1.00  0.00     0.284 C 
HETATM    5  O2  UNL     1      23.053  24.579  11.750  1.00  0.00    -0.263 OA
BRANCH   4   6
HETATM    6  O1  UNL     1      22.843  23.654  13.792  1.00  0.00    -0.325 OA
HETATM    7  C1  UNL     1      21.548  24.075  14.201  1.00  0.00     0.213 C 
ENDBRANCH   4   6
ENDBRANCH   1   4
BRANCH   1   8
HETATM    8  C5  UNL     1      25.012  26.103  13.655  1.00  0.00     0.186 C 
HETATM    9  O3  UNL     1      26.141  26.730  13.533  1.00  0.00    -0.290 OA
BRANCH   8  10
HETATM   10  C6  UNL     1      23.949  26.826  14.314  1.00  0.00     0.012 A 
HETATM   11  C7  UNL     1      23.599  26.590  15.625  1.00  0.00     0.015 A 
HETATM   12  C8  UNL     1      22.587  27.290  16.256  1.00  0.00     0.001 A 
HETATM   13  C9  UNL     1      21.886  28.266  15.585  1.00  0.00     0.000 A 
HETATM   14  C10 UNL     1      22.222  28.516  14.277  1.00  0.00     0.001 A 
HETATM   15  C11 UNL     1      23.250  27.794  13.655  1.00  0.00     0.015 A 
ENDBRANCH   8  10
ENDBRANCH   1   8
TORSDOF 4
ENDMDL
MODEL 4
REMARK VINA RESULT: -7.775037469      1.761      2.144
REMARK  4 active torsions:
REMARK  status: ('A' for Active; 'I' for Inactive)
REMARK    1  A    between atoms: O1_2  and  C2_3 
REMARK    2  A    between atoms: C2_3  and  C3_5 
REMARK    3  A    between atoms: C3_5  and  C5_8 
REMARK    4  A    between atoms: C5_8  and  C6_10 
ROOT
HETATM    1  C3  UNL     1      24.996  24.765  13.109  1.00  0.00     0.266 C 
HETATM    2  C4  UNL     1      25.770  24.660  11.879  1.00  0.00     0.082 C 
HETATM    3  N1  UNL     1      26.382  24.575  10.907  1.00  0.00    -0.196 NA
ENDROOT
BRANCH   1   4
HETATM    4  C2  UNL     1      23.593  24.345  12.854  1.00  0.00     0.284 C 
HETATM    5  O2  UNL     1      23.049  24.598  11.752  1.00  0.00    -0.263 OA
BRANCH   4   6
HETATM    6  O1  UNL     1      22.835  23.667  13.790  1.00  0.00    -0.325 OA
HETATM    7  C1  UNL     1      21.537  24.086  14.192  1.00  0.00     0.213 C 
ENDBRANCH   4   6
ENDBRANCH   1   4
BRANCH   1   8
HETATM    8  C5  UNL     1      25.016  26.109  13.656  1.00  0.00     0.186 C 
HETATM    9  O3  UNL     1      26.151  26.726  13.541  1.00  0.00    -0.290 OA
BRANCH   8  10
HETATM   10  C6  UNL     1      23.955  26.841  14.305  1.00  0.00     0.012 A 
HETATM   11  C7  UNL     1      23.226  27.814  13.659  1.00  0.00     0.015 A 
HETATM   12  C8  UNL     1      22.204  28.507  14.282  1.00  0.00     0.001 A 
HETATM   13  C9  UNL     1      21.874  28.242  15.591  1.00  0.00     0.000 A 
HETATM   14  C10 UNL     1      22.590  27.274  16.252  1.00  0.00     0.001 A 
HETATM   15  C11 UNL     1      23.623  26.584  15.603  1.00  0.00     0.015 A 
ENDBRANCH   8  10
ENDBRANCH   1   8
TORSDOF 4
ENDMDL
MODEL 5
REMARK VINA RESULT: -7.562899340      1.745      2.732
REMARK  4 active torsions:
REMARK  status: ('A' for Active; 'I' for Inactive)
REMARK    1  A    between atoms: O1_2  and  C2_3 
REMARK    2  A    between atoms: C2_3  and  C3_5 
REMARK    3  A    between atoms: C3_5  and  C5_8 
REMARK    4  A    between atoms: C5_8  and  C6_10 
ROOT
HETATM    1  C3  UNL     1      25.294  25.378  12.160  1.00  0.00     0.266 C 
HETATM    2  C4  UNL     1      23.978  24.892  11.764  1.00  0.00     0.082 C 
HETATM    3  N1  UNL     1      22.940  24.507  11.449  1.00  0.00    -0.196 NA
ENDROOT
BRANCH   1   4
HETATM    4  C2  UNL     1      26.138  24.236  12.598  1.00  0.00     0.284 C 
HETATM    5  O2  UNL     1      26.928  23.689  11.790  1.00  0.00    -0.263 OA
BRANCH   4   6
HETATM    6  O1  UNL     1      26.101  23.730  13.883  1.00  0.00    -0.325 OA
HETATM    7  C1  UNL     1      27.178  23.861  14.803  1.00  0.00     0.213 C 
ENDBRANCH   4   6
ENDBRANCH   1   4
BRANCH   1   8
HETATM    8  C5  UNL     1      25.216  26.367  13.219  1.00  0.00     0.186 C 
HETATM    9  O3  UNL     1      26.321  27.005  13.450  1.00  0.00    -0.290 OA
BRANCH   8  10
HETATM   10  C6  UNL     1      24.087  26.728  14.043  1.00  0.00     0.012 A 
HETATM   11  C7  UNL     1      23.690  25.974  15.125  1.00  0.00     0.015 A 
HETATM   12  C8  UNL     1      22.614  26.328  15.917  1.00  0.00     0.001 A 
HETATM   13  C9  UNL     1      21.890  27.467  15.649  1.00  0.00     0.000 A 
HETATM   14  C10 UNL     1      22.271  28.233  14.574  1.00  0.00     0.001 A 
HETATM   15  C11 UNL     1      23.365  27.856  13.782  1.00  0.00     0.015 A 
ENDBRANCH   8  10
ENDBRANCH   1   8
TORSDOF 4
ENDMDL
