MODEL 1
REMARK VINA RESULT: -6.990160356      0.000      0.000
REMARK  5 active torsions:
REMARK  status: ('A' for Active; 'I' for Inactive)
REMARK    1  A    between atoms: O1_2  and  C2_3 
REMARK    2  A    between atoms: C3_5  and  C5_7 
REMARK    3  A    between atoms: C5_7  and  O3_9 
REMARK    4  A    between atoms: C5_7  and  C9_13 
REMARK    5  A    between atoms: O3_9  and  C7_10 
ROOT
HETATM    1  C5  UNL     1      24.813  25.074  12.884  1.00  0.00     0.105 C 
HETATM    2  C6  UNL     1      25.421  24.067  12.003  1.00  0.00     0.050 C 
ENDROOT
BRANCH   1   3
HETATM    3  C3  UNL     1      23.255  24.791  12.830  1.00  0.00     0.141 A 
HETATM    4  C2  UNL     1      22.463  24.859  13.966  1.00  0.00     0.297 A 
HETATM    5  O2  UNL     1      23.122  23.531  13.693  1.00  0.00    -0.339 OA
HETATM    6  C4  UNL     1      22.726  24.352  11.498  1.00  0.00     0.054 C 
BRANCH   4   7
HETATM    7  O1  UNL     1      22.813  25.231  15.237  1.00  0.00    -0.363 OA
HETATM    8  C1  UNL     1      22.023  26.304  15.630  1.00  0.00     0.204 C 
ENDBRANCH   4   7
ENDBRANCH   1   3
BRANCH   1   9
HETATM    9  O3  UNL     1      25.108  24.919  14.259  1.00  0.00    -0.307 OA
BRANCH   9  10
HETATM   10  C7  UNL     1      26.167  24.385  14.875  1.00  0.00     0.255 C 
HETATM   11  C8  UNL     1      26.100  23.217  15.815  1.00  0.00     0.126 C 
HETATM   12  O4  UNL     1      27.307  24.846  14.693  1.00  0.00    -0.266 OA
ENDBRANCH   9  10
ENDBRANCH   1   9
BRANCH   1  13
HETATM   13  C9  UNL     1      24.914  26.506  12.495  1.00  0.00     0.016 C 
HETATM   14  C10 UNL     1      25.141  27.498  13.620  1.00  0.00     0.012 C 
HETATM   15  C11 UNL     1      25.790  26.864  11.335  1.00  0.00     0.012 C 
ENDBRANCH   1  13
TORSDOF 5
ENDMDL
MODEL 2
REMARK VINA RESULT: -6.501461034      1.642      3.154
REMARK  5 active torsions:
REMARK  status: ('A' for Active; 'I' for Inactive)
REMARK    1  A    between atoms: O1_2  and  C2_3 
REMARK    2  A    between atoms: C3_5  and  C5_7 
REMARK    3  A    between atoms: C5_7  and  O3_9 
REMARK    4  A    between atoms: C5_7  and  C9_13 
REMARK    5  A    between atoms: O3_9  and  C7_10 
ROOT
HETATM    1  C5  UNL     1      23.702  25.073  13.694  1.00  0.00     0.105 C 
HETATM    2  C6  UNL     1      24.614  24.671  14.774  1.00  0.00     0.050 C 
ENDROOT
BRANCH   1   3
HETATM    3  C3  UNL     1      22.276  25.198  14.375  1.00  0.00     0.141 A 
HETATM    4  C2  UNL     1      21.845  26.384  14.948  1.00  0.00     0.297 A 
HETATM    5  O2  UNL     1      22.637  25.463  15.840  1.00  0.00    -0.339 OA
HETATM    6  C4  UNL     1      21.481  23.928  14.441  1.00  0.00     0.054 C 
BRANCH   4   7
HETATM    7  O1  UNL     1      22.467  27.604  14.971  1.00  0.00    -0.363 OA
HETATM    8  C1  UNL     1      22.986  27.824  16.241  1.00  0.00     0.204 C 
ENDBRANCH   4   7
ENDBRANCH   1   3
BRANCH   1   9
HETATM    9  O3  UNL     1      23.917  26.375  13.187  1.00  0.00    -0.307 OA
BRANCH   9  10
HETATM   10  C7  UNL     1      25.042  27.004  12.830  1.00  0.00     0.255 C 
HETATM   11  C8  UNL     1      25.736  26.812  11.513  1.00  0.00     0.126 C 
HETATM   12  O4  UNL     1      25.590  27.812  13.599  1.00  0.00    -0.266 OA
ENDBRANCH   9  10
ENDBRANCH   1   9
BRANCH   1  13
HETATM   13  C9  UNL     1      23.465  24.119  12.578  1.00  0.00     0.016 C 
HETATM   14  C10 UNL     1      22.674  24.645  11.395  1.00  0.00     0.012 C 
HETATM   15  C11 UNL     1      24.622  23.311  12.079  1.00  0.00     0.012 C 
ENDBRANCH   1  13
TORSDOF 5
ENDMDL
MODEL 3
REMARK VINA RESULT: -6.421623671      1.570      2.473
REMARK  5 active torsions:
REMARK  status: ('A' for Active; 'I' for Inactive)
REMARK    1  A    between atoms: O1_2  and  C2_3 
REMARK    2  A    between atoms: C3_5  and  C5_7 
REMARK    3  A    between atoms: C5_7  and  O3_9 
REMARK    4  A    between atoms: C5_7  and  C9_13 
REMARK    5  A    between atoms: O3_9  and  C7_10 
ROOT
HETATM    1  C5  UNL     1      24.430  25.548  13.084  1.00  0.00     0.105 C 
HETATM    2  C6  UNL     1      25.050  24.899  14.248  1.00  0.00     0.050 C 
ENDROOT
BRANCH   1   3
HETATM    3  C3  UNL     1      23.076  24.763  12.839  1.00  0.00     0.141 A 
HETATM    4  C2  UNL     1      22.251  24.388  13.889  1.00  0.00     0.297 A 
HETATM    5  O2  UNL     1      23.348  23.420  13.524  1.00  0.00    -0.339 OA
HETATM    6  C4  UNL     1      22.806  24.374  11.416  1.00  0.00     0.054 C 
BRANCH   4   7
HETATM    7  O1  UNL     1      22.381  24.663  15.224  1.00  0.00    -0.363 OA
HETATM    8  C1  UNL     1      21.291  25.417  15.640  1.00  0.00     0.204 C 
ENDBRANCH   4   7
ENDBRANCH   1   3
BRANCH   1   9
HETATM    9  O3  UNL     1      23.985  26.871  13.307  1.00  0.00    -0.307 OA
BRANCH   9  10
HETATM   10  C7  UNL     1      24.309  27.760  14.252  1.00  0.00     0.255 C 
HETATM   11  C8  UNL     1      23.460  28.069  15.450  1.00  0.00     0.126 C 
HETATM   12  O4  UNL     1      25.374  28.398  14.185  1.00  0.00    -0.266 OA
ENDBRANCH   9  10
ENDBRANCH   1   9
BRANCH   1  13
HETATM   13  C9  UNL     1      25.123  25.453  11.771  1.00  0.00     0.016 C 
HETATM   14  C10 UNL     1      25.624  26.755  11.176  1.00  0.00     0.012 C 
HETATM   15  C11 UNL     1      26.166  24.394  11.596  1.00  0.00     0.012 C 
ENDBRANCH   1  13
TORSDOF 5
ENDMDL
MODEL 4
REMARK VINA RESULT: -6.415791565      1.503      3.526
REMARK  5 active torsions:
REMARK  status: ('A' for Active; 'I' for Inactive)
REMARK    1  A    between atoms: O1_2  and  C2_3 
REMARK    2  A    between atoms: C3_5  and  C5_7 
REMARK    3  A    between atoms: C5_7  and  O3_9 
REMARK    4  A    between atoms: C5_7  and  C9_13 
REMARK    5  A    between atoms: O3_9  and  C7_10 
ROOT
HETATM    1  C5  UNL     1      23.699  25.556  14.814  1.00  0.00     0.105 C 
HETATM    2  C6  UNL     1      23.292  25.793  16.207  1.00  0.00     0.050 C 
ENDROOT
BRANCH   1   3
HETATM    3  C3  UNL     1      23.399  26.914  14.054  1.00  0.00     0.141 A 
HETATM    4  C2  UNL     1      24.308  27.465  13.164  1.00  0.00     0.297 A 
HETATM    5  O2  UNL     1      24.480  27.846  14.613  1.00  0.00    -0.339 OA
HETATM    6  C4  UNL     1      22.122  27.599  14.439  1.00  0.00     0.054 C 
BRANCH   4   7
HETATM    7  O1  UNL     1      25.505  26.959  12.734  1.00  0.00    -0.363 OA
HETATM    8  C1  UNL     1      25.447  26.760  11.360  1.00  0.00     0.204 C 
ENDBRANCH   4   7
ENDBRANCH   1   3
BRANCH   1   9
HETATM    9  O3  UNL     1      25.090  25.393  14.619  1.00  0.00    -0.307 OA
BRANCH   9  10
HETATM   10  C7  UNL     1      25.861  24.302  14.664  1.00  0.00     0.255 C 
HETATM   11  C8  UNL     1      25.983  23.402  15.858  1.00  0.00     0.126 C 
HETATM   12  O4  UNL     1      26.541  23.964  13.679  1.00  0.00    -0.266 OA
ENDBRANCH   9  10
ENDBRANCH   1   9
BRANCH   1  13
HETATM   13  C9  UNL     1      22.946  24.547  14.021  1.00  0.00     0.016 C 
HETATM   14  C10 UNL     1      21.543  24.224  14.497  1.00  0.00     0.012 C 
HETATM   15  C11 UNL     1      22.947  24.676  12.530  1.00  0.00     0.012 C 
ENDBRANCH   1  13
TORSDOF 5
ENDMDL
MODEL 5
REMARK VINA RESULT: -6.401803355      1.567      3.778
REMARK  5 active torsions:
REMARK  status: ('A' for Active; 'I' for Inactive)
REMARK    1  A    between atoms: O1_2  and  C2_3 
REMARK    2  A    between atoms: C3_5  and  C5_7 
REMARK    3  A    between atoms: C5_7  and  O3_9 
REMARK    4  A    between atoms: C5_7  and  C9_13 
REMARK    5  A    between atoms: O3_9  and  C7_10 
ROOT
HETATM    1  C5  UNL     1      23.527  25.743  14.542  1.00  0.00     0.105 C 
HETATM    2  C6  UNL     1      23.283  25.951  15.976  1.00  0.00     0.050 C 
ENDROOT
BRANCH   1   3
HETATM    3  C3  UNL     1      23.566  27.195  13.909  1.00  0.00     0.141 A 
HETATM    4  C2  UNL     1      24.604  27.602  13.085  1.00  0.00     0.297 A 
HETATM    5  O2  UNL     1      24.810  27.803  14.565  1.00  0.00    -0.339 OA
HETATM    6  C4  UNL     1      22.465  28.116  14.342  1.00  0.00     0.054 C 
BRANCH   4   7
HETATM    7  O1  UNL     1      25.670  26.877  12.623  1.00  0.00    -0.363 OA
HETATM    8  C1  UNL     1      25.534  26.693  11.253  1.00  0.00     0.204 C 
ENDBRANCH   4   7
ENDBRANCH   1   3
BRANCH   1   9
HETATM    9  O3  UNL     1      24.808  25.233  14.224  1.00  0.00    -0.307 OA
BRANCH   9  10
HETATM   10  C7  UNL     1      25.586  24.353  14.863  1.00  0.00     0.255 C 
HETATM   11  C8  UNL     1      27.086  24.378  14.839  1.00  0.00     0.126 C 
HETATM   12  O4  UNL     1      25.087  23.434  15.535  1.00  0.00    -0.266 OA
ENDBRANCH   9  10
ENDBRANCH   1   9
BRANCH   1  13
HETATM   13  C9  UNL     1      22.483  25.049  13.741  1.00  0.00     0.016 C 
HETATM   14  C10 UNL     1      22.937  24.427  12.434  1.00  0.00     0.012 C 
HETATM   15  C11 UNL     1      21.563  24.103  14.446  1.00  0.00     0.012 C 
ENDBRANCH   1  13
TORSDOF 5
ENDMDL
