MODEL 1
REMARK VINA RESULT: -6.656311107      0.000      0.000
REMARK  5 active torsions:
REMARK  status: ('A' for Active; 'I' for Inactive)
REMARK    1  A    between atoms: C2_2  and  S1_4 
REMARK    2  A    between atoms: S1_4  and  C4_5 
REMARK    3  A    between atoms: C4_5  and  C5_6 
REMARK    4  A    between atoms: C5_6  and  C6_7 
REMARK    5  A    between atoms: C6_7  and  O2_9 
REMARK       I    between atoms: N1_11  and  C8_13 
ROOT
HETATM    1  C4  UNL     1      24.959  26.409  13.917  1.00  0.00     0.062 C 
HETATM    2  N1  UNL     1      24.466  27.614  14.129  1.00  0.00    -0.325 N 
ATOM      3  H1  UNL     1      24.933  28.419  13.712  1.00  0.00     0.169 HD
HETATM    4  C8  UNL     1      23.310  27.824  14.916  1.00  0.00     0.218 C 
HETATM    5  C9  UNL     1      22.038  28.364  14.334  1.00  0.00     0.117 C 
HETATM    6  O3  UNL     1      23.391  27.533  16.142  1.00  0.00    -0.274 OA
ENDROOT
BRANCH   1   7
HETATM    7  S1  UNL     1      24.103  25.084  14.664  1.00  0.00    -0.082 SA
BRANCH   7   8
HETATM    8  C2  UNL     1      22.637  24.579  13.855  1.00  0.00    -0.029 C 
HETATM    9  C1  UNL     1      22.734  24.466  12.508  1.00  0.00     0.026 C 
HETATM   10  C3  UNL     1      21.311  24.267  14.489  1.00  0.00     0.055 C 
ENDBRANCH   7   8
ENDBRANCH   1   7
BRANCH   1  11
HETATM   11  C5  UNL     1      26.155  26.220  13.098  1.00  0.00     0.176 C 
BRANCH  11  12
HETATM   12  C6  UNL     1      25.802  26.223  11.633  1.00  0.00     0.264 C 
HETATM   13  O1  UNL     1      25.277  27.158  11.039  1.00  0.00    -0.265 OA
BRANCH  12  14
HETATM   14  O2  UNL     1      26.120  25.039  10.932  1.00  0.00    -0.326 OA
HETATM   15  C7  UNL     1      26.389  23.878  11.714  1.00  0.00     0.213 C 
ENDBRANCH  12  14
ENDBRANCH  11  12
ENDBRANCH   1  11
TORSDOF 5
ENDMDL
MODEL 2
REMARK VINA RESULT: -6.513369491      1.230      1.521
REMARK  5 active torsions:
REMARK  status: ('A' for Active; 'I' for Inactive)
REMARK    1  A    between atoms: C2_2  and  S1_4 
REMARK    2  A    between atoms: S1_4  and  C4_5 
REMARK    3  A    between atoms: C4_5  and  C5_6 
REMARK    4  A    between atoms: C5_6  and  C6_7 
REMARK    5  A    between atoms: C6_7  and  O2_9 
REMARK       I    between atoms: N1_11  and  C8_13 
ROOT
HETATM    1  C4  UNL     1      23.835  25.921  13.135  1.00  0.00     0.062 C 
HETATM    2  N1  UNL     1      23.531  27.204  13.102  1.00  0.00    -0.325 N 
ATOM      3  H1  UNL     1      23.509  27.684  12.202  1.00  0.00     0.169 HD
HETATM    4  C8  UNL     1      23.234  27.935  14.275  1.00  0.00     0.218 C 
HETATM    5  C9  UNL     1      21.877  28.521  14.527  1.00  0.00     0.117 C 
HETATM    6  O3  UNL     1      24.168  28.077  15.113  1.00  0.00    -0.274 OA
ENDROOT
BRANCH   1   7
HETATM    7  S1  UNL     1      23.851  25.174  14.712  1.00  0.00    -0.082 SA
BRANCH   7   8
HETATM    8  C2  UNL     1      22.298  25.060  15.510  1.00  0.00    -0.029 C 
HETATM    9  C1  UNL     1      21.321  24.468  14.783  1.00  0.00     0.026 C 
HETATM   10  C3  UNL     1      21.950  25.543  16.889  1.00  0.00     0.055 C 
ENDBRANCH   7   8
ENDBRANCH   1   7
BRANCH   1  11
HETATM   11  C5  UNL     1      24.136  25.189  11.907  1.00  0.00     0.176 C 
BRANCH  11  12
HETATM   12  C6  UNL     1      25.395  25.717  11.267  1.00  0.00     0.264 C 
HETATM   13  O1  UNL     1      25.641  26.902  11.074  1.00  0.00    -0.265 OA
BRANCH  12  14
HETATM   14  O2  UNL     1      26.332  24.735  10.876  1.00  0.00    -0.326 OA
HETATM   15  C7  UNL     1      26.669  23.743  11.842  1.00  0.00     0.213 C 
ENDBRANCH  12  14
ENDBRANCH  11  12
ENDBRANCH   1  11
TORSDOF 5
ENDMDL
MODEL 3
REMARK VINA RESULT: -6.263118393      1.572      2.218
REMARK  5 active torsions:
REMARK  status: ('A' for Active; 'I' for Inactive)
REMARK    1  A    between atoms: C2_2  and  S1_4 
REMARK    2  A    between atoms: S1_4  and  C4_5 
REMARK    3  A    between atoms: C4_5  and  C5_6 
REMARK    4  A    between atoms: C5_6  and  C6_7 
REMARK    5  A    between atoms: C6_7  and  O2_9 
REMARK       I    between atoms: N1_11  and  C8_13 
ROOT
HETATM    1  C4  UNL     1      23.748  25.759  13.194  1.00  0.00     0.062 C 
HETATM    2  N1  UNL     1      23.345  27.009  13.309  1.00  0.00    -0.325 N 
ATOM      3  H1  UNL     1      23.222  27.568  12.465  1.00  0.00     0.169 HD
HETATM    4  C8  UNL     1      23.077  27.599  14.566  1.00  0.00     0.218 C 
HETATM    5  C9  UNL     1      21.701  28.043  14.960  1.00  0.00     0.117 C 
HETATM    6  O3  UNL     1      24.054  27.738  15.353  1.00  0.00    -0.274 OA
ENDROOT
BRANCH   1   7
HETATM    7  S1  UNL     1      23.933  24.870  14.685  1.00  0.00    -0.082 SA
BRANCH   7   8
HETATM    8  C2  UNL     1      25.566  24.377  15.074  1.00  0.00    -0.029 C 
HETATM    9  C1  UNL     1      26.542  25.140  14.525  1.00  0.00     0.026 C 
HETATM   10  C3  UNL     1      25.983  23.218  15.933  1.00  0.00     0.055 C 
ENDBRANCH   7   8
ENDBRANCH   1   7
BRANCH   1  11
HETATM   11  C5  UNL     1      24.016  25.173  11.882  1.00  0.00     0.176 C 
BRANCH  11  12
HETATM   12  C6  UNL     1      25.268  25.761  11.283  1.00  0.00     0.264 C 
HETATM   13  O1  UNL     1      25.514  26.959  11.207  1.00  0.00    -0.265 OA
BRANCH  12  14
HETATM   14  O2  UNL     1      26.198  24.822  10.784  1.00  0.00    -0.326 OA
HETATM   15  C7  UNL     1      26.492  23.701  11.614  1.00  0.00     0.213 C 
ENDBRANCH  12  14
ENDBRANCH  11  12
ENDBRANCH   1  11
TORSDOF 5
ENDMDL
MODEL 4
REMARK VINA RESULT: -6.151904385      1.835      2.715
REMARK  5 active torsions:
REMARK  status: ('A' for Active; 'I' for Inactive)
REMARK    1  A    between atoms: C2_2  and  S1_4 
REMARK    2  A    between atoms: S1_4  and  C4_5 
REMARK    3  A    between atoms: C4_5  and  C5_6 
REMARK    4  A    between atoms: C5_6  and  C6_7 
REMARK    5  A    between atoms: C6_7  and  O2_9 
REMARK       I    between atoms: N1_11  and  C8_13 
ROOT
HETATM    1  C4  UNL     1      24.922  26.659  12.782  1.00  0.00     0.062 C 
HETATM    2  N1  UNL     1      23.862  27.319  13.210  1.00  0.00    -0.325 N 
ATOM      3  H1  UNL     1      23.137  27.575  12.540  1.00  0.00     0.169 HD
HETATM    4  C8  UNL     1      23.701  27.681  14.567  1.00  0.00     0.218 C 
HETATM    5  C9  UNL     1      22.602  27.116  15.416  1.00  0.00     0.117 C 
HETATM    6  O3  UNL     1      24.528  28.507  15.041  1.00  0.00    -0.274 OA
ENDROOT
BRANCH   1   7
HETATM    7  S1  UNL     1      26.117  26.258  13.989  1.00  0.00    -0.082 SA
BRANCH   7   8
HETATM    8  C2  UNL     1      26.026  24.634  14.633  1.00  0.00    -0.029 C 
HETATM    9  C1  UNL     1      24.780  24.215  14.960  1.00  0.00     0.026 C 
HETATM   10  C3  UNL     1      27.166  23.683  14.858  1.00  0.00     0.055 C 
ENDBRANCH   7   8
ENDBRANCH   1   7
BRANCH   1  11
HETATM   11  C5  UNL     1      25.063  26.296  11.374  1.00  0.00     0.176 C 
BRANCH  11  12
HETATM   12  C6  UNL     1      25.466  24.850  11.235  1.00  0.00     0.264 C 
HETATM   13  O1  UNL     1      26.571  24.461  10.875  1.00  0.00    -0.265 OA
BRANCH  12  14
HETATM   14  O2  UNL     1      24.462  23.909  11.555  1.00  0.00    -0.326 OA
HETATM   15  C7  UNL     1      23.110  24.348  11.454  1.00  0.00     0.213 C 
ENDBRANCH  12  14
ENDBRANCH  11  12
ENDBRANCH   1  11
TORSDOF 5
ENDMDL
MODEL 5
REMARK VINA RESULT: -6.024263272      1.786      2.893
REMARK  5 active torsions:
REMARK  status: ('A' for Active; 'I' for Inactive)
REMARK    1  A    between atoms: C2_2  and  S1_4 
REMARK    2  A    between atoms: S1_4  and  C4_5 
REMARK    3  A    between atoms: C4_5  and  C5_6 
REMARK    4  A    between atoms: C5_6  and  C6_7 
REMARK    5  A    between atoms: C6_7  and  O2_9 
REMARK       I    between atoms: N1_11  and  C8_13 
ROOT
HETATM    1  C4  UNL     1      23.345  25.326  13.699  1.00  0.00     0.062 C 
HETATM    2  N1  UNL     1      22.890  26.556  13.556  1.00  0.00    -0.325 N 
ATOM      3  H1  UNL     1      22.470  26.828  12.667  1.00  0.00     0.169 HD
HETATM    4  C8  UNL     1      22.966  27.509  14.598  1.00  0.00     0.218 C 
HETATM    5  C9  UNL     1      21.741  28.071  15.254  1.00  0.00     0.117 C 
HETATM    6  O3  UNL     1      24.120  27.872  14.958  1.00  0.00    -0.274 OA
ENDROOT
BRANCH   1   7
HETATM    7  S1  UNL     1      24.048  24.940  15.249  1.00  0.00    -0.082 SA
BRANCH   7   8
HETATM    8  C2  UNL     1      25.674  24.296  15.202  1.00  0.00    -0.029 C 
HETATM    9  C1  UNL     1      25.881  23.203  15.976  1.00  0.00     0.026 C 
HETATM   10  C3  UNL     1      26.837  24.823  14.411  1.00  0.00     0.055 C 
ENDBRANCH   7   8
ENDBRANCH   1   7
BRANCH   1  11
HETATM   11  C5  UNL     1      23.252  24.360  12.606  1.00  0.00     0.176 C 
BRANCH  11  12
HETATM   12  C6  UNL     1      24.449  24.468  11.696  1.00  0.00     0.264 C 
HETATM   13  O1  UNL     1      25.267  23.576  11.502  1.00  0.00    -0.265 OA
BRANCH  12  14
HETATM   14  O2  UNL     1      24.599  25.710  11.040  1.00  0.00    -0.326 OA
HETATM   15  C7  UNL     1      25.747  26.484  11.376  1.00  0.00     0.213 C 
ENDBRANCH  12  14
ENDBRANCH  11  12
ENDBRANCH   1  11
TORSDOF 5
ENDMDL
