MODEL 1
REMARK VINA RESULT: -6.976558748      0.000      0.000
REMARK  4 active torsions:
REMARK  status: ('A' for Active; 'I' for Inactive)
REMARK    1  A    between atoms: N1_1  and  N2_4 
REMARK    2  A    between atoms: N3_6  and  O1_8 
REMARK    3  A    between atoms: O1_8  and  S1_9 
REMARK    4  A    between atoms: S1_9  and  C1_12 
ROOT
HETATM    1  S1  UNL     1      24.884  25.830  13.908  1.00  0.00     0.291 S 
HETATM    2  O2  UNL     1      25.108  24.669  14.826  1.00  0.00    -0.196 OA
HETATM    3  O3  UNL     1      26.262  26.337  13.523  1.00  0.00    -0.196 OA
ENDROOT
BRANCH   1   4
HETATM    4  O1  UNL     1      24.076  25.295  12.505  1.00  0.00    -0.134 OA
BRANCH   4   5
HETATM    5  N3  UNL     1      24.653  24.291  11.765  1.00  0.00    -0.176 N 
HETATM    6  N2  UNL     1      25.887  24.160  11.763  1.00  0.00    -0.229 N 
ATOM      7  H2  UNL     1      26.209  25.088  11.487  1.00  0.00     0.209 HD
ATOM      8  H3  UNL     1      24.070  23.657  11.220  1.00  0.00     0.218 HD
BRANCH   6   9
HETATM    9  N1  UNL     1      26.949  23.536  11.907  1.00  0.00    -0.329 N 
ATOM     10  H12 UNL     1      26.712  22.966  12.720  1.00  0.00     0.178 HD
ATOM     11  H11 UNL     1      27.908  23.281  11.672  1.00  0.00     0.178 HD
ENDBRANCH   6   9
ENDBRANCH   4   5
ENDBRANCH   1   4
BRANCH   1  12
HETATM   12  C1  UNL     1      24.055  27.122  14.712  1.00  0.00     0.143 C 
HETATM   13  C2  UNL     1      23.038  27.870  13.874  1.00  0.00     0.027 C 
HETATM   14  C3  UNL     1      21.996  28.349  14.854  1.00  0.00    -0.013 C 
HETATM   15  C4  UNL     1      21.000  27.214  15.000  1.00  0.00     0.005 C 
HETATM   16  C7  UNL     1      22.715  28.196  16.207  1.00  0.00     0.010 C 
HETATM   17  C5  UNL     1      21.922  26.119  15.561  1.00  0.00     0.006 C 
HETATM   18  C6  UNL     1      23.224  26.761  15.897  1.00  0.00     0.007 C 
ENDBRANCH   1  12
TORSDOF 4
ENDMDL
MODEL 2
REMARK VINA RESULT: -6.967888065      1.952      2.688
REMARK  4 active torsions:
REMARK  status: ('A' for Active; 'I' for Inactive)
REMARK    1  A    between atoms: N1_1  and  N2_4 
REMARK    2  A    between atoms: N3_6  and  O1_8 
REMARK    3  A    between atoms: O1_8  and  S1_9 
REMARK    4  A    between atoms: S1_9  and  C1_12 
ROOT
HETATM    1  S1  UNL     1      24.732  24.972  11.845  1.00  0.00     0.291 S 
HETATM    2  O2  UNL     1      25.451  26.064  11.115  1.00  0.00    -0.196 OA
HETATM    3  O3  UNL     1      23.415  24.772  11.118  1.00  0.00    -0.196 OA
ENDROOT
BRANCH   1   4
HETATM    4  O1  UNL     1      25.645  23.534  11.752  1.00  0.00    -0.134 OA
BRANCH   4   5
HETATM    5  N3  UNL     1      26.949  23.563  12.183  1.00  0.00    -0.176 N 
HETATM    6  N2  UNL     1      27.195  23.645  13.396  1.00  0.00    -0.229 N 
ATOM      7  H2  UNL     1      26.670  24.475  13.674  1.00  0.00     0.209 HD
ATOM      8  H3  UNL     1      27.712  23.517  11.508  1.00  0.00     0.218 HD
BRANCH   6   9
HETATM    9  N1  UNL     1      27.719  23.287  14.461  1.00  0.00    -0.329 N 
ATOM     10  H12 UNL     1      27.683  22.274  14.346  1.00  0.00     0.178 HD
ATOM     11  H11 UNL     1      28.157  23.437  15.370  1.00  0.00     0.178 HD
ENDBRANCH   6   9
ENDBRANCH   4   5
ENDBRANCH   1   4
BRANCH   1  12
HETATM   12  C1  UNL     1      24.368  25.435  13.475  1.00  0.00     0.143 C 
HETATM   13  C2  UNL     1      23.325  26.524  13.630  1.00  0.00     0.027 C 
HETATM   14  C3  UNL     1      22.657  26.244  14.953  1.00  0.00    -0.013 C 
HETATM   15  C4  UNL     1      21.543  25.257  14.663  1.00  0.00     0.005 C 
HETATM   16  C7  UNL     1      23.648  25.278  15.629  1.00  0.00     0.010 C 
HETATM   17  C5  UNL     1      22.365  24.076  14.123  1.00  0.00     0.006 C 
HETATM   18  C6  UNL     1      23.803  24.383  14.369  1.00  0.00     0.007 C 
ENDBRANCH   1  12
TORSDOF 4
ENDMDL
MODEL 3
REMARK VINA RESULT: -6.862080056      1.176      2.377
REMARK  4 active torsions:
REMARK  status: ('A' for Active; 'I' for Inactive)
REMARK    1  A    between atoms: N1_1  and  N2_4 
REMARK    2  A    between atoms: N3_6  and  O1_8 
REMARK    3  A    between atoms: O1_8  and  S1_9 
REMARK    4  A    between atoms: S1_9  and  C1_12 
ROOT
HETATM    1  S1  UNL     1      24.111  25.048  13.614  1.00  0.00     0.291 S 
HETATM    2  O2  UNL     1      24.606  25.741  12.382  1.00  0.00    -0.196 OA
HETATM    3  O3  UNL     1      23.573  23.704  13.157  1.00  0.00    -0.196 OA
ENDROOT
BRANCH   1   4
HETATM    4  O1  UNL     1      25.416  24.792  14.682  1.00  0.00    -0.134 OA
BRANCH   4   5
HETATM    5  N3  UNL     1      26.590  24.297  14.167  1.00  0.00    -0.176 N 
HETATM    6  N2  UNL     1      26.593  23.759  13.049  1.00  0.00    -0.229 N 
ATOM      7  H2  UNL     1      25.872  23.043  13.145  1.00  0.00     0.209 HD
ATOM      8  H3  UNL     1      27.455  24.372  14.702  1.00  0.00     0.218 HD
BRANCH   6   9
HETATM    9  N1  UNL     1      26.979  23.601  11.881  1.00  0.00    -0.329 N 
ATOM     10  H12 UNL     1      26.733  22.621  11.743  1.00  0.00     0.178 HD
ATOM     11  H11 UNL     1      27.397  23.898  11.000  1.00  0.00     0.178 HD
ENDBRANCH   6   9
ENDBRANCH   4   5
ENDBRANCH   1   4
BRANCH   1  12
HETATM   12  C1  UNL     1      22.803  25.918  14.345  1.00  0.00     0.143 C 
HETATM   13  C2  UNL     1      22.734  25.850  15.857  1.00  0.00     0.027 C 
HETATM   14  C3  UNL     1      22.100  27.151  16.282  1.00  0.00    -0.013 C 
HETATM   15  C4  UNL     1      23.234  28.152  16.405  1.00  0.00     0.005 C 
HETATM   16  C7  UNL     1      21.484  27.666  14.967  1.00  0.00     0.010 C 
HETATM   17  C5  UNL     1      23.747  28.156  14.956  1.00  0.00     0.006 C 
HETATM   18  C6  UNL     1      22.766  27.393  14.133  1.00  0.00     0.007 C 
ENDBRANCH   1  12
TORSDOF 4
ENDMDL
MODEL 4
REMARK VINA RESULT: -6.802608423      0.954      1.744
REMARK  4 active torsions:
REMARK  status: ('A' for Active; 'I' for Inactive)
REMARK    1  A    between atoms: N1_1  and  N2_4 
REMARK    2  A    between atoms: N3_6  and  O1_8 
REMARK    3  A    between atoms: O1_8  and  S1_9 
REMARK    4  A    between atoms: S1_9  and  C1_12 
ROOT
HETATM    1  S1  UNL     1      24.170  25.559  13.179  1.00  0.00     0.291 S 
HETATM    2  O2  UNL     1      25.151  25.084  14.205  1.00  0.00    -0.196 OA
HETATM    3  O3  UNL     1      24.922  26.534  12.293  1.00  0.00    -0.196 OA
ENDROOT
BRANCH   1   4
HETATM    4  O1  UNL     1      23.652  24.235  12.236  1.00  0.00    -0.134 OA
BRANCH   4   5
HETATM    5  N3  UNL     1      24.603  23.366  11.758  1.00  0.00    -0.176 N 
HETATM    6  N2  UNL     1      25.798  23.701  11.758  1.00  0.00    -0.229 N 
ATOM      7  H2  UNL     1      25.781  24.585  11.250  1.00  0.00     0.209 HD
ATOM      8  H3  UNL     1      24.327  22.450  11.404  1.00  0.00     0.218 HD
BRANCH   6   9
HETATM    9  N1  UNL     1      27.000  23.565  12.028  1.00  0.00    -0.329 N 
ATOM     10  H12 UNL     1      27.175  22.652  11.609  1.00  0.00     0.178 HD
ATOM     11  H11 UNL     1      27.894  23.851  12.428  1.00  0.00     0.178 HD
ENDBRANCH   6   9
ENDBRANCH   4   5
ENDBRANCH   1   4
BRANCH   1  12
HETATM   12  C1  UNL     1      22.856  26.420  13.911  1.00  0.00     0.143 C 
HETATM   13  C2  UNL     1      22.510  26.007  15.328  1.00  0.00     0.027 C 
HETATM   14  C3  UNL     1      21.960  27.252  15.977  1.00  0.00    -0.013 C 
HETATM   15  C4  UNL     1      23.157  28.010  16.519  1.00  0.00     0.005 C 
HETATM   16  C7  UNL     1      21.650  28.151  14.766  1.00  0.00     0.010 C 
HETATM   17  C5  UNL     1      23.918  28.279  15.211  1.00  0.00     0.006 C 
HETATM   18  C6  UNL     1      23.022  27.892  14.085  1.00  0.00     0.007 C 
ENDBRANCH   1  12
TORSDOF 4
ENDMDL
MODEL 5
REMARK VINA RESULT: -6.774645584      1.281      1.943
REMARK  4 active torsions:
REMARK  status: ('A' for Active; 'I' for Inactive)
REMARK    1  A    between atoms: N1_1  and  N2_4 
REMARK    2  A    between atoms: N3_6  and  O1_8 
REMARK    3  A    between atoms: O1_8  and  S1_9 
REMARK    4  A    between atoms: S1_9  and  C1_12 
ROOT
HETATM    1  S1  UNL     1      24.901  26.751  13.481  1.00  0.00     0.291 S 
HETATM    2  O2  UNL     1      25.870  25.808  14.124  1.00  0.00    -0.196 OA
HETATM    3  O3  UNL     1      25.243  28.133  14.007  1.00  0.00    -0.196 OA
ENDROOT
BRANCH   1   4
HETATM    4  O1  UNL     1      25.123  26.726  11.791  1.00  0.00    -0.134 OA
BRANCH   4   5
HETATM    5  N3  UNL     1      25.250  25.508  11.170  1.00  0.00    -0.176 N 
HETATM    6  N2  UNL     1      26.176  24.747  11.490  1.00  0.00    -0.229 N 
ATOM      7  H2  UNL     1      27.000  25.336  11.372  1.00  0.00     0.209 HD
ATOM      8  H3  UNL     1      24.586  25.229  10.448  1.00  0.00     0.218 HD
BRANCH   6   9
HETATM    9  N1  UNL     1      26.664  23.673  11.874  1.00  0.00    -0.329 N 
ATOM     10  H12 UNL     1      25.818  23.107  11.943  1.00  0.00     0.178 HD
ATOM     11  H11 UNL     1      27.424  23.053  12.153  1.00  0.00     0.178 HD
ENDBRANCH   6   9
ENDBRANCH   4   5
ENDBRANCH   1   4
BRANCH   1  12
HETATM   12  C1  UNL     1      23.271  26.399  13.952  1.00  0.00     0.143 C 
HETATM   13  C2  UNL     1      23.055  25.054  14.615  1.00  0.00     0.027 C 
HETATM   14  C3  UNL     1      21.888  25.257  15.549  1.00  0.00    -0.013 C 
HETATM   15  C4  UNL     1      22.473  25.774  16.849  1.00  0.00     0.005 C 
HETATM   16  C7  UNL     1      21.276  26.573  15.035  1.00  0.00     0.010 C 
HETATM   17  C5  UNL     1      23.106  27.085  16.356  1.00  0.00     0.006 C 
HETATM   18  C6  UNL     1      22.643  27.306  14.956  1.00  0.00     0.007 C 
ENDBRANCH   1  12
TORSDOF 4
ENDMDL
