MODEL 1
REMARK VINA RESULT: -5.282664338      0.000      0.000
REMARK  4 active torsions:
REMARK  status: ('A' for Active; 'I' for Inactive)
REMARK    1  A    between atoms: C2_2  and  C3_6 
REMARK    2  A    between atoms: C4_7  and  C5_8 
REMARK    3  A    between atoms: C5_8  and  N2_9 
REMARK    4  A    between atoms: C8_12  and  N3_13 
ROOT
HETATM    1  N2  UNL     1      -6.494   2.582  16.423  1.00  0.00     0.093 N 
HETATM    2  C6  UNL     1      -6.382   1.998  17.749  1.00  0.00     0.275 C 
HETATM    3  C7  UNL     1      -5.850   0.598  17.416  1.00  0.00     0.064 C 
HETATM    4  C8  UNL     1      -4.701   1.007  16.487  1.00  0.00     0.213 C 
HETATM    5  C9  UNL     1      -5.384   2.063  15.653  1.00  0.00     0.305 C 
ENDROOT
BRANCH   1   6
HETATM    6  C5  UNL     1      -6.336   4.035  16.507  1.00  0.00     0.300 C 
BRANCH   6   7
HETATM    7  C4  UNL     1      -5.408   4.533  15.490  1.00  0.00     0.005 C 
HETATM    8  C3  UNL     1      -5.839   5.291  14.506  1.00  0.00     0.021 C 
BRANCH   8   9
HETATM    9  C2  UNL     1      -4.941   5.807  13.474  1.00  0.00    -0.002 C 
HETATM   10  C1  UNL     1      -3.483   5.630  13.670  1.00  0.00     0.067 C 
HETATM   11  N1  UNL     1      -5.339   6.399  12.409  1.00  0.00    -0.403 N 
ATOM     12  H12 UNL     1      -4.713   6.759  11.688  1.00  0.00     0.156 HD
ATOM     13  H11 UNL     1      -6.342   6.521  12.274  1.00  0.00     0.156 HD
ENDBRANCH   8   9
ENDBRANCH   6   7
ENDBRANCH   1   6
BRANCH   4  14
HETATM   14  N3  UNL     1      -4.293  -0.142  15.740  1.00  0.00    -0.073 N 
ATOM     15  H33 UNL     1      -3.282  -0.188  15.612  1.00  0.00     0.274 HD
ATOM     16  H32 UNL     1      -4.407  -1.010  16.263  1.00  0.00     0.274 HD
ATOM     17  H31 UNL     1      -4.802  -0.149  14.855  1.00  0.00     0.274 HD
ENDBRANCH   4  14
TORSDOF 4
ENDMDL
MODEL 2
REMARK VINA RESULT: -5.178956553      1.933      2.249
REMARK  4 active torsions:
REMARK  status: ('A' for Active; 'I' for Inactive)
REMARK    1  A    between atoms: C2_2  and  C3_6 
REMARK    2  A    between atoms: C4_7  and  C5_8 
REMARK    3  A    between atoms: C5_8  and  N2_9 
REMARK    4  A    between atoms: C8_12  and  N3_13 
ROOT
HETATM    1  N2  UNL     1      -6.353   3.411  16.217  1.00  0.00     0.093 N 
HETATM    2  C6  UNL     1      -6.207   3.622  17.647  1.00  0.00     0.275 C 
HETATM    3  C7  UNL     1      -6.338   2.187  18.177  1.00  0.00     0.064 C 
HETATM    4  C8  UNL     1      -5.335   1.507  17.237  1.00  0.00     0.213 C 
HETATM    5  C9  UNL     1      -5.712   2.147  15.923  1.00  0.00     0.305 C 
ENDROOT
BRANCH   1   6
HETATM    6  C5  UNL     1      -5.632   4.455  15.487  1.00  0.00     0.300 C 
BRANCH   6   7
HETATM    7  C4  UNL     1      -4.474   3.910  14.777  1.00  0.00     0.005 C 
HETATM    8  C3  UNL     1      -3.630   4.711  14.162  1.00  0.00     0.021 C 
BRANCH   8   9
HETATM    9  C2  UNL     1      -2.463   4.202  13.444  1.00  0.00    -0.002 C 
HETATM   10  C1  UNL     1      -2.579   4.001  11.981  1.00  0.00     0.067 C 
HETATM   11  N1  UNL     1      -1.343   3.922  14.004  1.00  0.00    -0.403 N 
ATOM     12  H12 UNL     1      -0.528   3.567  13.503  1.00  0.00     0.156 HD
ATOM     13  H11 UNL     1      -1.263   4.060  15.011  1.00  0.00     0.156 HD
ENDBRANCH   8   9
ENDBRANCH   6   7
ENDBRANCH   1   6
BRANCH   4  14
HETATM   14  N3  UNL     1      -5.565   0.096  17.277  1.00  0.00    -0.073 N 
ATOM     15  H33 UNL     1      -6.391  -0.151  17.822  1.00  0.00     0.274 HD
ATOM     16  H32 UNL     1      -5.874  -0.276  16.379  1.00  0.00     0.274 HD
ATOM     17  H31 UNL     1      -4.718  -0.359  17.619  1.00  0.00     0.274 HD
ENDBRANCH   4  14
TORSDOF 4
ENDMDL
MODEL 3
REMARK VINA RESULT: -5.171227396      0.917      1.102
REMARK  4 active torsions:
REMARK  status: ('A' for Active; 'I' for Inactive)
REMARK    1  A    between atoms: C2_2  and  C3_6 
REMARK    2  A    between atoms: C4_7  and  C5_8 
REMARK    3  A    between atoms: C5_8  and  N2_9 
REMARK    4  A    between atoms: C8_12  and  N3_13 
ROOT
HETATM    1  N2  UNL     1      -6.329   3.109  16.377  1.00  0.00     0.093 N 
HETATM    2  C6  UNL     1      -6.189   2.663  17.753  1.00  0.00     0.275 C 
HETATM    3  C7  UNL     1      -5.775   1.199  17.553  1.00  0.00     0.064 C 
HETATM    4  C8  UNL     1      -4.650   1.419  16.534  1.00  0.00     0.213 C 
HETATM    5  C9  UNL     1      -5.300   2.428  15.620  1.00  0.00     0.305 C 
ENDROOT
BRANCH   1   6
HETATM    6  C5  UNL     1      -6.066   4.546  16.293  1.00  0.00     0.300 C 
BRANCH   6   7
HETATM    7  C4  UNL     1      -5.214   4.869  15.147  1.00  0.00     0.005 C 
HETATM    8  C3  UNL     1      -5.713   5.482  14.096  1.00  0.00     0.021 C 
BRANCH   8   9
HETATM    9  C2  UNL     1      -4.892   5.821  12.935  1.00  0.00    -0.002 C 
HETATM   10  C1  UNL     1      -5.407   6.843  11.993  1.00  0.00     0.067 C 
HETATM   11  N1  UNL     1      -3.753   5.289  12.683  1.00  0.00    -0.403 N 
ATOM     12  H12 UNL     1      -3.179   5.525  11.873  1.00  0.00     0.156 HD
ATOM     13  H11 UNL     1      -3.399   4.585  13.330  1.00  0.00     0.156 HD
ENDBRANCH   8   9
ENDBRANCH   6   7
ENDBRANCH   1   6
BRANCH   4  14
HETATM   14  N3  UNL     1      -4.363   0.169  15.901  1.00  0.00    -0.073 N 
ATOM     15  H33 UNL     1      -3.911  -0.494  16.530  1.00  0.00     0.274 HD
ATOM     16  H32 UNL     1      -5.205  -0.374  15.707  1.00  0.00     0.274 HD
ATOM     17  H31 UNL     1      -3.813   0.352  15.061  1.00  0.00     0.274 HD
ENDBRANCH   4  14
TORSDOF 4
ENDMDL
MODEL 4
REMARK VINA RESULT: -5.168432889      2.849      4.009
REMARK  4 active torsions:
REMARK  status: ('A' for Active; 'I' for Inactive)
REMARK    1  A    between atoms: C2_2  and  C3_6 
REMARK    2  A    between atoms: C4_7  and  C5_8 
REMARK    3  A    between atoms: C5_8  and  N2_9 
REMARK    4  A    between atoms: C8_12  and  N3_13 
ROOT
HETATM    1  N2  UNL     1      -6.051   3.429  14.891  1.00  0.00     0.093 N 
HETATM    2  C6  UNL     1      -5.894   4.539  15.816  1.00  0.00     0.275 C 
HETATM    3  C7  UNL     1      -6.453   3.932  17.110  1.00  0.00     0.064 C 
HETATM    4  C8  UNL     1      -5.664   2.618  17.103  1.00  0.00     0.213 C 
HETATM    5  C9  UNL     1      -5.797   2.224  15.652  1.00  0.00     0.305 C 
ENDROOT
BRANCH   1   6
HETATM    6  C5  UNL     1      -5.036   3.513  13.841  1.00  0.00     0.300 C 
BRANCH   6   7
HETATM    7  C4  UNL     1      -4.552   2.187  13.454  1.00  0.00     0.005 C 
HETATM    8  C3  UNL     1      -4.001   1.994  12.276  1.00  0.00     0.021 C 
BRANCH   8   9
HETATM    9  C2  UNL     1      -3.507   0.682  11.857  1.00  0.00    -0.002 C 
HETATM   10  C1  UNL     1      -2.234   0.628  11.101  1.00  0.00     0.067 C 
HETATM   11  N1  UNL     1      -4.108  -0.423  12.107  1.00  0.00    -0.403 N 
ATOM     12  H12 UNL     1      -3.764  -1.338  11.815  1.00  0.00     0.156 HD
ATOM     13  H11 UNL     1      -4.984  -0.385  12.627  1.00  0.00     0.156 HD
ENDBRANCH   8   9
ENDBRANCH   6   7
ENDBRANCH   1   6
BRANCH   4  14
HETATM   14  N3  UNL     1      -6.296   1.707  18.007  1.00  0.00    -0.073 N 
ATOM     15  H33 UNL     1      -7.088   2.125  18.495  1.00  0.00     0.274 HD
ATOM     16  H32 UNL     1      -6.805   0.967  17.525  1.00  0.00     0.274 HD
ATOM     17  H31 UNL     1      -5.588   1.344  18.646  1.00  0.00     0.274 HD
ENDBRANCH   4  14
TORSDOF 4
ENDMDL
MODEL 5
REMARK VINA RESULT: -5.139336206      2.891      5.070
REMARK  4 active torsions:
REMARK  status: ('A' for Active; 'I' for Inactive)
REMARK    1  A    between atoms: C2_2  and  C3_6 
REMARK    2  A    between atoms: C4_7  and  C5_8 
REMARK    3  A    between atoms: C5_8  and  N2_9 
REMARK    4  A    between atoms: C8_12  and  N3_13 
ROOT
HETATM    1  N2  UNL     1      -3.921   3.049  13.072  1.00  0.00     0.093 N 
HETATM    2  C6  UNL     1      -4.019   3.729  11.791  1.00  0.00     0.275 C 
HETATM    3  C7  UNL     1      -3.878   2.553  10.816  1.00  0.00     0.064 C 
HETATM    4  C8  UNL     1      -4.914   1.613  11.443  1.00  0.00     0.213 C 
HETATM    5  C9  UNL     1      -4.578   1.770  12.906  1.00  0.00     0.305 C 
ENDROOT
BRANCH   1   6
HETATM    6  C5  UNL     1      -4.660   3.800  14.087  1.00  0.00     0.300 C 
BRANCH   6   7
HETATM    7  C4  UNL     1      -5.050   2.944  15.209  1.00  0.00     0.005 C 
HETATM    8  C3  UNL     1      -5.983   3.330  16.052  1.00  0.00     0.021 C 
BRANCH   8   9
HETATM    9  C2  UNL     1      -6.397   2.501  17.182  1.00  0.00    -0.002 C 
HETATM   10  C1  UNL     1      -7.225   1.304  16.901  1.00  0.00     0.067 C 
HETATM   11  N1  UNL     1      -6.086   2.745  18.402  1.00  0.00    -0.403 N 
ATOM     12  H12 UNL     1      -6.375   2.167  19.191  1.00  0.00     0.156 HD
ATOM     13  H11 UNL     1      -5.517   3.569  18.596  1.00  0.00     0.156 HD
ENDBRANCH   8   9
ENDBRANCH   6   7
ENDBRANCH   1   6
BRANCH   4  14
HETATM   14  N3  UNL     1      -4.691   0.293  10.939  1.00  0.00    -0.073 N 
ATOM     15  H33 UNL     1      -4.834  -0.426  11.648  1.00  0.00     0.274 HD
ATOM     16  H32 UNL     1      -5.418  -0.006  10.289  1.00  0.00     0.274 HD
ATOM     17  H31 UNL     1      -3.758   0.259  10.528  1.00  0.00     0.274 HD
ENDBRANCH   4  14
TORSDOF 4
ENDMDL
