MODEL 1
REMARK VINA RESULT: -5.431271221      0.000      0.000
REMARK  3 active torsions:
REMARK  status: ('A' for Active; 'I' for Inactive)
REMARK    1  A    between atoms: N1_1  and  C1_5 
REMARK    2  A    between atoms: C1_5  and  C2_6 
REMARK    3  A    between atoms: N2_9  and  C5_10 
ROOT
HETATM    1  C2  UNL     1      -4.995   1.461  15.821  1.00  0.00     0.172 C 
HETATM    2  C3  UNL     1      -5.800   2.557  15.134  1.00  0.00     0.052 C 
HETATM    3  C4  UNL     1      -4.887   2.805  13.948  1.00  0.00     0.123 C 
HETATM    4  N2  UNL     1      -4.224   1.568  13.784  1.00  0.00    -0.190 NA
HETATM    5  O1  UNL     1      -4.640   0.700  14.709  1.00  0.00    -0.296 OA
ENDROOT
BRANCH   4   6
HETATM    6  C5  UNL     1      -4.273   1.015  12.463  1.00  0.00     0.113 C 
HETATM    7  C6  UNL     1      -3.133   1.414  11.588  1.00  0.00     0.051 C 
HETATM    8  C7  UNL     1      -3.198   0.319  10.514  1.00  0.00     0.234 C 
HETATM    9  N3  UNL     1      -3.336  -0.859  11.337  1.00  0.00    -0.073 N 
HETATM   10  C8  UNL     1      -4.116  -0.499  12.499  1.00  0.00     0.254 C 
ATOM     11  H32 UNL     1      -3.727  -1.653  10.829  1.00  0.00     0.277 HD
ATOM     12  H31 UNL     1      -2.439  -1.280  11.578  1.00  0.00     0.277 HD
ENDBRANCH   4   6
BRANCH   1  13
HETATM   13  C1  UNL     1      -5.807   0.698  16.818  1.00  0.00     0.263 C 
BRANCH  13  14
HETATM   14  N1  UNL     1      -7.149   1.243  16.823  1.00  0.00    -0.077 N 
ATOM     15  H13 UNL     1      -7.247   2.044  17.448  1.00  0.00     0.274 HD
ATOM     16  H12 UNL     1      -7.383   1.719  15.952  1.00  0.00     0.274 HD
ATOM     17  H11 UNL     1      -7.799   0.489  17.047  1.00  0.00     0.274 HD
ENDBRANCH  13  14
ENDBRANCH   1  13
TORSDOF 3
ENDMDL
MODEL 2
REMARK VINA RESULT: -5.417470056      3.199      5.111
REMARK  3 active torsions:
REMARK  status: ('A' for Active; 'I' for Inactive)
REMARK    1  A    between atoms: N1_1  and  C1_5 
REMARK    2  A    between atoms: C1_5  and  C2_6 
REMARK    3  A    between atoms: N2_9  and  C5_10 
ROOT
HETATM    1  C2  UNL     1      -3.618   4.238  13.877  1.00  0.00     0.172 C 
HETATM    2  C3  UNL     1      -4.597   5.149  14.606  1.00  0.00     0.052 C 
HETATM    3  C4  UNL     1      -5.574   4.097  15.092  1.00  0.00     0.123 C 
HETATM    4  N2  UNL     1      -4.780   2.931  15.179  1.00  0.00    -0.190 NA
HETATM    5  O1  UNL     1      -3.528   3.202  14.805  1.00  0.00    -0.296 OA
ENDROOT
BRANCH   4   6
HETATM    6  C5  UNL     1      -4.833   2.245  16.436  1.00  0.00     0.113 C 
HETATM    7  C6  UNL     1      -6.067   2.513  17.230  1.00  0.00     0.051 C 
HETATM    8  C7  UNL     1      -6.056   1.313  18.189  1.00  0.00     0.234 C 
HETATM    9  N3  UNL     1      -5.791   0.233  17.268  1.00  0.00    -0.073 N 
HETATM   10  C8  UNL     1      -4.922   0.739  16.231  1.00  0.00     0.254 C 
ATOM     11  H32 UNL     1      -5.417  -0.597  17.728  1.00  0.00     0.277 HD
ATOM     12  H31 UNL     1      -6.644  -0.189  16.899  1.00  0.00     0.277 HD
ENDBRANCH   4   6
BRANCH   1  13
HETATM   13  C1  UNL     1      -2.305   4.905  13.615  1.00  0.00     0.263 C 
BRANCH  13  14
HETATM   14  N1  UNL     1      -1.247   3.972  13.946  1.00  0.00    -0.077 N 
ATOM     15  H13 UNL     1      -1.457   3.419  14.778  1.00  0.00     0.274 HD
ATOM     16  H12 UNL     1      -1.181   3.201  13.281  1.00  0.00     0.274 HD
ATOM     17  H11 UNL     1      -0.375   4.494  14.032  1.00  0.00     0.274 HD
ENDBRANCH  13  14
ENDBRANCH   1  13
TORSDOF 3
ENDMDL
MODEL 3
REMARK VINA RESULT: -5.334912418      1.146      1.226
REMARK  3 active torsions:
REMARK  status: ('A' for Active; 'I' for Inactive)
REMARK    1  A    between atoms: N1_1  and  C1_5 
REMARK    2  A    between atoms: C1_5  and  C2_6 
REMARK    3  A    between atoms: N2_9  and  C5_10 
ROOT
HETATM    1  C2  UNL     1      -4.967   1.374  16.386  1.00  0.00     0.172 C 
HETATM    2  C3  UNL     1      -5.537   2.775  16.205  1.00  0.00     0.052 C 
HETATM    3  C4  UNL     1      -4.684   3.223  15.035  1.00  0.00     0.123 C 
HETATM    4  N2  UNL     1      -4.348   2.009  14.393  1.00  0.00    -0.190 NA
HETATM    5  O1  UNL     1      -4.888   0.981  15.051  1.00  0.00    -0.296 OA
ENDROOT
BRANCH   4   6
HETATM    6  C5  UNL     1      -4.625   1.960  12.989  1.00  0.00     0.113 C 
HETATM    7  C6  UNL     1      -3.854   2.943  12.175  1.00  0.00     0.051 C 
HETATM    8  C7  UNL     1      -3.975   2.317  10.778  1.00  0.00     0.234 C 
HETATM    9  N3  UNL     1      -3.658   0.939  11.070  1.00  0.00    -0.073 N 
HETATM   10  C8  UNL     1      -4.166   0.638  12.389  1.00  0.00     0.254 C 
ATOM     11  H32 UNL     1      -4.001   0.294  10.357  1.00  0.00     0.277 HD
ATOM     12  H31 UNL     1      -2.664   0.733  10.973  1.00  0.00     0.277 HD
ENDBRANCH   4   6
BRANCH   1  13
HETATM   13  C1  UNL     1      -5.860   0.496  17.203  1.00  0.00     0.263 C 
BRANCH  13  14
HETATM   14  N1  UNL     1      -7.214   1.001  17.097  1.00  0.00    -0.077 N 
ATOM     15  H13 UNL     1      -7.554   1.399  17.973  1.00  0.00     0.274 HD
ATOM     16  H12 UNL     1      -7.274   1.846  16.529  1.00  0.00     0.274 HD
ATOM     17  H11 UNL     1      -7.809   0.250  16.750  1.00  0.00     0.274 HD
ENDBRANCH  13  14
ENDBRANCH   1  13
TORSDOF 3
ENDMDL
MODEL 4
REMARK VINA RESULT: -5.262780284      1.494      4.853
REMARK  3 active torsions:
REMARK  status: ('A' for Active; 'I' for Inactive)
REMARK    1  A    between atoms: N1_1  and  C1_5 
REMARK    2  A    between atoms: C1_5  and  C2_6 
REMARK    3  A    between atoms: N2_9  and  C5_10 
ROOT
HETATM    1  C2  UNL     1      -4.240   1.951  12.471  1.00  0.00     0.172 C 
HETATM    2  C3  UNL     1      -3.674   3.296  12.908  1.00  0.00     0.052 C 
HETATM    3  C4  UNL     1      -4.673   3.622  14.001  1.00  0.00     0.123 C 
HETATM    4  N2  UNL     1      -5.116   2.350  14.428  1.00  0.00    -0.190 NA
HETATM    5  O1  UNL     1      -4.509   1.395  13.720  1.00  0.00    -0.296 OA
ENDROOT
BRANCH   4   6
HETATM    6  C5  UNL     1      -5.036   2.112  15.838  1.00  0.00     0.113 C 
HETATM    7  C6  UNL     1      -6.292   2.413  16.584  1.00  0.00     0.051 C 
HETATM    8  C7  UNL     1      -6.059   1.612  17.873  1.00  0.00     0.234 C 
HETATM    9  N3  UNL     1      -5.610   0.351  17.330  1.00  0.00    -0.073 N 
HETATM   10  C8  UNL     1      -4.853   0.630  16.132  1.00  0.00     0.254 C 
ATOM     11  H32 UNL     1      -5.089  -0.208  18.007  1.00  0.00     0.277 HD
ATOM     12  H31 UNL     1      -6.375  -0.305  17.172  1.00  0.00     0.277 HD
ENDBRANCH   4   6
BRANCH   1  13
HETATM   13  C1  UNL     1      -3.259   1.152  11.674  1.00  0.00     0.263 C 
BRANCH  13  14
HETATM   14  N1  UNL     1      -1.963   1.791  11.776  1.00  0.00    -0.077 N 
ATOM     15  H13 UNL     1      -1.293   1.239  12.312  1.00  0.00     0.274 HD
ATOM     16  H12 UNL     1      -1.458   1.799  10.890  1.00  0.00     0.274 HD
ATOM     17  H11 UNL     1      -2.097   2.726  12.161  1.00  0.00     0.274 HD
ENDBRANCH  13  14
ENDBRANCH   1  13
TORSDOF 3
ENDMDL
MODEL 5
REMARK VINA RESULT: -5.123914205      3.217      5.362
REMARK  3 active torsions:
REMARK  status: ('A' for Active; 'I' for Inactive)
REMARK    1  A    between atoms: N1_1  and  C1_5 
REMARK    2  A    between atoms: C1_5  and  C2_6 
REMARK    3  A    between atoms: N2_9  and  C5_10 
ROOT
HETATM    1  C2  UNL     1      -3.434   4.240  13.788  1.00  0.00     0.172 C 
HETATM    2  C3  UNL     1      -4.224   5.412  14.358  1.00  0.00     0.052 C 
HETATM    3  C4  UNL     1      -5.588   4.755  14.437  1.00  0.00     0.123 C 
HETATM    4  N2  UNL     1      -5.280   3.382  14.570  1.00  0.00    -0.190 NA
HETATM    5  O1  UNL     1      -3.957   3.208  14.565  1.00  0.00    -0.296 OA
ENDROOT
BRANCH   4   6
HETATM    6  C5  UNL     1      -5.909   2.715  15.671  1.00  0.00     0.113 C 
HETATM    7  C6  UNL     1      -5.002   1.820  16.446  1.00  0.00     0.051 C 
HETATM    8  C7  UNL     1      -5.784   1.689  17.761  1.00  0.00     0.234 C 
HETATM    9  N3  UNL     1      -6.124   3.069  18.013  1.00  0.00    -0.073 N 
HETATM   10  C8  UNL     1      -6.342   3.711  16.737  1.00  0.00     0.254 C 
ATOM     11  H32 UNL     1      -6.917   3.172  18.648  1.00  0.00     0.277 HD
ATOM     12  H31 UNL     1      -5.429   3.549  18.584  1.00  0.00     0.277 HD
ENDBRANCH   4   6
BRANCH   1  13
HETATM   13  C1  UNL     1      -1.958   4.412  13.958  1.00  0.00     0.263 C 
BRANCH  13  14
HETATM   14  N1  UNL     1      -1.288   3.510  13.042  1.00  0.00    -0.077 N 
ATOM     15  H13 UNL     1      -0.292   3.416  13.242  1.00  0.00     0.274 HD
ATOM     16  H12 UNL     1      -1.550   2.536  13.188  1.00  0.00     0.274 HD
ATOM     17  H11 UNL     1      -1.469   3.829  12.091  1.00  0.00     0.274 HD
ENDBRANCH  13  14
ENDBRANCH   1  13
TORSDOF 3
ENDMDL
