MODEL 1
REMARK VINA RESULT: -5.810667922      0.000      0.000
REMARK  2 active torsions:
REMARK  status: ('A' for Active; 'I' for Inactive)
REMARK    1  A    between atoms: C2_2  and  C3_6 
REMARK    2  A    between atoms: C6_12  and  C7_13 
ROOT
HETATM    1  C3  UNL     1      -4.680   2.075  12.917  1.00  0.00     0.256 C 
HETATM    2  C4  UNL     1      -3.669   3.141  12.606  1.00  0.00     0.271 C 
HETATM    3  N2  UNL     1      -3.132   3.694  13.833  1.00  0.00    -0.071 N 
ATOM      4  H21 UNL     1      -2.464   4.442  13.646  1.00  0.00     0.277 HD
ATOM      5  H22 UNL     1      -2.505   3.037  14.297  1.00  0.00     0.277 HD
HETATM    6  C5  UNL     1      -4.207   4.140  14.729  1.00  0.00     0.265 C 
HETATM    7  C6  UNL     1      -5.236   3.092  14.918  1.00  0.00     0.215 C 
HETATM    8  N3  UNL     1      -4.719   1.842  14.372  1.00  0.00    -0.058 N 
ATOM      9  H31 UNL     1      -3.828   1.546  14.773  1.00  0.00     0.278 HD
ATOM     10  H32 UNL     1      -5.245   1.014  14.650  1.00  0.00     0.278 HD
ENDROOT
BRANCH   1  11
HETATM   11  C2  UNL     1      -4.355   0.769  12.288  1.00  0.00     0.008 C 
HETATM   12  C1  UNL     1      -4.476   0.626  10.816  1.00  0.00     0.065 C 
HETATM   13  N1  UNL     1      -3.979  -0.225  12.983  1.00  0.00    -0.404 N 
ATOM     14  H12 UNL     1      -3.756  -1.123  12.552  1.00  0.00     0.155 HD
ATOM     15  H11 UNL     1      -3.896  -0.127  13.995  1.00  0.00     0.155 HD
ENDBRANCH   1  11
BRANCH   7  16
HETATM   16  C7  UNL     1      -5.643   2.831  16.332  1.00  0.00     0.010 C 
HETATM   17  C8  UNL     1      -6.403   3.978  16.941  1.00  0.00     0.011 C 
HETATM   18  C9  UNL     1      -6.456   1.583  16.515  1.00  0.00     0.011 C 
ENDBRANCH   7  16
TORSDOF 2
ENDMDL
MODEL 2
REMARK VINA RESULT: -5.736941749      0.861      1.257
REMARK  2 active torsions:
REMARK  status: ('A' for Active; 'I' for Inactive)
REMARK    1  A    between atoms: C2_2  and  C3_6 
REMARK    2  A    between atoms: C6_12  and  C7_13 
ROOT
HETATM    1  C3  UNL     1      -4.203   2.021  12.601  1.00  0.00     0.256 C 
HETATM    2  C4  UNL     1      -3.265   3.191  12.507  1.00  0.00     0.271 C 
HETATM    3  N2  UNL     1      -3.013   3.738  13.824  1.00  0.00    -0.071 N 
ATOM      4  H21 UNL     1      -2.401   4.552  13.781  1.00  0.00     0.277 HD
ATOM      5  H22 UNL     1      -2.415   3.123  14.377  1.00  0.00     0.277 HD
HETATM    6  C5  UNL     1      -4.270   4.041  14.522  1.00  0.00     0.265 C 
HETATM    7  C6  UNL     1      -5.205   2.893  14.494  1.00  0.00     0.215 C 
HETATM    8  N3  UNL     1      -4.475   1.722  14.019  1.00  0.00    -0.058 N 
ATOM      9  H31 UNL     1      -3.645   1.494  14.566  1.00  0.00     0.278 HD
ATOM     10  H32 UNL     1      -4.957   0.836  14.175  1.00  0.00     0.278 HD
ENDROOT
BRANCH   1  11
HETATM   11  C2  UNL     1      -3.642   0.780  12.008  1.00  0.00     0.008 C 
HETATM   12  C1  UNL     1      -2.468   0.878  11.106  1.00  0.00     0.065 C 
HETATM   13  N1  UNL     1      -4.145  -0.359  12.256  1.00  0.00    -0.404 N 
ATOM     14  H12 UNL     1      -3.760  -1.211  11.849  1.00  0.00     0.155 HD
ATOM     15  H11 UNL     1      -4.952  -0.426  12.876  1.00  0.00     0.155 HD
ENDBRANCH   1  11
BRANCH   7  16
HETATM   16  C7  UNL     1      -5.828   2.533  15.804  1.00  0.00     0.010 C 
HETATM   17  C8  UNL     1      -4.945   1.653  16.648  1.00  0.00     0.011 C 
HETATM   18  C9  UNL     1      -6.235   3.717  16.633  1.00  0.00     0.011 C 
ENDBRANCH   7  16
TORSDOF 2
ENDMDL
MODEL 3
REMARK VINA RESULT: -5.723215243      1.378      1.540
REMARK  2 active torsions:
REMARK  status: ('A' for Active; 'I' for Inactive)
REMARK    1  A    between atoms: C2_2  and  C3_6 
REMARK    2  A    between atoms: C6_12  and  C7_13 
ROOT
HETATM    1  C3  UNL     1      -4.944   2.622  13.496  1.00  0.00     0.256 C 
HETATM    2  C4  UNL     1      -4.706   4.105  13.499  1.00  0.00     0.271 C 
HETATM    3  N2  UNL     1      -4.540   4.582  14.856  1.00  0.00    -0.071 N 
ATOM      4  H21 UNL     1      -4.407   5.593  14.885  1.00  0.00     0.277 HD
ATOM      5  H22 UNL     1      -3.643   4.295  15.248  1.00  0.00     0.277 HD
HETATM    6  C5  UNL     1      -5.662   4.161  15.707  1.00  0.00     0.265 C 
HETATM    7  C6  UNL     1      -5.928   2.709  15.587  1.00  0.00     0.215 C 
HETATM    8  N3  UNL     1      -4.813   2.100  14.868  1.00  0.00    -0.058 N 
ATOM      9  H31 UNL     1      -3.901   2.263  15.294  1.00  0.00     0.278 HD
ATOM     10  H32 UNL     1      -4.783   1.082  14.929  1.00  0.00     0.278 HD
ENDROOT
BRANCH   1  11
HETATM   11  C2  UNL     1      -3.961   1.879  12.666  1.00  0.00     0.008 C 
HETATM   12  C1  UNL     1      -4.318   0.534  12.153  1.00  0.00     0.065 C 
HETATM   13  N1  UNL     1      -2.823   2.371  12.389  1.00  0.00    -0.404 N 
ATOM     14  H12 UNL     1      -2.148   1.862  11.819  1.00  0.00     0.155 HD
ATOM     15  H11 UNL     1      -2.578   3.296  12.741  1.00  0.00     0.155 HD
ENDBRANCH   1  11
BRANCH   7  16
HETATM   16  C7  UNL     1      -6.088   1.972  16.877  1.00  0.00     0.010 C 
HETATM   17  C8  UNL     1      -6.138   2.887  18.070  1.00  0.00     0.011 C 
HETATM   18  C9  UNL     1      -7.293   1.078  16.924  1.00  0.00     0.011 C 
ENDBRANCH   7  16
TORSDOF 2
ENDMDL
MODEL 4
REMARK VINA RESULT: -5.658161632      0.884      1.009
REMARK  2 active torsions:
REMARK  status: ('A' for Active; 'I' for Inactive)
REMARK    1  A    between atoms: C2_2  and  C3_6 
REMARK    2  A    between atoms: C6_12  and  C7_13 
ROOT
HETATM    1  C3  UNL     1      -4.325   2.149  12.507  1.00  0.00     0.256 C 
HETATM    2  C4  UNL     1      -3.073   2.849  12.061  1.00  0.00     0.271 C 
HETATM    3  N2  UNL     1      -2.456   3.531  13.180  1.00  0.00    -0.071 N 
ATOM      4  H21 UNL     1      -1.620   4.039  12.894  1.00  0.00     0.277 HD
ATOM      5  H22 UNL     1      -2.025   2.873  13.829  1.00  0.00     0.277 HD
HETATM    6  C5  UNL     1      -3.417   4.410  13.861  1.00  0.00     0.265 C 
HETATM    7  C6  UNL     1      -4.678   3.702  14.182  1.00  0.00     0.215 C 
HETATM    8  N3  UNL     1      -4.466   2.274  13.968  1.00  0.00    -0.058 N 
ATOM      9  H31 UNL     1      -3.689   1.882  14.500  1.00  0.00     0.278 HD
ATOM     10  H32 UNL     1      -5.188   1.679  14.373  1.00  0.00     0.278 HD
ENDROOT
BRANCH   1  11
HETATM   11  C2  UNL     1      -4.311   0.693  12.207  1.00  0.00     0.008 C 
HETATM   12  C1  UNL     1      -4.582   0.239  10.821  1.00  0.00     0.065 C 
HETATM   13  N1  UNL     1      -4.074  -0.166  13.111  1.00  0.00    -0.404 N 
ATOM     14  H12 UNL     1      -4.065  -1.166  12.906  1.00  0.00     0.155 HD
ATOM     15  H11 UNL     1      -3.888   0.147  14.064  1.00  0.00     0.155 HD
ENDBRANCH   1  11
BRANCH   7  16
HETATM   16  C7  UNL     1      -5.181   3.878  15.579  1.00  0.00     0.010 C 
HETATM   17  C8  UNL     1      -5.801   5.230  15.809  1.00  0.00     0.011 C 
HETATM   18  C9  UNL     1      -6.167   2.833  16.009  1.00  0.00     0.011 C 
ENDBRANCH   7  16
TORSDOF 2
ENDMDL
MODEL 5
REMARK VINA RESULT: -5.509291031      1.618      2.580
REMARK  2 active torsions:
REMARK  status: ('A' for Active; 'I' for Inactive)
REMARK    1  A    between atoms: C2_2  and  C3_6 
REMARK    2  A    between atoms: C6_12  and  C7_13 
ROOT
HETATM    1  C3  UNL     1      -5.632   3.048  14.300  1.00  0.00     0.256 C 
HETATM    2  C4  UNL     1      -5.583   4.536  14.505  1.00  0.00     0.271 C 
HETATM    3  N2  UNL     1      -5.432   4.842  15.913  1.00  0.00    -0.071 N 
ATOM      4  H21 UNL     1      -5.427   5.848  16.080  1.00  0.00     0.277 HD
ATOM      5  H22 UNL     1      -4.494   4.623  16.246  1.00  0.00     0.277 HD
HETATM    6  C5  UNL     1      -6.461   4.166  16.716  1.00  0.00     0.265 C 
HETATM    7  C6  UNL     1      -6.546   2.722  16.399  1.00  0.00     0.215 C 
HETATM    8  N3  UNL     1      -5.389   2.366  15.584  1.00  0.00    -0.058 N 
ATOM      9  H31 UNL     1      -4.490   2.587  16.013  1.00  0.00     0.278 HD
ATOM     10  H32 UNL     1      -5.228   1.362  15.501  1.00  0.00     0.278 HD
ENDROOT
BRANCH   1  11
HETATM   11  C2  UNL     1      -4.592   2.560  13.358  1.00  0.00     0.008 C 
HETATM   12  C1  UNL     1      -3.916   3.530  12.462  1.00  0.00     0.065 C 
HETATM   13  N1  UNL     1      -4.271   1.332  13.305  1.00  0.00    -0.404 N 
ATOM     14  H12 UNL     1      -3.558   0.996  12.658  1.00  0.00     0.155 HD
ATOM     15  H11 UNL     1      -4.736   0.666  13.921  1.00  0.00     0.155 HD
ENDBRANCH   1  11
BRANCH   7  16
HETATM   16  C7  UNL     1      -6.567   1.802  17.576  1.00  0.00     0.010 C 
HETATM   17  C8  UNL     1      -5.824   0.518  17.326  1.00  0.00     0.011 C 
HETATM   18  C9  UNL     1      -6.033   2.412  18.839  1.00  0.00     0.011 C 
ENDBRANCH   7  16
TORSDOF 2
ENDMDL
