MODEL 1
REMARK VINA RESULT: -7.313786513      0.000      0.000
REMARK  8 active torsions:
REMARK  status: ('A' for Active; 'I' for Inactive)
REMARK       I    between atoms: N1_2  and  C2_4 
REMARK    1  A    between atoms: C2_4  and  C3_6 
REMARK    2  A    between atoms: C3_6  and  O2_7 
REMARK    3  A    between atoms: C3_6  and  C6_11 
REMARK    4  A    between atoms: O2_7  and  C4_8 
REMARK       I    between atoms: C6_11  and  N2_13 
REMARK    5  A    between atoms: N2_13  and  C7_15 
REMARK    6  A    between atoms: C7_15  and  C8_16 
REMARK    7  A    between atoms: C7_15  and  C11_19 
REMARK    8  A    between atoms: C14_22  and  O5_23 
ROOT
HETATM    1  C7  UNL     1      -8.777  27.499  -1.041  1.00  0.00     0.093 C 
ENDROOT
BRANCH   1   2
HETATM    2  N2  UNL     1      -8.226  28.873  -0.965  1.00  0.00    -0.353 N 
HETATM    3  C6  UNL     1      -7.795  29.432   0.255  1.00  0.00     0.257 C 
HETATM    4  O4  UNL     1      -7.876  28.765   1.303  1.00  0.00    -0.270 OA
ATOM      5  H2  UNL     1      -8.156  29.427  -1.818  1.00  0.00     0.163 HD
BRANCH   3   6
HETATM    6  C3  UNL     1      -7.241  30.800   0.373  1.00  0.00     0.315 C 
BRANCH   6   7
HETATM    7  C2  UNL     1      -8.248  31.632   1.065  1.00  0.00     0.256 C 
HETATM    8  N1  UNL     1      -8.009  32.398   2.217  1.00  0.00    -0.363 N 
HETATM    9  C1  UNL     1      -9.088  33.177   2.804  1.00  0.00     0.149 C 
ATOM     10  H1  UNL     1      -7.082  32.408   2.642  1.00  0.00     0.162 HD
HETATM   11  O1  UNL     1      -9.411  31.622   0.537  1.00  0.00    -0.270 OA
ENDBRANCH   6   7
BRANCH   6  12
HETATM   12  O2  UNL     1      -5.969  30.831   0.938  1.00  0.00    -0.297 OA
BRANCH  12  13
HETATM   13  C4  UNL     1      -4.968  31.536   0.278  1.00  0.00     0.256 C 
HETATM   14  C5  UNL     1      -3.642  30.930  -0.011  1.00  0.00     0.126 C 
HETATM   15  O3  UNL     1      -5.157  32.725  -0.101  1.00  0.00    -0.266 OA
ENDBRANCH  12  13
ENDBRANCH   6  12
ENDBRANCH   3   6
ENDBRANCH   1   2
BRANCH   1  16
HETATM   16  C8  UNL     1     -10.113  27.642  -1.674  1.00  0.00     0.001 C 
HETATM   17  C9  UNL     1     -10.743  26.415  -2.231  1.00  0.00     0.011 C 
HETATM   18  C10 UNL     1     -11.059  28.127  -0.564  1.00  0.00     0.011 C 
ENDBRANCH   1  16
BRANCH   1  19
HETATM   19  C11 UNL     1      -7.795  26.590  -1.726  1.00  0.00     0.026 C 
HETATM   20  C12 UNL     1      -6.631  26.202  -0.871  1.00  0.00     0.013 C 
HETATM   21  C13 UNL     1      -5.289  26.516  -1.496  1.00  0.00     0.061 C 
HETATM   22  C14 UNL     1      -5.299  26.086  -2.944  1.00  0.00     0.130 C 
HETATM   23  C15 UNL     1      -3.913  26.122  -3.489  1.00  0.00     0.061 C 
HETATM   24  N3  UNL     1      -6.221  26.917  -3.607  1.00  0.00    -0.378 N 
HETATM   25  C16 UNL     1      -3.795  26.196  -4.971  1.00  0.00     0.007 C 
HETATM   26  C17 UNL     1      -5.150  26.179  -5.607  1.00  0.00     0.024 C 
HETATM   27  C18 UNL     1      -5.973  27.288  -4.944  1.00  0.00     0.078 C 
HETATM   28  C19 UNL     1      -7.231  27.411  -5.750  1.00  0.00     0.032 C 
HETATM   29  C20 UNL     1      -7.559  26.906  -3.144  1.00  0.00     0.127 C 
BRANCH  22  30
HETATM   30  O5  UNL     1      -5.750  24.750  -3.022  1.00  0.00    -0.371 OA
ATOM     31  H5  UNL     1      -5.585  24.421  -3.897  1.00  0.00     0.212 HD
ENDBRANCH  22  30
ENDBRANCH   1  19
TORSDOF 8
ENDMDL
MODEL 2
REMARK VINA RESULT: -7.129363055      2.602      6.988
REMARK  8 active torsions:
REMARK  status: ('A' for Active; 'I' for Inactive)
REMARK       I    between atoms: N1_2  and  C2_4 
REMARK    1  A    between atoms: C2_4  and  C3_6 
REMARK    2  A    between atoms: C3_6  and  O2_7 
REMARK    3  A    between atoms: C3_6  and  C6_11 
REMARK    4  A    between atoms: O2_7  and  C4_8 
REMARK       I    between atoms: C6_11  and  N2_13 
REMARK    5  A    between atoms: N2_13  and  C7_15 
REMARK    6  A    between atoms: C7_15  and  C8_16 
REMARK    7  A    between atoms: C7_15  and  C11_19 
REMARK    8  A    between atoms: C14_22  and  O5_23 
ROOT
HETATM    1  C7  UNL     1      -7.350  26.057  -1.428  1.00  0.00     0.093 C 
ENDROOT
BRANCH   1   2
HETATM    2  N2  UNL     1      -6.863  26.575  -2.728  1.00  0.00    -0.353 N 
HETATM    3  C6  UNL     1      -7.520  26.273  -3.939  1.00  0.00     0.257 C 
HETATM    4  O4  UNL     1      -8.535  25.552  -3.928  1.00  0.00    -0.270 OA
ATOM      5  H2  UNL     1      -6.032  27.166  -2.748  1.00  0.00     0.163 HD
BRANCH   3   6
HETATM    6  C3  UNL     1      -7.064  26.768  -5.258  1.00  0.00     0.315 C 
BRANCH   6   7
HETATM    7  C2  UNL     1      -8.264  27.159  -6.028  1.00  0.00     0.256 C 
HETATM    8  N1  UNL     1      -9.082  26.277  -6.751  1.00  0.00    -0.363 N 
HETATM    9  C1  UNL     1     -10.238  26.789  -7.469  1.00  0.00     0.149 C 
ATOM     10  H1  UNL     1      -8.867  25.281  -6.773  1.00  0.00     0.162 HD
HETATM   11  O1  UNL     1      -8.537  28.406  -6.002  1.00  0.00    -0.270 OA
ENDBRANCH   6   7
BRANCH   6  12
HETATM   12  O2  UNL     1      -6.081  27.750  -5.166  1.00  0.00    -0.297 OA
BRANCH  12  13
HETATM   13  C4  UNL     1      -4.761  27.393  -5.420  1.00  0.00     0.256 C 
HETATM   14  C5  UNL     1      -4.301  25.982  -5.334  1.00  0.00     0.126 C 
HETATM   15  O3  UNL     1      -3.905  28.264  -5.737  1.00  0.00    -0.266 OA
ENDBRANCH  12  13
ENDBRANCH   6  12
ENDBRANCH   3   6
ENDBRANCH   1   2
BRANCH   1  16
HETATM   16  C8  UNL     1      -6.416  24.962  -1.062  1.00  0.00     0.001 C 
HETATM   17  C9  UNL     1      -6.799  23.578  -1.449  1.00  0.00     0.011 C 
HETATM   18  C10 UNL     1      -5.105  25.255  -1.810  1.00  0.00     0.011 C 
ENDBRANCH   1  16
BRANCH   1  19
HETATM   19  C11 UNL     1      -7.488  27.188  -0.446  1.00  0.00     0.026 C 
HETATM   20  C12 UNL     1      -6.764  26.962   0.843  1.00  0.00     0.013 C 
HETATM   21  C13 UNL     1      -7.649  27.086   2.064  1.00  0.00     0.061 C 
HETATM   22  C14 UNL     1      -8.521  28.313   1.927  1.00  0.00     0.130 C 
HETATM   23  C15 UNL     1      -9.181  28.608   3.229  1.00  0.00     0.061 C 
HETATM   24  N3  UNL     1      -9.399  28.069   0.855  1.00  0.00    -0.378 N 
HETATM   25  C16 UNL     1     -10.404  29.457   3.164  1.00  0.00     0.007 C 
HETATM   26  C17 UNL     1     -10.682  29.870   1.753  1.00  0.00     0.024 C 
HETATM   27  C18 UNL     1     -10.706  28.593   0.906  1.00  0.00     0.078 C 
HETATM   28  C19 UNL     1     -11.217  28.999  -0.444  1.00  0.00     0.032 C 
HETATM   29  C20 UNL     1      -8.824  27.804  -0.411  1.00  0.00     0.127 C 
BRANCH  22  30
HETATM   30  O5  UNL     1      -7.704  29.421   1.607  1.00  0.00    -0.371 OA
ATOM     31  H5  UNL     1      -7.953  29.747   0.750  1.00  0.00     0.212 HD
ENDBRANCH  22  30
ENDBRANCH   1  19
TORSDOF 8
ENDMDL
MODEL 3
REMARK VINA RESULT: -7.037149301      2.188      3.574
REMARK  8 active torsions:
REMARK  status: ('A' for Active; 'I' for Inactive)
REMARK       I    between atoms: N1_2  and  C2_4 
REMARK    1  A    between atoms: C2_4  and  C3_6 
REMARK    2  A    between atoms: C3_6  and  O2_7 
REMARK    3  A    between atoms: C3_6  and  C6_11 
REMARK    4  A    between atoms: O2_7  and  C4_8 
REMARK       I    between atoms: C6_11  and  N2_13 
REMARK    5  A    between atoms: N2_13  and  C7_15 
REMARK    6  A    between atoms: C7_15  and  C8_16 
REMARK    7  A    between atoms: C7_15  and  C11_19 
REMARK    8  A    between atoms: C14_22  and  O5_23 
ROOT
HETATM    1  C7  UNL     1      -8.007  29.393   1.006  1.00  0.00     0.093 C 
ENDROOT
BRANCH   1   2
HETATM    2  N2  UNL     1      -8.554  30.768   0.915  1.00  0.00    -0.353 N 
HETATM    3  C6  UNL     1      -7.716  31.890   0.755  1.00  0.00     0.257 C 
HETATM    4  O4  UNL     1      -6.483  31.736   0.688  1.00  0.00    -0.270 OA
ATOM      5  H2  UNL     1      -9.563  30.905   0.970  1.00  0.00     0.163 HD
BRANCH   3   6
HETATM    6  C3  UNL     1      -8.224  33.278   0.663  1.00  0.00     0.315 C 
BRANCH   6   7
HETATM    7  C2  UNL     1      -7.963  33.936   1.961  1.00  0.00     0.256 C 
HETATM    8  N1  UNL     1      -7.143  33.420   2.978  1.00  0.00    -0.363 N 
HETATM    9  C1  UNL     1      -6.966  34.167   4.212  1.00  0.00     0.149 C 
ATOM     10  H1  UNL     1      -6.673  32.524   2.851  1.00  0.00     0.162 HD
HETATM   11  O1  UNL     1      -8.550  35.058   2.124  1.00  0.00    -0.270 OA
ENDBRANCH   6   7
BRANCH   6  12
HETATM   12  O2  UNL     1      -7.743  33.966  -0.448  1.00  0.00    -0.297 OA
BRANCH  12  13
HETATM   13  C4  UNL     1      -8.057  33.481  -1.713  1.00  0.00     0.256 C 
HETATM   14  C5  UNL     1      -9.380  32.876  -2.015  1.00  0.00     0.126 C 
HETATM   15  O3  UNL     1      -7.218  33.541  -2.655  1.00  0.00    -0.266 OA
ENDBRANCH  12  13
ENDBRANCH   6  12
ENDBRANCH   3   6
ENDBRANCH   1   2
BRANCH   1  16
HETATM   16  C8  UNL     1      -8.941  28.651   1.890  1.00  0.00     0.001 C 
HETATM   17  C9  UNL     1      -8.356  27.908   3.037  1.00  0.00     0.011 C 
HETATM   18  C10 UNL     1      -9.868  29.709   2.511  1.00  0.00     0.011 C 
ENDBRANCH   1  16
BRANCH   1  19
HETATM   19  C11 UNL     1      -7.791  28.836  -0.374  1.00  0.00     0.026 C 
HETATM   20  C12 UNL     1      -9.002  28.184  -0.960  1.00  0.00     0.013 C 
HETATM   21  C13 UNL     1      -8.764  26.757  -1.406  1.00  0.00     0.061 C 
HETATM   22  C14 UNL     1      -7.460  26.681  -2.167  1.00  0.00     0.130 C 
HETATM   23  C15 UNL     1      -7.353  25.363  -2.852  1.00  0.00     0.061 C 
HETATM   24  N3  UNL     1      -6.435  26.957  -1.242  1.00  0.00    -0.378 N 
HETATM   25  C16 UNL     1      -5.979  24.936  -3.234  1.00  0.00     0.007 C 
HETATM   26  C17 UNL     1      -4.980  25.986  -2.864  1.00  0.00     0.024 C 
HETATM   27  C18 UNL     1      -5.193  26.307  -1.381  1.00  0.00     0.078 C 
HETATM   28  C19 UNL     1      -4.040  27.175  -0.973  1.00  0.00     0.032 C 
HETATM   29  C20 UNL     1      -6.476  28.206  -0.577  1.00  0.00     0.127 C 
BRANCH  22  30
HETATM   30  O5  UNL     1      -7.455  27.679  -3.166  1.00  0.00    -0.371 OA
ATOM     31  H5  UNL     1      -7.958  27.371  -3.910  1.00  0.00     0.212 HD
ENDBRANCH  22  30
ENDBRANCH   1  19
TORSDOF 8
ENDMDL
MODEL 4
REMARK VINA RESULT: -6.943873885      1.417      2.707
REMARK  8 active torsions:
REMARK  status: ('A' for Active; 'I' for Inactive)
REMARK       I    between atoms: N1_2  and  C2_4 
REMARK    1  A    between atoms: C2_4  and  C3_6 
REMARK    2  A    between atoms: C3_6  and  O2_7 
REMARK    3  A    between atoms: C3_6  and  C6_11 
REMARK    4  A    between atoms: O2_7  and  C4_8 
REMARK       I    between atoms: C6_11  and  N2_13 
REMARK    5  A    between atoms: N2_13  and  C7_15 
REMARK    6  A    between atoms: C7_15  and  C8_16 
REMARK    7  A    between atoms: C7_15  and  C11_19 
REMARK    8  A    between atoms: C14_22  and  O5_23 
ROOT
HETATM    1  C7  UNL     1      -8.200  27.956  -0.251  1.00  0.00     0.093 C 
ENDROOT
BRANCH   1   2
HETATM    2  N2  UNL     1      -7.687  29.331  -0.457  1.00  0.00    -0.353 N 
HETATM    3  C6  UNL     1      -7.168  30.097   0.607  1.00  0.00     0.257 C 
HETATM    4  O4  UNL     1      -7.136  29.617   1.755  1.00  0.00    -0.270 OA
ATOM      5  H2  UNL     1      -7.709  29.734  -1.394  1.00  0.00     0.163 HD
BRANCH   3   6
HETATM    6  C3  UNL     1      -6.649  31.474   0.442  1.00  0.00     0.315 C 
BRANCH   6   7
HETATM    7  C2  UNL     1      -5.217  31.373   0.091  1.00  0.00     0.256 C 
HETATM    8  N1  UNL     1      -4.498  30.173  -0.028  1.00  0.00    -0.363 N 
HETATM    9  C1  UNL     1      -3.088  30.207  -0.381  1.00  0.00     0.149 C 
ATOM     10  H1  UNL     1      -4.963  29.279   0.133  1.00  0.00     0.162 HD
HETATM   11  O1  UNL     1      -4.632  32.489  -0.112  1.00  0.00    -0.270 OA
ENDBRANCH   6   7
BRANCH   6  12
HETATM   12  O2  UNL     1      -7.413  32.247  -0.429  1.00  0.00    -0.297 OA
BRANCH  12  13
HETATM   13  C4  UNL     1      -7.963  33.433   0.047  1.00  0.00     0.256 C 
HETATM   14  C5  UNL     1      -9.268  33.460   0.759  1.00  0.00     0.126 C 
HETATM   15  O3  UNL     1      -7.366  34.533  -0.112  1.00  0.00    -0.266 OA
ENDBRANCH  12  13
ENDBRANCH   6  12
ENDBRANCH   3   6
ENDBRANCH   1   2
BRANCH   1  16
HETATM   16  C8  UNL     1      -9.660  28.035  -0.508  1.00  0.00     0.001 C 
HETATM   17  C9  UNL     1     -10.547  28.320   0.652  1.00  0.00     0.011 C 
HETATM   18  C10 UNL     1      -9.857  29.210  -1.479  1.00  0.00     0.011 C 
ENDBRANCH   1  16
BRANCH   1  19
HETATM   19  C11 UNL     1      -7.414  26.986  -1.088  1.00  0.00     0.026 C 
HETATM   20  C12 UNL     1      -6.030  26.732  -0.582  1.00  0.00     0.013 C 
HETATM   21  C13 UNL     1      -4.953  26.988  -1.615  1.00  0.00     0.061 C 
HETATM   22  C14 UNL     1      -5.367  26.376  -2.933  1.00  0.00     0.130 C 
HETATM   23  C15 UNL     1      -4.208  26.367  -3.868  1.00  0.00     0.061 C 
HETATM   24  N3  UNL     1      -6.489  27.098  -3.380  1.00  0.00    -0.378 N 
HETATM   25  C16 UNL     1      -4.539  26.253  -5.316  1.00  0.00     0.007 C 
HETATM   26  C17 UNL     1      -6.018  26.129  -5.509  1.00  0.00     0.024 C 
HETATM   27  C18 UNL     1      -6.669  27.298  -4.763  1.00  0.00     0.078 C 
HETATM   28  C19 UNL     1      -8.114  27.293  -5.162  1.00  0.00     0.032 C 
HETATM   29  C20 UNL     1      -7.627  27.121  -2.538  1.00  0.00     0.127 C 
BRANCH  22  30
HETATM   30  O5  UNL     1      -5.744  25.033  -2.714  1.00  0.00    -0.371 OA
ATOM     31  H5  UNL     1      -6.016  24.934  -1.809  1.00  0.00     0.212 HD
ENDBRANCH  22  30
ENDBRANCH   1  19
TORSDOF 8
ENDMDL
MODEL 5
REMARK VINA RESULT: -6.897156801      0.877      1.081
REMARK  8 active torsions:
REMARK  status: ('A' for Active; 'I' for Inactive)
REMARK       I    between atoms: N1_2  and  C2_4 
REMARK    1  A    between atoms: C2_4  and  C3_6 
REMARK    2  A    between atoms: C3_6  and  O2_7 
REMARK    3  A    between atoms: C3_6  and  C6_11 
REMARK    4  A    between atoms: O2_7  and  C4_8 
REMARK       I    between atoms: C6_11  and  N2_13 
REMARK    5  A    between atoms: N2_13  and  C7_15 
REMARK    6  A    between atoms: C7_15  and  C8_16 
REMARK    7  A    between atoms: C7_15  and  C11_19 
REMARK    8  A    between atoms: C14_22  and  O5_23 
ROOT
HETATM    1  C7  UNL     1      -9.290  27.851  -0.383  1.00  0.00     0.093 C 
ENDROOT
BRANCH   1   2
HETATM    2  N2  UNL     1      -8.632  29.178  -0.442  1.00  0.00    -0.353 N 
HETATM    3  C6  UNL     1      -7.926  29.704   0.660  1.00  0.00     0.257 C 
HETATM    4  O4  UNL     1      -7.847  29.047   1.714  1.00  0.00    -0.270 OA
ATOM      5  H2  UNL     1      -8.692  29.724  -1.300  1.00  0.00     0.163 HD
BRANCH   3   6
HETATM    6  C3  UNL     1      -7.259  31.026   0.642  1.00  0.00     0.315 C 
BRANCH   6   7
HETATM    7  C2  UNL     1      -8.126  31.975   1.372  1.00  0.00     0.256 C 
HETATM    8  N1  UNL     1      -7.707  32.809   2.420  1.00  0.00    -0.363 N 
HETATM    9  C1  UNL     1      -8.660  33.702   3.059  1.00  0.00     0.149 C 
ATOM     10  H1  UNL     1      -6.737  32.789   2.734  1.00  0.00     0.162 HD
HETATM   11  O1  UNL     1      -9.342  32.003   0.982  1.00  0.00    -0.270 OA
ENDBRANCH   6   7
BRANCH   6  12
HETATM   12  O2  UNL     1      -5.939  30.980   1.084  1.00  0.00    -0.297 OA
BRANCH  12  13
HETATM   13  C4  UNL     1      -4.958  31.585   0.306  1.00  0.00     0.256 C 
HETATM   14  C5  UNL     1      -3.680  30.899  -0.017  1.00  0.00     0.126 C 
HETATM   15  O3  UNL     1      -5.126  32.748  -0.157  1.00  0.00    -0.266 OA
ENDBRANCH  12  13
ENDBRANCH   6  12
ENDBRANCH   3   6
ENDBRANCH   1   2
BRANCH   1  16
HETATM   16  C8  UNL     1     -10.706  28.093  -0.758  1.00  0.00     0.001 C 
HETATM   17  C9  UNL     1     -11.698  28.206   0.344  1.00  0.00     0.011 C 
HETATM   18  C10 UNL     1     -10.728  29.452  -1.476  1.00  0.00     0.011 C 
ENDBRANCH   1  16
BRANCH   1  19
HETATM   19  C11 UNL     1      -8.525  26.864  -1.220  1.00  0.00     0.026 C 
HETATM   20  C12 UNL     1      -7.313  26.308  -0.545  1.00  0.00     0.013 C 
HETATM   21  C13 UNL     1      -6.039  26.489  -1.341  1.00  0.00     0.061 C 
HETATM   22  C14 UNL     1      -6.295  26.125  -2.785  1.00  0.00     0.130 C 
HETATM   23  C15 UNL     1      -5.001  26.022  -3.515  1.00  0.00     0.061 C 
HETATM   24  N3  UNL     1      -7.191  27.084  -3.293  1.00  0.00    -0.378 N 
HETATM   25  C16 UNL     1      -5.076  26.144  -4.997  1.00  0.00     0.007 C 
HETATM   26  C17 UNL     1      -6.496  26.311  -5.440  1.00  0.00     0.024 C 
HETATM   27  C18 UNL     1      -7.082  27.479  -4.641  1.00  0.00     0.078 C 
HETATM   28  C19 UNL     1      -8.413  27.781  -5.262  1.00  0.00     0.032 C 
HETATM   29  C20 UNL     1      -8.446  27.209  -2.649  1.00  0.00     0.127 C 
BRANCH  22  30
HETATM   30  O5  UNL     1      -6.911  24.854  -2.833  1.00  0.00    -0.371 OA
ATOM     31  H5  UNL     1      -7.708  24.919  -3.346  1.00  0.00     0.212 HD
ENDBRANCH  22  30
ENDBRANCH   1  19
TORSDOF 8
ENDMDL
