MODEL 1
REMARK VINA RESULT: -6.990415602      0.000      0.000
REMARK  8 active torsions:
REMARK  status: ('A' for Active; 'I' for Inactive)
REMARK    1  A    between atoms: C2_2  and  C3_3 
REMARK    2  A    between atoms: C3_3  and  C4_4 
REMARK    3  A    between atoms: C4_4  and  O1_5 
REMARK       I    between atoms: N1_7  and  C5_8 
REMARK    4  A    between atoms: N2_17  and  S1_18 
REMARK    5  A    between atoms: S1_18  and  N3_21 
REMARK    6  A    between atoms: N3_21  and  C13_23 
REMARK    7  A    between atoms: C13_23  and  C14_24 
REMARK    8  A    between atoms: C14_24  and  N4_27 
ROOT
HETATM    1  C4  UNL     1      -8.970  26.786  -5.574  1.00  0.00     0.143 C 
HETATM    2  N1  UNL     1     -10.063  27.429  -4.817  1.00  0.00    -0.320 N 
HETATM    3  C5  UNL     1     -11.175  28.138  -5.334  1.00  0.00     0.218 C 
HETATM    4  C6  UNL     1     -12.209  28.738  -4.459  1.00  0.00     0.117 C 
HETATM    5  O2  UNL     1     -11.312  28.275  -6.574  1.00  0.00    -0.274 OA
HETATM    6  C7  UNL     1      -9.808  27.215  -3.422  1.00  0.00     0.130 C 
HETATM    7  C8  UNL     1      -8.318  27.455  -3.350  1.00  0.00     0.034 C 
HETATM    8  C9  UNL     1      -7.893  26.649  -4.601  1.00  0.00     0.013 C 
HETATM    9  C10 UNL     1      -6.636  27.361  -5.092  1.00  0.00     0.016 C 
HETATM   10  C11 UNL     1      -5.614  26.369  -5.584  1.00  0.00     0.022 C 
HETATM   11  C12 UNL     1      -4.703  26.061  -4.389  1.00  0.00     0.137 C 
HETATM   12  N2  UNL     1      -5.480  26.211  -3.210  1.00  0.00    -0.294 N 
HETATM   13  C17 UNL     1      -6.512  25.253  -3.031  1.00  0.00     0.137 C 
HETATM   14  C18 UNL     1      -7.594  25.282  -4.071  1.00  0.00     0.035 C 
ENDROOT
BRANCH  12  15
HETATM   15  S1  UNL     1      -4.582  26.553  -1.803  1.00  0.00     0.317 S 
HETATM   16  O3  UNL     1      -3.600  25.409  -1.604  1.00  0.00    -0.183 OA
HETATM   17  O4  UNL     1      -3.757  27.795  -1.980  1.00  0.00    -0.183 OA
BRANCH  15  18
HETATM   18  N3  UNL     1      -5.522  26.668  -0.387  1.00  0.00    -0.300 N 
ATOM     19  H3  UNL     1      -5.539  25.960   0.347  1.00  0.00     0.173 HD
BRANCH  18  20
HETATM   20  C13 UNL     1      -6.297  27.895  -0.354  1.00  0.00     0.171 C 
BRANCH  20  21
HETATM   21  C14 UNL     1      -7.276  27.924   0.776  1.00  0.00     0.133 C 
HETATM   22  C15 UNL     1      -7.182  26.604   1.512  1.00  0.00     0.047 C 
HETATM   23  C16 UNL     1      -8.705  28.082   0.284  1.00  0.00     0.047 C 
BRANCH  21  24
HETATM   24  N4  UNL     1      -7.024  29.036   1.675  1.00  0.00    -0.070 N 
ATOM     25  H43 UNL     1      -6.221  29.587   1.370  1.00  0.00     0.275 HD
ATOM     26  H42 UNL     1      -7.747  29.750   1.594  1.00  0.00     0.275 HD
ATOM     27  H41 UNL     1      -6.916  28.723   2.639  1.00  0.00     0.275 HD
ENDBRANCH  21  24
ENDBRANCH  20  21
ENDBRANCH  18  20
ENDBRANCH  15  18
ENDBRANCH  12  15
BRANCH   1  28
HETATM   28  C3  UNL     1      -9.568  25.608  -6.226  1.00  0.00     0.061 C 
BRANCH  28  29
HETATM   29  C2  UNL     1      -9.448  25.425  -7.682  1.00  0.00     0.000 C 
HETATM   30  C1  UNL     1     -10.185  24.229  -8.236  1.00  0.00     0.005 C 
ENDBRANCH  28  29
ENDBRANCH   1  28
BRANCH   1  31
HETATM   31  O1  UNL     1      -8.680  27.769  -6.547  1.00  0.00    -0.370 OA
ATOM     32  H1  UNL     1      -8.454  27.347  -7.368  1.00  0.00     0.212 HD
ENDBRANCH   1  31
TORSDOF 8
ENDMDL
MODEL 2
REMARK VINA RESULT: -6.658923474      3.021      6.128
REMARK  8 active torsions:
REMARK  status: ('A' for Active; 'I' for Inactive)
REMARK    1  A    between atoms: C2_2  and  C3_3 
REMARK    2  A    between atoms: C3_3  and  C4_4 
REMARK    3  A    between atoms: C4_4  and  O1_5 
REMARK       I    between atoms: N1_7  and  C5_8 
REMARK    4  A    between atoms: N2_17  and  S1_18 
REMARK    5  A    between atoms: S1_18  and  N3_21 
REMARK    6  A    between atoms: N3_21  and  C13_23 
REMARK    7  A    between atoms: C13_23  and  C14_24 
REMARK    8  A    between atoms: C14_24  and  N4_27 
ROOT
HETATM    1  C4  UNL     1      -9.135  29.078   0.179  1.00  0.00     0.143 C 
HETATM    2  N1  UNL     1      -8.280  30.147   0.734  1.00  0.00    -0.320 N 
HETATM    3  C5  UNL     1      -8.619  31.506   0.942  1.00  0.00     0.218 C 
HETATM    4  C6  UNL     1      -7.661  32.484   1.512  1.00  0.00     0.117 C 
HETATM    5  O2  UNL     1      -9.765  31.923   0.644  1.00  0.00    -0.274 OA
HETATM    6  C7  UNL     1      -7.004  29.568   1.036  1.00  0.00     0.130 C 
HETATM    7  C8  UNL     1      -6.781  28.687  -0.172  1.00  0.00     0.034 C 
HETATM    8  C9  UNL     1      -8.192  28.059  -0.264  1.00  0.00     0.013 C 
HETATM    9  C10 UNL     1      -8.375  27.772  -1.751  1.00  0.00     0.016 C 
HETATM   10  C11 UNL     1      -9.087  26.460  -1.962  1.00  0.00     0.022 C 
HETATM   11  C12 UNL     1      -7.993  25.397  -2.119  1.00  0.00     0.137 C 
HETATM   12  N2  UNL     1      -6.869  25.826  -1.365  1.00  0.00    -0.294 N 
HETATM   13  C17 UNL     1      -7.045  25.842   0.043  1.00  0.00     0.137 C 
HETATM   14  C18 UNL     1      -8.085  26.802   0.542  1.00  0.00     0.035 C 
ENDROOT
BRANCH  12  15
HETATM   15  S1  UNL     1      -5.376  25.185  -1.883  1.00  0.00     0.317 S 
HETATM   16  O3  UNL     1      -4.283  25.902  -1.108  1.00  0.00    -0.183 OA
HETATM   17  O4  UNL     1      -5.264  23.731  -1.529  1.00  0.00    -0.183 OA
BRANCH  15  18
HETATM   18  N3  UNL     1      -5.058  25.414  -3.541  1.00  0.00    -0.300 N 
ATOM     19  H3  UNL     1      -5.039  24.662  -4.228  1.00  0.00     0.173 HD
BRANCH  18  20
HETATM   20  C13 UNL     1      -4.818  26.811  -3.854  1.00  0.00     0.171 C 
BRANCH  20  21
HETATM   21  C14 UNL     1      -5.291  27.180  -5.224  1.00  0.00     0.133 C 
HETATM   22  C15 UNL     1      -6.721  27.668  -5.110  1.00  0.00     0.047 C 
HETATM   23  C16 UNL     1      -5.278  25.990  -6.169  1.00  0.00     0.047 C 
BRANCH  21  24
HETATM   24  N4  UNL     1      -4.446  28.195  -5.827  1.00  0.00    -0.070 N 
ATOM     25  H43 UNL     1      -4.803  29.133  -5.646  1.00  0.00     0.275 HD
ATOM     26  H42 UNL     1      -3.550  28.269  -5.344  1.00  0.00     0.275 HD
ATOM     27  H41 UNL     1      -4.317  28.033  -6.826  1.00  0.00     0.275 HD
ENDBRANCH  21  24
ENDBRANCH  20  21
ENDBRANCH  18  20
ENDBRANCH  15  18
ENDBRANCH  12  15
BRANCH   1  28
HETATM   28  C3  UNL     1     -10.145  28.790   1.213  1.00  0.00     0.061 C 
BRANCH  28  29
HETATM   29  C2  UNL     1     -11.574  28.740   0.860  1.00  0.00     0.000 C 
HETATM   30  C1  UNL     1     -12.498  28.383   2.000  1.00  0.00     0.005 C 
ENDBRANCH  28  29
ENDBRANCH   1  28
BRANCH   1  31
HETATM   31  O1  UNL     1      -9.748  29.739  -0.910  1.00  0.00    -0.370 OA
ATOM     32  H1  UNL     1      -9.210  29.637  -1.686  1.00  0.00     0.212 HD
ENDBRANCH   1  31
TORSDOF 8
ENDMDL
MODEL 3
REMARK VINA RESULT: -6.374881333      1.098      1.125
REMARK  8 active torsions:
REMARK  status: ('A' for Active; 'I' for Inactive)
REMARK    1  A    between atoms: C2_2  and  C3_3 
REMARK    2  A    between atoms: C3_3  and  C4_4 
REMARK    3  A    between atoms: C4_4  and  O1_5 
REMARK       I    between atoms: N1_7  and  C5_8 
REMARK    4  A    between atoms: N2_17  and  S1_18 
REMARK    5  A    between atoms: S1_18  and  N3_21 
REMARK    6  A    between atoms: N3_21  and  C13_23 
REMARK    7  A    between atoms: C13_23  and  C14_24 
REMARK    8  A    between atoms: C14_24  and  N4_27 
ROOT
HETATM    1  C4  UNL     1      -9.483  26.909  -5.659  1.00  0.00     0.143 C 
HETATM    2  N1  UNL     1     -10.626  26.684  -4.751  1.00  0.00    -0.320 N 
HETATM    3  C5  UNL     1     -11.966  27.111  -4.922  1.00  0.00     0.218 C 
HETATM    4  C6  UNL     1     -13.025  26.815  -3.929  1.00  0.00     0.117 C 
HETATM    5  O2  UNL     1     -12.294  27.762  -5.944  1.00  0.00    -0.274 OA
HETATM    6  C7  UNL     1     -10.144  25.938  -3.625  1.00  0.00     0.130 C 
HETATM    7  C8  UNL     1      -8.823  26.622  -3.357  1.00  0.00     0.034 C 
HETATM    8  C9  UNL     1      -8.311  26.716  -4.814  1.00  0.00     0.013 C 
HETATM    9  C10 UNL     1      -7.436  27.965  -4.820  1.00  0.00     0.016 C 
HETATM   10  C11 UNL     1      -6.210  27.759  -5.672  1.00  0.00     0.022 C 
HETATM   11  C12 UNL     1      -5.108  27.263  -4.727  1.00  0.00     0.137 C 
HETATM   12  N2  UNL     1      -5.739  26.550  -3.673  1.00  0.00    -0.294 N 
HETATM   13  C17 UNL     1      -6.360  25.330  -4.045  1.00  0.00     0.137 C 
HETATM   14  C18 UNL     1      -7.509  25.466  -5.001  1.00  0.00     0.035 C 
ENDROOT
BRANCH  12  15
HETATM   15  S1  UNL     1      -4.840  26.473  -2.227  1.00  0.00     0.317 S 
HETATM   16  O3  UNL     1      -4.819  25.018  -1.785  1.00  0.00    -0.183 OA
HETATM   17  O4  UNL     1      -3.410  26.866  -2.461  1.00  0.00    -0.183 OA
BRANCH  15  18
HETATM   18  N3  UNL     1      -5.500  27.383  -0.948  1.00  0.00    -0.300 N 
ATOM     19  H3  UNL     1      -5.153  28.297  -0.658  1.00  0.00     0.173 HD
BRANCH  18  20
HETATM   20  C13 UNL     1      -6.617  26.700  -0.321  1.00  0.00     0.171 C 
BRANCH  20  21
HETATM   21  C14 UNL     1      -7.370  27.580   0.623  1.00  0.00     0.133 C 
HETATM   22  C15 UNL     1      -7.356  26.925   1.989  1.00  0.00     0.047 C 
HETATM   23  C16 UNL     1      -8.822  27.751   0.205  1.00  0.00     0.047 C 
BRANCH  21  24
HETATM   24  N4  UNL     1      -6.800  28.914   0.685  1.00  0.00    -0.070 N 
ATOM     25  H43 UNL     1      -6.055  29.032  -0.002  1.00  0.00     0.275 HD
ATOM     26  H42 UNL     1      -7.452  29.614   0.333  1.00  0.00     0.275 HD
ATOM     27  H41 UNL     1      -6.479  29.143   1.625  1.00  0.00     0.275 HD
ENDBRANCH  21  24
ENDBRANCH  20  21
ENDBRANCH  18  20
ENDBRANCH  15  18
ENDBRANCH  12  15
BRANCH   1  28
HETATM   28  C3  UNL     1      -9.728  26.059  -6.837  1.00  0.00     0.061 C 
BRANCH  28  29
HETATM   29  C2  UNL     1      -9.826  26.659  -8.178  1.00  0.00     0.000 C 
HETATM   30  C1  UNL     1     -10.272  25.713  -9.267  1.00  0.00     0.005 C 
ENDBRANCH  28  29
ENDBRANCH   1  28
BRANCH   1  31
HETATM   31  O1  UNL     1      -9.662  28.267  -6.011  1.00  0.00    -0.370 OA
ATOM     32  H1  UNL     1     -10.545  28.539  -5.790  1.00  0.00     0.212 HD
ENDBRANCH   1  31
TORSDOF 8
ENDMDL
MODEL 4
REMARK VINA RESULT: -6.349981963      2.457      7.744
REMARK  8 active torsions:
REMARK  status: ('A' for Active; 'I' for Inactive)
REMARK    1  A    between atoms: C2_2  and  C3_3 
REMARK    2  A    between atoms: C3_3  and  C4_4 
REMARK    3  A    between atoms: C4_4  and  O1_5 
REMARK       I    between atoms: N1_7  and  C5_8 
REMARK    4  A    between atoms: N2_17  and  S1_18 
REMARK    5  A    between atoms: S1_18  and  N3_21 
REMARK    6  A    between atoms: N3_21  and  C13_23 
REMARK    7  A    between atoms: C13_23  and  C14_24 
REMARK    8  A    between atoms: C14_24  and  N4_27 
ROOT
HETATM    1  C4  UNL     1      -6.970  26.723  -1.804  1.00  0.00     0.143 C 
HETATM    2  N1  UNL     1      -5.674  26.173  -2.250  1.00  0.00    -0.320 N 
HETATM    3  C5  UNL     1      -4.405  26.342  -1.642  1.00  0.00     0.218 C 
HETATM    4  C6  UNL     1      -3.174  25.731  -2.195  1.00  0.00     0.117 C 
HETATM    5  O2  UNL     1      -4.294  27.028  -0.597  1.00  0.00    -0.274 OA
HETATM    6  C7  UNL     1      -5.913  25.415  -3.443  1.00  0.00     0.130 C 
HETATM    7  C8  UNL     1      -6.882  26.311  -4.179  1.00  0.00     0.034 C 
HETATM    8  C9  UNL     1      -7.810  26.671  -2.994  1.00  0.00     0.013 C 
HETATM    9  C10 UNL     1      -8.332  28.062  -3.340  1.00  0.00     0.016 C 
HETATM   10  C11 UNL     1      -9.784  28.201  -2.959  1.00  0.00     0.022 C 
HETATM   11  C12 UNL     1     -10.594  27.829  -4.207  1.00  0.00     0.137 C 
HETATM   12  N2  UNL     1      -9.830  26.890  -4.948  1.00  0.00    -0.294 N 
HETATM   13  C17 UNL     1      -9.658  25.621  -4.336  1.00  0.00     0.137 C 
HETATM   14  C18 UNL     1      -8.889  25.635  -3.048  1.00  0.00     0.035 C 
ENDROOT
BRANCH  12  15
HETATM   15  S1  UNL     1     -10.195  26.828  -6.612  1.00  0.00     0.317 S 
HETATM   16  O3  UNL     1     -11.367  27.766  -6.853  1.00  0.00    -0.183 OA
HETATM   17  O4  UNL     1      -9.054  27.357  -7.433  1.00  0.00    -0.183 OA
BRANCH  15  18
HETATM   18  N3  UNL     1     -10.655  25.286  -7.167  1.00  0.00    -0.300 N 
ATOM     19  H3  UNL     1     -11.294  24.666  -6.669  1.00  0.00     0.173 HD
BRANCH  18  20
HETATM   20  C13 UNL     1     -10.028  24.960  -8.435  1.00  0.00     0.171 C 
BRANCH  20  21
HETATM   21  C14 UNL     1     -10.915  25.247  -9.604  1.00  0.00     0.133 C 
HETATM   22  C15 UNL     1     -10.923  24.024 -10.498  1.00  0.00     0.047 C 
HETATM   23  C16 UNL     1     -10.409  26.421 -10.426  1.00  0.00     0.047 C 
BRANCH  21  24
HETATM   24  N4  UNL     1     -12.262  25.588  -9.184  1.00  0.00    -0.070 N 
ATOM     25  H43 UNL     1     -12.696  26.251  -9.826  1.00  0.00     0.275 HD
ATOM     26  H42 UNL     1     -12.901  24.803  -9.308  1.00  0.00     0.275 HD
ATOM     27  H41 UNL     1     -12.281  25.934  -8.224  1.00  0.00     0.275 HD
ENDBRANCH  21  24
ENDBRANCH  20  21
ENDBRANCH  18  20
ENDBRANCH  15  18
ENDBRANCH  12  15
BRANCH   1  28
HETATM   28  C3  UNL     1      -7.325  25.981  -0.582  1.00  0.00     0.061 C 
BRANCH  28  29
HETATM   29  C2  UNL     1      -7.936  26.681   0.560  1.00  0.00     0.000 C 
HETATM   30  C1  UNL     1      -7.132  26.634   1.838  1.00  0.00     0.005 C 
ENDBRANCH  28  29
ENDBRANCH   1  28
BRANCH   1  31
HETATM   31  O1  UNL     1      -6.616  28.049  -1.466  1.00  0.00    -0.370 OA
ATOM     32  H1  UNL     1      -7.285  28.424  -0.906  1.00  0.00     0.212 HD
ENDBRANCH   1  31
TORSDOF 8
ENDMDL
MODEL 5
REMARK VINA RESULT: -6.328461946      2.470      7.643
REMARK  8 active torsions:
REMARK  status: ('A' for Active; 'I' for Inactive)
REMARK    1  A    between atoms: C2_2  and  C3_3 
REMARK    2  A    between atoms: C3_3  and  C4_4 
REMARK    3  A    between atoms: C4_4  and  O1_5 
REMARK       I    between atoms: N1_7  and  C5_8 
REMARK    4  A    between atoms: N2_17  and  S1_18 
REMARK    5  A    between atoms: S1_18  and  N3_21 
REMARK    6  A    between atoms: N3_21  and  C13_23 
REMARK    7  A    between atoms: C13_23  and  C14_24 
REMARK    8  A    between atoms: C14_24  and  N4_27 
ROOT
HETATM    1  C4  UNL     1      -7.007  26.643  -1.941  1.00  0.00     0.143 C 
HETATM    2  N1  UNL     1      -5.678  26.095  -2.280  1.00  0.00    -0.320 N 
HETATM    3  C5  UNL     1      -4.450  26.328  -1.615  1.00  0.00     0.218 C 
HETATM    4  C6  UNL     1      -3.178  25.712  -2.061  1.00  0.00     0.117 C 
HETATM    5  O2  UNL     1      -4.410  27.079  -0.610  1.00  0.00    -0.274 OA
HETATM    6  C7  UNL     1      -5.836  25.261  -3.436  1.00  0.00     0.130 C 
HETATM    7  C8  UNL     1      -6.778  26.090  -4.278  1.00  0.00     0.034 C 
HETATM    8  C9  UNL     1      -7.778  26.500  -3.170  1.00  0.00     0.013 C 
HETATM    9  C10 UNL     1      -8.306  27.856  -3.630  1.00  0.00     0.016 C 
HETATM   10  C11 UNL     1      -9.779  27.987  -3.338  1.00  0.00     0.022 C 
HETATM   11  C12 UNL     1     -10.511  27.522  -4.604  1.00  0.00     0.137 C 
HETATM   12  N2  UNL     1      -9.689  26.556  -5.243  1.00  0.00    -0.294 N 
HETATM   13  C17 UNL     1      -9.528  25.331  -4.545  1.00  0.00     0.137 C 
HETATM   14  C18 UNL     1      -8.833  25.440  -3.219  1.00  0.00     0.035 C 
ENDROOT
BRANCH  12  15
HETATM   15  S1  UNL     1      -9.958  26.386  -6.917  1.00  0.00     0.317 S 
HETATM   16  O3  UNL     1     -11.446  26.584  -7.158  1.00  0.00    -0.183 OA
HETATM   17  O4  UNL     1      -9.256  27.467  -7.687  1.00  0.00    -0.183 OA
BRANCH  15  18
HETATM   18  N3  UNL     1      -9.542  24.855  -7.537  1.00  0.00    -0.300 N 
ATOM     19  H3  UNL     1      -8.882  24.219  -7.092  1.00  0.00     0.173 HD
BRANCH  18  20
HETATM   20  C13 UNL     1     -10.241  24.568  -8.776  1.00  0.00     0.171 C 
BRANCH  20  21
HETATM   21  C14 UNL     1     -11.138  23.377  -8.665  1.00  0.00     0.133 C 
HETATM   22  C15 UNL     1     -10.283  22.133  -8.796  1.00  0.00     0.047 C 
HETATM   23  C16 UNL     1     -12.179  23.345  -9.772  1.00  0.00     0.047 C 
BRANCH  21  24
HETATM   24  N4  UNL     1     -11.869  23.371  -7.411  1.00  0.00    -0.070 N 
ATOM     25  H43 UNL     1     -12.550  24.130  -7.373  1.00  0.00     0.275 HD
ATOM     26  H42 UNL     1     -12.510  22.579  -7.358  1.00  0.00     0.275 HD
ATOM     27  H41 UNL     1     -11.240  23.394  -6.608  1.00  0.00     0.275 HD
ENDBRANCH  21  24
ENDBRANCH  20  21
ENDBRANCH  18  20
ENDBRANCH  15  18
ENDBRANCH  12  15
BRANCH   1  28
HETATM   28  C3  UNL     1      -7.417  25.968  -0.697  1.00  0.00     0.061 C 
BRANCH  28  29
HETATM   29  C2  UNL     1      -7.984  26.747   0.417  1.00  0.00     0.000 C 
HETATM   30  C1  UNL     1      -7.187  26.696   1.699  1.00  0.00     0.005 C 
ENDBRANCH  28  29
ENDBRANCH   1  28
BRANCH   1  31
HETATM   31  O1  UNL     1      -6.698  27.994  -1.667  1.00  0.00    -0.370 OA
ATOM     32  H1  UNL     1      -7.275  28.561  -2.164  1.00  0.00     0.212 HD
ENDBRANCH   1  31
TORSDOF 8
ENDMDL
