MODEL 1
REMARK VINA RESULT: -6.412050513      0.000      0.000
REMARK  6 active torsions:
REMARK  status: ('A' for Active; 'I' for Inactive)
REMARK       I    between atoms: C1_2  and  N1_3 
REMARK    1  A    between atoms: C1_2  and  C12_21 
REMARK    2  A    between atoms: N1_3  and  C2_5 
REMARK    3  A    between atoms: C2_5  and  C3_6 
REMARK       I    between atoms: C3_6  and  N2_8 
REMARK    4  A    between atoms: N2_8  and  C4_10 
REMARK    5  A    between atoms: C14_23  and  N3_24 
REMARK    6  A    between atoms: N3_24  and  C15_27 
ROOT
HETATM    1  C2  UNL     1      -6.909  26.979  -5.128  1.00  0.00     0.113 C 
HETATM    2  C8  UNL     1      -6.121  28.167  -5.596  1.00  0.00     0.041 C 
HETATM    3  C9  UNL     1      -4.756  27.707  -5.991  1.00  0.00     0.003 C 
HETATM    4  C10 UNL     1      -4.645  26.379  -5.259  1.00  0.00     0.003 C 
HETATM    5  C11 UNL     1      -6.016  25.810  -5.474  1.00  0.00     0.041 C 
ENDROOT
BRANCH   1   6
HETATM    6  N1  UNL     1      -7.160  27.067  -3.709  1.00  0.00    -0.343 N 
HETATM    7  C1  UNL     1      -7.691  26.010  -2.922  1.00  0.00     0.223 C 
HETATM    8  O1  UNL     1      -7.987  24.887  -3.406  1.00  0.00    -0.273 OA
ATOM      9  H1  UNL     1      -6.943  27.947  -3.240  1.00  0.00     0.163 HD
BRANCH   7  10
HETATM   10  C12 UNL     1      -7.930  26.170  -1.460  1.00  0.00     0.082 C 
HETATM   11  C13 UNL     1      -9.160  26.978  -1.113  1.00  0.00     0.047 C 
HETATM   12  C14 UNL     1      -8.329  27.582   0.025  1.00  0.00     0.188 C 
HETATM   13  C19 UNL     1      -7.104  27.263  -0.815  1.00  0.00     0.047 C 
BRANCH  12  14
HETATM   14  N3  UNL     1      -8.564  28.970   0.256  1.00  0.00    -0.067 N 
ATOM     15  H32 UNL     1      -8.005  29.567  -0.353  1.00  0.00     0.278 HD
ATOM     16  H31 UNL     1      -9.487  29.267  -0.063  1.00  0.00     0.278 HD
BRANCH  14  17
HETATM   17  C15 UNL     1      -8.348  29.253   1.658  1.00  0.00     0.186 C 
HETATM   18  C16 UNL     1      -8.436  28.089   2.605  1.00  0.00     0.033 C 
HETATM   19  C17 UNL     1      -9.819  28.559   3.058  1.00  0.00     0.004 C 
HETATM   20  C18 UNL     1      -9.586  29.838   2.285  1.00  0.00     0.033 C 
ENDBRANCH  14  17
ENDBRANCH  12  14
ENDBRANCH   7  10
ENDBRANCH   1   6
BRANCH   1  21
HETATM   21  C3  UNL     1      -8.145  26.890  -5.941  1.00  0.00     0.246 C 
HETATM   22  O2  UNL     1      -8.660  27.990  -6.326  1.00  0.00    -0.271 OA
HETATM   23  N2  UNL     1      -8.695  25.642  -6.253  1.00  0.00    -0.353 N 
ATOM     24  H2  UNL     1      -8.214  24.813  -5.902  1.00  0.00     0.163 HD
BRANCH  23  25
HETATM   25  C4  UNL     1      -9.890  25.439  -7.033  1.00  0.00     0.099 C 
HETATM   26  C5  UNL     1      -9.705  24.315  -8.013  1.00  0.00     0.041 C 
HETATM   27  C6  UNL     1     -10.991  24.156  -8.760  1.00  0.00     0.142 C 
HETATM   28  S1  UNL     1     -12.204  24.498  -7.477  1.00  0.00     0.146 S 
HETATM   29  O3  UNL     1     -12.938  23.283  -7.058  1.00  0.00    -0.228 OA
HETATM   30  O4  UNL     1     -13.088  25.604  -7.969  1.00  0.00    -0.228 OA
HETATM   31  C7  UNL     1     -11.101  25.101  -6.188  1.00  0.00     0.165 C 
ENDBRANCH  23  25
ENDBRANCH   1  21
TORSDOF 6
ENDMDL
MODEL 2
REMARK VINA RESULT: -6.319510738      2.693      3.592
REMARK  6 active torsions:
REMARK  status: ('A' for Active; 'I' for Inactive)
REMARK       I    between atoms: C1_2  and  N1_3 
REMARK    1  A    between atoms: C1_2  and  C12_21 
REMARK    2  A    between atoms: N1_3  and  C2_5 
REMARK    3  A    between atoms: C2_5  and  C3_6 
REMARK       I    between atoms: C3_6  and  N2_8 
REMARK    4  A    between atoms: N2_8  and  C4_10 
REMARK    5  A    between atoms: C14_23  and  N3_24 
REMARK    6  A    between atoms: N3_24  and  C15_27 
ROOT
HETATM    1  C2  UNL     1      -7.316  26.718  -2.525  1.00  0.00     0.113 C 
HETATM    2  C8  UNL     1      -5.931  26.246  -2.852  1.00  0.00     0.041 C 
HETATM    3  C9  UNL     1      -5.762  24.860  -2.319  1.00  0.00     0.003 C 
HETATM    4  C10 UNL     1      -6.861  24.788  -1.272  1.00  0.00     0.003 C 
HETATM    5  C11 UNL     1      -7.988  25.479  -1.982  1.00  0.00     0.041 C 
ENDROOT
BRANCH   1   6
HETATM    6  N1  UNL     1      -7.269  27.781  -1.549  1.00  0.00    -0.343 N 
HETATM    7  C1  UNL     1      -8.362  28.162  -0.726  1.00  0.00     0.223 C 
HETATM    8  O1  UNL     1      -9.482  27.591  -0.778  1.00  0.00    -0.273 OA
ATOM      9  H1  UNL     1      -6.392  28.293  -1.443  1.00  0.00     0.163 HD
BRANCH   7  10
HETATM   10  C12 UNL     1      -8.247  29.273   0.260  1.00  0.00     0.082 C 
HETATM   11  C13 UNL     1      -8.583  30.639  -0.295  1.00  0.00     0.047 C 
HETATM   12  C14 UNL     1      -7.422  31.168   0.556  1.00  0.00     0.188 C 
HETATM   13  C19 UNL     1      -6.832  29.772   0.465  1.00  0.00     0.047 C 
BRANCH  12  14
HETATM   14  N3  UNL     1      -6.654  32.196  -0.067  1.00  0.00    -0.067 N 
ATOM     15  H32 UNL     1      -5.850  31.828  -0.575  1.00  0.00     0.278 HD
ATOM     16  H31 UNL     1      -7.139  32.619  -0.859  1.00  0.00     0.278 HD
BRANCH  14  17
HETATM   17  C15 UNL     1      -6.277  33.169   0.934  1.00  0.00     0.186 C 
HETATM   18  C16 UNL     1      -7.259  33.411   2.047  1.00  0.00     0.033 C 
HETATM   19  C17 UNL     1      -7.680  34.727   1.393  1.00  0.00     0.004 C 
HETATM   20  C18 UNL     1      -6.519  34.571   0.437  1.00  0.00     0.033 C 
ENDBRANCH  14  17
ENDBRANCH  12  14
ENDBRANCH   7  10
ENDBRANCH   1   6
BRANCH   1  21
HETATM   21  C3  UNL     1      -7.987  27.108  -3.787  1.00  0.00     0.246 C 
HETATM   22  O2  UNL     1      -7.905  28.333  -4.127  1.00  0.00    -0.271 OA
HETATM   23  N2  UNL     1      -8.668  26.152  -4.548  1.00  0.00    -0.353 N 
ATOM     24  H2  UNL     1      -8.682  25.194  -4.200  1.00  0.00     0.163 HD
BRANCH  23  25
HETATM   25  C4  UNL     1      -9.354  26.420  -5.788  1.00  0.00     0.099 C 
HETATM   26  C5  UNL     1      -9.078  25.340  -6.795  1.00  0.00     0.041 C 
HETATM   27  C6  UNL     1      -9.842  25.681  -8.036  1.00  0.00     0.142 C 
HETATM   28  S1  UNL     1     -11.349  26.389  -7.355  1.00  0.00     0.146 S 
HETATM   29  O3  UNL     1     -12.521  25.504  -7.541  1.00  0.00    -0.228 OA
HETATM   30  O4  UNL     1     -11.517  27.756  -7.948  1.00  0.00    -0.228 OA
HETATM   31  C7  UNL     1     -10.858  26.509  -5.627  1.00  0.00     0.165 C 
ENDBRANCH  23  25
ENDBRANCH   1  21
TORSDOF 6
ENDMDL
MODEL 3
REMARK VINA RESULT: -6.300296446      4.930      9.112
REMARK  6 active torsions:
REMARK  status: ('A' for Active; 'I' for Inactive)
REMARK       I    between atoms: C1_2  and  N1_3 
REMARK    1  A    between atoms: C1_2  and  C12_21 
REMARK    2  A    between atoms: N1_3  and  C2_5 
REMARK    3  A    between atoms: C2_5  and  C3_6 
REMARK       I    between atoms: C3_6  and  N2_8 
REMARK    4  A    between atoms: N2_8  and  C4_10 
REMARK    5  A    between atoms: C14_23  and  N3_24 
REMARK    6  A    between atoms: N3_24  and  C15_27 
ROOT
HETATM    1  C2  UNL     1     -10.426  29.410   2.533  1.00  0.00     0.113 C 
HETATM    2  C8  UNL     1     -11.905  29.659   2.494  1.00  0.00     0.041 C 
HETATM    3  C9  UNL     1     -12.485  29.289   3.820  1.00  0.00     0.003 C 
HETATM    4  C10 UNL     1     -11.416  28.369   4.387  1.00  0.00     0.003 C 
HETATM    5  C11 UNL     1     -10.164  29.092   3.986  1.00  0.00     0.041 C 
ENDROOT
BRANCH   1   6
HETATM    6  N1  UNL     1     -10.077  28.310   1.666  1.00  0.00    -0.343 N 
HETATM    7  C1  UNL     1     -10.095  28.372   0.247  1.00  0.00     0.223 C 
HETATM    8  O1  UNL     1     -10.419  29.412  -0.383  1.00  0.00    -0.273 OA
ATOM      9  H1  UNL     1      -9.800  27.430   2.101  1.00  0.00     0.163 HD
BRANCH   7  10
HETATM   10  C12 UNL     1      -9.727  27.195  -0.590  1.00  0.00     0.082 C 
HETATM   11  C13 UNL     1      -8.314  26.699  -0.382  1.00  0.00     0.047 C 
HETATM   12  C14 UNL     1      -8.273  26.461  -1.897  1.00  0.00     0.188 C 
HETATM   13  C19 UNL     1      -9.330  27.547  -2.009  1.00  0.00     0.047 C 
BRANCH  12  14
HETATM   14  N3  UNL     1      -7.021  26.765  -2.509  1.00  0.00    -0.067 N 
ATOM     15  H32 UNL     1      -7.106  27.471  -3.241  1.00  0.00     0.278 HD
ATOM     16  H31 UNL     1      -6.399  27.282  -1.887  1.00  0.00     0.278 HD
BRANCH  14  17
HETATM   17  C15 UNL     1      -6.427  25.538  -2.991  1.00  0.00     0.186 C 
HETATM   18  C16 UNL     1      -7.057  24.254  -2.528  1.00  0.00     0.033 C 
HETATM   19  C17 UNL     1      -5.908  24.042  -1.542  1.00  0.00     0.004 C 
HETATM   20  C18 UNL     1      -5.189  25.196  -2.204  1.00  0.00     0.033 C 
ENDBRANCH  14  17
ENDBRANCH  12  14
ENDBRANCH   7  10
ENDBRANCH   1   6
BRANCH   1  21
HETATM   21  C3  UNL     1      -9.731  30.673   2.191  1.00  0.00     0.246 C 
HETATM   22  O2  UNL     1     -10.288  31.756   2.567  1.00  0.00    -0.271 OA
HETATM   23  N2  UNL     1      -8.522  30.644   1.488  1.00  0.00    -0.353 N 
ATOM     24  H2  UNL     1      -8.148  29.732   1.228  1.00  0.00     0.163 HD
BRANCH  23  25
HETATM   25  C4  UNL     1      -7.763  31.809   1.103  1.00  0.00     0.099 C 
HETATM   26  C5  UNL     1      -6.372  31.426   0.684  1.00  0.00     0.041 C 
HETATM   27  C6  UNL     1      -5.665  32.681   0.280  1.00  0.00     0.142 C 
HETATM   28  S1  UNL     1      -6.989  33.610  -0.507  1.00  0.00     0.146 S 
HETATM   29  O3  UNL     1      -6.818  33.698  -1.975  1.00  0.00    -0.228 OA
HETATM   30  O4  UNL     1      -7.081  34.940   0.176  1.00  0.00    -0.228 OA
HETATM   31  C7  UNL     1      -8.385  32.569  -0.050  1.00  0.00     0.165 C 
ENDBRANCH  23  25
ENDBRANCH   1  21
TORSDOF 6
ENDMDL
MODEL 4
REMARK VINA RESULT: -6.291817226      3.516      8.022
REMARK  6 active torsions:
REMARK  status: ('A' for Active; 'I' for Inactive)
REMARK       I    between atoms: C1_2  and  N1_3 
REMARK    1  A    between atoms: C1_2  and  C12_21 
REMARK    2  A    between atoms: N1_3  and  C2_5 
REMARK    3  A    between atoms: C2_5  and  C3_6 
REMARK       I    between atoms: C3_6  and  N2_8 
REMARK    4  A    between atoms: N2_8  and  C4_10 
REMARK    5  A    between atoms: C14_23  and  N3_24 
REMARK    6  A    between atoms: N3_24  and  C15_27 
ROOT
HETATM    1  C2  UNL     1      -5.922  25.896  -2.171  1.00  0.00     0.113 C 
HETATM    2  C8  UNL     1      -5.328  24.557  -1.847  1.00  0.00     0.041 C 
HETATM    3  C9  UNL     1      -3.873  24.738  -1.564  1.00  0.00     0.003 C 
HETATM    4  C10 UNL     1      -3.584  26.072  -2.233  1.00  0.00     0.003 C 
HETATM    5  C11 UNL     1      -4.804  26.860  -1.854  1.00  0.00     0.041 C 
ENDROOT
BRANCH   1   6
HETATM    6  N1  UNL     1      -6.308  25.952  -3.561  1.00  0.00    -0.343 N 
HETATM    7  C1  UNL     1      -7.122  26.971  -4.126  1.00  0.00     0.223 C 
HETATM    8  O1  UNL     1      -7.578  27.928  -3.449  1.00  0.00    -0.273 OA
ATOM      9  H1  UNL     1      -5.975  25.212  -4.179  1.00  0.00     0.163 HD
BRANCH   7  10
HETATM   10  C12 UNL     1      -7.487  26.967  -5.571  1.00  0.00     0.082 C 
HETATM   11  C13 UNL     1      -8.718  27.778  -5.906  1.00  0.00     0.047 C 
HETATM   12  C14 UNL     1      -9.072  26.660  -6.895  1.00  0.00     0.188 C 
HETATM   13  C19 UNL     1      -8.252  25.737  -6.011  1.00  0.00     0.047 C 
BRANCH  12  14
HETATM   14  N3  UNL     1     -10.463  26.355  -6.968  1.00  0.00    -0.067 N 
ATOM     15  H32 UNL     1     -10.652  25.361  -6.837  1.00  0.00     0.278 HD
ATOM     16  H31 UNL     1     -10.982  26.705  -6.163  1.00  0.00     0.278 HD
BRANCH  14  17
HETATM   17  C15 UNL     1     -10.985  26.855  -8.221  1.00  0.00     0.186 C 
HETATM   18  C16 UNL     1     -11.746  25.880  -9.076  1.00  0.00     0.033 C 
HETATM   19  C17 UNL     1     -10.539  25.748 -10.005  1.00  0.00     0.004 C 
HETATM   20  C18 UNL     1      -9.904  26.908  -9.270  1.00  0.00     0.033 C 
ENDBRANCH  14  17
ENDBRANCH  12  14
ENDBRANCH   7  10
ENDBRANCH   1   6
BRANCH   1  21
HETATM   21  C3  UNL     1      -7.045  26.147  -1.238  1.00  0.00     0.246 C 
HETATM   22  O2  UNL     1      -7.950  25.252  -1.172  1.00  0.00    -0.271 OA
HETATM   23  N2  UNL     1      -7.081  27.321  -0.478  1.00  0.00    -0.353 N 
ATOM     24  H2  UNL     1      -6.313  27.982  -0.594  1.00  0.00     0.163 HD
BRANCH  23  25
HETATM   25  C4  UNL     1      -8.123  27.667   0.458  1.00  0.00     0.099 C 
HETATM   26  C5  UNL     1      -7.581  27.740   1.857  1.00  0.00     0.041 C 
HETATM   27  C6  UNL     1      -8.714  28.126   2.755  1.00  0.00     0.142 C 
HETATM   28  S1  UNL     1      -9.631  29.273   1.716  1.00  0.00     0.146 S 
HETATM   29  O3  UNL     1      -9.512  30.673   2.183  1.00  0.00    -0.228 OA
HETATM   30  O4  UNL     1     -11.043  28.777   1.628  1.00  0.00    -0.228 OA
HETATM   31  C7  UNL     1      -8.771  29.003   0.158  1.00  0.00     0.165 C 
ENDBRANCH  23  25
ENDBRANCH   1  21
TORSDOF 6
ENDMDL
MODEL 5
REMARK VINA RESULT: -6.190735341      4.357      9.023
REMARK  6 active torsions:
REMARK  status: ('A' for Active; 'I' for Inactive)
REMARK       I    between atoms: C1_2  and  N1_3 
REMARK    1  A    between atoms: C1_2  and  C12_21 
REMARK    2  A    between atoms: N1_3  and  C2_5 
REMARK    3  A    between atoms: C2_5  and  C3_6 
REMARK       I    between atoms: C3_6  and  N2_8 
REMARK    4  A    between atoms: N2_8  and  C4_10 
REMARK    5  A    between atoms: C14_23  and  N3_24 
REMARK    6  A    between atoms: N3_24  and  C15_27 
ROOT
HETATM    1  C2  UNL     1      -7.974  27.706  -0.782  1.00  0.00     0.113 C 
HETATM    2  C8  UNL     1      -8.374  27.143   0.549  1.00  0.00     0.041 C 
HETATM    3  C9  UNL     1      -7.191  26.457   1.151  1.00  0.00     0.003 C 
HETATM    4  C10 UNL     1      -6.316  26.209  -0.067  1.00  0.00     0.003 C 
HETATM    5  C11 UNL     1      -6.478  27.501  -0.813  1.00  0.00     0.041 C 
ENDROOT
BRANCH   1   6
HETATM    6  N1  UNL     1      -8.640  26.998  -1.850  1.00  0.00    -0.343 N 
HETATM    7  C1  UNL     1      -8.159  26.926  -3.185  1.00  0.00     0.223 C 
HETATM    8  O1  UNL     1      -7.092  27.480  -3.553  1.00  0.00    -0.273 OA
ATOM      9  H1  UNL     1      -9.513  26.518  -1.632  1.00  0.00     0.163 HD
BRANCH   7  10
HETATM   10  C12 UNL     1      -8.900  26.180  -4.242  1.00  0.00     0.082 C 
HETATM   11  C13 UNL     1      -8.101  25.919  -5.498  1.00  0.00     0.047 C 
HETATM   12  C14 UNL     1      -9.396  26.203  -6.269  1.00  0.00     0.188 C 
HETATM   13  C19 UNL     1      -9.819  27.044  -5.078  1.00  0.00     0.047 C 
BRANCH  12  14
HETATM   14  N3  UNL     1      -9.213  26.921  -7.488  1.00  0.00    -0.067 N 
ATOM     15  H32 UNL     1      -8.938  27.891  -7.331  1.00  0.00     0.278 HD
ATOM     16  H31 UNL     1      -8.382  26.619  -7.997  1.00  0.00     0.278 HD
BRANCH  14  17
HETATM   17  C15 UNL     1     -10.417  26.810  -8.281  1.00  0.00     0.186 C 
HETATM   18  C16 UNL     1     -10.968  25.426  -8.485  1.00  0.00     0.033 C 
HETATM   19  C17 UNL     1     -10.417  25.413  -9.911  1.00  0.00     0.004 C 
HETATM   20  C18 UNL     1     -10.100  26.883  -9.752  1.00  0.00     0.033 C 
ENDBRANCH  14  17
ENDBRANCH  12  14
ENDBRANCH   7  10
ENDBRANCH   1   6
BRANCH   1  21
HETATM   21  C3  UNL     1      -8.254  29.161  -0.777  1.00  0.00     0.246 C 
HETATM   22  O2  UNL     1      -9.091  29.589  -1.637  1.00  0.00    -0.271 OA
HETATM   23  N2  UNL     1      -7.614  29.999   0.143  1.00  0.00    -0.353 N 
ATOM     24  H2  UNL     1      -6.959  29.570   0.796  1.00  0.00     0.163 HD
BRANCH  23  25
HETATM   25  C4  UNL     1      -7.810  31.425   0.237  1.00  0.00     0.099 C 
HETATM   26  C5  UNL     1      -9.020  31.744   1.068  1.00  0.00     0.041 C 
HETATM   27  C6  UNL     1      -9.136  33.234   1.134  1.00  0.00     0.142 C 
HETATM   28  S1  UNL     1      -7.410  33.733   1.209  1.00  0.00     0.146 S 
HETATM   29  O3  UNL     1      -7.033  34.257   2.541  1.00  0.00    -0.228 OA
HETATM   30  O4  UNL     1      -7.165  34.694   0.085  1.00  0.00    -0.228 OA
HETATM   31  C7  UNL     1      -6.634  32.146   0.861  1.00  0.00     0.165 C 
ENDBRANCH  23  25
ENDBRANCH   1  21
TORSDOF 6
ENDMDL
