MODEL 1
REMARK VINA RESULT: -7.844932445      0.000      0.000
REMARK  8 active torsions:
REMARK  status: ('A' for Active; 'I' for Inactive)
REMARK    1  A    between atoms: C2_2  and  S1_4 
REMARK    2  A    between atoms: S1_4  and  N1_7 
REMARK       I    between atoms: N1_7  and  C4_9 
REMARK       I    between atoms: C4_9  and  N2_11 
REMARK    3  A    between atoms: C8_15  and  C9_16 
REMARK    4  A    between atoms: C9_16  and  N3_17 
REMARK       I    between atoms: N3_17  and  C10_19 
REMARK    5  A    between atoms: C10_19  and  C11_21 
REMARK       I    between atoms: C11_21  and  N4_23 
REMARK    6  A    between atoms: N4_23  and  C12_25 
REMARK    7  A    between atoms: C12_25  and  C13_26 
REMARK    8  A    between atoms: C13_26  and  C14_27 
ROOT
HETATM    1  N1  UNL     1      -6.422  30.307   1.405  1.00  0.00    -0.235 N 
ATOM      2  H1  UNL     1      -6.061  29.662   2.109  1.00  0.00     0.183 HD
HETATM    3  C4  UNL     1      -7.442  29.832   0.545  1.00  0.00     0.332 C 
HETATM    4  O3  UNL     1      -7.860  30.679  -0.317  1.00  0.00    -0.246 OA
HETATM    5  N2  UNL     1      -7.925  28.525   0.667  1.00  0.00    -0.327 N 
HETATM    6  C5  UNL     1      -7.483  27.540   1.623  1.00  0.00     0.128 C 
HETATM    7  C6  UNL     1      -7.452  26.270   0.795  1.00  0.00     0.022 C 
HETATM    8  C7  UNL     1      -8.218  26.621  -0.508  1.00  0.00     0.028 C 
HETATM    9  C8  UNL     1      -8.970  27.831  -0.106  1.00  0.00     0.106 C 
ENDROOT
BRANCH   9  10
HETATM   10  C9  UNL     1      -9.605  28.692  -1.109  1.00  0.00     0.148 C 
BRANCH  10  11
HETATM   11  N3  UNL     1      -9.104  28.569  -2.441  1.00  0.00    -0.351 N 
HETATM   12  C10 UNL     1      -9.703  28.877  -3.656  1.00  0.00     0.309 C 
HETATM   13  O4  UNL     1     -10.854  29.304  -3.782  1.00  0.00    -0.262 OA
ATOM     14  H3  UNL     1      -8.157  28.197  -2.511  1.00  0.00     0.162 HD
BRANCH  12  15
HETATM   15  C11 UNL     1      -8.945  28.698  -4.931  1.00  0.00     0.313 C 
HETATM   16  O5  UNL     1      -9.560  28.809  -6.004  1.00  0.00    -0.262 OA
HETATM   17  N4  UNL     1      -7.569  28.409  -4.870  1.00  0.00    -0.329 N 
ATOM     18  H4  UNL     1      -7.233  28.344  -3.909  1.00  0.00     0.168 HD
BRANCH  17  19
HETATM   19  C12 UNL     1      -6.556  28.190  -5.793  1.00  0.00     0.088 C 
BRANCH  19  20
HETATM   20  C13 UNL     1      -5.227  27.665  -5.554  1.00  0.00    -0.001 C 
BRANCH  20  21
HETATM   21  C14 UNL     1      -4.842  26.632  -4.596  1.00  0.00    -0.032 C 
HETATM   22  C15 UNL     1      -3.490  25.989  -4.877  1.00  0.00     0.018 C 
HETATM   23  C16 UNL     1      -5.828  25.408  -4.902  1.00  0.00     0.018 C 
HETATM   24  C17 UNL     1      -5.081  26.872  -3.143  1.00  0.00     0.018 C 
ENDBRANCH  20  21
ENDBRANCH  19  20
ENDBRANCH  17  19
ENDBRANCH  12  15
ENDBRANCH  10  11
ENDBRANCH   9  10
BRANCH   1  25
HETATM   25  S1  UNL     1      -5.743  31.887   1.355  1.00  0.00     0.237 S 
HETATM   26  O1  UNL     1      -5.029  32.173   0.065  1.00  0.00    -0.205 OA
HETATM   27  O2  UNL     1      -4.729  32.096   2.468  1.00  0.00    -0.205 OA
BRANCH  25  28
HETATM   28  C2  UNL     1      -7.013  33.122   1.573  1.00  0.00     0.121 C 
HETATM   29  C1  UNL     1      -6.678  34.307   0.696  1.00  0.00     0.027 C 
HETATM   30  C3  UNL     1      -7.050  33.595   2.999  1.00  0.00     0.027 C 
ENDBRANCH  25  28
ENDBRANCH   1  25
TORSDOF 8
ENDMDL
MODEL 2
REMARK VINA RESULT: -7.815533048      0.885      1.290
REMARK  8 active torsions:
REMARK  status: ('A' for Active; 'I' for Inactive)
REMARK    1  A    between atoms: C2_2  and  S1_4 
REMARK    2  A    between atoms: S1_4  and  N1_7 
REMARK       I    between atoms: N1_7  and  C4_9 
REMARK       I    between atoms: C4_9  and  N2_11 
REMARK    3  A    between atoms: C8_15  and  C9_16 
REMARK    4  A    between atoms: C9_16  and  N3_17 
REMARK       I    between atoms: N3_17  and  C10_19 
REMARK    5  A    between atoms: C10_19  and  C11_21 
REMARK       I    between atoms: C11_21  and  N4_23 
REMARK    6  A    between atoms: N4_23  and  C12_25 
REMARK    7  A    between atoms: C12_25  and  C13_26 
REMARK    8  A    between atoms: C13_26  and  C14_27 
ROOT
HETATM    1  N1  UNL     1      -6.612  30.557   2.003  1.00  0.00    -0.235 N 
ATOM      2  H1  UNL     1      -6.371  29.981   2.810  1.00  0.00     0.183 HD
HETATM    3  C4  UNL     1      -7.470  29.990   1.029  1.00  0.00     0.332 C 
HETATM    4  O3  UNL     1      -7.742  30.753   0.039  1.00  0.00    -0.246 OA
HETATM    5  N2  UNL     1      -7.959  28.689   1.181  1.00  0.00    -0.327 N 
HETATM    6  C5  UNL     1      -7.679  27.798   2.279  1.00  0.00     0.128 C 
HETATM    7  C6  UNL     1      -7.503  26.463   1.581  1.00  0.00     0.022 C 
HETATM    8  C7  UNL     1      -8.040  26.687   0.143  1.00  0.00     0.028 C 
HETATM    9  C8  UNL     1      -8.856  27.912   0.307  1.00  0.00     0.106 C 
ENDROOT
BRANCH   9  10
HETATM   10  C9  UNL     1      -9.318  28.672  -0.858  1.00  0.00     0.148 C 
BRANCH  10  11
HETATM   11  N3  UNL     1      -8.657  28.383  -2.092  1.00  0.00    -0.351 N 
HETATM   12  C10 UNL     1      -9.165  28.300  -3.382  1.00  0.00     0.309 C 
HETATM   13  O4  UNL     1     -10.354  28.441  -3.679  1.00  0.00    -0.262 OA
ATOM     14  H3  UNL     1      -7.655  28.210  -2.012  1.00  0.00     0.162 HD
BRANCH  12  15
HETATM   15  C11 UNL     1      -8.250  28.022  -4.529  1.00  0.00     0.313 C 
HETATM   16  O5  UNL     1      -7.865  28.978  -5.224  1.00  0.00    -0.262 OA
HETATM   17  N4  UNL     1      -7.859  26.694  -4.784  1.00  0.00    -0.329 N 
ATOM     18  H4  UNL     1      -8.276  26.039  -4.123  1.00  0.00     0.168 HD
BRANCH  17  19
HETATM   19  C12 UNL     1      -7.047  26.054  -5.710  1.00  0.00     0.088 C 
BRANCH  19  20
HETATM   20  C13 UNL     1      -5.672  25.628  -5.550  1.00  0.00    -0.001 C 
BRANCH  20  21
HETATM   21  C14 UNL     1      -4.613  26.309  -4.809  1.00  0.00    -0.032 C 
HETATM   22  C15 UNL     1      -4.997  26.706  -3.390  1.00  0.00     0.018 C 
HETATM   23  C16 UNL     1      -4.496  27.747  -5.504  1.00  0.00     0.018 C 
HETATM   24  C17 UNL     1      -3.216  25.795  -4.913  1.00  0.00     0.018 C 
ENDBRANCH  20  21
ENDBRANCH  19  20
ENDBRANCH  17  19
ENDBRANCH  12  15
ENDBRANCH  10  11
ENDBRANCH   9  10
BRANCH   1  25
HETATM   25  S1  UNL     1      -5.943  32.141   1.930  1.00  0.00     0.237 S 
HETATM   26  O1  UNL     1      -5.202  32.400   0.650  1.00  0.00    -0.205 OA
HETATM   27  O2  UNL     1      -4.956  32.383   3.060  1.00  0.00    -0.205 OA
BRANCH  25  28
HETATM   28  C2  UNL     1      -7.226  33.370   2.090  1.00  0.00     0.121 C 
HETATM   29  C1  UNL     1      -7.004  34.428   1.032  1.00  0.00     0.027 C 
HETATM   30  C3  UNL     1      -7.154  34.037   3.435  1.00  0.00     0.027 C 
ENDBRANCH  25  28
ENDBRANCH   1  25
TORSDOF 8
ENDMDL
MODEL 3
REMARK VINA RESULT: -7.321306676      2.071      2.927
REMARK  8 active torsions:
REMARK  status: ('A' for Active; 'I' for Inactive)
REMARK    1  A    between atoms: C2_2  and  S1_4 
REMARK    2  A    between atoms: S1_4  and  N1_7 
REMARK       I    between atoms: N1_7  and  C4_9 
REMARK       I    between atoms: C4_9  and  N2_11 
REMARK    3  A    between atoms: C8_15  and  C9_16 
REMARK    4  A    between atoms: C9_16  and  N3_17 
REMARK       I    between atoms: N3_17  and  C10_19 
REMARK    5  A    between atoms: C10_19  and  C11_21 
REMARK       I    between atoms: C11_21  and  N4_23 
REMARK    6  A    between atoms: N4_23  and  C12_25 
REMARK    7  A    between atoms: C12_25  and  C13_26 
REMARK    8  A    between atoms: C13_26  and  C14_27 
ROOT
HETATM    1  N1  UNL     1      -6.453  30.368   1.453  1.00  0.00    -0.235 N 
ATOM      2  H1  UNL     1      -6.100  29.746   2.180  1.00  0.00     0.183 HD
HETATM    3  C4  UNL     1      -7.462  29.863   0.595  1.00  0.00     0.332 C 
HETATM    4  O3  UNL     1      -7.872  30.683  -0.297  1.00  0.00    -0.246 OA
HETATM    5  N2  UNL     1      -7.943  28.560   0.751  1.00  0.00    -0.327 N 
HETATM    6  C5  UNL     1      -7.510  27.606   1.742  1.00  0.00     0.128 C 
HETATM    7  C6  UNL     1      -7.466  26.311   0.953  1.00  0.00     0.022 C 
HETATM    8  C7  UNL     1      -8.217  26.620  -0.369  1.00  0.00     0.028 C 
HETATM    9  C8  UNL     1      -8.977  27.839  -0.013  1.00  0.00     0.106 C 
ENDROOT
BRANCH   9  10
HETATM   10  C9  UNL     1      -9.602  28.668  -1.049  1.00  0.00     0.148 C 
BRANCH  10  11
HETATM   11  N3  UNL     1      -9.148  28.441  -2.385  1.00  0.00    -0.351 N 
HETATM   12  C10 UNL     1      -9.264  29.237  -3.518  1.00  0.00     0.309 C 
HETATM   13  O4  UNL     1      -9.845  30.324  -3.555  1.00  0.00    -0.262 OA
ATOM     14  H3  UNL     1      -8.663  27.556  -2.529  1.00  0.00     0.162 HD
BRANCH  12  15
HETATM   15  C11 UNL     1      -8.659  28.792  -4.809  1.00  0.00     0.313 C 
HETATM   16  O5  UNL     1      -8.125  29.646  -5.536  1.00  0.00    -0.262 OA
HETATM   17  N4  UNL     1      -8.717  27.429  -5.155  1.00  0.00    -0.329 N 
ATOM     18  H4  UNL     1      -9.199  26.875  -4.448  1.00  0.00     0.168 HD
BRANCH  17  19
HETATM   19  C12 UNL     1      -8.281  26.652  -6.219  1.00  0.00     0.088 C 
BRANCH  19  20
HETATM   20  C13 UNL     1      -8.994  25.594  -6.905  1.00  0.00    -0.001 C 
BRANCH  20  21
HETATM   21  C14 UNL     1     -10.040  25.740  -7.914  1.00  0.00    -0.032 C 
HETATM   22  C15 UNL     1      -9.955  27.029  -8.722  1.00  0.00     0.018 C 
HETATM   23  C16 UNL     1     -11.379  25.996  -7.075  1.00  0.00     0.018 C 
HETATM   24  C17 UNL     1     -10.411  24.557  -8.744  1.00  0.00     0.018 C 
ENDBRANCH  20  21
ENDBRANCH  19  20
ENDBRANCH  17  19
ENDBRANCH  12  15
ENDBRANCH  10  11
ENDBRANCH   9  10
BRANCH   1  25
HETATM   25  S1  UNL     1      -5.778  31.948   1.362  1.00  0.00     0.237 S 
HETATM   26  O1  UNL     1      -5.093  32.213   0.053  1.00  0.00    -0.205 OA
HETATM   27  O2  UNL     1      -4.740  32.175   2.450  1.00  0.00    -0.205 OA
BRANCH  25  28
HETATM   28  C2  UNL     1      -7.045  33.184   1.588  1.00  0.00     0.121 C 
HETATM   29  C1  UNL     1      -6.714  34.368   0.708  1.00  0.00     0.027 C 
HETATM   30  C3  UNL     1      -7.072  33.658   3.014  1.00  0.00     0.027 C 
ENDBRANCH  25  28
ENDBRANCH   1  25
TORSDOF 8
ENDMDL
MODEL 4
REMARK VINA RESULT: -7.282533756      2.541      3.768
REMARK  8 active torsions:
REMARK  status: ('A' for Active; 'I' for Inactive)
REMARK    1  A    between atoms: C2_2  and  S1_4 
REMARK    2  A    between atoms: S1_4  and  N1_7 
REMARK       I    between atoms: N1_7  and  C4_9 
REMARK       I    between atoms: C4_9  and  N2_11 
REMARK    3  A    between atoms: C8_15  and  C9_16 
REMARK    4  A    between atoms: C9_16  and  N3_17 
REMARK       I    between atoms: N3_17  and  C10_19 
REMARK    5  A    between atoms: C10_19  and  C11_21 
REMARK       I    between atoms: C11_21  and  N4_23 
REMARK    6  A    between atoms: N4_23  and  C12_25 
REMARK    7  A    between atoms: C12_25  and  C13_26 
REMARK    8  A    between atoms: C13_26  and  C14_27 
ROOT
HETATM    1  N1  UNL     1      -7.326  31.354   0.393  1.00  0.00    -0.235 N 
ATOM      2  H1  UNL     1      -8.281  31.450   0.740  1.00  0.00     0.183 HD
HETATM    3  C4  UNL     1      -6.817  30.042   0.235  1.00  0.00     0.332 C 
HETATM    4  O3  UNL     1      -5.618  29.977  -0.204  1.00  0.00    -0.246 OA
HETATM    5  N2  UNL     1      -7.604  28.930   0.549  1.00  0.00    -0.327 N 
HETATM    6  C5  UNL     1      -8.959  28.958   1.045  1.00  0.00     0.128 C 
HETATM    7  C6  UNL     1      -8.949  27.857   2.088  1.00  0.00     0.022 C 
HETATM    8  C7  UNL     1      -7.632  27.076   1.836  1.00  0.00     0.028 C 
HETATM    9  C8  UNL     1      -7.286  27.494   0.458  1.00  0.00     0.106 C 
ENDROOT
BRANCH   9  10
HETATM   10  C9  UNL     1      -5.952  27.239  -0.095  1.00  0.00     0.148 C 
BRANCH  10  11
HETATM   11  N3  UNL     1      -5.876  27.156  -1.520  1.00  0.00    -0.351 N 
HETATM   12  C10 UNL     1      -4.788  26.899  -2.345  1.00  0.00     0.309 C 
HETATM   13  O4  UNL     1      -3.633  26.721  -1.948  1.00  0.00    -0.262 OA
ATOM     14  H3  UNL     1      -6.758  27.310  -2.007  1.00  0.00     0.162 HD
BRANCH  12  15
HETATM   15  C11 UNL     1      -4.974  26.819  -3.824  1.00  0.00     0.313 C 
HETATM   16  O5  UNL     1      -4.042  27.188  -4.558  1.00  0.00    -0.262 OA
HETATM   17  N4  UNL     1      -6.194  26.333  -4.333  1.00  0.00    -0.329 N 
ATOM     18  H4  UNL     1      -6.847  26.086  -3.589  1.00  0.00     0.168 HD
BRANCH  17  19
HETATM   19  C12 UNL     1      -6.728  26.107  -5.593  1.00  0.00     0.088 C 
BRANCH  19  20
HETATM   20  C13 UNL     1      -7.971  25.445  -5.932  1.00  0.00    -0.001 C 
BRANCH  20  21
HETATM   21  C14 UNL     1      -9.125  26.023  -6.616  1.00  0.00    -0.032 C 
HETATM   22  C15 UNL     1      -8.966  27.493  -6.980  1.00  0.00     0.018 C 
HETATM   23  C16 UNL     1     -10.260  26.112  -5.490  1.00  0.00     0.018 C 
HETATM   24  C17 UNL     1      -9.803  25.230  -7.683  1.00  0.00     0.018 C 
ENDBRANCH  20  21
ENDBRANCH  19  20
ENDBRANCH  17  19
ENDBRANCH  12  15
ENDBRANCH  10  11
ENDBRANCH   9  10
BRANCH   1  25
HETATM   25  S1  UNL     1      -6.459  32.799   0.046  1.00  0.00     0.237 S 
HETATM   26  O1  UNL     1      -6.856  33.414  -1.265  1.00  0.00    -0.205 OA
HETATM   27  O2  UNL     1      -4.962  32.548  -0.026  1.00  0.00    -0.205 OA
BRANCH  25  28
HETATM   28  C2  UNL     1      -6.720  34.010   1.331  1.00  0.00     0.121 C 
HETATM   29  C1  UNL     1      -6.639  33.308   2.667  1.00  0.00     0.027 C 
HETATM   30  C3  UNL     1      -8.088  34.621   1.210  1.00  0.00     0.027 C 
ENDBRANCH  25  28
ENDBRANCH   1  25
TORSDOF 8
ENDMDL
MODEL 5
REMARK VINA RESULT: -7.268160072      2.292      3.617
REMARK  8 active torsions:
REMARK  status: ('A' for Active; 'I' for Inactive)
REMARK    1  A    between atoms: C2_2  and  S1_4 
REMARK    2  A    between atoms: S1_4  and  N1_7 
REMARK       I    between atoms: N1_7  and  C4_9 
REMARK       I    between atoms: C4_9  and  N2_11 
REMARK    3  A    between atoms: C8_15  and  C9_16 
REMARK    4  A    between atoms: C9_16  and  N3_17 
REMARK       I    between atoms: N3_17  and  C10_19 
REMARK    5  A    between atoms: C10_19  and  C11_21 
REMARK       I    between atoms: C11_21  and  N4_23 
REMARK    6  A    between atoms: N4_23  and  C12_25 
REMARK    7  A    between atoms: C12_25  and  C13_26 
REMARK    8  A    between atoms: C13_26  and  C14_27 
ROOT
HETATM    1  N1  UNL     1      -7.338  31.382   0.458  1.00  0.00    -0.235 N 
ATOM      2  H1  UNL     1      -8.285  31.488   0.823  1.00  0.00     0.183 HD
HETATM    3  C4  UNL     1      -6.839  30.064   0.309  1.00  0.00     0.332 C 
HETATM    4  O3  UNL     1      -5.650  29.986  -0.154  1.00  0.00    -0.246 OA
HETATM    5  N2  UNL     1      -7.625  28.961   0.657  1.00  0.00    -0.327 N 
HETATM    6  C5  UNL     1      -8.968  29.005   1.180  1.00  0.00     0.128 C 
HETATM    7  C6  UNL     1      -8.942  27.919   2.240  1.00  0.00     0.022 C 
HETATM    8  C7  UNL     1      -7.635  27.128   1.972  1.00  0.00     0.028 C 
HETATM    9  C8  UNL     1      -7.316  27.522   0.582  1.00  0.00     0.106 C 
ENDROOT
BRANCH   9  10
HETATM   10  C9  UNL     1      -5.995  27.252   0.005  1.00  0.00     0.148 C 
BRANCH  10  11
HETATM   11  N3  UNL     1      -5.955  27.110  -1.417  1.00  0.00    -0.351 N 
HETATM   12  C10 UNL     1      -4.871  26.945  -2.270  1.00  0.00     0.309 C 
HETATM   13  O4  UNL     1      -3.691  26.927  -1.911  1.00  0.00    -0.262 OA
ATOM     14  H3  UNL     1      -6.865  27.134  -1.877  1.00  0.00     0.162 HD
BRANCH  12  15
HETATM   15  C11 UNL     1      -5.094  26.773  -3.737  1.00  0.00     0.313 C 
HETATM   16  O5  UNL     1      -4.267  27.265  -4.523  1.00  0.00    -0.262 OA
HETATM   17  N4  UNL     1      -6.229  26.065  -4.175  1.00  0.00    -0.329 N 
ATOM     18  H4  UNL     1      -6.803  25.741  -3.397  1.00  0.00     0.168 HD
BRANCH  17  19
HETATM   19  C12 UNL     1      -6.761  25.698  -5.403  1.00  0.00     0.088 C 
BRANCH  19  20
HETATM   20  C13 UNL     1      -7.992  26.153  -6.016  1.00  0.00    -0.001 C 
BRANCH  20  21
HETATM   21  C14 UNL     1      -8.482  27.526  -6.108  1.00  0.00    -0.032 C 
HETATM   22  C15 UNL     1      -9.560  27.876  -5.090  1.00  0.00     0.018 C 
HETATM   23  C16 UNL     1      -9.326  27.564  -7.468  1.00  0.00     0.018 C 
HETATM   24  C17 UNL     1      -7.500  28.630  -6.317  1.00  0.00     0.018 C 
ENDBRANCH  20  21
ENDBRANCH  19  20
ENDBRANCH  17  19
ENDBRANCH  12  15
ENDBRANCH  10  11
ENDBRANCH   9  10
BRANCH   1  25
HETATM   25  S1  UNL     1      -6.472  32.816   0.070  1.00  0.00     0.237 S 
HETATM   26  O1  UNL     1      -6.879  33.403  -1.251  1.00  0.00    -0.205 OA
HETATM   27  O2  UNL     1      -4.975  32.561  -0.011  1.00  0.00    -0.205 OA
BRANCH  25  28
HETATM   28  C2  UNL     1      -6.718  34.057   1.329  1.00  0.00     0.121 C 
HETATM   29  C1  UNL     1      -6.639  33.382   2.680  1.00  0.00     0.027 C 
HETATM   30  C3  UNL     1      -8.082  34.677   1.200  1.00  0.00     0.027 C 
ENDBRANCH  25  28
ENDBRANCH   1  25
TORSDOF 8
ENDMDL
