MODEL 1
REMARK VINA RESULT: -7.877384265      0.000      0.000
REMARK  6 active torsions:
REMARK  status: ('A' for Active; 'I' for Inactive)
REMARK       I    between atoms: N1_2  and  C2_4 
REMARK    1  A    between atoms: C2_4  and  C3_6 
REMARK       I    between atoms: N2_10  and  C7_11 
REMARK    2  A    between atoms: C7_11  and  C8_13 
REMARK       I    between atoms: C8_13  and  N3_15 
REMARK    3  A    between atoms: N3_15  and  C9_17 
REMARK    4  A    between atoms: C9_17  and  C10_18 
REMARK    5  A    between atoms: C9_17  and  C13_22 
REMARK    6  A    between atoms: C13_22  and  N5_23 
REMARK       I    between atoms: N5_23  and  C14_25 
ROOT
HETATM    1  C10 UNL     1      -8.758  27.277  -5.567  1.00  0.00     0.114 C 
HETATM    2  C11 UNL     1      -9.107  26.274  -6.709  1.00  0.00     0.027 C 
HETATM    3  C12 UNL     1      -8.053  28.387  -6.105  1.00  0.00     0.065 C 
HETATM    4  N4  UNL     1      -7.502  29.274  -6.573  1.00  0.00    -0.197 NA
ENDROOT
BRANCH   1   5
HETATM    5  C9  UNL     1      -8.329  26.562  -4.376  1.00  0.00     0.130 C 
BRANCH   5   6
HETATM    6  N3  UNL     1      -8.549  27.441  -3.203  1.00  0.00    -0.345 N 
HETATM    7  C8  UNL     1      -9.372  27.114  -2.104  1.00  0.00     0.310 C 
HETATM    8  O3  UNL     1     -10.039  26.040  -2.016  1.00  0.00    -0.262 OA
ATOM      9  H3  UNL     1      -8.073  28.343  -3.188  1.00  0.00     0.163 HD
BRANCH   7  10
HETATM   10  C7  UNL     1      -9.499  28.004  -0.968  1.00  0.00     0.312 C 
HETATM   11  N2  UNL     1      -8.758  27.975   0.223  1.00  0.00    -0.331 N 
HETATM   12  C3  UNL     1      -8.850  29.009   1.268  1.00  0.00     0.179 C 
HETATM   13  C6  UNL     1      -7.846  26.958   0.691  1.00  0.00     0.127 C 
HETATM   14  C4  UNL     1      -8.733  28.236   2.551  1.00  0.00     0.037 C 
HETATM   15  C5  UNL     1      -7.656  27.232   2.177  1.00  0.00     0.022 C 
HETATM   16  O2  UNL     1     -10.393  28.919  -1.091  1.00  0.00    -0.262 OA
BRANCH  12  17
HETATM   17  C2  UNL     1      -7.681  29.934   1.097  1.00  0.00     0.240 C 
HETATM   18  N1  UNL     1      -6.996  30.529   2.168  1.00  0.00    -0.364 N 
HETATM   19  C1  UNL     1      -5.884  31.392   1.944  1.00  0.00     0.149 C 
ATOM     20  H1  UNL     1      -7.299  30.340   3.123  1.00  0.00     0.161 HD
HETATM   21  O1  UNL     1      -7.304  30.175  -0.082  1.00  0.00    -0.271 OA
ENDBRANCH  12  17
ENDBRANCH   7  10
ENDBRANCH   5   6
BRANCH   5  22
HETATM   22  C13 UNL     1      -6.923  26.028  -4.212  1.00  0.00     0.054 C 
HETATM   23  C16 UNL     1      -6.052  27.126  -3.767  1.00  0.00     0.033 C 
HETATM   24  C17 UNL     1      -4.928  27.531  -4.688  1.00  0.00     0.002 C 
HETATM   25  C18 UNL     1      -4.199  26.410  -5.319  1.00  0.00     0.000 C 
HETATM   26  C19 UNL     1      -5.178  25.564  -6.041  1.00  0.00     0.002 C 
HETATM   27  C20 UNL     1      -6.452  25.232  -5.387  1.00  0.00     0.033 C 
BRANCH  22  28
HETATM   28  N5  UNL     1      -7.057  25.054  -3.138  1.00  0.00    -0.350 N 
HETATM   29  C14 UNL     1      -6.205  24.622  -2.144  1.00  0.00     0.214 C 
HETATM   30  C15 UNL     1      -6.616  23.571  -1.132  1.00  0.00     0.117 C 
HETATM   31  O4  UNL     1      -5.046  25.059  -2.004  1.00  0.00    -0.274 OA
ATOM     32  H5  UNL     1      -7.968  24.596  -3.116  1.00  0.00     0.163 HD
ENDBRANCH  22  28
ENDBRANCH   5  22
ENDBRANCH   1   5
TORSDOF 6
ENDMDL
MODEL 2
REMARK VINA RESULT: -7.104765693      2.269      4.127
REMARK  6 active torsions:
REMARK  status: ('A' for Active; 'I' for Inactive)
REMARK       I    between atoms: N1_2  and  C2_4 
REMARK    1  A    between atoms: C2_4  and  C3_6 
REMARK       I    between atoms: N2_10  and  C7_11 
REMARK    2  A    between atoms: C7_11  and  C8_13 
REMARK       I    between atoms: C8_13  and  N3_15 
REMARK    3  A    between atoms: N3_15  and  C9_17 
REMARK    4  A    between atoms: C9_17  and  C10_18 
REMARK    5  A    between atoms: C9_17  and  C13_22 
REMARK    6  A    between atoms: C13_22  and  N5_23 
REMARK       I    between atoms: N5_23  and  C14_25 
ROOT
HETATM    1  C10 UNL     1     -10.473  27.830  -1.666  1.00  0.00     0.114 C 
HETATM    2  C11 UNL     1     -10.377  29.101  -2.566  1.00  0.00     0.027 C 
HETATM    3  C12 UNL     1     -11.455  28.030  -0.660  1.00  0.00     0.065 C 
HETATM    4  N4  UNL     1     -12.264  28.217   0.127  1.00  0.00    -0.197 NA
ENDROOT
BRANCH   1   5
HETATM    5  C9  UNL     1      -9.147  27.301  -1.391  1.00  0.00     0.130 C 
BRANCH   5   6
HETATM    6  N3  UNL     1      -8.226  28.444  -1.181  1.00  0.00    -0.345 N 
HETATM    7  C8  UNL     1      -7.899  28.984   0.081  1.00  0.00     0.310 C 
HETATM    8  O3  UNL     1      -8.384  28.566   1.175  1.00  0.00    -0.262 OA
ATOM      9  H3  UNL     1      -7.800  28.870  -2.005  1.00  0.00     0.163 HD
BRANCH   7  10
HETATM   10  C7  UNL     1      -6.951  30.072   0.211  1.00  0.00     0.312 C 
HETATM   11  N2  UNL     1      -7.232  31.418   0.485  1.00  0.00    -0.331 N 
HETATM   12  C3  UNL     1      -6.197  32.433   0.747  1.00  0.00     0.179 C 
HETATM   13  C6  UNL     1      -8.514  32.083   0.508  1.00  0.00     0.127 C 
HETATM   14  C4  UNL     1      -6.731  33.671   0.085  1.00  0.00     0.037 C 
HETATM   15  C5  UNL     1      -8.203  33.573   0.450  1.00  0.00     0.022 C 
HETATM   16  O2  UNL     1      -5.718  29.740   0.060  1.00  0.00    -0.262 OA
BRANCH  12  17
HETATM   17  C2  UNL     1      -6.109  32.620   2.234  1.00  0.00     0.240 C 
HETATM   18  N1  UNL     1      -6.589  33.755   2.904  1.00  0.00    -0.364 N 
HETATM   19  C1  UNL     1      -6.488  33.873   4.321  1.00  0.00     0.149 C 
ATOM     20  H1  UNL     1      -7.018  34.510   2.368  1.00  0.00     0.161 HD
HETATM   21  O1  UNL     1      -5.576  31.692   2.901  1.00  0.00    -0.271 OA
ENDBRANCH  12  17
ENDBRANCH   7  10
ENDBRANCH   5   6
BRANCH   5  22
HETATM   22  C13 UNL     1      -8.423  26.383  -2.351  1.00  0.00     0.054 C 
HETATM   23  C16 UNL     1      -7.321  27.130  -2.977  1.00  0.00     0.033 C 
HETATM   24  C17 UNL     1      -7.382  27.324  -4.471  1.00  0.00     0.002 C 
HETATM   25  C18 UNL     1      -7.811  26.137  -5.242  1.00  0.00     0.000 C 
HETATM   26  C19 UNL     1      -9.128  25.697  -4.726  1.00  0.00     0.002 C 
HETATM   27  C20 UNL     1      -9.344  25.648  -3.273  1.00  0.00     0.033 C 
BRANCH  22  28
HETATM   28  N5  UNL     1      -7.874  25.352  -1.481  1.00  0.00    -0.350 N 
HETATM   29  C14 UNL     1      -6.976  24.327  -1.684  1.00  0.00     0.214 C 
HETATM   30  C15 UNL     1      -6.570  23.380  -0.571  1.00  0.00     0.117 C 
HETATM   31  O4  UNL     1      -6.436  24.102  -2.785  1.00  0.00    -0.274 OA
ATOM     32  H5  UNL     1      -8.225  25.399  -0.525  1.00  0.00     0.163 HD
ENDBRANCH  22  28
ENDBRANCH   5  22
ENDBRANCH   1   5
TORSDOF 6
ENDMDL
MODEL 3
REMARK VINA RESULT: -7.102415143      3.981      7.037
REMARK  6 active torsions:
REMARK  status: ('A' for Active; 'I' for Inactive)
REMARK       I    between atoms: N1_2  and  C2_4 
REMARK    1  A    between atoms: C2_4  and  C3_6 
REMARK       I    between atoms: N2_10  and  C7_11 
REMARK    2  A    between atoms: C7_11  and  C8_13 
REMARK       I    between atoms: C8_13  and  N3_15 
REMARK    3  A    between atoms: N3_15  and  C9_17 
REMARK    4  A    between atoms: C9_17  and  C10_18 
REMARK    5  A    between atoms: C9_17  and  C13_22 
REMARK    6  A    between atoms: C13_22  and  N5_23 
REMARK       I    between atoms: N5_23  and  C14_25 
ROOT
HETATM    1  C10 UNL     1      -5.590  30.929   1.239  1.00  0.00     0.114 C 
HETATM    2  C11 UNL     1      -5.526  31.741   2.570  1.00  0.00     0.027 C 
HETATM    3  C12 UNL     1      -4.506  31.302   0.400  1.00  0.00     0.065 C 
HETATM    4  N4  UNL     1      -3.612  31.613  -0.243  1.00  0.00    -0.197 NA
ENDROOT
BRANCH   1   5
HETATM    5  C9  UNL     1      -6.962  30.829   0.770  1.00  0.00     0.130 C 
BRANCH   5   6
HETATM    6  N3  UNL     1      -7.841  31.494   1.763  1.00  0.00    -0.345 N 
HETATM    7  C8  UNL     1      -8.497  32.725   1.549  1.00  0.00     0.310 C 
HETATM    8  O3  UNL     1      -8.380  33.413   0.491  1.00  0.00    -0.262 OA
ATOM      9  H3  UNL     1      -7.981  31.030   2.661  1.00  0.00     0.163 HD
BRANCH   7  10
HETATM   10  C7  UNL     1      -9.381  33.289   2.549  1.00  0.00     0.312 C 
HETATM   11  N2  UNL     1     -10.772  33.137   2.638  1.00  0.00    -0.331 N 
HETATM   12  C3  UNL     1     -11.578  33.624   3.771  1.00  0.00     0.179 C 
HETATM   13  C6  UNL     1     -11.678  32.562   1.671  1.00  0.00     0.127 C 
HETATM   14  C4  UNL     1     -12.848  34.106   3.129  1.00  0.00     0.037 C 
HETATM   15  C5  UNL     1     -13.069  33.019   2.092  1.00  0.00     0.022 C 
HETATM   16  O2  UNL     1      -8.802  34.002   3.448  1.00  0.00    -0.262 OA
BRANCH  12  17
HETATM   17  C2  UNL     1     -11.848  32.455   4.673  1.00  0.00     0.240 C 
HETATM   18  N1  UNL     1     -10.919  31.433   4.921  1.00  0.00    -0.364 N 
HETATM   19  C1  UNL     1     -11.229  30.352   5.798  1.00  0.00     0.149 C 
ATOM     20  H1  UNL     1     -10.006  31.464   4.467  1.00  0.00     0.161 HD
HETATM   21  O1  UNL     1     -12.977  32.408   5.233  1.00  0.00    -0.271 OA
ENDBRANCH  12  17
ENDBRANCH   7  10
ENDBRANCH   5   6
BRANCH   5  22
HETATM   22  C13 UNL     1      -7.627  29.502   0.481  1.00  0.00     0.054 C 
HETATM   23  C16 UNL     1      -8.306  29.040   1.701  1.00  0.00     0.033 C 
HETATM   24  C17 UNL     1      -7.820  27.749   2.313  1.00  0.00     0.002 C 
HETATM   25  C18 UNL     1      -7.527  26.668   1.348  1.00  0.00     0.000 C 
HETATM   26  C19 UNL     1      -6.541  27.175   0.365  1.00  0.00     0.002 C 
HETATM   27  C20 UNL     1      -6.722  28.522  -0.195  1.00  0.00     0.033 C 
BRANCH  22  28
HETATM   28  N5  UNL     1      -8.624  29.838  -0.527  1.00  0.00    -0.350 N 
HETATM   29  C14 UNL     1      -9.661  29.133  -1.100  1.00  0.00     0.214 C 
HETATM   30  C15 UNL     1     -10.566  29.746  -2.150  1.00  0.00     0.117 C 
HETATM   31  O4  UNL     1      -9.928  27.953  -0.802  1.00  0.00    -0.274 OA
ATOM     32  H5  UNL     1      -8.537  30.790  -0.881  1.00  0.00     0.163 HD
ENDBRANCH  22  28
ENDBRANCH   5  22
ENDBRANCH   1   5
TORSDOF 6
ENDMDL
MODEL 4
REMARK VINA RESULT: -7.068319717      2.181      3.413
REMARK  6 active torsions:
REMARK  status: ('A' for Active; 'I' for Inactive)
REMARK       I    between atoms: N1_2  and  C2_4 
REMARK    1  A    between atoms: C2_4  and  C3_6 
REMARK       I    between atoms: N2_10  and  C7_11 
REMARK    2  A    between atoms: C7_11  and  C8_13 
REMARK       I    between atoms: C8_13  and  N3_15 
REMARK    3  A    between atoms: N3_15  and  C9_17 
REMARK    4  A    between atoms: C9_17  and  C10_18 
REMARK    5  A    between atoms: C9_17  and  C13_22 
REMARK    6  A    between atoms: C13_22  and  N5_23 
REMARK       I    between atoms: N5_23  and  C14_25 
ROOT
HETATM    1  C10 UNL     1     -11.399  24.789  -4.416  1.00  0.00     0.114 C 
HETATM    2  C11 UNL     1     -12.412  25.969  -4.542  1.00  0.00     0.027 C 
HETATM    3  C12 UNL     1     -11.992  23.727  -3.682  1.00  0.00     0.065 C 
HETATM    4  N4  UNL     1     -12.506  22.884  -3.103  1.00  0.00    -0.197 NA
ENDROOT
BRANCH   1   5
HETATM    5  C9  UNL     1     -10.063  25.293  -4.147  1.00  0.00     0.130 C 
BRANCH   5   6
HETATM    6  N3  UNL     1     -10.155  26.293  -3.056  1.00  0.00    -0.345 N 
HETATM    7  C8  UNL     1      -9.291  26.340  -1.941  1.00  0.00     0.310 C 
HETATM    8  O3  UNL     1      -8.355  25.509  -1.738  1.00  0.00    -0.262 OA
ATOM      9  H3  UNL     1     -10.894  26.994  -3.114  1.00  0.00     0.163 HD
BRANCH   7  10
HETATM   10  C7  UNL     1      -9.412  27.379  -0.939  1.00  0.00     0.312 C 
HETATM   11  N2  UNL     1      -8.660  27.520   0.236  1.00  0.00    -0.331 N 
HETATM   12  C3  UNL     1      -8.748  28.688   1.129  1.00  0.00     0.179 C 
HETATM   13  C6  UNL     1      -7.738  26.581   0.832  1.00  0.00     0.127 C 
HETATM   14  C4  UNL     1      -8.615  28.101   2.506  1.00  0.00     0.037 C 
HETATM   15  C5  UNL     1      -7.535  27.060   2.264  1.00  0.00     0.022 C 
HETATM   16  O2  UNL     1     -10.313  28.264  -1.179  1.00  0.00    -0.262 OA
BRANCH  12  17
HETATM   17  C2  UNL     1      -7.585  29.586   0.819  1.00  0.00     0.240 C 
HETATM   18  N1  UNL     1      -7.001  30.451   1.755  1.00  0.00    -0.364 N 
HETATM   19  C1  UNL     1      -5.890  31.274   1.406  1.00  0.00     0.149 C 
ATOM     20  H1  UNL     1      -7.377  30.494   2.702  1.00  0.00     0.161 HD
HETATM   21  O1  UNL     1      -7.119  29.541  -0.352  1.00  0.00    -0.271 OA
ENDBRANCH  12  17
ENDBRANCH   7  10
ENDBRANCH   5   6
BRANCH   5  22
HETATM   22  C13 UNL     1      -9.212  25.949  -5.212  1.00  0.00     0.054 C 
HETATM   23  C16 UNL     1      -9.446  27.401  -5.172  1.00  0.00     0.033 C 
HETATM   24  C17 UNL     1     -10.048  28.036  -6.401  1.00  0.00     0.002 C 
HETATM   25  C18 UNL     1      -9.503  27.554  -7.688  1.00  0.00     0.000 C 
HETATM   26  C19 UNL     1      -9.659  26.082  -7.740  1.00  0.00     0.002 C 
HETATM   27  C20 UNL     1      -9.325  25.288  -6.549  1.00  0.00     0.033 C 
BRANCH  22  28
HETATM   28  N5  UNL     1      -7.851  25.668  -4.776  1.00  0.00    -0.350 N 
HETATM   29  C14 UNL     1      -6.625  26.204  -5.107  1.00  0.00     0.214 C 
HETATM   30  C15 UNL     1      -5.336  25.709  -4.482  1.00  0.00     0.117 C 
HETATM   31  O4  UNL     1      -6.486  27.124  -5.936  1.00  0.00    -0.274 OA
ATOM     32  H5  UNL     1      -7.793  24.921  -4.084  1.00  0.00     0.163 HD
ENDBRANCH  22  28
ENDBRANCH   5  22
ENDBRANCH   1   5
TORSDOF 6
ENDMDL
MODEL 5
REMARK VINA RESULT: -7.061132069      2.426      7.581
REMARK  6 active torsions:
REMARK  status: ('A' for Active; 'I' for Inactive)
REMARK       I    between atoms: N1_2  and  C2_4 
REMARK    1  A    between atoms: C2_4  and  C3_6 
REMARK       I    between atoms: N2_10  and  C7_11 
REMARK    2  A    between atoms: C7_11  and  C8_13 
REMARK       I    between atoms: C8_13  and  N3_15 
REMARK    3  A    between atoms: N3_15  and  C9_17 
REMARK    4  A    between atoms: C9_17  and  C10_18 
REMARK    5  A    between atoms: C9_17  and  C13_22 
REMARK    6  A    between atoms: C13_22  and  N5_23 
REMARK       I    between atoms: N5_23  and  C14_25 
ROOT
HETATM    1  C10 UNL     1      -9.711  29.574   2.166  1.00  0.00     0.114 C 
HETATM    2  C11 UNL     1      -8.984  28.314   2.731  1.00  0.00     0.027 C 
HETATM    3  C12 UNL     1     -11.117  29.408   2.287  1.00  0.00     0.065 C 
HETATM    4  N4  UNL     1     -12.243  29.250   2.415  1.00  0.00    -0.197 NA
ENDROOT
BRANCH   1   5
HETATM    5  C9  UNL     1      -9.065  30.029   0.947  1.00  0.00     0.130 C 
BRANCH   5   6
HETATM    6  N3  UNL     1      -7.979  29.075   0.613  1.00  0.00    -0.345 N 
HETATM    7  C8  UNL     1      -7.770  28.520  -0.667  1.00  0.00     0.310 C 
HETATM    8  O3  UNL     1      -8.512  28.756  -1.668  1.00  0.00    -0.262 OA
ATOM      9  H3  UNL     1      -7.340  28.802   1.360  1.00  0.00     0.163 HD
BRANCH   7  10
HETATM   10  C7  UNL     1      -6.656  27.632  -0.929  1.00  0.00     0.312 C 
HETATM   11  N2  UNL     1      -6.677  26.431  -1.654  1.00  0.00    -0.331 N 
HETATM   12  C3  UNL     1      -5.469  25.663  -1.998  1.00  0.00     0.179 C 
HETATM   13  C6  UNL     1      -7.820  25.692  -2.137  1.00  0.00     0.127 C 
HETATM   14  C4  UNL     1      -5.904  24.230  -1.870  1.00  0.00     0.037 C 
HETATM   15  C5  UNL     1      -7.295  24.303  -2.477  1.00  0.00     0.022 C 
HETATM   16  O2  UNL     1      -5.531  28.011  -0.438  1.00  0.00    -0.262 OA
BRANCH  12  17
HETATM   17  C2  UNL     1      -5.115  25.985  -3.421  1.00  0.00     0.240 C 
HETATM   18  N1  UNL     1      -5.465  25.176  -4.512  1.00  0.00    -0.364 N 
HETATM   19  C1  UNL     1      -5.110  25.540  -5.844  1.00  0.00     0.149 C 
ATOM     20  H1  UNL     1      -5.982  24.312  -4.350  1.00  0.00     0.161 HD
HETATM   21  O1  UNL     1      -4.472  27.050  -3.627  1.00  0.00    -0.271 OA
ENDBRANCH  12  17
ENDBRANCH   7  10
ENDBRANCH   5   6
BRANCH   5  22
HETATM   22  C13 UNL     1      -8.437  31.400   0.823  1.00  0.00     0.054 C 
HETATM   23  C16 UNL     1      -6.974  31.253   0.862  1.00  0.00     0.033 C 
HETATM   24  C17 UNL     1      -6.247  31.908   2.009  1.00  0.00     0.002 C 
HETATM   25  C18 UNL     1      -6.719  33.265   2.360  1.00  0.00     0.000 C 
HETATM   26  C19 UNL     1      -8.172  33.194   2.644  1.00  0.00     0.002 C 
HETATM   27  C20 UNL     1      -9.035  32.410   1.750  1.00  0.00     0.033 C 
BRANCH  22  28
HETATM   28  N5  UNL     1      -8.842  31.836  -0.507  1.00  0.00    -0.350 N 
HETATM   29  C14 UNL     1      -8.551  32.951  -1.263  1.00  0.00     0.214 C 
HETATM   30  C15 UNL     1      -9.123  33.152  -2.653  1.00  0.00     0.117 C 
HETATM   31  O4  UNL     1      -7.804  33.867  -0.866  1.00  0.00    -0.274 OA
ATOM     32  H5  UNL     1      -9.469  31.182  -0.975  1.00  0.00     0.163 HD
ENDBRANCH  22  28
ENDBRANCH   5  22
ENDBRANCH   1   5
TORSDOF 6
ENDMDL
