MODEL 1
REMARK VINA RESULT: -7.268491809      0.000      0.000
REMARK  6 active torsions:
REMARK  status: ('A' for Active; 'I' for Inactive)
REMARK    1  A    between atoms: C3_3  and  C4_4 
REMARK    2  A    between atoms: C5_7  and  O1_8 
REMARK    3  A    between atoms: O1_8  and  C6_9 
REMARK    4  A    between atoms: C6_9  and  C7_10 
REMARK    5  A    between atoms: C8_21  and  N7_22 
REMARK    6  A    between atoms: N11_30  and  N12_31 
ROOT
HETATM    1  C4  UNL     1      18.199   4.935  11.604  1.00  0.00     0.154 A 
HETATM    2  N1  UNL     1      18.104   5.336  12.910  1.00  0.00    -0.305 N 
ATOM      3  H1  UNL     1      18.357   6.295  13.147  1.00  0.00     0.171 HD
HETATM    4  C5  UNL     1      17.693   4.521  13.885  1.00  0.00     0.239 A 
HETATM    5  N6  UNL     1      17.368   3.262  13.537  1.00  0.00    -0.155 N 
ATOM      6  H6  UNL     1      17.053   2.624  14.267  1.00  0.00     0.188 HD
HETATM    7  C8  UNL     1      17.439   2.808  12.282  1.00  0.00     0.680 A 
HETATM    8  N8  UNL     1      17.857   3.663  11.333  1.00  0.00    -0.174 N 
ATOM      9  H8  UNL     1      17.918   3.335  10.370  1.00  0.00     0.186 HD
ENDROOT
BRANCH   4  10
HETATM   10  O1  UNL     1      17.588   4.899  15.211  1.00  0.00    -0.314 OA
BRANCH  10  11
HETATM   11  C6  UNL     1      17.524   3.973  16.276  1.00  0.00     0.260 C 
BRANCH  11  12
HETATM   12  C7  UNL     1      16.137   3.552  16.555  1.00  0.00     0.165 A 
HETATM   13  N2  UNL     1      15.816   2.401  17.037  1.00  0.00    -0.226 N 
HETATM   14  O2  UNL     1      14.473   2.274  17.198  1.00  0.00    -0.139 OA
ATOM     15  H2  UNL     1      16.491   1.672  17.271  1.00  0.00     0.198 HD
HETATM   16  N3  UNL     1      13.862   3.439  16.786  1.00  0.00     0.071 NA
HETATM   17  N4  UNL     1      14.931   4.270  16.370  1.00  0.00    -0.163 N 
HETATM   18  N5  UNL     1      14.856   5.442  15.912  1.00  0.00    -0.324 N 
ATOM     19  H52 UNL     1      15.626   6.040  15.612  1.00  0.00     0.178 HD
ATOM     20  H51 UNL     1      13.986   5.959  15.778  1.00  0.00     0.178 HD
ENDBRANCH  11  12
ENDBRANCH  10  11
ENDBRANCH   4  10
BRANCH   1  21
HETATM   21  C3  UNL     1      18.651   5.854  10.573  1.00  0.00     0.118 A 
HETATM   22  C2  UNL     1      19.925   5.999  10.072  1.00  0.00     0.078 A 
HETATM   23  C1  UNL     1      21.145   5.244  10.473  1.00  0.00     0.074 C 
HETATM   24  N11 UNL     1      19.892   6.974   9.123  1.00  0.00    -0.185 N 
HETATM   25  N10 UNL     1      18.639   7.396   9.062  1.00  0.00     0.003 NA
HETATM   26  N9  UNL     1      17.882   6.731   9.928  1.00  0.00    -0.273 N 
HETATM   27  C9  UNL     1      16.482   6.938  10.118  1.00  0.00     0.176 C 
BRANCH  24  28
HETATM   28  N12 UNL     1      20.937   7.462   8.350  1.00  0.00    -0.317 N 
HETATM   29  C10 UNL     1      21.321   6.896   7.074  1.00  0.00     0.172 C 
HETATM   30  C11 UNL     1      21.695   8.601   8.827  1.00  0.00     0.172 C 
ENDBRANCH  24  28
ENDBRANCH   1  21
BRANCH   7  31
HETATM   31  N7  UNL     1      17.126   1.593  11.939  1.00  0.00    -0.234 N 
ATOM     32  H72 UNL     1      16.472   1.069  12.520  1.00  0.00     0.174 HD
ATOM     33  H71 UNL     1      17.501   1.127  11.112  1.00  0.00     0.174 HD
ENDBRANCH   7  31
TORSDOF 6
ENDMDL
MODEL 2
REMARK VINA RESULT: -7.242246749      1.171      2.141
REMARK  6 active torsions:
REMARK  status: ('A' for Active; 'I' for Inactive)
REMARK    1  A    between atoms: C3_3  and  C4_4 
REMARK    2  A    between atoms: C5_7  and  O1_8 
REMARK    3  A    between atoms: O1_8  and  C6_9 
REMARK    4  A    between atoms: C6_9  and  C7_10 
REMARK    5  A    between atoms: C8_21  and  N7_22 
REMARK    6  A    between atoms: N11_30  and  N12_31 
ROOT
HETATM    1  C4  UNL     1      18.080   4.962  11.603  1.00  0.00     0.154 A 
HETATM    2  N1  UNL     1      18.017   5.355  12.913  1.00  0.00    -0.305 N 
ATOM      3  H1  UNL     1      18.245   6.321  13.146  1.00  0.00     0.171 HD
HETATM    4  C5  UNL     1      17.669   4.522  13.897  1.00  0.00     0.239 A 
HETATM    5  N6  UNL     1      17.375   3.255  13.555  1.00  0.00    -0.155 N 
ATOM      6  H6  UNL     1      17.108   2.603  14.292  1.00  0.00     0.188 HD
HETATM    7  C8  UNL     1      17.417   2.807  12.296  1.00  0.00     0.680 A 
HETATM    8  N8  UNL     1      17.773   3.681  11.337  1.00  0.00    -0.174 N 
ATOM      9  H8  UNL     1      17.811   3.358  10.371  1.00  0.00     0.186 HD
ENDROOT
BRANCH   4  10
HETATM   10  O1  UNL     1      17.597   4.892  15.228  1.00  0.00    -0.314 OA
BRANCH  10  11
HETATM   11  C6  UNL     1      17.529   3.958  16.287  1.00  0.00     0.260 C 
BRANCH  11  12
HETATM   12  C7  UNL     1      16.141   3.540  16.563  1.00  0.00     0.165 A 
HETATM   13  N2  UNL     1      15.817   2.391  17.045  1.00  0.00    -0.226 N 
HETATM   14  O2  UNL     1      14.473   2.267  17.202  1.00  0.00    -0.139 OA
ATOM     15  H2  UNL     1      16.489   1.660  17.281  1.00  0.00     0.198 HD
HETATM   16  N3  UNL     1      13.865   3.432  16.789  1.00  0.00     0.071 NA
HETATM   17  N4  UNL     1      14.937   4.261  16.375  1.00  0.00    -0.163 N 
HETATM   18  N5  UNL     1      14.865   5.433  15.916  1.00  0.00    -0.324 N 
ATOM     19  H52 UNL     1      15.637   6.029  15.618  1.00  0.00     0.178 HD
ATOM     20  H51 UNL     1      13.997   5.952  15.780  1.00  0.00     0.178 HD
ENDBRANCH  11  12
ENDBRANCH  10  11
ENDBRANCH   4  10
BRANCH   1  21
HETATM   21  C3  UNL     1      18.464   5.900  10.562  1.00  0.00     0.118 A 
HETATM   22  C2  UNL     1      17.664   6.816   9.915  1.00  0.00     0.078 A 
HETATM   23  C1  UNL     1      16.211   7.060  10.135  1.00  0.00     0.074 C 
HETATM   24  N11 UNL     1      18.436   7.484   9.016  1.00  0.00    -0.185 N 
HETATM   25  N10 UNL     1      19.656   6.981   9.122  1.00  0.00     0.003 NA
HETATM   26  N9  UNL     1      19.687   6.029  10.048  1.00  0.00    -0.273 N 
HETATM   27  C9  UNL     1      20.847   5.282  10.414  1.00  0.00     0.176 C 
BRANCH  24  28
HETATM   28  N12 UNL     1      18.064   8.495   8.140  1.00  0.00    -0.317 N 
HETATM   29  C10 UNL     1      18.098   9.902   8.481  1.00  0.00     0.172 C 
HETATM   30  C11 UNL     1      17.616   8.145   6.808  1.00  0.00     0.172 C 
ENDBRANCH  24  28
ENDBRANCH   1  21
BRANCH   7  31
HETATM   31  N7  UNL     1      17.135   1.584  11.958  1.00  0.00    -0.234 N 
ATOM     32  H72 UNL     1      16.221   1.383  11.552  1.00  0.00     0.174 HD
ATOM     33  H71 UNL     1      17.781   0.804  12.075  1.00  0.00     0.174 HD
ENDBRANCH   7  31
TORSDOF 6
ENDMDL
MODEL 3
REMARK VINA RESULT: -7.090973771      2.206      3.031
REMARK  6 active torsions:
REMARK  status: ('A' for Active; 'I' for Inactive)
REMARK    1  A    between atoms: C3_3  and  C4_4 
REMARK    2  A    between atoms: C5_7  and  O1_8 
REMARK    3  A    between atoms: O1_8  and  C6_9 
REMARK    4  A    between atoms: C6_9  and  C7_10 
REMARK    5  A    between atoms: C8_21  and  N7_22 
REMARK    6  A    between atoms: N11_30  and  N12_31 
ROOT
HETATM    1  C4  UNL     1      18.954   6.250  11.837  1.00  0.00     0.154 A 
HETATM    2  N1  UNL     1      18.553   6.011  13.124  1.00  0.00    -0.305 N 
ATOM      3  H1  UNL     1      19.264   5.923  13.850  1.00  0.00     0.171 HD
HETATM    4  C5  UNL     1      17.268   5.889  13.467  1.00  0.00     0.239 A 
HETATM    5  N6  UNL     1      16.357   6.010  12.484  1.00  0.00    -0.155 N 
ATOM      6  H6  UNL     1      15.370   5.919  12.725  1.00  0.00     0.188 HD
HETATM    7  C8  UNL     1      16.681   6.243  11.209  1.00  0.00     0.680 A 
HETATM    8  N8  UNL     1      17.986   6.359  10.910  1.00  0.00    -0.174 N 
ATOM      9  H8  UNL     1      18.254   6.537   9.942  1.00  0.00     0.186 HD
ENDROOT
BRANCH   4  10
HETATM   10  O1  UNL     1      16.835   5.647  14.758  1.00  0.00    -0.314 OA
BRANCH  10  11
HETATM   11  C6  UNL     1      17.442   4.700  15.612  1.00  0.00     0.260 C 
BRANCH  11  12
HETATM   12  C7  UNL     1      16.488   3.663  16.049  1.00  0.00     0.165 A 
HETATM   13  N2  UNL     1      16.750   2.401  16.061  1.00  0.00    -0.226 N 
HETATM   14  O2  UNL     1      15.697   1.669  16.509  1.00  0.00    -0.139 OA
ATOM     15  H2  UNL     1      17.642   2.001  15.769  1.00  0.00     0.198 HD
HETATM   16  N3  UNL     1      14.658   2.520  16.816  1.00  0.00     0.071 NA
HETATM   17  N4  UNL     1      15.162   3.811  16.522  1.00  0.00    -0.163 N 
HETATM   18  N5  UNL     1      14.563   4.913  16.647  1.00  0.00    -0.324 N 
ATOM     19  H52 UNL     1      14.925   5.843  16.435  1.00  0.00     0.178 HD
ATOM     20  H51 UNL     1      13.607   5.020  16.988  1.00  0.00     0.178 HD
ENDBRANCH  11  12
ENDBRANCH  10  11
ENDBRANCH   4  10
BRANCH   1  21
HETATM   21  C3  UNL     1      20.363   6.377  11.507  1.00  0.00     0.118 A 
HETATM   22  C2  UNL     1      21.205   7.428  11.793  1.00  0.00     0.078 A 
HETATM   23  C1  UNL     1      20.865   8.687  12.513  1.00  0.00     0.074 C 
HETATM   24  N11 UNL     1      22.436   7.125  11.299  1.00  0.00    -0.185 N 
HETATM   25  N10 UNL     1      22.330   5.931  10.735  1.00  0.00     0.003 NA
HETATM   26  N9  UNL     1      21.089   5.470  10.853  1.00  0.00    -0.273 N 
HETATM   27  C9  UNL     1      20.634   4.212  10.356  1.00  0.00     0.176 C 
BRANCH  24  28
HETATM   28  N12 UNL     1      23.599   7.882  11.350  1.00  0.00    -0.317 N 
HETATM   29  C10 UNL     1      24.610   7.727  12.374  1.00  0.00     0.172 C 
HETATM   30  C11 UNL     1      23.831   8.886  10.332  1.00  0.00     0.172 C 
ENDBRANCH  24  28
ENDBRANCH   1  21
BRANCH   7  31
HETATM   31  N7  UNL     1      15.805   6.361  10.255  1.00  0.00    -0.234 N 
ATOM     32  H72 UNL     1      15.638   7.282   9.849  1.00  0.00     0.174 HD
ATOM     33  H71 UNL     1      15.269   5.577   9.881  1.00  0.00     0.174 HD
ENDBRANCH   7  31
TORSDOF 6
ENDMDL
MODEL 4
REMARK VINA RESULT: -7.056946982      1.839      2.903
REMARK  6 active torsions:
REMARK  status: ('A' for Active; 'I' for Inactive)
REMARK    1  A    between atoms: C3_3  and  C4_4 
REMARK    2  A    between atoms: C5_7  and  O1_8 
REMARK    3  A    between atoms: O1_8  and  C6_9 
REMARK    4  A    between atoms: C6_9  and  C7_10 
REMARK    5  A    between atoms: C8_21  and  N7_22 
REMARK    6  A    between atoms: N11_30  and  N12_31 
ROOT
HETATM    1  C4  UNL     1      17.355   5.808  10.938  1.00  0.00     0.154 A 
HETATM    2  N1  UNL     1      17.349   6.010  12.292  1.00  0.00    -0.305 N 
ATOM      3  H1  UNL     1      17.611   6.928  12.652  1.00  0.00     0.171 HD
HETATM    4  C5  UNL     1      17.012   5.053  13.161  1.00  0.00     0.239 A 
HETATM    5  N6  UNL     1      16.672   3.855  12.653  1.00  0.00    -0.155 N 
ATOM      6  H6  UNL     1      16.413   3.110  13.300  1.00  0.00     0.188 HD
HETATM    7  C8  UNL     1      16.657   3.592  11.342  1.00  0.00     0.680 A 
HETATM    8  N8  UNL     1      17.002   4.585  10.505  1.00  0.00    -0.174 N 
ATOM      9  H8  UNL     1      16.997   4.404   9.502  1.00  0.00     0.186 HD
ENDROOT
BRANCH   4  10
HETATM   10  O1  UNL     1      16.998   5.229  14.533  1.00  0.00    -0.314 OA
BRANCH  10  11
HETATM   11  C6  UNL     1      15.807   5.357  15.283  1.00  0.00     0.260 C 
BRANCH  11  12
HETATM   12  C7  UNL     1      15.473   4.110  15.998  1.00  0.00     0.165 A 
HETATM   13  N2  UNL     1      14.316   3.859  16.507  1.00  0.00    -0.226 N 
HETATM   14  O2  UNL     1      14.279   2.641  17.108  1.00  0.00    -0.139 OA
ATOM     15  H2  UNL     1      13.522   4.498  16.464  1.00  0.00     0.198 HD
HETATM   16  N3  UNL     1      15.515   2.043  16.984  1.00  0.00     0.071 NA
HETATM   17  N4  UNL     1      16.291   2.986  16.267  1.00  0.00    -0.163 N 
HETATM   18  N5  UNL     1      17.498   2.876  15.916  1.00  0.00    -0.324 N 
ATOM     19  H52 UNL     1      18.057   3.556  15.400  1.00  0.00     0.178 HD
ATOM     20  H51 UNL     1      18.088   2.067  16.110  1.00  0.00     0.178 HD
ENDBRANCH  11  12
ENDBRANCH  10  11
ENDBRANCH   4  10
BRANCH   1  21
HETATM   21  C3  UNL     1      17.727   6.877  10.027  1.00  0.00     0.118 A 
HETATM   22  C2  UNL     1      16.903   7.816   9.448  1.00  0.00     0.078 A 
HETATM   23  C1  UNL     1      15.430   7.957   9.622  1.00  0.00     0.074 C 
HETATM   24  N11 UNL     1      17.672   8.622   8.666  1.00  0.00    -0.185 N 
HETATM   25  N10 UNL     1      18.914   8.175   8.776  1.00  0.00     0.003 NA
HETATM   26  N9  UNL     1      18.961   7.127   9.591  1.00  0.00    -0.273 N 
HETATM   27  C9  UNL     1      20.146   6.406   9.928  1.00  0.00     0.176 C 
BRANCH  24  28
HETATM   28  N12 UNL     1      17.280   9.705   7.891  1.00  0.00    -0.317 N 
HETATM   29  C10 UNL     1      17.209  11.062   8.390  1.00  0.00     0.172 C 
HETATM   30  C11 UNL     1      16.918   9.485   6.506  1.00  0.00     0.172 C 
ENDBRANCH  24  28
ENDBRANCH   1  21
BRANCH   7  31
HETATM   31  N7  UNL     1      16.329   2.436  10.845  1.00  0.00    -0.234 N 
ATOM     32  H72 UNL     1      15.430   2.339  10.374  1.00  0.00     0.174 HD
ATOM     33  H71 UNL     1      16.926   1.610  10.897  1.00  0.00     0.174 HD
ENDBRANCH   7  31
TORSDOF 6
ENDMDL
MODEL 5
REMARK VINA RESULT: -7.016161741      1.808      2.887
REMARK  6 active torsions:
REMARK  status: ('A' for Active; 'I' for Inactive)
REMARK    1  A    between atoms: C3_3  and  C4_4 
REMARK    2  A    between atoms: C5_7  and  O1_8 
REMARK    3  A    between atoms: O1_8  and  C6_9 
REMARK    4  A    between atoms: C6_9  and  C7_10 
REMARK    5  A    between atoms: C8_21  and  N7_22 
REMARK    6  A    between atoms: N11_30  and  N12_31 
ROOT
HETATM    1  C4  UNL     1      18.363   6.543  11.821  1.00  0.00     0.154 A 
HETATM    2  N1  UNL     1      18.102   5.953  13.029  1.00  0.00    -0.305 N 
ATOM      3  H1  UNL     1      18.663   5.150  13.313  1.00  0.00     0.171 HD
HETATM    4  C5  UNL     1      17.144   6.389  13.851  1.00  0.00     0.239 A 
HETATM    5  N6  UNL     1      16.424   7.450  13.446  1.00  0.00    -0.155 N 
ATOM      6  H6  UNL     1      15.686   7.798  14.058  1.00  0.00     0.188 HD
HETATM    7  C8  UNL     1      16.627   8.072  12.280  1.00  0.00     0.680 A 
HETATM    8  N8  UNL     1      17.603   7.599  11.485  1.00  0.00    -0.174 N 
ATOM      9  H8  UNL     1      17.773   8.060  10.591  1.00  0.00     0.186 HD
ENDROOT
BRANCH   4  10
HETATM   10  O1  UNL     1      16.859   5.812  15.075  1.00  0.00    -0.314 OA
BRANCH  10  11
HETATM   11  C6  UNL     1      17.488   4.636  15.541  1.00  0.00     0.260 C 
BRANCH  11  12
HETATM   12  C7  UNL     1      16.508   3.639  16.013  1.00  0.00     0.165 A 
HETATM   13  N2  UNL     1      16.731   2.371  16.051  1.00  0.00    -0.226 N 
HETATM   14  O2  UNL     1      15.662   1.681  16.529  1.00  0.00    -0.139 OA
ATOM     15  H2  UNL     1      17.606   1.936  15.757  1.00  0.00     0.198 HD
HETATM   16  N3  UNL     1      14.654   2.571  16.830  1.00  0.00     0.071 NA
HETATM   17  N4  UNL     1      15.193   3.839  16.500  1.00  0.00    -0.163 N 
HETATM   18  N5  UNL     1      14.630   4.962  16.607  1.00  0.00    -0.324 N 
ATOM     19  H52 UNL     1      15.019   5.875  16.369  1.00  0.00     0.178 HD
ATOM     20  H51 UNL     1      13.683   5.106  16.957  1.00  0.00     0.178 HD
ENDBRANCH  11  12
ENDBRANCH  10  11
ENDBRANCH   4  10
BRANCH   1  21
HETATM   21  C3  UNL     1      19.416   6.038  10.957  1.00  0.00     0.118 A 
HETATM   22  C2  UNL     1      20.448   6.746  10.383  1.00  0.00     0.078 A 
HETATM   23  C1  UNL     1      20.727   8.204  10.516  1.00  0.00     0.074 C 
HETATM   24  N11 UNL     1      21.196   5.876   9.652  1.00  0.00    -0.185 N 
HETATM   25  N10 UNL     1      20.628   4.688   9.786  1.00  0.00     0.003 NA
HETATM   26  N9  UNL     1      19.557   4.771  10.568  1.00  0.00    -0.273 N 
HETATM   27  C9  UNL     1      18.713   3.674  10.919  1.00  0.00     0.176 C 
BRANCH  24  28
HETATM   28  N12 UNL     1      22.335   6.135   8.900  1.00  0.00    -0.317 N 
HETATM   29  C10 UNL     1      23.654   6.294   9.475  1.00  0.00     0.172 C 
HETATM   30  C11 UNL     1      22.217   6.256   7.462  1.00  0.00     0.172 C 
ENDBRANCH  24  28
ENDBRANCH   1  21
BRANCH   7  31
HETATM   31  N7  UNL     1      15.934   9.098  11.882  1.00  0.00    -0.234 N 
ATOM     32  H72 UNL     1      15.193   8.957  11.196  1.00  0.00     0.174 HD
ATOM     33  H71 UNL     1      16.089  10.048  12.221  1.00  0.00     0.174 HD
ENDBRANCH   7  31
TORSDOF 6
ENDMDL
