MODEL 1
REMARK VINA RESULT: -7.317864795      0.000      0.000
REMARK  8 active torsions:
REMARK  status: ('A' for Active; 'I' for Inactive)
REMARK    1  A    between atoms: N1_7  and  C6_8 
REMARK    2  A    between atoms: C6_8  and  N2_9 
REMARK    3  A    between atoms: N2_9  and  C7_11 
REMARK    4  A    between atoms: N7_23  and  C11_24 
REMARK    5  A    between atoms: C11_24  and  C12_25 
REMARK    6  A    between atoms: C12_25  and  O2_26 
REMARK    7  A    between atoms: C12_25  and  C13_28 
REMARK    8  A    between atoms: C13_28  and  O3_29 
ROOT
HETATM    1  C1  UNL     1      14.205  10.668  11.135  1.00  0.00     0.019 C 
HETATM    2  C2  UNL     1      15.164   9.963  10.951  1.00  0.00    -0.059 C 
HETATM    3  C3  UNL     1      16.310   9.108  10.712  1.00  0.00     0.092 A 
HETATM    4  C4  UNL     1      17.464   9.235  11.461  1.00  0.00     0.113 A 
HETATM    5  C5  UNL     1      18.539   8.409  11.215  1.00  0.00     0.252 A 
HETATM    6  O1  UNL     1      19.619   8.494  11.883  1.00  0.00    -0.268 OA
HETATM    7  N1  UNL     1      18.435   7.488  10.239  1.00  0.00    -0.294 N 
HETATM    8  C14 UNL     1      17.308   7.365   9.508  1.00  0.00     0.188 A 
HETATM    9  N8  UNL     1      16.272   8.181   9.765  1.00  0.00    -0.345 N 
ATOM     10  H8  UNL     1      15.421   8.082   9.210  1.00  0.00     0.167 HD
ENDROOT
BRANCH   7  11
HETATM   11  C6  UNL     1      19.553   6.614   9.967  1.00  0.00     0.257 C 
BRANCH  11  12
HETATM   12  N2  UNL     1      19.600   5.470  10.811  1.00  0.00    -0.358 N 
ATOM     13  H2  UNL     1      20.529   5.124  11.053  1.00  0.00     0.162 HD
BRANCH  12  14
HETATM   14  C7  UNL     1      18.611   4.828  11.298  1.00  0.00     0.136 A 
HETATM   15  N3  UNL     1      17.884   3.924  10.663  1.00  0.00    -0.337 N 
HETATM   16  C8  UNL     1      16.866   3.301  11.255  1.00  0.00     0.183 A 
ATOM     17  H3  UNL     1      18.109   3.698   9.694  1.00  0.00     0.168 HD
HETATM   18  N4  UNL     1      16.549   3.577  12.520  1.00  0.00    -0.335 N 
HETATM   19  C9  UNL     1      17.244   4.482  13.226  1.00  0.00     0.157 A 
ATOM     20  H4  UNL     1      15.766   3.092  12.959  1.00  0.00     0.168 HD
HETATM   21  C10 UNL     1      18.281   5.117  12.621  1.00  0.00     0.139 A 
HETATM   22  N7  UNL     1      17.156   4.950  14.480  1.00  0.00    -0.258 N 
HETATM   23  N5  UNL     1      18.795   5.954  13.530  1.00  0.00    -0.279 N 
HETATM   24  N6  UNL     1      18.107   5.846  14.652  1.00  0.00    -0.238 N 
ATOM     25  H5  UNL     1      19.591   6.575  13.380  1.00  0.00     0.189 HD
ATOM     26  H6  UNL     1      18.282   6.369  15.510  1.00  0.00     0.208 HD
BRANCH  22  27
HETATM   27  C11 UNL     1      16.162   4.506  15.436  1.00  0.00     0.186 C 
BRANCH  27  28
HETATM   28  C12 UNL     1      16.571   3.178  16.051  1.00  0.00     0.161 C 
BRANCH  28  29
HETATM   29  O2  UNL     1      17.916   3.264  16.396  1.00  0.00    -0.392 OA
ATOM     30  H2  UNL     1      18.401   2.680  15.825  1.00  0.00     0.210 HD
ENDBRANCH  28  29
BRANCH  28  31
HETATM   31  C13 UNL     1      15.712   2.977  17.289  1.00  0.00     0.197 C 
BRANCH  31  32
HETATM   32  O3  UNL     1      15.357   1.633  17.348  1.00  0.00    -0.398 OA
ATOM     33  H3  UNL     1      15.740   1.265  18.136  1.00  0.00     0.209 HD
ENDBRANCH  31  32
ENDBRANCH  28  31
ENDBRANCH  27  28
ENDBRANCH  22  27
ENDBRANCH  12  14
ENDBRANCH  11  12
ENDBRANCH   7  11
TORSDOF 8
ENDMDL
MODEL 2
REMARK VINA RESULT: -7.303122478      1.064      1.305
REMARK  8 active torsions:
REMARK  status: ('A' for Active; 'I' for Inactive)
REMARK    1  A    between atoms: N1_7  and  C6_8 
REMARK    2  A    between atoms: C6_8  and  N2_9 
REMARK    3  A    between atoms: N2_9  and  C7_11 
REMARK    4  A    between atoms: N7_23  and  C11_24 
REMARK    5  A    between atoms: C11_24  and  C12_25 
REMARK    6  A    between atoms: C12_25  and  O2_26 
REMARK    7  A    between atoms: C12_25  and  C13_28 
REMARK    8  A    between atoms: C13_28  and  O3_29 
ROOT
HETATM    1  C1  UNL     1      13.923  10.549  11.312  1.00  0.00     0.019 C 
HETATM    2  C2  UNL     1      14.933   9.915  11.137  1.00  0.00    -0.059 C 
HETATM    3  C3  UNL     1      16.155   9.159  10.944  1.00  0.00     0.092 A 
HETATM    4  C4  UNL     1      16.273   8.244   9.917  1.00  0.00     0.113 A 
HETATM    5  C5  UNL     1      17.446   7.539   9.755  1.00  0.00     0.252 A 
HETATM    6  O1  UNL     1      17.595   6.687   8.820  1.00  0.00    -0.268 OA
HETATM    7  N1  UNL     1      18.458   7.763  10.613  1.00  0.00    -0.294 N 
HETATM    8  C14 UNL     1      18.341   8.657  11.617  1.00  0.00     0.188 A 
HETATM    9  N8  UNL     1      17.188   9.334  11.756  1.00  0.00    -0.345 N 
ATOM     10  H8  UNL     1      17.106  10.010  12.516  1.00  0.00     0.167 HD
ENDROOT
BRANCH   7  11
HETATM   11  C6  UNL     1      19.694   7.032  10.458  1.00  0.00     0.257 C 
BRANCH  11  12
HETATM   12  N2  UNL     1      19.705   5.780  11.132  1.00  0.00    -0.358 N 
ATOM     13  H2  UNL     1      20.622   5.384  11.338  1.00  0.00     0.162 HD
BRANCH  12  14
HETATM   14  C7  UNL     1      18.695   5.096  11.509  1.00  0.00     0.136 A 
HETATM   15  N3  UNL     1      18.002   4.258  10.756  1.00  0.00    -0.337 N 
HETATM   16  C8  UNL     1      16.958   3.583  11.237  1.00  0.00     0.183 A 
ATOM     17  H3  UNL     1      18.274   4.124   9.782  1.00  0.00     0.168 HD
HETATM   18  N4  UNL     1      16.580   3.739  12.506  1.00  0.00    -0.335 N 
HETATM   19  C9  UNL     1      17.238   4.572  13.327  1.00  0.00     0.157 A 
ATOM     20  H4  UNL     1      15.778   3.216  12.859  1.00  0.00     0.168 HD
HETATM   21  C10 UNL     1      18.301   5.259  12.836  1.00  0.00     0.139 A 
HETATM   22  N7  UNL     1      17.088   4.919  14.614  1.00  0.00    -0.258 N 
HETATM   23  N5  UNL     1      18.768   6.006  13.843  1.00  0.00    -0.279 N 
HETATM   24  N6  UNL     1      18.027   5.794  14.916  1.00  0.00    -0.238 N 
ATOM     25  H5  UNL     1      19.568   6.637  13.791  1.00  0.00     0.189 HD
ATOM     26  H6  UNL     1      18.159   6.233  15.826  1.00  0.00     0.208 HD
BRANCH  22  27
HETATM   27  C11 UNL     1      16.050   4.389  15.475  1.00  0.00     0.186 C 
BRANCH  27  28
HETATM   28  C12 UNL     1      16.485   3.064  16.077  1.00  0.00     0.161 C 
BRANCH  28  29
HETATM   29  O2  UNL     1      17.829   3.170  16.419  1.00  0.00    -0.392 OA
ATOM     30  H2  UNL     1      18.240   2.330  16.252  1.00  0.00     0.210 HD
ENDBRANCH  28  29
BRANCH  28  31
HETATM   31  C13 UNL     1      15.633   2.837  17.317  1.00  0.00     0.197 C 
BRANCH  31  32
HETATM   32  O3  UNL     1      14.379   2.403  16.898  1.00  0.00    -0.398 OA
ATOM     33  H3  UNL     1      14.290   1.491  17.147  1.00  0.00     0.209 HD
ENDBRANCH  31  32
ENDBRANCH  28  31
ENDBRANCH  27  28
ENDBRANCH  22  27
ENDBRANCH  12  14
ENDBRANCH  11  12
ENDBRANCH   7  11
TORSDOF 8
ENDMDL
MODEL 3
REMARK VINA RESULT: -7.135275079      1.162      1.231
REMARK  8 active torsions:
REMARK  status: ('A' for Active; 'I' for Inactive)
REMARK    1  A    between atoms: N1_7  and  C6_8 
REMARK    2  A    between atoms: C6_8  and  N2_9 
REMARK    3  A    between atoms: N2_9  and  C7_11 
REMARK    4  A    between atoms: N7_23  and  C11_24 
REMARK    5  A    between atoms: C11_24  and  C12_25 
REMARK    6  A    between atoms: C12_25  and  O2_26 
REMARK    7  A    between atoms: C12_25  and  C13_28 
REMARK    8  A    between atoms: C13_28  and  O3_29 
ROOT
HETATM    1  C1  UNL     1      13.261   9.725   8.160  1.00  0.00     0.019 C 
HETATM    2  C2  UNL     1      14.311   9.306   8.576  1.00  0.00    -0.059 C 
HETATM    3  C3  UNL     1      15.581   8.797   9.057  1.00  0.00     0.092 A 
HETATM    4  C4  UNL     1      15.992   9.019  10.357  1.00  0.00     0.113 A 
HETATM    5  C5  UNL     1      17.202   8.524  10.789  1.00  0.00     0.252 A 
HETATM    6  O1  UNL     1      17.617   8.706  11.980  1.00  0.00    -0.268 OA
HETATM    7  N1  UNL     1      17.962   7.827   9.924  1.00  0.00    -0.294 N 
HETATM    8  C14 UNL     1      17.559   7.612   8.655  1.00  0.00     0.188 A 
HETATM    9  N8  UNL     1      16.375   8.103   8.254  1.00  0.00    -0.345 N 
ATOM     10  H8  UNL     1      16.075   7.936   7.293  1.00  0.00     0.167 HD
ENDROOT
BRANCH   7  11
HETATM   11  C6  UNL     1      19.234   7.301  10.361  1.00  0.00     0.257 C 
BRANCH  11  12
HETATM   12  N2  UNL     1      19.181   5.936  10.758  1.00  0.00    -0.358 N 
ATOM     13  H2  UNL     1      20.029   5.389  10.613  1.00  0.00     0.162 HD
BRANCH  12  14
HETATM   14  C7  UNL     1      18.191   5.321  11.277  1.00  0.00     0.136 A 
HETATM   15  N3  UNL     1      17.316   4.573  10.625  1.00  0.00    -0.337 N 
HETATM   16  C8  UNL     1      16.310   3.964  11.253  1.00  0.00     0.183 A 
ATOM     17  H3  UNL     1      17.414   4.459   9.616  1.00  0.00     0.168 HD
HETATM   18  N4  UNL     1      16.157   4.096  12.571  1.00  0.00    -0.335 N 
HETATM   19  C9  UNL     1      17.008   4.839  13.295  1.00  0.00     0.157 A 
ATOM     20  H4  UNL     1      15.381   3.625  13.036  1.00  0.00     0.168 HD
HETATM   21  C10 UNL     1      18.033   5.459  12.654  1.00  0.00     0.139 A 
HETATM   22  N7  UNL     1      17.099   5.142  14.598  1.00  0.00    -0.258 N 
HETATM   23  N5  UNL     1      18.720   6.122  13.592  1.00  0.00    -0.279 N 
HETATM   24  N6  UNL     1      18.147   5.925  14.765  1.00  0.00    -0.238 N 
ATOM     25  H5  UNL     1      19.552   6.689  13.426  1.00  0.00     0.189 HD
ATOM     26  H6  UNL     1      18.462   6.314  15.654  1.00  0.00     0.208 HD
BRANCH  22  27
HETATM   27  C11 UNL     1      16.173   4.661  15.603  1.00  0.00     0.186 C 
BRANCH  27  28
HETATM   28  C12 UNL     1      16.557   3.261  16.053  1.00  0.00     0.161 C 
BRANCH  28  29
HETATM   29  O2  UNL     1      17.929   3.248  16.283  1.00  0.00    -0.392 OA
ATOM     30  H2  UNL     1      18.147   2.421  16.698  1.00  0.00     0.210 HD
ENDBRANCH  28  29
BRANCH  28  31
HETATM   31  C13 UNL     1      15.795   2.982  17.339  1.00  0.00     0.197 C 
BRANCH  31  32
HETATM   32  O3  UNL     1      15.395   1.649  17.316  1.00  0.00    -0.398 OA
ATOM     33  H3  UNL     1      14.670   1.553  17.922  1.00  0.00     0.209 HD
ENDBRANCH  31  32
ENDBRANCH  28  31
ENDBRANCH  27  28
ENDBRANCH  22  27
ENDBRANCH  12  14
ENDBRANCH  11  12
ENDBRANCH   7  11
TORSDOF 8
ENDMDL
MODEL 4
REMARK VINA RESULT: -7.125516809      1.971      2.818
REMARK  8 active torsions:
REMARK  status: ('A' for Active; 'I' for Inactive)
REMARK    1  A    between atoms: N1_7  and  C6_8 
REMARK    2  A    between atoms: C6_8  and  N2_9 
REMARK    3  A    between atoms: N2_9  and  C7_11 
REMARK    4  A    between atoms: N7_23  and  C11_24 
REMARK    5  A    between atoms: C11_24  and  C12_25 
REMARK    6  A    between atoms: C12_25  and  O2_26 
REMARK    7  A    between atoms: C12_25  and  C13_28 
REMARK    8  A    between atoms: C13_28  and  O3_29 
ROOT
HETATM    1  C1  UNL     1      19.534  10.706  15.085  1.00  0.00     0.019 C 
HETATM    2  C2  UNL     1      19.140   9.956  14.228  1.00  0.00    -0.059 C 
HETATM    3  C3  UNL     1      18.684   9.043  13.198  1.00  0.00     0.092 A 
HETATM    4  C4  UNL     1      17.373   9.052  12.766  1.00  0.00     0.113 A 
HETATM    5  C5  UNL     1      16.965   8.175  11.786  1.00  0.00     0.252 A 
HETATM    6  O1  UNL     1      15.765   8.152  11.360  1.00  0.00    -0.268 OA
HETATM    7  N1  UNL     1      17.867   7.321  11.267  1.00  0.00    -0.294 N 
HETATM    8  C14 UNL     1      19.147   7.312  11.691  1.00  0.00     0.188 A 
HETATM    9  N8  UNL     1      19.524   8.177  12.648  1.00  0.00    -0.345 N 
ATOM     10  H8  UNL     1      20.494   8.167  12.963  1.00  0.00     0.167 HD
ENDROOT
BRANCH   7  11
HETATM   11  C6  UNL     1      17.456   6.394  10.239  1.00  0.00     0.257 C 
BRANCH  11  12
HETATM   12  N2  UNL     1      16.538   5.407  10.693  1.00  0.00    -0.358 N 
ATOM     13  H2  UNL     1      15.571   5.514  10.388  1.00  0.00     0.162 HD
BRANCH  12  14
HETATM   14  C7  UNL     1      16.789   4.403  11.440  1.00  0.00     0.136 A 
HETATM   15  N3  UNL     1      17.215   3.220  11.030  1.00  0.00    -0.337 N 
HETATM   16  C8  UNL     1      17.454   2.226  11.886  1.00  0.00     0.183 A 
ATOM     17  H3  UNL     1      17.365   3.064  10.033  1.00  0.00     0.168 HD
HETATM   18  N4  UNL     1      17.265   2.402  13.194  1.00  0.00    -0.335 N 
HETATM   19  C9  UNL     1      16.835   3.576  13.679  1.00  0.00     0.157 A 
ATOM     20  H4  UNL     1      17.451   1.631  13.835  1.00  0.00     0.168 HD
HETATM   21  C10 UNL     1      16.593   4.588  12.807  1.00  0.00     0.139 A 
HETATM   22  N7  UNL     1      16.565   4.029  14.913  1.00  0.00    -0.258 N 
HETATM   23  N5  UNL     1      16.181   5.630  13.539  1.00  0.00    -0.279 N 
HETATM   24  N6  UNL     1      16.167   5.282  14.813  1.00  0.00    -0.238 N 
ATOM     25  H5  UNL     1      15.921   6.546  13.172  1.00  0.00     0.189 HD
ATOM     26  H6  UNL     1      15.895   5.882  15.591  1.00  0.00     0.208 HD
BRANCH  22  27
HETATM   27  C11 UNL     1      16.705   3.228  16.112  1.00  0.00     0.186 C 
BRANCH  27  28
HETATM   28  C12 UNL     1      15.345   2.959  16.733  1.00  0.00     0.161 C 
BRANCH  28  29
HETATM   29  O2  UNL     1      15.390   1.705  17.336  1.00  0.00    -0.392 OA
ATOM     30  H2  UNL     1      14.889   1.105  16.796  1.00  0.00     0.210 HD
ENDBRANCH  28  29
BRANCH  28  31
HETATM   31  C13 UNL     1      15.107   4.044  17.772  1.00  0.00     0.197 C 
BRANCH  31  32
HETATM   32  O3  UNL     1      14.265   4.997  17.207  1.00  0.00    -0.398 OA
ATOM     33  H3  UNL     1      14.708   5.837  17.249  1.00  0.00     0.209 HD
ENDBRANCH  31  32
ENDBRANCH  28  31
ENDBRANCH  27  28
ENDBRANCH  22  27
ENDBRANCH  12  14
ENDBRANCH  11  12
ENDBRANCH   7  11
TORSDOF 8
ENDMDL
MODEL 5
REMARK VINA RESULT: -7.104318285      1.849      2.374
REMARK  8 active torsions:
REMARK  status: ('A' for Active; 'I' for Inactive)
REMARK    1  A    between atoms: N1_7  and  C6_8 
REMARK    2  A    between atoms: C6_8  and  N2_9 
REMARK    3  A    between atoms: N2_9  and  C7_11 
REMARK    4  A    between atoms: N7_23  and  C11_24 
REMARK    5  A    between atoms: C11_24  and  C12_25 
REMARK    6  A    between atoms: C12_25  and  O2_26 
REMARK    7  A    between atoms: C12_25  and  C13_28 
REMARK    8  A    between atoms: C13_28  and  O3_29 
ROOT
HETATM    1  C1  UNL     1      19.489  12.687  14.373  1.00  0.00     0.019 C 
HETATM    2  C2  UNL     1      19.528  11.722  13.653  1.00  0.00    -0.059 C 
HETATM    3  C3  UNL     1      19.562  10.570  12.774  1.00  0.00     0.092 A 
HETATM    4  C4  UNL     1      20.531   9.596  12.910  1.00  0.00     0.113 A 
HETATM    5  C5  UNL     1      20.540   8.510  12.062  1.00  0.00     0.252 A 
HETATM    6  O1  UNL     1      21.416   7.591  12.156  1.00  0.00    -0.268 OA
HETATM    7  N1  UNL     1      19.592   8.426  11.110  1.00  0.00    -0.294 N 
HETATM    8  C14 UNL     1      18.646   9.378  10.978  1.00  0.00     0.188 A 
HETATM    9  N8  UNL     1      18.656  10.429  11.816  1.00  0.00    -0.345 N 
ATOM     10  H8  UNL     1      17.937  11.145  11.712  1.00  0.00     0.167 HD
ENDROOT
BRANCH   7  11
HETATM   11  C6  UNL     1      19.587   7.295  10.213  1.00  0.00     0.257 C 
BRANCH  11  12
HETATM   12  N2  UNL     1      19.468   6.041  10.875  1.00  0.00    -0.358 N 
ATOM     13  H2  UNL     1      20.332   5.516  11.008  1.00  0.00     0.162 HD
BRANCH  12  14
HETATM   14  C7  UNL     1      18.402   5.502  11.322  1.00  0.00     0.136 A 
HETATM   15  N3  UNL     1      17.466   4.915  10.594  1.00  0.00    -0.337 N 
HETATM   16  C8  UNL     1      16.382   4.375  11.150  1.00  0.00     0.183 A 
ATOM     17  H3  UNL     1      17.577   4.876   9.581  1.00  0.00     0.168 HD
HETATM   18  N4  UNL     1      16.211   4.413  12.472  1.00  0.00    -0.335 N 
HETATM   19  C9  UNL     1      17.120   4.991  13.271  1.00  0.00     0.157 A 
ATOM     20  H4  UNL     1      15.375   3.996  12.882  1.00  0.00     0.168 HD
HETATM   21  C10 UNL     1      18.225   5.541  12.703  1.00  0.00     0.139 A 
HETATM   22  N7  UNL     1      17.211   5.172  14.597  1.00  0.00    -0.258 N 
HETATM   23  N5  UNL     1      18.957   6.042  13.706  1.00  0.00    -0.279 N 
HETATM   24  N6  UNL     1      18.334   5.814  14.848  1.00  0.00    -0.238 N 
ATOM     25  H5  UNL     1      19.851   6.521  13.604  1.00  0.00     0.189 HD
ATOM     26  H6  UNL     1      18.668   6.088  15.772  1.00  0.00     0.208 HD
BRANCH  22  27
HETATM   27  C11 UNL     1      16.210   4.717  15.541  1.00  0.00     0.186 C 
BRANCH  27  28
HETATM   28  C12 UNL     1      16.525   3.306  16.011  1.00  0.00     0.161 C 
BRANCH  28  29
HETATM   29  O2  UNL     1      17.878   3.253  16.327  1.00  0.00    -0.392 OA
ATOM     30  H2  UNL     1      18.179   2.365  16.172  1.00  0.00     0.210 HD
ENDBRANCH  28  29
BRANCH  28  31
HETATM   31  C13 UNL     1      15.676   3.048  17.246  1.00  0.00     0.197 C 
BRANCH  31  32
HETATM   32  O3  UNL     1      15.351   1.695  17.264  1.00  0.00    -0.398 OA
ATOM     33  H3  UNL     1      14.409   1.624  17.365  1.00  0.00     0.209 HD
ENDBRANCH  31  32
ENDBRANCH  28  31
ENDBRANCH  27  28
ENDBRANCH  22  27
ENDBRANCH  12  14
ENDBRANCH  11  12
ENDBRANCH   7  11
TORSDOF 8
ENDMDL
