MODEL 1
REMARK VINA RESULT: -7.127222291      0.000      0.000
REMARK  8 active torsions:
REMARK  status: ('A' for Active; 'I' for Inactive)
REMARK    1  A    between atoms: N1_2  and  C3_4 
REMARK    2  A    between atoms: C4_7  and  N3_8 
REMARK    3  A    between atoms: N3_8  and  C5_10 
REMARK    4  A    between atoms: N5_14  and  C7_15 
REMARK    5  A    between atoms: C11_26  and  N10_27 
REMARK    6  A    between atoms: N10_27  and  C12_29 
REMARK    7  A    between atoms: C12_29  and  C13_30 
REMARK    8  A    between atoms: C13_30  and  O1_31 
ROOT
HETATM    1  C3  UNL     1      17.375   2.779  12.819  1.00  0.00     0.708 A 
HETATM    2  N2  UNL     1      17.847   4.026  12.734  1.00  0.00    -0.021 N 
ATOM      3  H2  UNL     1      18.178   4.358  11.828  1.00  0.00     0.203 HD
HETATM    4  C4  UNL     1      17.907   4.866  13.783  1.00  0.00     0.712 A 
HETATM    5  N9  UNL     1      17.472   4.428  14.977  1.00  0.00    -0.021 N 
ATOM      6  H9  UNL     1      17.506   5.041  15.791  1.00  0.00     0.203 HD
HETATM    7  C11 UNL     1      16.992   3.178  15.095  1.00  0.00     0.707 A 
HETATM    8  N11 UNL     1      16.939   2.355  14.036  1.00  0.00    -0.021 N 
ATOM      9  H11 UNL     1      16.572   1.410  14.144  1.00  0.00     0.203 HD
ENDROOT
BRANCH   4  10
HETATM   10  N3  UNL     1      18.355   6.066  13.726  1.00  0.00    -0.178 N 
ATOM     11  H3  UNL     1      19.224   6.299  14.209  1.00  0.00     0.185 HD
BRANCH  10  12
HETATM   12  C5  UNL     1      17.657   7.094  12.992  1.00  0.00     0.112 C 
HETATM   13  N4  UNL     1      16.886   7.997  13.427  1.00  0.00    -0.362 N 
HETATM   14  C6  UNL     1      16.365   8.857  12.376  1.00  0.00     0.249 C 
ATOM     15  H4  UNL     1      16.655   8.112  14.414  1.00  0.00     0.162 HD
HETATM   16  N5  UNL     1      16.711   8.123  11.176  1.00  0.00    -0.342 N 
HETATM   17  C10 UNL     1      17.773   7.221  11.533  1.00  0.00     0.203 C 
BRANCH  16  18
HETATM   18  C7  UNL     1      16.112   8.276   9.906  1.00  0.00     0.138 A 
HETATM   19  C8  UNL     1      15.007   9.029   9.642  1.00  0.00     0.160 A 
HETATM   20  N6  UNL     1      14.767   8.906   8.324  1.00  0.00    -0.290 N 
HETATM   21  C9  UNL     1      13.690   9.530   7.582  1.00  0.00     0.178 C 
HETATM   22  N7  UNL     1      15.681   8.117   7.817  1.00  0.00    -0.240 N 
HETATM   23  N8  UNL     1      16.510   7.720   8.756  1.00  0.00    -0.270 N 
ATOM     24  H7  UNL     1      15.740   7.849   6.834  1.00  0.00     0.208 HD
ATOM     25  H8  UNL     1      17.311   7.101   8.632  1.00  0.00     0.190 HD
ENDBRANCH  16  18
ENDBRANCH  10  12
ENDBRANCH   4  10
BRANCH   1  26
HETATM   26  N1  UNL     1      17.318   1.912  11.715  1.00  0.00    -0.225 N 
HETATM   27  C1  UNL     1      16.501   2.296  10.579  1.00  0.00     0.168 C 
HETATM   28  C2  UNL     1      18.029   0.673  11.669  1.00  0.00     0.168 C 
ENDBRANCH   1  26
BRANCH   7  29
HETATM   29  N10 UNL     1      16.571   2.751  16.241  1.00  0.00    -0.223 N 
ATOM     30  H10 UNL     1      16.604   1.750  16.430  1.00  0.00     0.177 HD
BRANCH  29  31
HETATM   31  C12 UNL     1      16.061   3.620  17.256  1.00  0.00     0.164 C 
BRANCH  31  32
HETATM   32  C13 UNL     1      14.563   3.802  17.035  1.00  0.00     0.184 C 
BRANCH  32  33
HETATM   33  O1  UNL     1      13.950   2.587  16.819  1.00  0.00    -0.399 OA
ATOM     34  H1  UNL     1      13.415   2.343  17.565  1.00  0.00     0.209 HD
ENDBRANCH  32  33
ENDBRANCH  31  32
ENDBRANCH  29  31
ENDBRANCH   7  29
TORSDOF 8
ENDMDL
MODEL 2
REMARK VINA RESULT: -6.788763421      3.006      4.438
REMARK  8 active torsions:
REMARK  status: ('A' for Active; 'I' for Inactive)
REMARK    1  A    between atoms: N1_2  and  C3_4 
REMARK    2  A    between atoms: C4_7  and  N3_8 
REMARK    3  A    between atoms: N3_8  and  C5_10 
REMARK    4  A    between atoms: N5_14  and  C7_15 
REMARK    5  A    between atoms: C11_26  and  N10_27 
REMARK    6  A    between atoms: N10_27  and  C12_29 
REMARK    7  A    between atoms: C12_29  and  C13_30 
REMARK    8  A    between atoms: C13_30  and  O1_31 
ROOT
HETATM    1  C3  UNL     1      17.290   3.145  12.768  1.00  0.00     0.708 A 
HETATM    2  N2  UNL     1      17.508   4.462  12.708  1.00  0.00    -0.021 N 
ATOM      3  H2  UNL     1      17.742   4.874  11.805  1.00  0.00     0.203 HD
HETATM    4  C4  UNL     1      17.433   5.271  13.780  1.00  0.00     0.712 A 
HETATM    5  N9  UNL     1      17.126   4.727  14.970  1.00  0.00    -0.021 N 
ATOM      6  H9  UNL     1      17.063   5.315  15.801  1.00  0.00     0.203 HD
HETATM    7  C11 UNL     1      16.902   3.406  15.062  1.00  0.00     0.707 A 
HETATM    8  N11 UNL     1      16.980   2.615  13.981  1.00  0.00    -0.021 N 
ATOM      9  H11 UNL     1      16.807   1.613  14.069  1.00  0.00     0.203 HD
ENDROOT
BRANCH   4  10
HETATM   10  N3  UNL     1      17.638   6.537  13.748  1.00  0.00    -0.178 N 
ATOM     11  H3  UNL     1      17.128   7.142  14.393  1.00  0.00     0.185 HD
BRANCH  10  12
HETATM   12  C5  UNL     1      18.574   7.122  12.819  1.00  0.00     0.112 C 
HETATM   13  N4  UNL     1      18.348   7.678  11.706  1.00  0.00    -0.362 N 
HETATM   14  C6  UNL     1      19.556   8.150  11.048  1.00  0.00     0.249 C 
ATOM     15  H4  UNL     1      17.414   7.783  11.309  1.00  0.00     0.162 HD
HETATM   16  N5  UNL     1      20.600   7.506  11.818  1.00  0.00    -0.342 N 
HETATM   17  C10 UNL     1      20.019   7.145  13.084  1.00  0.00     0.203 C 
BRANCH  16  18
HETATM   18  C7  UNL     1      21.928   7.282  11.394  1.00  0.00     0.138 A 
HETATM   19  C8  UNL     1      22.302   6.919  10.135  1.00  0.00     0.160 A 
HETATM   20  N6  UNL     1      23.643   6.811  10.152  1.00  0.00    -0.290 N 
HETATM   21  C9  UNL     1      24.493   6.445   9.035  1.00  0.00     0.178 C 
HETATM   22  N7  UNL     1      24.059   7.094  11.361  1.00  0.00    -0.240 N 
HETATM   23  N8  UNL     1      23.037   7.384  12.135  1.00  0.00    -0.270 N 
ATOM     24  H7  UNL     1      25.035   7.090  11.658  1.00  0.00     0.208 HD
ATOM     25  H8  UNL     1      23.082   7.640  13.122  1.00  0.00     0.190 HD
ENDBRANCH  16  18
ENDBRANCH  10  12
ENDBRANCH   4  10
BRANCH   1  26
HETATM   26  N1  UNL     1      17.371   2.311  11.639  1.00  0.00    -0.225 N 
HETATM   27  C1  UNL     1      16.921   2.832  10.363  1.00  0.00     0.168 C 
HETATM   28  C2  UNL     1      17.877   0.976  11.702  1.00  0.00     0.168 C 
ENDBRANCH   1  26
BRANCH   7  29
HETATM   29  N10 UNL     1      16.605   2.876  16.205  1.00  0.00    -0.223 N 
ATOM     30  H10 UNL     1      16.776   1.880  16.339  1.00  0.00     0.177 HD
BRANCH  29  31
HETATM   31  C12 UNL     1      16.048   3.625  17.288  1.00  0.00     0.164 C 
BRANCH  31  32
HETATM   32  C13 UNL     1      14.545   3.759  17.066  1.00  0.00     0.184 C 
BRANCH  32  33
HETATM   33  O1  UNL     1      13.977   2.528  16.816  1.00  0.00    -0.399 OA
ATOM     34  H1  UNL     1      14.622   1.837  16.899  1.00  0.00     0.209 HD
ENDBRANCH  32  33
ENDBRANCH  31  32
ENDBRANCH  29  31
ENDBRANCH   7  29
TORSDOF 8
ENDMDL
MODEL 3
REMARK VINA RESULT: -6.756408345      1.267      1.617
REMARK  8 active torsions:
REMARK  status: ('A' for Active; 'I' for Inactive)
REMARK    1  A    between atoms: N1_2  and  C3_4 
REMARK    2  A    between atoms: C4_7  and  N3_8 
REMARK    3  A    between atoms: N3_8  and  C5_10 
REMARK    4  A    between atoms: N5_14  and  C7_15 
REMARK    5  A    between atoms: C11_26  and  N10_27 
REMARK    6  A    between atoms: N10_27  and  C12_29 
REMARK    7  A    between atoms: C12_29  and  C13_30 
REMARK    8  A    between atoms: C13_30  and  O1_31 
ROOT
HETATM    1  C3  UNL     1      17.627   2.836  12.115  1.00  0.00     0.708 A 
HETATM    2  N2  UNL     1      17.747   4.141  11.854  1.00  0.00    -0.021 N 
ATOM      3  H2  UNL     1      18.032   4.423  10.916  1.00  0.00     0.203 HD
HETATM    4  C4  UNL     1      17.510   5.100  12.767  1.00  0.00     0.712 A 
HETATM    5  N9  UNL     1      17.137   4.727  14.003  1.00  0.00    -0.021 N 
ATOM      6  H9  UNL     1      16.952   5.432  14.717  1.00  0.00     0.203 HD
HETATM    7  C11 UNL     1      17.008   3.422  14.295  1.00  0.00     0.707 A 
HETATM    8  N11 UNL     1      17.247   2.480  13.372  1.00  0.00    -0.021 N 
ATOM      9  H11 UNL     1      17.144   1.493  13.612  1.00  0.00     0.203 HD
ENDROOT
BRANCH   4  10
HETATM   10  N3  UNL     1      17.619   6.358  12.541  1.00  0.00    -0.178 N 
ATOM     11  H3  UNL     1      17.814   6.991  13.317  1.00  0.00     0.185 HD
BRANCH  10  12
HETATM   12  C5  UNL     1      17.470   6.896  11.210  1.00  0.00     0.112 C 
HETATM   13  N4  UNL     1      18.347   7.407  10.456  1.00  0.00    -0.362 N 
HETATM   14  C6  UNL     1      17.815   7.842   9.175  1.00  0.00     0.249 C 
ATOM     15  H4  UNL     1      19.328   7.504  10.719  1.00  0.00     0.162 HD
HETATM   16  N5  UNL     1      16.384   7.788   9.399  1.00  0.00    -0.342 N 
HETATM   17  C10 UNL     1      16.174   6.910  10.518  1.00  0.00     0.203 C 
BRANCH  16  18
HETATM   18  C7  UNL     1      15.399   8.472   8.653  1.00  0.00     0.138 A 
HETATM   19  C8  UNL     1      14.445   9.293   9.175  1.00  0.00     0.160 A 
HETATM   20  N6  UNL     1      13.715   9.738   8.137  1.00  0.00    -0.290 N 
HETATM   21  C9  UNL     1      12.583  10.642   8.203  1.00  0.00     0.178 C 
HETATM   22  N7  UNL     1      14.203   9.212   7.042  1.00  0.00    -0.240 N 
HETATM   23  N8  UNL     1      15.227   8.439   7.327  1.00  0.00    -0.270 N 
ATOM     24  H7  UNL     1      13.840   9.379   6.102  1.00  0.00     0.208 HD
ATOM     25  H8  UNL     1      15.788   7.910   6.660  1.00  0.00     0.190 HD
ENDBRANCH  16  18
ENDBRANCH  10  12
ENDBRANCH   4  10
BRANCH   1  26
HETATM   26  N1  UNL     1      17.877   1.844  11.151  1.00  0.00    -0.225 N 
HETATM   27  C1  UNL     1      17.664   2.170   9.754  1.00  0.00     0.168 C 
HETATM   28  C2  UNL     1      18.329   0.532  11.495  1.00  0.00     0.168 C 
ENDBRANCH   1  26
BRANCH   7  29
HETATM   29  N10 UNL     1      16.647   3.057  15.483  1.00  0.00    -0.223 N 
ATOM     30  H10 UNL     1      16.839   2.100  15.778  1.00  0.00     0.177 HD
BRANCH  29  31
HETATM   31  C12 UNL     1      15.992   3.935  16.402  1.00  0.00     0.164 C 
BRANCH  31  32
HETATM   32  C13 UNL     1      15.003   3.122  17.232  1.00  0.00     0.184 C 
BRANCH  32  33
HETATM   33  O1  UNL     1      15.343   1.787  17.227  1.00  0.00    -0.399 OA
ATOM     34  H1  UNL     1      14.596   1.248  17.459  1.00  0.00     0.209 HD
ENDBRANCH  32  33
ENDBRANCH  31  32
ENDBRANCH  29  31
ENDBRANCH   7  29
TORSDOF 8
ENDMDL
MODEL 4
REMARK VINA RESULT: -6.744939480      1.311      1.585
REMARK  8 active torsions:
REMARK  status: ('A' for Active; 'I' for Inactive)
REMARK    1  A    between atoms: N1_2  and  C3_4 
REMARK    2  A    between atoms: C4_7  and  N3_8 
REMARK    3  A    between atoms: N3_8  and  C5_10 
REMARK    4  A    between atoms: N5_14  and  C7_15 
REMARK    5  A    between atoms: C11_26  and  N10_27 
REMARK    6  A    between atoms: N10_27  and  C12_29 
REMARK    7  A    between atoms: C12_29  and  C13_30 
REMARK    8  A    between atoms: C13_30  and  O1_31 
ROOT
HETATM    1  C3  UNL     1      17.402   2.994  12.776  1.00  0.00     0.708 A 
HETATM    2  N2  UNL     1      17.738   4.284  12.698  1.00  0.00    -0.021 N 
ATOM      3  H2  UNL     1      18.023   4.657  11.792  1.00  0.00     0.203 HD
HETATM    4  C4  UNL     1      17.722   5.116  13.755  1.00  0.00     0.712 A 
HETATM    5  N9  UNL     1      17.349   4.623  14.949  1.00  0.00    -0.021 N 
ATOM      6  H9  UNL     1      17.328   5.230  15.769  1.00  0.00     0.203 HD
HETATM    7  C11 UNL     1      17.005   3.329  15.059  1.00  0.00     0.707 A 
HETATM    8  N11 UNL     1      17.027   2.515  13.993  1.00  0.00    -0.021 N 
ATOM      9  H11 UNL     1      16.763   1.535  14.095  1.00  0.00     0.203 HD
ENDROOT
BRANCH   4  10
HETATM   10  N3  UNL     1      18.041   6.357  13.706  1.00  0.00    -0.178 N 
ATOM     11  H3  UNL     1      18.654   6.745  14.423  1.00  0.00     0.185 HD
BRANCH  10  12
HETATM   12  C5  UNL     1      17.550   7.216  12.655  1.00  0.00     0.112 C 
HETATM   13  N4  UNL     1      16.539   7.975  12.655  1.00  0.00    -0.362 N 
HETATM   14  C6  UNL     1      16.363   8.692  11.402  1.00  0.00     0.249 C 
ATOM     15  H4  UNL     1      15.911   8.075  13.453  1.00  0.00     0.162 HD
HETATM   16  N5  UNL     1      17.278   7.999  10.518  1.00  0.00    -0.342 N 
HETATM   17  C10 UNL     1      18.229   7.319  11.356  1.00  0.00     0.203 C 
BRANCH  16  18
HETATM   18  C7  UNL     1      17.231   8.000   9.107  1.00  0.00     0.138 A 
HETATM   19  C8  UNL     1      18.316   8.028   8.283  1.00  0.00     0.160 A 
HETATM   20  N6  UNL     1      17.841   8.019   7.025  1.00  0.00    -0.290 N 
HETATM   21  C9  UNL     1      18.625   8.040   5.806  1.00  0.00     0.178 C 
HETATM   22  N7  UNL     1      16.533   7.988   7.084  1.00  0.00    -0.240 N 
HETATM   23  N8  UNL     1      16.137   7.976   8.338  1.00  0.00    -0.270 N 
ATOM     24  H7  UNL     1      15.912   7.974   6.275  1.00  0.00     0.208 HD
ATOM     25  H8  UNL     1      15.171   7.952   8.665  1.00  0.00     0.190 HD
ENDBRANCH  16  18
ENDBRANCH  10  12
ENDBRANCH   4  10
BRANCH   1  26
HETATM   26  N1  UNL     1      17.423   2.135  11.663  1.00  0.00    -0.225 N 
HETATM   27  C1  UNL     1      16.861   2.612  10.414  1.00  0.00     0.168 C 
HETATM   28  C2  UNL     1      17.974   0.818  11.716  1.00  0.00     0.168 C 
ENDBRANCH   1  26
BRANCH   7  29
HETATM   29  N10 UNL     1      16.645   2.850  16.206  1.00  0.00    -0.223 N 
ATOM     30  H10 UNL     1      16.771   1.853  16.378  1.00  0.00     0.177 HD
BRANCH  29  31
HETATM   31  C12 UNL     1      16.077   3.654  17.242  1.00  0.00     0.164 C 
BRANCH  31  32
HETATM   32  C13 UNL     1      14.578   3.786  16.991  1.00  0.00     0.184 C 
BRANCH  32  33
HETATM   33  O1  UNL     1      14.000   2.546  16.826  1.00  0.00    -0.399 OA
ATOM     34  H1  UNL     1      14.596   1.952  16.386  1.00  0.00     0.209 HD
ENDBRANCH  32  33
ENDBRANCH  31  32
ENDBRANCH  29  31
ENDBRANCH   7  29
TORSDOF 8
ENDMDL
MODEL 5
REMARK VINA RESULT: -6.577208162      2.089      3.700
REMARK  8 active torsions:
REMARK  status: ('A' for Active; 'I' for Inactive)
REMARK    1  A    between atoms: N1_2  and  C3_4 
REMARK    2  A    between atoms: C4_7  and  N3_8 
REMARK    3  A    between atoms: N3_8  and  C5_10 
REMARK    4  A    between atoms: N5_14  and  C7_15 
REMARK    5  A    between atoms: C11_26  and  N10_27 
REMARK    6  A    between atoms: N10_27  and  C12_29 
REMARK    7  A    between atoms: C12_29  and  C13_30 
REMARK    8  A    between atoms: C13_30  and  O1_31 
ROOT
HETATM    1  C3  UNL     1      17.010   4.156  13.887  1.00  0.00     0.708 A 
HETATM    2  N2  UNL     1      17.520   5.296  13.415  1.00  0.00    -0.021 N 
ATOM      3  H2  UNL     1      17.413   6.143  13.974  1.00  0.00     0.203 HD
HETATM    4  C4  UNL     1      18.168   5.384  12.239  1.00  0.00     0.712 A 
HETATM    5  N9  UNL     1      18.306   4.269  11.502  1.00  0.00    -0.021 N 
ATOM      6  H9  UNL     1      18.792   4.304  10.606  1.00  0.00     0.203 HD
HETATM    7  C11 UNL     1      17.804   3.106  11.950  1.00  0.00     0.707 A 
HETATM    8  N11 UNL     1      17.162   3.038  13.126  1.00  0.00    -0.021 N 
ATOM      9  H11 UNL     1      16.786   2.147  13.451  1.00  0.00     0.203 HD
ENDROOT
BRANCH   4  10
HETATM   10  N3  UNL     1      18.666   6.467  11.765  1.00  0.00    -0.178 N 
ATOM     11  H3  UNL     1      19.677   6.543  11.649  1.00  0.00     0.185 HD
BRANCH  10  12
HETATM   12  C5  UNL     1      17.825   7.579  11.392  1.00  0.00     0.112 C 
HETATM   13  N4  UNL     1      17.482   8.582  12.081  1.00  0.00    -0.362 N 
HETATM   14  C6  UNL     1      16.618   9.502  11.358  1.00  0.00     0.249 C 
ATOM     15  H4  UNL     1      17.781   8.732  13.044  1.00  0.00     0.162 HD
HETATM   16  N5  UNL     1      16.238   8.723  10.197  1.00  0.00    -0.342 N 
HETATM   17  C10 UNL     1      17.223   7.683  10.056  1.00  0.00     0.203 C 
BRANCH  16  18
HETATM   18  C7  UNL     1      15.115   8.952   9.372  1.00  0.00     0.138 A 
HETATM   19  C8  UNL     1      14.359  10.085   9.370  1.00  0.00     0.160 A 
HETATM   20  N6  UNL     1      13.397   9.900   8.448  1.00  0.00    -0.290 N 
HETATM   21  C9  UNL     1      12.351  10.839   8.091  1.00  0.00     0.178 C 
HETATM   22  N7  UNL     1      13.563   8.714   7.919  1.00  0.00    -0.240 N 
HETATM   23  N8  UNL     1      14.601   8.117   8.463  1.00  0.00    -0.270 N 
ATOM     24  H7  UNL     1      12.973   8.311   7.190  1.00  0.00     0.208 HD
ATOM     25  H8  UNL     1      14.950   7.186   8.234  1.00  0.00     0.190 HD
ENDBRANCH  16  18
ENDBRANCH  10  12
ENDBRANCH   4  10
BRANCH   1  26
HETATM   26  N1  UNL     1      16.336   4.078  15.118  1.00  0.00    -0.225 N 
HETATM   27  C1  UNL     1      15.403   5.134  15.461  1.00  0.00     0.168 C 
HETATM   28  C2  UNL     1      16.535   3.004  16.040  1.00  0.00     0.168 C 
ENDBRANCH   1  26
BRANCH   7  29
HETATM   29  N10 UNL     1      17.935   2.029  11.246  1.00  0.00    -0.223 N 
ATOM     30  H10 UNL     1      18.299   2.109  10.297  1.00  0.00     0.177 HD
BRANCH  29  31
HETATM   31  C12 UNL     1      17.592   0.731  11.738  1.00  0.00     0.164 C 
BRANCH  31  32
HETATM   32  C13 UNL     1      18.762  -0.213  11.479  1.00  0.00     0.184 C 
BRANCH  32  33
HETATM   33  O1  UNL     1      18.330  -1.519  11.410  1.00  0.00    -0.399 OA
ATOM     34  H1  UNL     1      17.698  -1.701  12.095  1.00  0.00     0.209 HD
ENDBRANCH  32  33
ENDBRANCH  31  32
ENDBRANCH  29  31
ENDBRANCH   7  29
TORSDOF 8
ENDMDL
