MODEL 1
REMARK VINA RESULT: -7.097885547      0.000      0.000
REMARK  8 active torsions:
REMARK  status: ('A' for Active; 'I' for Inactive)
REMARK    1  A    between atoms: O1_3  and  N1_4 
REMARK    2  A    between atoms: N1_4  and  C3_6 
REMARK    3  A    between atoms: C5_8  and  N2_9 
REMARK    4  A    between atoms: N2_9  and  C6_11 
REMARK    5  A    between atoms: C7_14  and  N4_15 
REMARK    6  A    between atoms: C10_20  and  N6_21 
REMARK    7  A    between atoms: C11_23  and  C12_24 
REMARK    8  A    between atoms: C12_24  and  O2_25 
ROOT
HETATM    1  C1  UNL     1      14.343   3.587  17.319  1.00  0.00     0.047 C 
HETATM    2  C2  UNL     1      15.519   3.408  17.136  1.00  0.00     0.073 C 
HETATM    3  O1  UNL     1      16.882   3.223  16.903  1.00  0.00    -0.185 OA
ENDROOT
BRANCH   3   4
HETATM    4  N1  UNL     1      17.416   3.997  15.896  1.00  0.00    -0.234 N 
ATOM      5  H1  UNL     1      17.997   4.803  16.122  1.00  0.00     0.197 HD
BRANCH   4   6
HETATM    6  C3  UNL     1      17.175   3.694  14.658  1.00  0.00     0.145 A 
HETATM    7  C4  UNL     1      16.726   4.582  13.714  1.00  0.00     0.102 A 
HETATM    8  C5  UNL     1      16.485   4.195  12.411  1.00  0.00     0.142 A 
HETATM    9  N8  UNL     1      16.694   2.904  12.044  1.00  0.00    -0.266 N 
HETATM   10  C13 UNL     1      16.446   2.477  10.673  1.00  0.00     0.181 C 
HETATM   11  N9  UNL     1      17.125   2.067  12.969  1.00  0.00    -0.238 N 
HETATM   12  N10 UNL     1      17.360   2.418  14.215  1.00  0.00    -0.269 N 
ATOM     13  H9  UNL     1      17.285   1.095  12.704  1.00  0.00     0.208 HD
ATOM     14  H10 UNL     1      17.692   1.712  14.872  1.00  0.00     0.190 HD
BRANCH   8  15
HETATM   15  N2  UNL     1      16.030   5.107  11.430  1.00  0.00    -0.174 N 
ATOM     16  H2  UNL     1      15.027   5.203  11.275  1.00  0.00     0.186 HD
BRANCH  15  17
HETATM   17  C6  UNL     1      16.839   5.823  10.723  1.00  0.00     0.713 A 
HETATM   18  N3  UNL     1      18.152   5.831  11.034  1.00  0.00    -0.021 N 
HETATM   19  C7  UNL     1      19.062   6.562  10.355  1.00  0.00     0.708 A 
ATOM     20  H3  UNL     1      18.471   5.258  11.815  1.00  0.00     0.203 HD
HETATM   21  N5  UNL     1      18.656   7.321   9.326  1.00  0.00    -0.021 N 
HETATM   22  C10 UNL     1      17.322   7.349   8.970  1.00  0.00     0.711 A 
ATOM     23  H5  UNL     1      19.334   7.879   8.805  1.00  0.00     0.203 HD
HETATM   24  N7  UNL     1      16.454   6.581   9.699  1.00  0.00    -0.021 N 
ATOM     25  H7  UNL     1      15.466   6.591   9.447  1.00  0.00     0.203 HD
BRANCH  19  26
HETATM   26  N4  UNL     1      20.437   6.562  10.686  1.00  0.00    -0.225 N 
HETATM   27  C8  UNL     1      21.003   7.265  11.819  1.00  0.00     0.168 C 
HETATM   28  C9  UNL     1      21.362   5.798   9.852  1.00  0.00     0.168 C 
ENDBRANCH  19  26
BRANCH  22  29
HETATM   29  N6  UNL     1      16.944   8.063   8.048  1.00  0.00    -0.202 N 
HETATM   30  C11 UNL     1      16.026   8.729   7.326  1.00  0.00     0.105 C 
ATOM     31  H6  UNL     1      17.811   8.266   7.550  1.00  0.00     0.183 HD
BRANCH  30  32
HETATM   32  C12 UNL     1      14.736   9.164   8.057  1.00  0.00     0.209 C 
BRANCH  32  33
HETATM   33  O2  UNL     1      13.909   8.050   8.231  1.00  0.00    -0.396 OA
ATOM     34  H2  UNL     1      13.735   7.656   7.384  1.00  0.00     0.209 HD
ENDBRANCH  32  33
ENDBRANCH  30  32
ENDBRANCH  22  29
ENDBRANCH  15  17
ENDBRANCH   8  15
ENDBRANCH   4   6
ENDBRANCH   3   4
TORSDOF 8
ENDMDL
MODEL 2
REMARK VINA RESULT: -7.048714001      2.920      4.054
REMARK  8 active torsions:
REMARK  status: ('A' for Active; 'I' for Inactive)
REMARK    1  A    between atoms: O1_3  and  N1_4 
REMARK    2  A    between atoms: N1_4  and  C3_6 
REMARK    3  A    between atoms: C5_8  and  N2_9 
REMARK    4  A    between atoms: N2_9  and  C6_11 
REMARK    5  A    between atoms: C7_14  and  N4_15 
REMARK    6  A    between atoms: C10_20  and  N6_21 
REMARK    7  A    between atoms: C11_23  and  C12_24 
REMARK    8  A    between atoms: C12_24  and  O2_25 
ROOT
HETATM    1  C1  UNL     1      14.275   4.085  17.348  1.00  0.00     0.047 C 
HETATM    2  C2  UNL     1      14.978   3.195  16.944  1.00  0.00     0.073 C 
HETATM    3  O1  UNL     1      15.814   2.184  16.469  1.00  0.00    -0.185 OA
ENDROOT
BRANCH   3   4
HETATM    4  N1  UNL     1      16.993   2.616  15.901  1.00  0.00    -0.234 N 
ATOM      5  H1  UNL     1      17.857   2.605  16.441  1.00  0.00     0.197 HD
BRANCH   4   6
HETATM    6  C3  UNL     1      16.997   3.037  14.674  1.00  0.00     0.145 A 
HETATM    7  C4  UNL     1      17.044   4.357  14.305  1.00  0.00     0.102 A 
HETATM    8  C5  UNL     1      17.042   4.741  12.979  1.00  0.00     0.142 A 
HETATM    9  N8  UNL     1      16.993   3.794  12.007  1.00  0.00    -0.266 N 
HETATM   10  C13 UNL     1      16.992   4.179  10.601  1.00  0.00     0.181 C 
HETATM   11  N9  UNL     1      16.948   2.530  12.385  1.00  0.00    -0.238 N 
HETATM   12  N10 UNL     1      16.949   2.147  13.643  1.00  0.00    -0.269 N 
ATOM     13  H9  UNL     1      16.911   1.812  11.662  1.00  0.00     0.208 HD
ATOM     14  H10 UNL     1      16.912   1.149  13.854  1.00  0.00     0.190 HD
BRANCH   8  15
HETATM   15  N2  UNL     1      17.099   6.100  12.592  1.00  0.00    -0.174 N 
ATOM     16  H2  UNL     1      16.248   6.552  12.257  1.00  0.00     0.186 HD
BRANCH  15  17
HETATM   17  C6  UNL     1      18.189   6.790  12.647  1.00  0.00     0.713 A 
HETATM   18  N3  UNL     1      18.147   8.048  13.133  1.00  0.00    -0.021 N 
HETATM   19  C7  UNL     1      19.238   8.841  13.211  1.00  0.00     0.708 A 
ATOM     20  H3  UNL     1      17.253   8.416  13.456  1.00  0.00     0.203 HD
HETATM   21  N5  UNL     1      20.421   8.370  12.787  1.00  0.00    -0.021 N 
HETATM   22  C10 UNL     1      20.515   7.089  12.279  1.00  0.00     0.711 A 
ATOM     23  H5  UNL     1      21.252   8.960  12.840  1.00  0.00     0.203 HD
HETATM   24  N7  UNL     1      19.370   6.339  12.231  1.00  0.00    -0.021 N 
ATOM     25  H7  UNL     1      19.425   5.391  11.859  1.00  0.00     0.203 HD
BRANCH  19  26
HETATM   26  N4  UNL     1      19.185  10.156  13.725  1.00  0.00    -0.225 N 
HETATM   27  C8  UNL     1      19.144  10.479  15.137  1.00  0.00     0.168 C 
HETATM   28  C9  UNL     1      19.185  11.280  12.791  1.00  0.00     0.168 C 
ENDBRANCH  19  26
BRANCH  22  29
HETATM   29  N6  UNL     1      21.589   6.667  11.865  1.00  0.00    -0.202 N 
HETATM   30  C11 UNL     1      22.382   6.003  11.006  1.00  0.00     0.105 C 
ATOM     31  H6  UNL     1      22.250   7.013  12.561  1.00  0.00     0.183 HD
BRANCH  30  32
HETATM   32  C12 UNL     1      21.880   5.857   9.553  1.00  0.00     0.209 C 
BRANCH  32  33
HETATM   33  O2  UNL     1      20.771   5.007   9.534  1.00  0.00    -0.396 OA
ATOM     34  H2  UNL     1      20.147   5.323   8.891  1.00  0.00     0.209 HD
ENDBRANCH  32  33
ENDBRANCH  30  32
ENDBRANCH  22  29
ENDBRANCH  15  17
ENDBRANCH   8  15
ENDBRANCH   4   6
ENDBRANCH   3   4
TORSDOF 8
ENDMDL
MODEL 3
REMARK VINA RESULT: -7.019426738      1.764      3.680
REMARK  8 active torsions:
REMARK  status: ('A' for Active; 'I' for Inactive)
REMARK    1  A    between atoms: O1_3  and  N1_4 
REMARK    2  A    between atoms: N1_4  and  C3_6 
REMARK    3  A    between atoms: C5_8  and  N2_9 
REMARK    4  A    between atoms: N2_9  and  C6_11 
REMARK    5  A    between atoms: C7_14  and  N4_15 
REMARK    6  A    between atoms: C10_20  and  N6_21 
REMARK    7  A    between atoms: C11_23  and  C12_24 
REMARK    8  A    between atoms: C12_24  and  O2_25 
ROOT
HETATM    1  C1  UNL     1      14.351   3.567  17.249  1.00  0.00     0.047 C 
HETATM    2  C2  UNL     1      15.534   3.417  17.085  1.00  0.00     0.073 C 
HETATM    3  O1  UNL     1      16.904   3.265  16.874  1.00  0.00    -0.185 OA
ENDROOT
BRANCH   3   4
HETATM    4  N1  UNL     1      17.431   4.031  15.857  1.00  0.00    -0.234 N 
ATOM      5  H1  UNL     1      18.011   4.841  16.073  1.00  0.00     0.197 HD
BRANCH   4   6
HETATM    6  C3  UNL     1      17.184   3.717  14.623  1.00  0.00     0.145 A 
HETATM    7  C4  UNL     1      16.653   4.574  13.694  1.00  0.00     0.102 A 
HETATM    8  C5  UNL     1      16.411   4.176  12.394  1.00  0.00     0.142 A 
HETATM    9  N8  UNL     1      16.702   2.905  12.017  1.00  0.00    -0.266 N 
HETATM   10  C13 UNL     1      16.455   2.466  10.649  1.00  0.00     0.181 C 
HETATM   11  N9  UNL     1      17.212   2.097  12.927  1.00  0.00    -0.238 N 
HETATM   12  N10 UNL     1      17.449   2.459  14.169  1.00  0.00    -0.269 N 
ATOM     13  H9  UNL     1      17.434   1.140  12.653  1.00  0.00     0.208 HD
ATOM     14  H10 UNL     1      17.845   1.775  14.815  1.00  0.00     0.190 HD
BRANCH   8  15
HETATM   15  N2  UNL     1      15.871   5.058  11.428  1.00  0.00    -0.174 N 
ATOM     16  H2  UNL     1      14.871   5.021  11.233  1.00  0.00     0.186 HD
BRANCH  15  17
HETATM   17  C6  UNL     1      16.599   5.908  10.785  1.00  0.00     0.713 A 
HETATM   18  N3  UNL     1      16.012   6.737   9.897  1.00  0.00    -0.021 N 
HETATM   19  C7  UNL     1      16.703   7.644   9.173  1.00  0.00     0.708 A 
ATOM     20  H3  UNL     1      15.002   6.676   9.768  1.00  0.00     0.203 HD
HETATM   21  N5  UNL     1      18.032   7.734   9.331  1.00  0.00    -0.021 N 
HETATM   22  C10 UNL     1      18.680   6.905  10.227  1.00  0.00     0.711 A 
ATOM     23  H5  UNL     1      18.565   8.414   8.790  1.00  0.00     0.203 HD
HETATM   24  N7  UNL     1      17.918   6.010  10.930  1.00  0.00    -0.021 N 
ATOM     25  H7  UNL     1      18.383   5.393  11.595  1.00  0.00     0.203 HD
BRANCH  19  26
HETATM   26  N4  UNL     1      16.079   8.511   8.247  1.00  0.00    -0.225 N 
HETATM   27  C8  UNL     1      16.733   9.062   7.077  1.00  0.00     0.168 C 
HETATM   28  C9  UNL     1      14.680   8.877   8.456  1.00  0.00     0.168 C 
ENDBRANCH  19  26
BRANCH  22  29
HETATM   29  N6  UNL     1      19.898   6.966  10.353  1.00  0.00    -0.202 N 
HETATM   30  C11 UNL     1      21.037   7.304  10.982  1.00  0.00     0.105 C 
ATOM     31  H6  UNL     1      20.235   6.499   9.511  1.00  0.00     0.183 HD
BRANCH  30  32
HETATM   32  C12 UNL     1      20.972   7.475  12.515  1.00  0.00     0.209 C 
BRANCH  32  33
HETATM   33  O2  UNL     1      20.446   6.311  13.085  1.00  0.00    -0.396 OA
ATOM     34  H2  UNL     1      19.979   6.538  13.881  1.00  0.00     0.209 HD
ENDBRANCH  32  33
ENDBRANCH  30  32
ENDBRANCH  22  29
ENDBRANCH  15  17
ENDBRANCH   8  15
ENDBRANCH   4   6
ENDBRANCH   3   4
TORSDOF 8
ENDMDL
MODEL 4
REMARK VINA RESULT: -7.011644453      1.741      3.650
REMARK  8 active torsions:
REMARK  status: ('A' for Active; 'I' for Inactive)
REMARK    1  A    between atoms: O1_3  and  N1_4 
REMARK    2  A    between atoms: N1_4  and  C3_6 
REMARK    3  A    between atoms: C5_8  and  N2_9 
REMARK    4  A    between atoms: N2_9  and  C6_11 
REMARK    5  A    between atoms: C7_14  and  N4_15 
REMARK    6  A    between atoms: C10_20  and  N6_21 
REMARK    7  A    between atoms: C11_23  and  C12_24 
REMARK    8  A    between atoms: C12_24  and  O2_25 
ROOT
HETATM    1  C1  UNL     1      14.385   3.613  17.257  1.00  0.00     0.047 C 
HETATM    2  C2  UNL     1      15.566   3.625  17.022  1.00  0.00     0.073 C 
HETATM    3  O1  UNL     1      16.929   3.659  16.728  1.00  0.00    -0.185 OA
ENDROOT
BRANCH   3   4
HETATM    4  N1  UNL     1      17.281   4.468  15.670  1.00  0.00    -0.234 N 
ATOM      5  H1  UNL     1      17.690   5.387  15.841  1.00  0.00     0.197 HD
BRANCH   4   6
HETATM    6  C3  UNL     1      17.091   4.056  14.456  1.00  0.00     0.145 A 
HETATM    7  C4  UNL     1      16.528   4.810  13.458  1.00  0.00     0.102 A 
HETATM    8  C5  UNL     1      16.348   4.310  12.184  1.00  0.00     0.142 A 
HETATM    9  N8  UNL     1      16.736   3.040  11.901  1.00  0.00    -0.266 N 
HETATM   10  C13 UNL     1      16.556   2.495  10.561  1.00  0.00     0.181 C 
HETATM   11  N9  UNL     1      17.275   2.332  12.876  1.00  0.00    -0.238 N 
HETATM   12  N10 UNL     1      17.453   2.792  14.095  1.00  0.00    -0.269 N 
ATOM     13  H9  UNL     1      17.569   1.377  12.673  1.00  0.00     0.208 HD
ATOM     14  H10 UNL     1      17.876   2.183  14.795  1.00  0.00     0.190 HD
BRANCH   8  15
HETATM   15  N2  UNL     1      15.776   5.085  11.147  1.00  0.00    -0.174 N 
ATOM     16  H2  UNL     1      14.810   4.907  10.877  1.00  0.00     0.186 HD
BRANCH  15  17
HETATM   17  C6  UNL     1      16.434   6.011  10.532  1.00  0.00     0.713 A 
HETATM   18  N3  UNL     1      15.756   7.003   9.919  1.00  0.00    -0.021 N 
HETATM   19  C7  UNL     1      16.366   7.999   9.242  1.00  0.00     0.708 A 
ATOM     20  H3  UNL     1      14.737   7.000   9.970  1.00  0.00     0.203 HD
HETATM   21  N5  UNL     1      17.705   8.014   9.166  1.00  0.00    -0.021 N 
HETATM   22  C10 UNL     1      18.445   7.019   9.776  1.00  0.00     0.711 A 
ATOM     23  H5  UNL     1      18.179   8.762   8.657  1.00  0.00     0.203 HD
HETATM   24  N7  UNL     1      17.762   6.041  10.447  1.00  0.00    -0.021 N 
ATOM     25  H7  UNL     1      18.295   5.300  10.902  1.00  0.00     0.203 HD
BRANCH  19  26
HETATM   26  N4  UNL     1      15.647   9.036   8.606  1.00  0.00    -0.225 N 
HETATM   27  C8  UNL     1      16.220  10.312   8.226  1.00  0.00     0.168 C 
HETATM   28  C9  UNL     1      14.236   8.826   8.289  1.00  0.00     0.168 C 
ENDBRANCH  19  26
BRANCH  22  29
HETATM   29  N6  UNL     1      19.667   7.016   9.683  1.00  0.00    -0.202 N 
HETATM   30  C11 UNL     1      20.904   6.574   9.971  1.00  0.00     0.105 C 
ATOM     31  H6  UNL     1      19.845   7.766   9.016  1.00  0.00     0.183 HD
BRANCH  30  32
HETATM   32  C12 UNL     1      21.038   5.112  10.449  1.00  0.00     0.209 C 
BRANCH  32  33
HETATM   33  O2  UNL     1      20.315   4.280   9.589  1.00  0.00    -0.396 OA
ATOM     34  H2  UNL     1      20.848   3.525   9.365  1.00  0.00     0.209 HD
ENDBRANCH  32  33
ENDBRANCH  30  32
ENDBRANCH  22  29
ENDBRANCH  15  17
ENDBRANCH   8  15
ENDBRANCH   4   6
ENDBRANCH   3   4
TORSDOF 8
ENDMDL
MODEL 5
REMARK VINA RESULT: -6.907538415      3.403      4.123
REMARK  8 active torsions:
REMARK  status: ('A' for Active; 'I' for Inactive)
REMARK    1  A    between atoms: O1_3  and  N1_4 
REMARK    2  A    between atoms: N1_4  and  C3_6 
REMARK    3  A    between atoms: C5_8  and  N2_9 
REMARK    4  A    between atoms: N2_9  and  C6_11 
REMARK    5  A    between atoms: C7_14  and  N4_15 
REMARK    6  A    between atoms: C10_20  and  N6_21 
REMARK    7  A    between atoms: C11_23  and  C12_24 
REMARK    8  A    between atoms: C12_24  and  O2_25 
ROOT
HETATM    1  C1  UNL     1      14.954   4.706  19.185  1.00  0.00     0.047 C 
HETATM    2  C2  UNL     1      15.502   3.935  18.440  1.00  0.00     0.073 C 
HETATM    3  O1  UNL     1      16.123   3.056  17.552  1.00  0.00    -0.185 OA
ENDROOT
BRANCH   3   4
HETATM    4  N1  UNL     1      15.769   3.210  16.230  1.00  0.00    -0.234 N 
ATOM      5  H1  UNL     1      15.311   2.448  15.730  1.00  0.00     0.197 HD
BRANCH   4   6
HETATM    6  C3  UNL     1      16.021   4.328  15.623  1.00  0.00     0.145 A 
HETATM    7  C4  UNL     1      17.264   4.714  15.190  1.00  0.00     0.102 A 
HETATM    8  C5  UNL     1      17.467   5.922  14.553  1.00  0.00     0.142 A 
HETATM    9  N8  UNL     1      16.416   6.755  14.344  1.00  0.00    -0.266 N 
HETATM   10  C13 UNL     1      16.610   8.034  13.672  1.00  0.00     0.181 C 
HETATM   11  N9  UNL     1      15.230   6.364  14.769  1.00  0.00    -0.238 N 
HETATM   12  N10 UNL     1      15.018   5.217  15.379  1.00  0.00    -0.269 N 
ATOM     13  H9  UNL     1      14.434   6.984  14.618  1.00  0.00     0.208 HD
ATOM     14  H10 UNL     1      14.070   4.986  15.679  1.00  0.00     0.190 HD
BRANCH   8  15
HETATM   15  N2  UNL     1      18.745   6.322  14.096  1.00  0.00    -0.174 N 
ATOM     16  H2  UNL     1      19.236   7.062  14.597  1.00  0.00     0.186 HD
BRANCH  15  17
HETATM   17  C6  UNL     1      19.311   5.785  13.067  1.00  0.00     0.713 A 
HETATM   18  N3  UNL     1      20.442   6.334  12.578  1.00  0.00    -0.021 N 
HETATM   19  C7  UNL     1      21.088   5.844  11.498  1.00  0.00     0.708 A 
ATOM     20  H3  UNL     1      20.827   7.155  13.046  1.00  0.00     0.203 HD
HETATM   21  N5  UNL     1      20.593   4.766  10.872  1.00  0.00    -0.021 N 
HETATM   22  C10 UNL     1      19.435   4.169  11.333  1.00  0.00     0.711 A 
ATOM     23  H5  UNL     1      21.071   4.386  10.055  1.00  0.00     0.203 HD
HETATM   24  N7  UNL     1      18.833   4.717  12.434  1.00  0.00    -0.021 N 
ATOM     25  H7  UNL     1      17.978   4.286  12.786  1.00  0.00     0.203 HD
BRANCH  19  26
HETATM   26  N4  UNL     1      22.276   6.423  10.996  1.00  0.00    -0.225 N 
HETATM   27  C8  UNL     1      23.069   7.405  11.707  1.00  0.00     0.168 C 
HETATM   28  C9  UNL     1      22.761   6.010   9.681  1.00  0.00     0.168 C 
ENDBRANCH  19  26
BRANCH  22  29
HETATM   29  N6  UNL     1      18.965   3.201  10.746  1.00  0.00    -0.202 N 
HETATM   30  C11 UNL     1      18.035   2.258  10.511  1.00  0.00     0.105 C 
ATOM     31  H6  UNL     1      19.676   2.996  10.044  1.00  0.00     0.183 HD
BRANCH  30  32
HETATM   32  C12 UNL     1      16.584   2.579  10.933  1.00  0.00     0.209 C 
BRANCH  32  33
HETATM   33  O2  UNL     1      16.514   2.637  12.328  1.00  0.00    -0.396 OA
ATOM     34  H2  UNL     1      15.750   2.155  12.622  1.00  0.00     0.209 HD
ENDBRANCH  32  33
ENDBRANCH  30  32
ENDBRANCH  22  29
ENDBRANCH  15  17
ENDBRANCH   8  15
ENDBRANCH   4   6
ENDBRANCH   3   4
TORSDOF 8
ENDMDL
