MODEL 1
REMARK VINA RESULT: -7.675271230      0.000      0.000
REMARK  7 active torsions:
REMARK  status: ('A' for Active; 'I' for Inactive)
REMARK    1  A    between atoms: C4_10  and  C5_11 
REMARK    2  A    between atoms: C5_11  and  N4_12 
REMARK    3  A    between atoms: N8_22  and  C9_23 
REMARK    4  A    between atoms: N9_24  and  O2_25 
REMARK    5  A    between atoms: N9_24  and  C10_27 
REMARK    6  A    between atoms: C10_27  and  C11_28 
REMARK    7  A    between atoms: C11_28  and  O3_29 
ROOT
HETATM    1  N1  UNL     1      21.837   5.916   7.026  1.00  0.00    -0.190 NA
HETATM    2  C1  UNL     1      22.115   6.179   8.092  1.00  0.00     0.120 C 
HETATM    3  C2  UNL     1      22.436   6.503   9.445  1.00  0.00     0.142 A 
HETATM    4  N2  UNL     1      23.713   6.446   9.939  1.00  0.00    -0.298 N 
ATOM      5  H2  UNL     1      24.556   6.193   9.422  1.00  0.00     0.171 HD
HETATM    6  C3  UNL     1      23.642   6.784  11.224  1.00  0.00     0.325 A 
HETATM    7  O1  UNL     1      24.661   6.831  11.977  1.00  0.00    -0.247 OA
HETATM    8  N3  UNL     1      22.380   7.043  11.525  1.00  0.00    -0.308 N 
ATOM      9  H3  UNL     1      22.051   7.327  12.447  1.00  0.00     0.170 HD
HETATM   10  C4  UNL     1      21.571   6.878  10.424  1.00  0.00     0.069 A 
ENDROOT
BRANCH  10  11
HETATM   11  C5  UNL     1      20.139   7.127  10.492  1.00  0.00     0.193 C 
BRANCH  11  12
HETATM   12  N4  UNL     1      19.362   6.295  11.357  1.00  0.00    -0.303 N 
HETATM   13  C6  UNL     1      18.764   6.851  12.459  1.00  0.00     0.188 A 
HETATM   14  N5  UNL     1      17.987   6.155  13.298  1.00  0.00    -0.335 N 
HETATM   15  C7  UNL     1      17.762   4.854  13.077  1.00  0.00     0.164 A 
ATOM     16  H5  UNL     1      17.566   6.615  14.105  1.00  0.00     0.168 HD
HETATM   17  C8  UNL     1      18.330   4.234  11.990  1.00  0.00     0.164 A 
HETATM   18  N8  UNL     1      17.049   3.894  13.708  1.00  0.00    -0.217 N 
HETATM   19  N6  UNL     1      17.954   2.942  11.992  1.00  0.00    -0.277 N 
HETATM   20  C12 UNL     1      19.129   5.007  11.154  1.00  0.00     0.281 A 
HETATM   21  N7  UNL     1      17.189   2.770  13.033  1.00  0.00    -0.233 N 
ATOM     22  H6  UNL     1      18.218   2.232  11.309  1.00  0.00     0.189 HD
ATOM     23  H7  UNL     1      16.755   1.883  13.291  1.00  0.00     0.209 HD
HETATM   24  O4  UNL     1      19.633   4.380  10.174  1.00  0.00    -0.265 OA
BRANCH  18  25
HETATM   25  C9  UNL     1      16.289   4.105  14.900  1.00  0.00     0.236 C 
HETATM   26  N9  UNL     1      16.735   3.710  16.034  1.00  0.00    -0.252 N 
BRANCH  26  27
HETATM   27  O2  UNL     1      17.951   3.083  16.086  1.00  0.00    -0.287 OA
ATOM     28  H2  UNL     1      18.184   2.598  16.868  1.00  0.00     0.244 HD
ENDBRANCH  26  27
BRANCH  26  29
HETATM   29  C10 UNL     1      15.987   3.914  17.246  1.00  0.00     0.182 C 
BRANCH  29  30
HETATM   30  C11 UNL     1      14.856   2.947  17.409  1.00  0.00     0.186 C 
BRANCH  30  31
HETATM   31  O3  UNL     1      15.302   1.619  17.252  1.00  0.00    -0.399 OA
ATOM     32  H3  UNL     1      15.557   1.451  16.353  1.00  0.00     0.209 HD
ENDBRANCH  30  31
ENDBRANCH  29  30
ENDBRANCH  26  29
ENDBRANCH  18  25
ENDBRANCH  11  12
ENDBRANCH  10  11
TORSDOF 7
ENDMDL
MODEL 2
REMARK VINA RESULT: -7.598524198      1.097      1.843
REMARK  7 active torsions:
REMARK  status: ('A' for Active; 'I' for Inactive)
REMARK    1  A    between atoms: C4_10  and  C5_11 
REMARK    2  A    between atoms: C5_11  and  N4_12 
REMARK    3  A    between atoms: N8_22  and  C9_23 
REMARK    4  A    between atoms: N9_24  and  O2_25 
REMARK    5  A    between atoms: N9_24  and  C10_27 
REMARK    6  A    between atoms: C10_27  and  C11_28 
REMARK    7  A    between atoms: C11_28  and  O3_29 
ROOT
HETATM    1  N1  UNL     1      21.543   9.725  12.382  1.00  0.00    -0.190 NA
HETATM    2  C1  UNL     1      21.875   8.858  11.732  1.00  0.00     0.120 C 
HETATM    3  C2  UNL     1      22.265   7.768  10.897  1.00  0.00     0.142 A 
HETATM    4  N2  UNL     1      23.576   7.414  10.703  1.00  0.00    -0.298 N 
ATOM      5  H2  UNL     1      24.394   7.853  11.125  1.00  0.00     0.171 HD
HETATM    6  C3  UNL     1      23.572   6.385   9.859  1.00  0.00     0.325 A 
HETATM    7  O1  UNL     1      24.637   5.816   9.471  1.00  0.00    -0.247 OA
HETATM    8  N3  UNL     1      22.321   6.105   9.536  1.00  0.00    -0.308 N 
ATOM      9  H3  UNL     1      22.039   5.357   8.903  1.00  0.00     0.170 HD
HETATM   10  C4  UNL     1      21.448   6.958  10.173  1.00  0.00     0.069 A 
ENDROOT
BRANCH  10  11
HETATM   11  C5  UNL     1      20.009   6.839   9.999  1.00  0.00     0.193 C 
BRANCH  11  12
HETATM   12  N4  UNL     1      19.287   6.065  10.961  1.00  0.00    -0.303 N 
HETATM   13  C6  UNL     1      18.664   6.705  12.002  1.00  0.00     0.188 A 
HETATM   14  N5  UNL     1      17.933   6.062  12.921  1.00  0.00    -0.335 N 
HETATM   15  C7  UNL     1      17.784   4.733  12.848  1.00  0.00     0.164 A 
ATOM     16  H5  UNL     1      17.490   6.584  13.678  1.00  0.00     0.168 HD
HETATM   17  C8  UNL     1      18.382   4.030  11.830  1.00  0.00     0.164 A 
HETATM   18  N8  UNL     1      17.133   3.811  13.590  1.00  0.00    -0.217 N 
HETATM   19  N6  UNL     1      18.083   2.727  11.980  1.00  0.00    -0.277 N 
HETATM   20  C12 UNL     1      19.129   4.750  10.904  1.00  0.00     0.281 A 
HETATM   21  N7  UNL     1      17.334   2.628  13.042  1.00  0.00    -0.233 N 
ATOM     22  H6  UNL     1      18.384   1.962  11.376  1.00  0.00     0.189 HD
ATOM     23  H7  UNL     1      16.955   1.752  13.402  1.00  0.00     0.209 HD
HETATM   24  O4  UNL     1      19.664   4.049   9.993  1.00  0.00    -0.265 OA
BRANCH  18  25
HETATM   25  C9  UNL     1      16.368   4.108  14.761  1.00  0.00     0.236 C 
HETATM   26  N9  UNL     1      16.766   3.719  15.914  1.00  0.00    -0.252 N 
BRANCH  26  27
HETATM   27  O2  UNL     1      17.935   3.013  16.008  1.00  0.00    -0.287 OA
ATOM     28  H2  UNL     1      17.962   2.240  16.559  1.00  0.00     0.244 HD
ENDBRANCH  26  27
BRANCH  26  29
HETATM   29  C10 UNL     1      16.013   4.010  17.105  1.00  0.00     0.182 C 
BRANCH  29  30
HETATM   30  C11 UNL     1      14.872   3.064  17.325  1.00  0.00     0.186 C 
BRANCH  30  31
HETATM   31  O3  UNL     1      15.311   1.726  17.275  1.00  0.00    -0.399 OA
ATOM     32  H3  UNL     1      15.493   1.461  16.381  1.00  0.00     0.209 HD
ENDBRANCH  30  31
ENDBRANCH  29  30
ENDBRANCH  26  29
ENDBRANCH  18  25
ENDBRANCH  11  12
ENDBRANCH  10  11
TORSDOF 7
ENDMDL
MODEL 3
REMARK VINA RESULT: -7.540006332      1.226      1.465
REMARK  7 active torsions:
REMARK  status: ('A' for Active; 'I' for Inactive)
REMARK    1  A    between atoms: C4_10  and  C5_11 
REMARK    2  A    between atoms: C5_11  and  N4_12 
REMARK    3  A    between atoms: N8_22  and  C9_23 
REMARK    4  A    between atoms: N9_24  and  O2_25 
REMARK    5  A    between atoms: N9_24  and  C10_27 
REMARK    6  A    between atoms: C10_27  and  C11_28 
REMARK    7  A    between atoms: C11_28  and  O3_29 
ROOT
HETATM    1  N1  UNL     1      21.186  10.152   9.208  1.00  0.00    -0.190 NA
HETATM    2  C1  UNL     1      21.681   9.304   9.773  1.00  0.00     0.120 C 
HETATM    3  C2  UNL     1      22.289   8.214  10.466  1.00  0.00     0.142 A 
HETATM    4  N2  UNL     1      23.453   8.345  11.179  1.00  0.00    -0.298 N 
ATOM      5  H2  UNL     1      23.994   9.201  11.311  1.00  0.00     0.171 HD
HETATM    6  C3  UNL     1      23.740   7.141  11.666  1.00  0.00     0.325 A 
HETATM    7  O1  UNL     1      24.765   6.919  12.379  1.00  0.00    -0.247 OA
HETATM    8  N3  UNL     1      22.803   6.292  11.280  1.00  0.00    -0.308 N 
ATOM      9  H3  UNL     1      22.784   5.301  11.519  1.00  0.00     0.170 HD
HETATM   10  C4  UNL     1      21.854   6.928  10.512  1.00  0.00     0.069 A 
ENDROOT
BRANCH  10  11
HETATM   11  C5  UNL     1      20.703   6.212   9.984  1.00  0.00     0.193 C 
BRANCH  11  12
HETATM   12  N4  UNL     1      19.836   5.566  10.921  1.00  0.00    -0.303 N 
HETATM   13  C6  UNL     1      19.332   6.287  11.972  1.00  0.00     0.188 A 
HETATM   14  N5  UNL     1      18.483   5.773  12.870  1.00  0.00    -0.335 N 
HETATM   15  C7  UNL     1      18.088   4.498  12.763  1.00  0.00     0.164 A 
ATOM     16  H5  UNL     1      18.137   6.351  13.636  1.00  0.00     0.168 HD
HETATM   17  C8  UNL     1      18.555   3.719  11.733  1.00  0.00     0.164 A 
HETATM   18  N8  UNL     1      17.265   3.697  13.477  1.00  0.00    -0.217 N 
HETATM   19  N6  UNL     1      18.015   2.492  11.847  1.00  0.00    -0.277 N 
HETATM   20  C12 UNL     1      19.435   4.306  10.831  1.00  0.00     0.281 A 
HETATM   21  N7  UNL     1      17.248   2.511  12.901  1.00  0.00    -0.233 N 
ATOM     22  H6  UNL     1      18.174   1.698  11.227  1.00  0.00     0.189 HD
ATOM     23  H7  UNL     1      16.706   1.713  13.237  1.00  0.00     0.209 HD
HETATM   24  O4  UNL     1      19.839   3.538   9.906  1.00  0.00    -0.265 OA
BRANCH  18  25
HETATM   25  C9  UNL     1      16.556   4.106  14.649  1.00  0.00     0.236 C 
HETATM   26  N9  UNL     1      16.851   3.612  15.793  1.00  0.00    -0.252 N 
BRANCH  26  27
HETATM   27  O2  UNL     1      17.855   2.685  15.876  1.00  0.00    -0.287 OA
ATOM     28  H2  UNL     1      17.723   1.912  16.411  1.00  0.00     0.244 HD
ENDBRANCH  26  27
BRANCH  26  29
HETATM   29  C10 UNL     1      16.151   4.011  16.985  1.00  0.00     0.182 C 
BRANCH  29  30
HETATM   30  C11 UNL     1      14.956   3.158  17.280  1.00  0.00     0.186 C 
BRANCH  30  31
HETATM   31  O3  UNL     1      15.302   1.791  17.284  1.00  0.00    -0.399 OA
ATOM     32  H3  UNL     1      14.808   1.314  16.629  1.00  0.00     0.209 HD
ENDBRANCH  30  31
ENDBRANCH  29  30
ENDBRANCH  26  29
ENDBRANCH  18  25
ENDBRANCH  11  12
ENDBRANCH  10  11
TORSDOF 7
ENDMDL
MODEL 4
REMARK VINA RESULT: -7.356276224      1.624      2.571
REMARK  7 active torsions:
REMARK  status: ('A' for Active; 'I' for Inactive)
REMARK    1  A    between atoms: C4_10  and  C5_11 
REMARK    2  A    between atoms: C5_11  and  N4_12 
REMARK    3  A    between atoms: N8_22  and  C9_23 
REMARK    4  A    between atoms: N9_24  and  O2_25 
REMARK    5  A    between atoms: N9_24  and  C10_27 
REMARK    6  A    between atoms: C10_27  and  C11_28 
REMARK    7  A    between atoms: C11_28  and  O3_29 
ROOT
HETATM    1  N1  UNL     1      18.068   8.808   9.466  1.00  0.00    -0.190 NA
HETATM    2  C1  UNL     1      18.913   8.205   9.010  1.00  0.00     0.120 C 
HETATM    3  C2  UNL     1      19.977   7.427   8.463  1.00  0.00     0.142 A 
HETATM    4  N2  UNL     1      20.188   7.304   7.113  1.00  0.00    -0.298 N 
ATOM      5  H2  UNL     1      19.647   7.745   6.369  1.00  0.00     0.171 HD
HETATM    6  C3  UNL     1      21.236   6.497   6.963  1.00  0.00     0.325 A 
HETATM    7  O1  UNL     1      21.694   6.177   5.825  1.00  0.00    -0.247 OA
HETATM    8  N3  UNL     1      21.665   6.131   8.159  1.00  0.00    -0.308 N 
ATOM      9  H3  UNL     1      22.459   5.513   8.326  1.00  0.00     0.170 HD
HETATM   10  C4  UNL     1      20.895   6.698   9.150  1.00  0.00     0.069 A 
ENDROOT
BRANCH  10  11
HETATM   11  C5  UNL     1      21.181   6.466  10.557  1.00  0.00     0.193 C 
BRANCH  11  12
HETATM   12  N4  UNL     1      20.190   5.787  11.332  1.00  0.00    -0.303 N 
HETATM   13  C6  UNL     1      19.637   6.421  12.415  1.00  0.00     0.188 A 
HETATM   14  N5  UNL     1      18.676   5.875  13.169  1.00  0.00    -0.335 N 
HETATM   15  C7  UNL     1      18.210   4.654  12.878  1.00  0.00     0.164 A 
ATOM     16  H5  UNL     1      18.298   6.388  13.966  1.00  0.00     0.168 HD
HETATM   17  C8  UNL     1      18.720   3.962  11.806  1.00  0.00     0.164 A 
HETATM   18  N8  UNL     1      17.274   3.843  13.418  1.00  0.00    -0.217 N 
HETATM   19  N6  UNL     1      18.092   2.775  11.727  1.00  0.00    -0.277 N 
HETATM   20  C12 UNL     1      19.718   4.579  11.059  1.00  0.00     0.281 A 
HETATM   21  N7  UNL     1      17.232   2.733  12.706  1.00  0.00    -0.233 N 
ATOM     22  H6  UNL     1      18.257   2.046  11.033  1.00  0.00     0.189 HD
ATOM     23  H7  UNL     1      16.610   1.947  12.896  1.00  0.00     0.209 HD
HETATM   24  O4  UNL     1      20.156   3.891  10.088  1.00  0.00    -0.265 OA
BRANCH  18  25
HETATM   25  C9  UNL     1      16.486   4.170  14.565  1.00  0.00     0.236 C 
HETATM   26  N9  UNL     1      16.773   3.679  15.713  1.00  0.00    -0.252 N 
BRANCH  26  27
HETATM   27  O2  UNL     1      17.846   2.837  15.823  1.00  0.00    -0.287 OA
ATOM     28  H2  UNL     1      17.720   1.909  15.666  1.00  0.00     0.244 HD
ENDBRANCH  26  27
BRANCH  26  29
HETATM   29  C10 UNL     1      15.994   3.998  16.880  1.00  0.00     0.182 C 
BRANCH  29  30
HETATM   30  C11 UNL     1      14.866   3.041  17.113  1.00  0.00     0.186 C 
BRANCH  30  31
HETATM   31  O3  UNL     1      15.348   1.730  17.305  1.00  0.00    -0.399 OA
ATOM     32  H3  UNL     1      15.603   1.338  16.479  1.00  0.00     0.209 HD
ENDBRANCH  30  31
ENDBRANCH  29  30
ENDBRANCH  26  29
ENDBRANCH  18  25
ENDBRANCH  11  12
ENDBRANCH  10  11
TORSDOF 7
ENDMDL
MODEL 5
REMARK VINA RESULT: -7.333212172      2.587      3.830
REMARK  7 active torsions:
REMARK  status: ('A' for Active; 'I' for Inactive)
REMARK    1  A    between atoms: C4_10  and  C5_11 
REMARK    2  A    between atoms: C5_11  and  N4_12 
REMARK    3  A    between atoms: N8_22  and  C9_23 
REMARK    4  A    between atoms: N9_24  and  O2_25 
REMARK    5  A    between atoms: N9_24  and  C10_27 
REMARK    6  A    between atoms: C10_27  and  C11_28 
REMARK    7  A    between atoms: C11_28  and  O3_29 
ROOT
HETATM    1  N1  UNL     1      15.013   8.137   9.830  1.00  0.00    -0.190 NA
HETATM    2  C1  UNL     1      15.943   8.096   9.185  1.00  0.00     0.120 C 
HETATM    3  C2  UNL     1      17.132   8.031   8.397  1.00  0.00     0.142 A 
HETATM    4  N2  UNL     1      17.113   7.999   7.027  1.00  0.00    -0.298 N 
ATOM      5  H2  UNL     1      16.288   8.033   6.428  1.00  0.00     0.171 HD
HETATM    6  C3  UNL     1      18.380   7.914   6.629  1.00  0.00     0.325 A 
HETATM    7  O1  UNL     1      18.711   7.866   5.406  1.00  0.00    -0.247 OA
HETATM    8  N3  UNL     1      19.160   7.895   7.697  1.00  0.00    -0.308 N 
ATOM      9  H3  UNL     1      20.178   7.835   7.671  1.00  0.00     0.170 HD
HETATM   10  C4  UNL     1      18.412   7.967   8.850  1.00  0.00     0.069 A 
ENDROOT
BRANCH  10  11
HETATM   11  C5  UNL     1      19.041   7.986  10.161  1.00  0.00     0.193 C 
BRANCH  11  12
HETATM   12  N4  UNL     1      18.573   7.050  11.136  1.00  0.00    -0.303 N 
HETATM   13  C6  UNL     1      17.784   7.495  12.165  1.00  0.00     0.188 A 
HETATM   14  N5  UNL     1      17.269   6.682  13.096  1.00  0.00    -0.335 N 
HETATM   15  C7  UNL     1      17.518   5.367  13.046  1.00  0.00     0.164 A 
ATOM     16  H5  UNL     1      16.689   7.063  13.843  1.00  0.00     0.168 HD
HETATM   17  C8  UNL     1      18.301   4.854  12.040  1.00  0.00     0.164 A 
HETATM   18  N8  UNL     1      17.162   4.306  13.803  1.00  0.00    -0.217 N 
HETATM   19  N6  UNL     1      18.397   3.523  12.212  1.00  0.00    -0.277 N 
HETATM   20  C12 UNL     1      18.809   5.747  11.102  1.00  0.00     0.281 A 
HETATM   21  N7  UNL     1      17.705   3.226  13.276  1.00  0.00    -0.233 N 
ATOM     22  H6  UNL     1      18.913   2.871  11.622  1.00  0.00     0.189 HD
ATOM     23  H7  UNL     1      17.598   2.282  13.651  1.00  0.00     0.209 HD
HETATM   24  O4  UNL     1      19.530   5.218  10.203  1.00  0.00    -0.265 OA
BRANCH  18  25
HETATM   25  C9  UNL     1      16.338   4.385  14.969  1.00  0.00     0.236 C 
HETATM   26  N9  UNL     1      16.759   3.944  16.095  1.00  0.00    -0.252 N 
BRANCH  26  27
HETATM   27  O2  UNL     1      18.011   3.395  16.164  1.00  0.00    -0.287 OA
ATOM     28  H2  UNL     1      18.184   2.727  16.817  1.00  0.00     0.244 HD
ENDBRANCH  26  27
BRANCH  26  29
HETATM   29  C10 UNL     1      15.946   4.016  17.280  1.00  0.00     0.182 C 
BRANCH  29  30
HETATM   30  C11 UNL     1      14.854   2.991  17.307  1.00  0.00     0.186 C 
BRANCH  30  31
HETATM   31  O3  UNL     1      15.388   1.686  17.282  1.00  0.00    -0.399 OA
ATOM     32  H3  UNL     1      14.862   1.115  16.735  1.00  0.00     0.209 HD
ENDBRANCH  30  31
ENDBRANCH  29  30
ENDBRANCH  26  29
ENDBRANCH  18  25
ENDBRANCH  11  12
ENDBRANCH  10  11
TORSDOF 7
ENDMDL
