MODEL 1
REMARK VINA RESULT: -8.136175776      0.000      0.000
REMARK  13 active torsions:
REMARK  status: ('A' for Active; 'I' for Inactive)
REMARK    1  A    between atoms: N1_2  and  C1_4 
REMARK    2  A    between atoms: C1_4  and  C2_5 
REMARK    3  A    between atoms: C2_5  and  N5_19 
REMARK    4  A    between atoms: N2_6  and  N3_8 
REMARK    5  A    between atoms: N3_8  and  C3_9 
REMARK    6  A    between atoms: C3_9  and  C4_10 
REMARK    7  A    between atoms: C7_13  and  N4_14 
REMARK    8  A    between atoms: N5_19  and  N6_21 
REMARK    9  A    between atoms: C10_23  and  C11_24 
REMARK   10  A    between atoms: C11_24  and  N7_25 
REMARK   11  A    between atoms: N9_28  and  O6_29 
REMARK   12  A    between atoms: C12_31  and  C13_32 
REMARK   13  A    between atoms: N10_33  and  O7_35 
ROOT
HETATM    1  C2  UNL     1      17.652   4.342  10.216  1.00  0.00     0.146 C 
HETATM    2  N2  UNL     1      16.727   4.546  11.088  1.00  0.00    -0.221 N 
ATOM      3  H2  UNL     1      15.788   4.514  10.692  1.00  0.00     0.203 HD
ENDROOT
BRANCH   1   4
HETATM    4  C1  UNL     1      19.071   4.347  10.602  1.00  0.00     0.281 C 
BRANCH   4   5
HETATM    5  N1  UNL     1      19.560   3.066  11.035  1.00  0.00    -0.148 N 
HETATM    6  O1  UNL     1      19.401   2.705  12.203  1.00  0.00    -0.536 OA
HETATM    7  O2  UNL     1      20.197   2.252  10.153  1.00  0.00    -0.536 OA
ENDBRANCH   4   5
ENDBRANCH   1   4
BRANCH   1   8
HETATM    8  N5  UNL     1      17.302   4.108   8.866  1.00  0.00    -0.286 N 
ATOM      9  H5  UNL     1      17.975   4.347   8.139  1.00  0.00     0.188 HD
BRANCH   8  10
HETATM   10  N6  UNL     1      16.072   3.565   8.487  1.00  0.00    -0.313 N 
HETATM   11  C10 UNL     1      15.795   2.306   8.557  1.00  0.00     0.101 C 
ATOM     12  H6  UNL     1      15.354   4.198   8.136  1.00  0.00     0.185 HD
BRANCH  11  13
HETATM   13  C11 UNL     1      16.797   1.338   9.058  1.00  0.00     0.195 C 
BRANCH  13  14
HETATM   14  N7  UNL     1      16.614   1.153  10.484  1.00  0.00    -0.243 N 
HETATM   15  N8  UNL     1      15.766   1.836  11.276  1.00  0.00     0.054 NA
HETATM   16  O5  UNL     1      15.871   1.412  12.497  1.00  0.00    -0.112 OA
HETATM   17  N9  UNL     1      16.748   0.475  12.574  1.00  0.00    -0.085 N 
HETATM   18  C12 UNL     1      17.227   0.298  11.307  1.00  0.00     0.193 A 
BRANCH  17  19
HETATM   19  O6  UNL     1      17.144  -0.222  13.677  1.00  0.00    -0.260 OA
ATOM     20  H6  UNL     1      17.563  -1.074  13.715  1.00  0.00     0.247 HD
ENDBRANCH  17  19
BRANCH  18  21
HETATM   21  C13 UNL     1      18.249  -0.693  10.952  1.00  0.00     0.168 C 
HETATM   22  N10 UNL     1      18.401  -1.801  11.552  1.00  0.00    -0.277 N 
ATOM     23  H10 UNL     1      17.791  -2.044  12.333  1.00  0.00     0.193 HD
BRANCH  22  24
HETATM   24  O7  UNL     1      19.380  -2.671  11.157  1.00  0.00    -0.290 OA
ATOM     25  H7  UNL     1      19.616  -3.408  11.707  1.00  0.00     0.244 HD
ENDBRANCH  22  24
ENDBRANCH  18  21
ENDBRANCH  13  14
ENDBRANCH  11  13
ENDBRANCH   8  10
ENDBRANCH   1   8
BRANCH   2  26
HETATM   26  N3  UNL     1      16.736   4.778  12.343  1.00  0.00    -0.336 NA
BRANCH  26  27
HETATM   27  C3  UNL     1      16.745   4.994  13.512  1.00  0.00     0.220 C 
BRANCH  27  28
HETATM   28  C4  UNL     1      16.489   3.967  14.558  1.00  0.00    -0.005 A 
HETATM   29  C5  UNL     1      15.234   3.756  15.088  1.00  0.00     0.016 A 
HETATM   30  C6  UNL     1      15.006   2.803  16.057  1.00  0.00     0.037 A 
HETATM   31  C7  UNL     1      16.050   2.022  16.528  1.00  0.00     0.102 A 
HETATM   32  C8  UNL     1      17.306   2.230  16.001  1.00  0.00     0.037 A 
HETATM   33  C9  UNL     1      17.516   3.184  15.035  1.00  0.00     0.016 A 
BRANCH  31  34
HETATM   34  N4  UNL     1      15.815   1.042  17.524  1.00  0.00    -0.116 N 
HETATM   35  O3  UNL     1      15.968   1.309  18.722  1.00  0.00    -0.532 OA
HETATM   36  O4  UNL     1      15.413  -0.208  17.154  1.00  0.00    -0.532 OA
ENDBRANCH  31  34
ENDBRANCH  27  28
ENDBRANCH  26  27
ENDBRANCH   2  26
TORSDOF 13
ENDMDL
MODEL 2
REMARK VINA RESULT: -7.732679345      2.229      3.341
REMARK  13 active torsions:
REMARK  status: ('A' for Active; 'I' for Inactive)
REMARK    1  A    between atoms: N1_2  and  C1_4 
REMARK    2  A    between atoms: C1_4  and  C2_5 
REMARK    3  A    between atoms: C2_5  and  N5_19 
REMARK    4  A    between atoms: N2_6  and  N3_8 
REMARK    5  A    between atoms: N3_8  and  C3_9 
REMARK    6  A    between atoms: C3_9  and  C4_10 
REMARK    7  A    between atoms: C7_13  and  N4_14 
REMARK    8  A    between atoms: N5_19  and  N6_21 
REMARK    9  A    between atoms: C10_23  and  C11_24 
REMARK   10  A    between atoms: C11_24  and  N7_25 
REMARK   11  A    between atoms: N9_28  and  O6_29 
REMARK   12  A    between atoms: C12_31  and  C13_32 
REMARK   13  A    between atoms: N10_33  and  O7_35 
ROOT
HETATM    1  C2  UNL     1      19.252   4.498  10.911  1.00  0.00     0.146 C 
HETATM    2  N2  UNL     1      18.346   5.118  11.584  1.00  0.00    -0.221 N 
ATOM      3  H2  UNL     1      17.730   5.684  11.000  1.00  0.00     0.203 HD
ENDROOT
BRANCH   1   4
HETATM    4  C1  UNL     1      20.231   3.629  11.582  1.00  0.00     0.281 C 
BRANCH   4   5
HETATM    5  N1  UNL     1      20.159   2.251  11.175  1.00  0.00    -0.148 N 
HETATM    6  O1  UNL     1      19.600   1.421  11.895  1.00  0.00    -0.536 OA
HETATM    7  O2  UNL     1      20.711   1.866   9.994  1.00  0.00    -0.536 OA
ENDBRANCH   4   5
ENDBRANCH   1   4
BRANCH   1   8
HETATM    8  N5  UNL     1      19.307   4.650   9.506  1.00  0.00    -0.286 N 
ATOM      9  H5  UNL     1      19.462   3.822   8.931  1.00  0.00     0.188 HD
BRANCH   8  10
HETATM   10  N6  UNL     1      19.159   5.885   8.873  1.00  0.00    -0.313 N 
HETATM   11  C10 UNL     1      18.311   6.105   7.924  1.00  0.00     0.101 C 
ATOM     12  H6  UNL     1      19.753   6.657   9.177  1.00  0.00     0.185 HD
BRANCH  11  13
HETATM   13  C11 UNL     1      17.422   5.026   7.440  1.00  0.00     0.195 C 
BRANCH  13  14
HETATM   14  N7  UNL     1      16.576   4.576   8.528  1.00  0.00    -0.243 N 
HETATM   15  N8  UNL     1      16.221   5.291   9.612  1.00  0.00     0.054 NA
HETATM   16  O5  UNL     1      15.465   4.573  10.382  1.00  0.00    -0.112 OA
HETATM   17  N9  UNL     1      15.287   3.405   9.874  1.00  0.00    -0.085 N 
HETATM   18  C12 UNL     1      15.985   3.391   8.700  1.00  0.00     0.193 A 
BRANCH  17  19
HETATM   19  O6  UNL     1      14.559   2.367  10.378  1.00  0.00    -0.260 OA
ATOM     20  H6  UNL     1      14.874   1.590  10.824  1.00  0.00     0.247 HD
ENDBRANCH  17  19
BRANCH  18  21
HETATM   21  C13 UNL     1      16.038   2.236   7.797  1.00  0.00     0.168 C 
HETATM   22  N10 UNL     1      15.837   2.304   6.545  1.00  0.00    -0.277 N 
ATOM     23  H10 UNL     1      15.623   3.203   6.113  1.00  0.00     0.193 HD
BRANCH  22  24
HETATM   24  O7  UNL     1      15.906   1.176   5.773  1.00  0.00    -0.290 OA
ATOM     25  H7  UNL     1      15.179   0.565   5.753  1.00  0.00     0.244 HD
ENDBRANCH  22  24
ENDBRANCH  18  21
ENDBRANCH  13  14
ENDBRANCH  11  13
ENDBRANCH   8  10
ENDBRANCH   1   8
BRANCH   2  26
HETATM   26  N3  UNL     1      18.056   5.175  12.825  1.00  0.00    -0.336 NA
BRANCH  26  27
HETATM   27  C3  UNL     1      17.785   5.227  13.981  1.00  0.00     0.220 C 
BRANCH  27  28
HETATM   28  C4  UNL     1      17.178   4.109  14.754  1.00  0.00    -0.005 A 
HETATM   29  C5  UNL     1      17.935   3.094  15.295  1.00  0.00     0.016 A 
HETATM   30  C6  UNL     1      17.365   2.063  16.009  1.00  0.00     0.037 A 
HETATM   31  C7  UNL     1      15.992   2.022  16.201  1.00  0.00     0.102 A 
HETATM   32  C8  UNL     1      15.231   3.036  15.661  1.00  0.00     0.037 A 
HETATM   33  C9  UNL     1      15.817   4.058  14.953  1.00  0.00     0.016 A 
BRANCH  31  34
HETATM   34  N4  UNL     1      15.406   0.961  16.936  1.00  0.00    -0.116 N 
HETATM   35  O3  UNL     1      16.078   0.301  17.736  1.00  0.00    -0.532 OA
HETATM   36  O4  UNL     1      14.085   0.671  16.756  1.00  0.00    -0.532 OA
ENDBRANCH  31  34
ENDBRANCH  27  28
ENDBRANCH  26  27
ENDBRANCH   2  26
TORSDOF 13
ENDMDL
MODEL 3
REMARK VINA RESULT: -7.721240656      1.200      1.435
REMARK  13 active torsions:
REMARK  status: ('A' for Active; 'I' for Inactive)
REMARK    1  A    between atoms: N1_2  and  C1_4 
REMARK    2  A    between atoms: C1_4  and  C2_5 
REMARK    3  A    between atoms: C2_5  and  N5_19 
REMARK    4  A    between atoms: N2_6  and  N3_8 
REMARK    5  A    between atoms: N3_8  and  C3_9 
REMARK    6  A    between atoms: C3_9  and  C4_10 
REMARK    7  A    between atoms: C7_13  and  N4_14 
REMARK    8  A    between atoms: N5_19  and  N6_21 
REMARK    9  A    between atoms: C10_23  and  C11_24 
REMARK   10  A    between atoms: C11_24  and  N7_25 
REMARK   11  A    between atoms: N9_28  and  O6_29 
REMARK   12  A    between atoms: C12_31  and  C13_32 
REMARK   13  A    between atoms: N10_33  and  O7_35 
ROOT
HETATM    1  C2  UNL     1      18.799   4.621  10.487  1.00  0.00     0.146 C 
HETATM    2  N2  UNL     1      17.885   4.997  11.312  1.00  0.00    -0.221 N 
ATOM      3  H2  UNL     1      17.039   5.330  10.850  1.00  0.00     0.203 HD
ENDROOT
BRANCH   1   4
HETATM    4  C1  UNL     1      20.090   4.107  10.969  1.00  0.00     0.281 C 
BRANCH   4   5
HETATM    5  N1  UNL     1      20.111   2.682  11.163  1.00  0.00    -0.148 N 
HETATM    6  O1  UNL     1      19.660   2.191  12.200  1.00  0.00    -0.536 OA
HETATM    7  O2  UNL     1      20.631   1.877  10.199  1.00  0.00    -0.536 OA
ENDBRANCH   4   5
ENDBRANCH   1   4
BRANCH   1   8
HETATM    8  N5  UNL     1      18.561   4.701   9.095  1.00  0.00    -0.286 N 
ATOM      9  H5  UNL     1      19.252   4.306   8.458  1.00  0.00     0.188 HD
BRANCH   8  10
HETATM   10  N6  UNL     1      17.419   5.298   8.556  1.00  0.00    -0.313 N 
HETATM   11  C10 UNL     1      16.375   4.637   8.183  1.00  0.00     0.101 C 
ATOM     12  H6  UNL     1      17.410   6.313   8.451  1.00  0.00     0.185 HD
BRANCH  11  13
HETATM   13  C11 UNL     1      16.328   3.163   8.311  1.00  0.00     0.195 C 
BRANCH  13  14
HETATM   14  N7  UNL     1      16.088   2.808   9.696  1.00  0.00    -0.243 N 
HETATM   15  N8  UNL     1      15.323   3.486  10.573  1.00  0.00     0.054 NA
HETATM   16  O5  UNL     1      15.340   2.886  11.723  1.00  0.00    -0.112 OA
HETATM   17  N9  UNL     1      16.078   1.834  11.670  1.00  0.00    -0.085 N 
HETATM   18  C12 UNL     1      16.558   1.771  10.393  1.00  0.00     0.193 A 
BRANCH  17  19
HETATM   19  O6  UNL     1      16.348   0.942  12.665  1.00  0.00    -0.260 OA
ATOM     20  H6  UNL     1      17.068   0.325  12.722  1.00  0.00     0.247 HD
ENDBRANCH  17  19
BRANCH  18  21
HETATM   21  C13 UNL     1      17.441   0.705   9.906  1.00  0.00     0.168 C 
HETATM   22  N10 UNL     1      18.171  -0.011  10.658  1.00  0.00    -0.277 N 
ATOM     23  H10 UNL     1      18.164   0.140  11.666  1.00  0.00     0.193 HD
BRANCH  22  24
HETATM   24  O7  UNL     1      18.967  -0.986  10.121  1.00  0.00    -0.290 OA
ATOM     25  H7  UNL     1      19.844  -0.777   9.821  1.00  0.00     0.244 HD
ENDBRANCH  22  24
ENDBRANCH  18  21
ENDBRANCH  13  14
ENDBRANCH  11  13
ENDBRANCH   8  10
ENDBRANCH   1   8
BRANCH   2  26
HETATM   26  N3  UNL     1      17.813   5.041  12.585  1.00  0.00    -0.336 NA
BRANCH  26  27
HETATM   27  C3  UNL     1      17.745   5.082  13.771  1.00  0.00     0.220 C 
BRANCH  27  28
HETATM   28  C4  UNL     1      17.132   4.022  14.616  1.00  0.00    -0.005 A 
HETATM   29  C5  UNL     1      15.779   3.980  14.874  1.00  0.00     0.016 A 
HETATM   30  C6  UNL     1      15.218   2.995  15.657  1.00  0.00     0.037 A 
HETATM   31  C7  UNL     1      16.017   2.007  16.214  1.00  0.00     0.102 A 
HETATM   32  C8  UNL     1      17.371   2.045  15.958  1.00  0.00     0.037 A 
HETATM   33  C9  UNL     1      17.912   3.035  15.174  1.00  0.00     0.016 A 
BRANCH  31  34
HETATM   34  N4  UNL     1      15.441   0.993  17.019  1.00  0.00    -0.116 N 
HETATM   35  O3  UNL     1      16.100   0.442  17.908  1.00  0.00    -0.532 OA
HETATM   36  O4  UNL     1      14.143   0.627  16.810  1.00  0.00    -0.532 OA
ENDBRANCH  31  34
ENDBRANCH  27  28
ENDBRANCH  26  27
ENDBRANCH   2  26
TORSDOF 13
ENDMDL
MODEL 4
REMARK VINA RESULT: -7.714801389      2.099      3.267
REMARK  13 active torsions:
REMARK  status: ('A' for Active; 'I' for Inactive)
REMARK    1  A    between atoms: N1_2  and  C1_4 
REMARK    2  A    between atoms: C1_4  and  C2_5 
REMARK    3  A    between atoms: C2_5  and  N5_19 
REMARK    4  A    between atoms: N2_6  and  N3_8 
REMARK    5  A    between atoms: N3_8  and  C3_9 
REMARK    6  A    between atoms: C3_9  and  C4_10 
REMARK    7  A    between atoms: C7_13  and  N4_14 
REMARK    8  A    between atoms: N5_19  and  N6_21 
REMARK    9  A    between atoms: C10_23  and  C11_24 
REMARK   10  A    between atoms: C11_24  and  N7_25 
REMARK   11  A    between atoms: N9_28  and  O6_29 
REMARK   12  A    between atoms: C12_31  and  C13_32 
REMARK   13  A    between atoms: N10_33  and  O7_35 
ROOT
HETATM    1  C2  UNL     1      18.535   5.414  10.994  1.00  0.00     0.146 C 
HETATM    2  N2  UNL     1      17.750   5.370  12.014  1.00  0.00    -0.221 N 
ATOM      3  H2  UNL     1      16.801   5.677  11.803  1.00  0.00     0.203 HD
ENDROOT
BRANCH   1   4
HETATM    4  C1  UNL     1      19.943   5.004  11.104  1.00  0.00     0.281 C 
BRANCH   4   5
HETATM    5  N1  UNL     1      20.144   3.583  11.010  1.00  0.00    -0.148 N 
HETATM    6  O1  UNL     1      19.650   2.948  10.077  1.00  0.00    -0.536 OA
HETATM    7  O2  UNL     1      20.880   2.941  11.955  1.00  0.00    -0.536 OA
ENDBRANCH   4   5
ENDBRANCH   1   4
BRANCH   1   8
HETATM    8  N5  UNL     1      18.038   5.860   9.747  1.00  0.00    -0.286 N 
ATOM      9  H5  UNL     1      17.202   6.444   9.736  1.00  0.00     0.188 HD
BRANCH   8  10
HETATM   10  N6  UNL     1      18.643   5.535   8.531  1.00  0.00    -0.313 N 
HETATM   11  C10 UNL     1      17.990   5.133   7.493  1.00  0.00     0.101 C 
ATOM     12  H6  UNL     1      19.657   5.621   8.460  1.00  0.00     0.185 HD
BRANCH  11  13
HETATM   13  C11 UNL     1      16.517   4.990   7.535  1.00  0.00     0.195 C 
BRANCH  13  14
HETATM   14  N7  UNL     1      16.164   3.594   7.367  1.00  0.00    -0.243 N 
HETATM   15  N8  UNL     1      15.928   2.965   6.200  1.00  0.00     0.054 NA
HETATM   16  O5  UNL     1      15.633   1.723   6.425  1.00  0.00    -0.112 OA
HETATM   17  N9  UNL     1      15.658   1.476   7.686  1.00  0.00    -0.085 N 
HETATM   18  C12 UNL     1      15.993   2.652   8.297  1.00  0.00     0.193 A 
BRANCH  17  19
HETATM   19  O6  UNL     1      15.406   0.296   8.321  1.00  0.00    -0.260 OA
ATOM     20  H6  UNL     1      15.731  -0.000   9.163  1.00  0.00     0.247 HD
ENDBRANCH  17  19
BRANCH  18  21
HETATM   21  C13 UNL     1      16.140   2.803   9.748  1.00  0.00     0.168 C 
HETATM   22  N10 UNL     1      16.958   2.135  10.453  1.00  0.00    -0.277 N 
ATOM     23  H10 UNL     1      17.562   1.443  10.011  1.00  0.00     0.193 HD
BRANCH  22  24
HETATM   24  O7  UNL     1      17.031   2.340  11.804  1.00  0.00    -0.290 OA
ATOM     25  H7  UNL     1      17.873   2.332  12.244  1.00  0.00     0.244 HD
ENDBRANCH  22  24
ENDBRANCH  18  21
ENDBRANCH  13  14
ENDBRANCH  11  13
ENDBRANCH   8  10
ENDBRANCH   1   8
BRANCH   2  26
HETATM   26  N3  UNL     1      17.908   5.023  13.231  1.00  0.00    -0.336 NA
BRANCH  26  27
HETATM   27  C3  UNL     1      18.056   4.698  14.366  1.00  0.00     0.220 C 
BRANCH  27  28
HETATM   28  C4  UNL     1      17.242   3.662  15.056  1.00  0.00    -0.005 A 
HETATM   29  C5  UNL     1      17.797   2.504  15.555  1.00  0.00     0.016 A 
HETATM   30  C6  UNL     1      17.036   1.549  16.193  1.00  0.00     0.037 A 
HETATM   31  C7  UNL     1      15.671   1.735  16.351  1.00  0.00     0.102 A 
HETATM   32  C8  UNL     1      15.112   2.892  15.853  1.00  0.00     0.037 A 
HETATM   33  C9  UNL     1      15.886   3.834  15.220  1.00  0.00     0.016 A 
BRANCH  31  34
HETATM   34  N4  UNL     1      14.888   0.753  17.007  1.00  0.00    -0.116 N 
HETATM   35  O3  UNL     1      13.672   0.916  17.164  1.00  0.00    -0.532 OA
HETATM   36  O4  UNL     1      15.485  -0.383  17.468  1.00  0.00    -0.532 OA
ENDBRANCH  31  34
ENDBRANCH  27  28
ENDBRANCH  26  27
ENDBRANCH   2  26
TORSDOF 13
ENDMDL
MODEL 5
REMARK VINA RESULT: -7.638861813      2.165      3.204
REMARK  13 active torsions:
REMARK  status: ('A' for Active; 'I' for Inactive)
REMARK    1  A    between atoms: N1_2  and  C1_4 
REMARK    2  A    between atoms: C1_4  and  C2_5 
REMARK    3  A    between atoms: C2_5  and  N5_19 
REMARK    4  A    between atoms: N2_6  and  N3_8 
REMARK    5  A    between atoms: N3_8  and  C3_9 
REMARK    6  A    between atoms: C3_9  and  C4_10 
REMARK    7  A    between atoms: C7_13  and  N4_14 
REMARK    8  A    between atoms: N5_19  and  N6_21 
REMARK    9  A    between atoms: C10_23  and  C11_24 
REMARK   10  A    between atoms: C11_24  and  N7_25 
REMARK   11  A    between atoms: N9_28  and  O6_29 
REMARK   12  A    between atoms: C12_31  and  C13_32 
REMARK   13  A    between atoms: N10_33  and  O7_35 
ROOT
HETATM    1  C2  UNL     1      17.810   5.839  10.751  1.00  0.00     0.146 C 
HETATM    2  N2  UNL     1      16.906   5.937  11.663  1.00  0.00    -0.221 N 
ATOM      3  H2  UNL     1      15.983   6.161  11.292  1.00  0.00     0.203 HD
ENDROOT
BRANCH   1   4
HETATM    4  C1  UNL     1      19.203   5.518  11.095  1.00  0.00     0.281 C 
BRANCH   4   5
HETATM    5  N1  UNL     1      19.475   4.107  11.158  1.00  0.00    -0.148 N 
HETATM    6  O1  UNL     1      19.407   3.417  10.139  1.00  0.00    -0.536 OA
HETATM    7  O2  UNL     1      19.808   3.535  12.345  1.00  0.00    -0.536 OA
ENDBRANCH   4   5
ENDBRANCH   1   4
BRANCH   1   8
HETATM    8  N5  UNL     1      17.460   6.041   9.395  1.00  0.00    -0.286 N 
ATOM      9  H5  UNL     1      16.572   6.496   9.183  1.00  0.00     0.188 HD
BRANCH   8  10
HETATM   10  N6  UNL     1      18.277   5.644   8.336  1.00  0.00    -0.313 N 
HETATM   11  C10 UNL     1      17.830   5.116   7.245  1.00  0.00     0.101 C 
ATOM     12  H6  UNL     1      19.284   5.778   8.428  1.00  0.00     0.185 HD
BRANCH  11  13
HETATM   13  C11 UNL     1      16.379   4.897   7.053  1.00  0.00     0.195 C 
BRANCH  13  14
HETATM   14  N7  UNL     1      16.100   3.475   7.076  1.00  0.00    -0.243 N 
HETATM   15  N8  UNL     1      15.942   2.675   6.004  1.00  0.00     0.054 NA
HETATM   16  O5  UNL     1      15.697   1.463   6.395  1.00  0.00    -0.112 OA
HETATM   17  N9  UNL     1      15.681   1.400   7.679  1.00  0.00    -0.085 N 
HETATM   18  C12 UNL     1      15.935   2.667   8.125  1.00  0.00     0.193 A 
BRANCH  17  19
HETATM   19  O6  UNL     1      15.459   0.310   8.468  1.00  0.00    -0.260 OA
ATOM     20  H6  UNL     1      16.040  -0.423   8.634  1.00  0.00     0.247 HD
ENDBRANCH  17  19
BRANCH  18  21
HETATM   21  C13 UNL     1      16.014   3.031   9.544  1.00  0.00     0.168 C 
HETATM   22  N10 UNL     1      16.633   2.350  10.418  1.00  0.00    -0.277 N 
ATOM     23  H10 UNL     1      17.114   1.493  10.147  1.00  0.00     0.193 HD
BRANCH  22  24
HETATM   24  O7  UNL     1      16.658   2.762  11.723  1.00  0.00    -0.290 OA
ATOM     25  H7  UNL     1      17.009   2.193  12.398  1.00  0.00     0.244 HD
ENDBRANCH  22  24
ENDBRANCH  18  21
ENDBRANCH  13  14
ENDBRANCH  11  13
ENDBRANCH   8  10
ENDBRANCH   1   8
BRANCH   2  26
HETATM   26  N3  UNL     1      16.922   5.813  12.933  1.00  0.00    -0.336 NA
BRANCH  26  27
HETATM   27  C3  UNL     1      16.936   5.696  14.116  1.00  0.00     0.220 C 
BRANCH  27  28
HETATM   28  C4  UNL     1      16.525   4.465  14.845  1.00  0.00    -0.005 A 
HETATM   29  C5  UNL     1      15.256   4.304  15.357  1.00  0.00     0.016 A 
HETATM   30  C6  UNL     1      14.884   3.162  16.031  1.00  0.00     0.037 A 
HETATM   31  C7  UNL     1      15.793   2.130  16.212  1.00  0.00     0.102 A 
HETATM   32  C8  UNL     1      17.064   2.287  15.700  1.00  0.00     0.037 A 
HETATM   33  C9  UNL     1      17.417   3.433  15.031  1.00  0.00     0.016 A 
BRANCH  31  34
HETATM   34  N4  UNL     1      15.410   0.955  16.904  1.00  0.00    -0.116 N 
HETATM   35  O3  UNL     1      16.222   0.346  17.611  1.00  0.00    -0.532 OA
HETATM   36  O4  UNL     1      14.131   0.495  16.789  1.00  0.00    -0.532 OA
ENDBRANCH  31  34
ENDBRANCH  27  28
ENDBRANCH  26  27
ENDBRANCH   2  26
TORSDOF 13
ENDMDL
