MODEL 1
REMARK VINA RESULT: -7.911015945      0.000      0.000
REMARK  10 active torsions:
REMARK  status: ('A' for Active; 'I' for Inactive)
REMARK    1  A    between atoms: C3_3  and  N1_4 
REMARK    2  A    between atoms: N1_4  and  C4_5 
REMARK    3  A    between atoms: N1_4  and  C5_7 
REMARK    4  A    between atoms: C6_10  and  N3_11 
REMARK    5  A    between atoms: N3_11  and  C7_13 
REMARK    6  A    between atoms: C7_13  and  C8_14 
REMARK    7  A    between atoms: C8_14  and  C9_15 
REMARK    8  A    between atoms: C9_15  and  S1_16 
REMARK    9  A    between atoms: S1_16  and  C10_17 
REMARK   10  A    between atoms: C12_27  and  N9_28 
ROOT
HETATM    1  C1  UNL     1      14.498   2.065  17.819  1.00  0.00     0.014 C 
HETATM    2  C2  UNL     1      14.871   2.499  16.758  1.00  0.00    -0.097 C 
HETATM    3  C3  UNL     1      15.354   3.026  15.463  1.00  0.00     0.242 C 
ENDROOT
BRANCH   3   4
HETATM    4  N1  UNL     1      16.653   2.481  15.148  1.00  0.00    -0.147 N 
BRANCH   4   5
HETATM    5  C4  UNL     1      17.074   1.295  15.783  1.00  0.00     0.371 C 
HETATM    6  O1  UNL     1      18.220   1.196  16.286  1.00  0.00    -0.283 OA
ENDBRANCH   4   5
BRANCH   4   7
HETATM    7  C5  UNL     1      17.497   3.127  14.216  1.00  0.00     0.716 A 
HETATM    8  N2  UNL     1      18.091   2.442  13.206  1.00  0.00    -0.021 N 
HETATM    9  C6  UNL     1      18.889   3.080  12.334  1.00  0.00     0.707 A 
ATOM     10  H2  UNL     1      17.931   1.439  13.108  1.00  0.00     0.203 HD
HETATM   11  N8  UNL     1      19.059   4.387  12.512  1.00  0.00    -0.021 N 
HETATM   12  C12 UNL     1      18.484   5.115  13.510  1.00  0.00     0.709 A 
ATOM     13  H8  UNL     1      19.663   4.879  11.854  1.00  0.00     0.203 HD
HETATM   14  N10 UNL     1      17.690   4.450  14.368  1.00  0.00    -0.021 N 
ATOM     15  H10 UNL     1      17.236   4.948  15.134  1.00  0.00     0.203 HD
BRANCH   9  16
HETATM   16  N3  UNL     1      19.452   2.415  11.376  1.00  0.00    -0.225 N 
ATOM     17  H3  UNL     1      19.884   2.904  10.592  1.00  0.00     0.177 HD
BRANCH  16  18
HETATM   18  C7  UNL     1      19.460   0.968  11.433  1.00  0.00     0.139 C 
BRANCH  18  19
HETATM   19  C8  UNL     1      18.645   0.391  10.300  1.00  0.00     0.031 C 
BRANCH  19  20
HETATM   20  C9  UNL     1      17.316  -0.042  10.867  1.00  0.00     0.084 C 
BRANCH  20  21
HETATM   21  S1  UNL     1      15.985   1.097  10.413  1.00  0.00    -0.091 SA
BRANCH  21  22
HETATM   22  C10 UNL     1      16.002   1.498   8.689  1.00  0.00     0.175 A 
HETATM   23  N4  UNL     1      15.928   0.713   7.600  1.00  0.00    -0.266 N 
HETATM   24  N5  UNL     1      15.976   1.417   6.503  1.00  0.00    -0.224 N 
ATOM     25  H4  UNL     1      15.845  -0.303   7.628  1.00  0.00     0.190 HD
HETATM   26  N6  UNL     1      16.082   2.684   6.885  1.00  0.00    -0.003 NA
ATOM     27  H5  UNL     1      15.938   1.066   5.546  1.00  0.00     0.205 HD
HETATM   28  N7  UNL     1      16.101   2.753   8.219  1.00  0.00    -0.257 N 
HETATM   29  C11 UNL     1      16.208   3.966   9.010  1.00  0.00     0.177 C 
ENDBRANCH  21  22
ENDBRANCH  20  21
ENDBRANCH  19  20
ENDBRANCH  18  19
ENDBRANCH  16  18
ENDBRANCH   9  16
BRANCH  12  30
HETATM   30  N9  UNL     1      18.739   6.500  13.600  1.00  0.00    -0.213 N 
HETATM   31  C13 UNL     1      18.569   7.268  14.801  1.00  0.00     0.167 C 
HETATM   32  C14 UNL     1      19.821   8.161  14.870  1.00  0.00     0.188 C 
HETATM   33  O2  UNL     1      19.779   9.083  13.866  1.00  0.00    -0.388 OA
HETATM   34  C15 UNL     1      19.333   8.682  12.645  1.00  0.00     0.188 C 
HETATM   35  C16 UNL     1      19.199   7.209  12.430  1.00  0.00     0.167 C 
ENDBRANCH  12  30
ENDBRANCH   4   7
ENDBRANCH   3   4
TORSDOF 10
ENDMDL
MODEL 2
REMARK VINA RESULT: -7.867809563      2.992      5.586
REMARK  10 active torsions:
REMARK  status: ('A' for Active; 'I' for Inactive)
REMARK    1  A    between atoms: C3_3  and  N1_4 
REMARK    2  A    between atoms: N1_4  and  C4_5 
REMARK    3  A    between atoms: N1_4  and  C5_7 
REMARK    4  A    between atoms: C6_10  and  N3_11 
REMARK    5  A    between atoms: N3_11  and  C7_13 
REMARK    6  A    between atoms: C7_13  and  C8_14 
REMARK    7  A    between atoms: C8_14  and  C9_15 
REMARK    8  A    between atoms: C9_15  and  S1_16 
REMARK    9  A    between atoms: S1_16  and  C10_17 
REMARK   10  A    between atoms: C12_27  and  N9_28 
ROOT
HETATM    1  C1  UNL     1      13.819   1.443  17.101  1.00  0.00     0.014 C 
HETATM    2  C2  UNL     1      14.956   1.789  16.896  1.00  0.00    -0.097 C 
HETATM    3  C3  UNL     1      16.352   2.195  16.627  1.00  0.00     0.242 C 
ENDROOT
BRANCH   3   4
HETATM    4  N1  UNL     1      16.771   1.732  15.325  1.00  0.00    -0.147 N 
BRANCH   4   5
HETATM    5  C4  UNL     1      17.246   0.413  15.185  1.00  0.00     0.371 C 
HETATM    6  O1  UNL     1      16.711  -0.391  14.381  1.00  0.00    -0.283 OA
ENDBRANCH   4   5
BRANCH   4   7
HETATM    7  C5  UNL     1      16.707   2.589  14.203  1.00  0.00     0.716 A 
HETATM    8  N2  UNL     1      16.973   3.916  14.308  1.00  0.00    -0.021 N 
HETATM    9  C6  UNL     1      16.904   4.707  13.225  1.00  0.00     0.707 A 
ATOM     10  H2  UNL     1      17.226   4.313  15.213  1.00  0.00     0.203 HD
HETATM   11  N8  UNL     1      16.570   4.132  12.074  1.00  0.00    -0.021 N 
HETATM   12  C12 UNL     1      16.296   2.806  11.920  1.00  0.00     0.709 A 
ATOM     13  H8  UNL     1      16.517   4.726  11.247  1.00  0.00     0.203 HD
HETATM   14  N10 UNL     1      16.372   2.038  13.021  1.00  0.00    -0.021 N 
ATOM     15  H10 UNL     1      16.175   1.039  12.962  1.00  0.00     0.203 HD
BRANCH   9  16
HETATM   16  N3  UNL     1      17.158   5.972  13.340  1.00  0.00    -0.225 N 
ATOM     17  H3  UNL     1      16.790   6.636  12.658  1.00  0.00     0.177 HD
BRANCH  16  18
HETATM   18  C7  UNL     1      17.970   6.430  14.447  1.00  0.00     0.139 C 
BRANCH  18  19
HETATM   19  C8  UNL     1      19.356   6.794  13.971  1.00  0.00     0.031 C 
BRANCH  19  20
HETATM   20  C9  UNL     1      20.175   5.528  13.935  1.00  0.00     0.084 C 
BRANCH  20  21
HETATM   21  S1  UNL     1      20.901   5.239  12.303  1.00  0.00    -0.091 SA
BRANCH  21  22
HETATM   22  C10 UNL     1      20.549   3.617  11.689  1.00  0.00     0.175 A 
HETATM   23  N4  UNL     1      19.813   2.617  12.207  1.00  0.00    -0.266 N 
HETATM   24  N5  UNL     1      19.812   1.574  11.425  1.00  0.00    -0.224 N 
ATOM     25  H4  UNL     1      19.319   2.669  13.098  1.00  0.00     0.190 HD
HETATM   26  N6  UNL     1      20.561   1.900  10.378  1.00  0.00    -0.003 NA
ATOM     27  H5  UNL     1      19.334   0.687  11.585  1.00  0.00     0.205 HD
HETATM   28  N7  UNL     1      21.021   3.146  10.522  1.00  0.00    -0.257 N 
HETATM   29  C11 UNL     1      21.875   3.855   9.585  1.00  0.00     0.177 C 
ENDBRANCH  21  22
ENDBRANCH  20  21
ENDBRANCH  19  20
ENDBRANCH  18  19
ENDBRANCH  16  18
ENDBRANCH   9  16
BRANCH  12  30
HETATM   30  N9  UNL     1      15.950   2.308  10.646  1.00  0.00    -0.213 N 
HETATM   31  C13 UNL     1      15.279   3.083   9.640  1.00  0.00     0.167 C 
HETATM   32  C14 UNL     1      16.030   2.758   8.336  1.00  0.00     0.188 C 
HETATM   33  O2  UNL     1      15.794   1.462   7.984  1.00  0.00    -0.388 OA
HETATM   34  C15 UNL     1      15.768   0.525   8.969  1.00  0.00     0.188 C 
HETATM   35  C16 UNL     1      16.279   0.944  10.310  1.00  0.00     0.167 C 
ENDBRANCH  12  30
ENDBRANCH   4   7
ENDBRANCH   3   4
TORSDOF 10
ENDMDL
MODEL 3
REMARK VINA RESULT: -7.706634297      2.763      5.538
REMARK  10 active torsions:
REMARK  status: ('A' for Active; 'I' for Inactive)
REMARK    1  A    between atoms: C3_3  and  N1_4 
REMARK    2  A    between atoms: N1_4  and  C4_5 
REMARK    3  A    between atoms: N1_4  and  C5_7 
REMARK    4  A    between atoms: C6_10  and  N3_11 
REMARK    5  A    between atoms: N3_11  and  C7_13 
REMARK    6  A    between atoms: C7_13  and  C8_14 
REMARK    7  A    between atoms: C8_14  and  C9_15 
REMARK    8  A    between atoms: C9_15  and  S1_16 
REMARK    9  A    between atoms: S1_16  and  C10_17 
REMARK   10  A    between atoms: C12_27  and  N9_28 
ROOT
HETATM    1  C1  UNL     1      14.229   1.619  17.401  1.00  0.00     0.014 C 
HETATM    2  C2  UNL     1      14.802   2.222  16.528  1.00  0.00    -0.097 C 
HETATM    3  C3  UNL     1      15.526   2.945  15.460  1.00  0.00     0.242 C 
ENDROOT
BRANCH   3   4
HETATM    4  N1  UNL     1      16.622   2.150  14.963  1.00  0.00    -0.147 N 
BRANCH   4   5
HETATM    5  C4  UNL     1      17.060   1.038  15.712  1.00  0.00     0.371 C 
HETATM    6  O1  UNL     1      18.177   1.038  16.287  1.00  0.00    -0.283 OA
ENDBRANCH   4   5
BRANCH   4   7
HETATM    7  C5  UNL     1      17.253   2.477  13.742  1.00  0.00     0.716 A 
HETATM    8  N2  UNL     1      18.486   3.044  13.710  1.00  0.00    -0.021 N 
HETATM    9  C6  UNL     1      19.061   3.347  12.535  1.00  0.00     0.707 A 
ATOM     10  H2  UNL     1      18.977   3.241  14.582  1.00  0.00     0.203 HD
HETATM   11  N8  UNL     1      18.373   3.066  11.433  1.00  0.00    -0.021 N 
HETATM   12  C12 UNL     1      17.135   2.498  11.415  1.00  0.00     0.709 A 
ATOM     13  H8  UNL     1      18.804   3.292  10.536  1.00  0.00     0.203 HD
HETATM   14  N10 UNL     1      16.582   2.206  12.606  1.00  0.00    -0.021 N 
ATOM     15  H10 UNL     1      15.656   1.781  12.649  1.00  0.00     0.203 HD
BRANCH   9  16
HETATM   16  N3  UNL     1      20.237   3.889  12.520  1.00  0.00    -0.225 N 
ATOM     17  H3  UNL     1      20.893   3.722  13.283  1.00  0.00     0.177 HD
BRANCH  16  18
HETATM   18  C7  UNL     1      20.608   4.736  11.404  1.00  0.00     0.139 C 
BRANCH  18  19
HETATM   19  C8  UNL     1      21.539   5.833  11.861  1.00  0.00     0.031 C 
BRANCH  19  20
HETATM   20  C9  UNL     1      20.812   6.647  12.902  1.00  0.00     0.084 C 
BRANCH  20  21
HETATM   21  S1  UNL     1      19.395   7.527  12.201  1.00  0.00    -0.091 SA
BRANCH  21  22
HETATM   22  C10 UNL     1      17.862   6.707  12.537  1.00  0.00     0.175 A 
HETATM   23  N4  UNL     1      17.260   6.402  13.700  1.00  0.00    -0.266 N 
HETATM   24  N5  UNL     1      16.127   5.788  13.502  1.00  0.00    -0.224 N 
ATOM     25  H4  UNL     1      17.642   6.622  14.620  1.00  0.00     0.190 HD
HETATM   26  N6  UNL     1      15.987   5.693  12.185  1.00  0.00    -0.003 NA
ATOM     27  H5  UNL     1      15.479   5.450  14.214  1.00  0.00     0.205 HD
HETATM   28  N7  UNL     1      17.039   6.249  11.578  1.00  0.00    -0.257 N 
HETATM   29  C11 UNL     1      17.249   6.338  10.143  1.00  0.00     0.177 C 
ENDBRANCH  21  22
ENDBRANCH  20  21
ENDBRANCH  19  20
ENDBRANCH  18  19
ENDBRANCH  16  18
ENDBRANCH   9  16
BRANCH  12  30
HETATM   30  N9  UNL     1      16.499   2.247  10.180  1.00  0.00    -0.213 N 
HETATM   31  C13 UNL     1      15.701   3.215   9.482  1.00  0.00     0.167 C 
HETATM   32  C14 UNL     1      16.143   3.094   8.012  1.00  0.00     0.188 C 
HETATM   33  O2  UNL     1      15.739   1.891   7.512  1.00  0.00    -0.388 OA
HETATM   34  C15 UNL     1      15.840   0.797   8.313  1.00  0.00     0.188 C 
HETATM   35  C16 UNL     1      16.645   0.951   9.564  1.00  0.00     0.167 C 
ENDBRANCH  12  30
ENDBRANCH   4   7
ENDBRANCH   3   4
TORSDOF 10
ENDMDL
MODEL 4
REMARK VINA RESULT: -7.699232297      3.083      5.294
REMARK  10 active torsions:
REMARK  status: ('A' for Active; 'I' for Inactive)
REMARK    1  A    between atoms: C3_3  and  N1_4 
REMARK    2  A    between atoms: N1_4  and  C4_5 
REMARK    3  A    between atoms: N1_4  and  C5_7 
REMARK    4  A    between atoms: C6_10  and  N3_11 
REMARK    5  A    between atoms: N3_11  and  C7_13 
REMARK    6  A    between atoms: C7_13  and  C8_14 
REMARK    7  A    between atoms: C8_14  and  C9_15 
REMARK    8  A    between atoms: C9_15  and  S1_16 
REMARK    9  A    between atoms: S1_16  and  C10_17 
REMARK   10  A    between atoms: C12_27  and  N9_28 
ROOT
HETATM    1  C1  UNL     1      14.117   1.564  17.389  1.00  0.00     0.014 C 
HETATM    2  C2  UNL     1      14.733   2.202  16.573  1.00  0.00    -0.097 C 
HETATM    3  C3  UNL     1      15.510   2.969  15.575  1.00  0.00     0.242 C 
ENDROOT
BRANCH   3   4
HETATM    4  N1  UNL     1      16.588   2.167  15.049  1.00  0.00    -0.147 N 
BRANCH   4   5
HETATM    5  C4  UNL     1      17.065   1.076  15.802  1.00  0.00     0.371 C 
HETATM    6  O1  UNL     1      18.218   1.080  16.299  1.00  0.00    -0.283 OA
ENDBRANCH   4   5
BRANCH   4   7
HETATM    7  C5  UNL     1      17.162   2.470  13.793  1.00  0.00     0.716 A 
HETATM    8  N2  UNL     1      18.358   3.104  13.694  1.00  0.00    -0.021 N 
HETATM    9  C6  UNL     1      18.880   3.380  12.489  1.00  0.00     0.707 A 
ATOM     10  H2  UNL     1      18.862   3.371  14.540  1.00  0.00     0.203 HD
HETATM   11  N8  UNL     1      18.177   3.007  11.424  1.00  0.00    -0.021 N 
HETATM   12  C12 UNL     1      16.974   2.369  11.473  1.00  0.00     0.709 A 
ATOM     13  H8  UNL     1      18.567   3.212  10.504  1.00  0.00     0.203 HD
HETATM   14  N10 UNL     1      16.475   2.105  12.694  1.00  0.00    -0.021 N 
ATOM     15  H10 UNL     1      15.577   1.631  12.787  1.00  0.00     0.203 HD
BRANCH   9  16
HETATM   16  N3  UNL     1      20.021   3.987  12.409  1.00  0.00    -0.225 N 
ATOM     17  H3  UNL     1      20.826   3.645  12.935  1.00  0.00     0.177 HD
BRANCH  16  18
HETATM   18  C7  UNL     1      20.139   5.157  11.564  1.00  0.00     0.139 C 
BRANCH  18  19
HETATM   19  C8  UNL     1      19.252   6.268  12.073  1.00  0.00     0.031 C 
BRANCH  19  20
HETATM   20  C9  UNL     1      18.328   6.667  10.950  1.00  0.00     0.084 C 
BRANCH  20  21
HETATM   21  S1  UNL     1      16.617   6.178  11.278  1.00  0.00    -0.091 SA
BRANCH  21  22
HETATM   22  C10 UNL     1      15.510   6.712  10.004  1.00  0.00     0.175 A 
HETATM   23  N4  UNL     1      15.455   6.404   8.696  1.00  0.00    -0.266 N 
HETATM   24  N5  UNL     1      14.472   7.023   8.103  1.00  0.00    -0.224 N 
ATOM     25  H4  UNL     1      16.100   5.768   8.228  1.00  0.00     0.190 HD
HETATM   26  N6  UNL     1      13.875   7.747   9.043  1.00  0.00    -0.003 NA
ATOM     27  H5  UNL     1      14.214   6.963   7.118  1.00  0.00     0.205 HD
HETATM   28  N7  UNL     1      14.496   7.570  10.212  1.00  0.00    -0.257 N 
HETATM   29  C11 UNL     1      14.137   8.194  11.473  1.00  0.00     0.177 C 
ENDBRANCH  21  22
ENDBRANCH  20  21
ENDBRANCH  19  20
ENDBRANCH  18  19
ENDBRANCH  16  18
ENDBRANCH   9  16
BRANCH  12  30
HETATM   30  N9  UNL     1      16.318   2.022  10.273  1.00  0.00    -0.213 N 
HETATM   31  C13 UNL     1      15.578   2.953   9.468  1.00  0.00     0.167 C 
HETATM   32  C14 UNL     1      16.004   2.641   8.023  1.00  0.00     0.188 C 
HETATM   33  O2  UNL     1      15.523   1.417   7.660  1.00  0.00    -0.388 OA
HETATM   34  C15 UNL     1      15.560   0.416   8.579  1.00  0.00     0.188 C 
HETATM   35  C16 UNL     1      16.379   0.658   9.806  1.00  0.00     0.167 C 
ENDBRANCH  12  30
ENDBRANCH   4   7
ENDBRANCH   3   4
TORSDOF 10
ENDMDL
MODEL 5
REMARK VINA RESULT: -7.620519953      2.653      3.828
REMARK  10 active torsions:
REMARK  status: ('A' for Active; 'I' for Inactive)
REMARK    1  A    between atoms: C3_3  and  N1_4 
REMARK    2  A    between atoms: N1_4  and  C4_5 
REMARK    3  A    between atoms: N1_4  and  C5_7 
REMARK    4  A    between atoms: C6_10  and  N3_11 
REMARK    5  A    between atoms: N3_11  and  C7_13 
REMARK    6  A    between atoms: C7_13  and  C8_14 
REMARK    7  A    between atoms: C8_14  and  C9_15 
REMARK    8  A    between atoms: C9_15  and  S1_16 
REMARK    9  A    between atoms: S1_16  and  C10_17 
REMARK   10  A    between atoms: C12_27  and  N9_28 
ROOT
HETATM    1  C1  UNL     1      14.070   1.472  17.155  1.00  0.00     0.014 C 
HETATM    2  C2  UNL     1      14.687   2.156  16.378  1.00  0.00    -0.097 C 
HETATM    3  C3  UNL     1      15.466   2.985  15.433  1.00  0.00     0.242 C 
ENDROOT
BRANCH   3   4
HETATM    4  N1  UNL     1      16.763   2.397  15.195  1.00  0.00    -0.147 N 
BRANCH   4   5
HETATM    5  C4  UNL     1      17.548   1.996  16.294  1.00  0.00     0.371 C 
HETATM    6  O1  UNL     1      18.213   0.930  16.267  1.00  0.00    -0.283 OA
ENDBRANCH   4   5
BRANCH   4   7
HETATM    7  C5  UNL     1      17.243   2.225  13.877  1.00  0.00     0.716 A 
HETATM    8  N2  UNL     1      16.639   1.376  13.008  1.00  0.00    -0.021 N 
HETATM    9  C6  UNL     1      17.116   1.230  11.761  1.00  0.00     0.707 A 
ATOM     10  H2  UNL     1      15.818   0.846  13.302  1.00  0.00     0.203 HD
HETATM   11  N8  UNL     1      18.187   1.947  11.435  1.00  0.00    -0.021 N 
HETATM   12  C12 UNL     1      18.827   2.811  12.272  1.00  0.00     0.709 A 
ATOM     13  H8  UNL     1      18.556   1.843  10.490  1.00  0.00     0.203 HD
HETATM   14  N10 UNL     1      18.327   2.936  13.515  1.00  0.00    -0.021 N 
ATOM     15  H10 UNL     1      18.769   3.569  14.181  1.00  0.00     0.203 HD
BRANCH   9  16
HETATM   16  N3  UNL     1      16.531   0.415  10.943  1.00  0.00    -0.225 N 
ATOM     17  H3  UNL     1      16.261  -0.520  11.249  1.00  0.00     0.177 HD
BRANCH  16  18
HETATM   18  C7  UNL     1      16.265   0.848   9.586  1.00  0.00     0.139 C 
BRANCH  18  19
HETATM   19  C8  UNL     1      15.426   2.104   9.589  1.00  0.00     0.031 C 
BRANCH  19  20
HETATM   20  C9  UNL     1      15.983   3.028   8.535  1.00  0.00     0.084 C 
BRANCH  20  21
HETATM   21  S1  UNL     1      16.915   4.398   9.262  1.00  0.00    -0.091 SA
BRANCH  21  22
HETATM   22  C10 UNL     1      15.864   5.727   9.777  1.00  0.00     0.175 A 
HETATM   23  N4  UNL     1      14.909   6.404   9.116  1.00  0.00    -0.266 N 
HETATM   24  N5  UNL     1      14.367   7.319   9.870  1.00  0.00    -0.224 N 
ATOM     25  H4  UNL     1      14.642   6.224   8.148  1.00  0.00     0.190 HD
HETATM   26  N6  UNL     1      14.980   7.236  11.045  1.00  0.00    -0.003 NA
ATOM     27  H5  UNL     1      13.623   7.967   9.610  1.00  0.00     0.205 HD
HETATM   28  N7  UNL     1      15.900   6.268  11.007  1.00  0.00    -0.257 N 
HETATM   29  C11 UNL     1      16.775   5.877  12.098  1.00  0.00     0.177 C 
ENDBRANCH  21  22
ENDBRANCH  20  21
ENDBRANCH  19  20
ENDBRANCH  18  19
ENDBRANCH  16  18
ENDBRANCH   9  16
BRANCH  12  30
HETATM   30  N9  UNL     1      19.959   3.518  11.814  1.00  0.00    -0.213 N 
HETATM   31  C13 UNL     1      20.750   3.115  10.686  1.00  0.00     0.167 C 
HETATM   32  C14 UNL     1      21.002   4.417   9.904  1.00  0.00     0.188 C 
HETATM   33  O2  UNL     1      21.824   5.231  10.626  1.00  0.00    -0.388 OA
HETATM   34  C15 UNL     1      21.632   5.307  11.970  1.00  0.00     0.188 C 
HETATM   35  C16 UNL     1      20.365   4.720  12.503  1.00  0.00     0.167 C 
ENDBRANCH  12  30
ENDBRANCH   4   7
ENDBRANCH   3   4
TORSDOF 10
ENDMDL
