MODEL 1
REMARK VINA RESULT: -7.870594308      0.000      0.000
REMARK  10 active torsions:
REMARK  status: ('A' for Active; 'I' for Inactive)
REMARK    1  A    between atoms: N1_2  and  C2_3 
REMARK       I    between atoms: N1_2  and  C15_23 
REMARK    2  A    between atoms: C2_3  and  C3_4 
REMARK    3  A    between atoms: C3_4  and  O1_5 
REMARK    4  A    between atoms: C3_4  and  C4_7 
REMARK    5  A    between atoms: C4_7  and  N2_8 
REMARK    6  A    between atoms: N3_11  and  C7_12 
REMARK    7  A    between atoms: C11_18  and  C12_19 
REMARK    8  A    between atoms: C15_23  and  C16_25 
REMARK    9  A    between atoms: C16_25  and  N5_26 
REMARK   10  A    between atoms: C18_30  and  N7_31 
ROOT
HETATM    1  C3  UNL     1      15.951   2.980   9.561  1.00  0.00     0.164 C 
ENDROOT
BRANCH   1   2
HETATM    2  C2  UNL     1      15.953   1.470   9.345  1.00  0.00     0.158 C 
BRANCH   2   3
HETATM    3  N1  UNL     1      16.952   0.922  10.234  1.00  0.00    -0.352 N 
HETATM    4  C1  UNL     1      18.090   0.234   9.691  1.00  0.00     0.152 C 
HETATM    5  C15 UNL     1      16.812   1.070  11.638  1.00  0.00     0.240 C 
HETATM    6  O3  UNL     1      15.789   1.669  12.107  1.00  0.00    -0.271 OA
BRANCH   5   7
HETATM    7  C16 UNL     1      17.780   0.575  12.615  1.00  0.00     0.272 C 
BRANCH   7   8
HETATM    8  N5  UNL     1      17.434   1.025  13.947  1.00  0.00    -0.224 N 
HETATM    9  N6  UNL     1      17.889   2.111  14.558  1.00  0.00    -0.291 N 
HETATM   10  C17 UNL     1      17.347   2.188  15.789  1.00  0.00     0.165 A 
ATOM     11  H6  UNL     1      18.546   2.781  14.160  1.00  0.00     0.188 HD
HETATM   12  C18 UNL     1      16.524   1.100  15.934  1.00  0.00     0.206 A 
HETATM   13  N8  UNL     1      16.612   0.421  14.783  1.00  0.00    -0.262 N 
ATOM     14  H8  UNL     1      16.111  -0.444  14.580  1.00  0.00     0.190 HD
BRANCH  12  15
HETATM   15  N7  UNL     1      15.741   0.752  17.060  1.00  0.00    -0.095 N 
HETATM   16  O4  UNL     1      16.213   0.698  18.202  1.00  0.00    -0.530 OA
HETATM   17  O5  UNL     1      14.413   0.462  16.884  1.00  0.00    -0.530 OA
ENDBRANCH  12  15
ENDBRANCH   7   8
ENDBRANCH   5   7
ENDBRANCH   2   3
ENDBRANCH   1   2
BRANCH   1  18
HETATM   18  O1  UNL     1      14.763   3.375  10.126  1.00  0.00    -0.392 OA
ATOM     19  H1  UNL     1      14.883   4.185  10.607  1.00  0.00     0.210 HD
ENDBRANCH   1  18
BRANCH   1  20
HETATM   20  C4  UNL     1      16.330   3.738   8.310  1.00  0.00     0.305 C 
BRANCH  20  21
HETATM   21  N2  UNL     1      17.451   4.603   8.654  1.00  0.00     0.094 N 
HETATM   22  C5  UNL     1      18.130   4.111   9.842  1.00  0.00     0.292 C 
HETATM   23  C6  UNL     1      18.848   5.278  10.458  1.00  0.00     0.154 C 
HETATM   24  N3  UNL     1      17.777   6.071  11.135  1.00  0.00    -0.363 N 
HETATM   25  C13 UNL     1      16.641   6.239  10.297  1.00  0.00     0.154 C 
HETATM   26  C14 UNL     1      17.021   5.976   8.819  1.00  0.00     0.292 C 
BRANCH  24  27
HETATM   27  C7  UNL     1      18.079   6.529  12.419  1.00  0.00     0.116 A 
HETATM   28  N4  UNL     1      19.078   7.478  12.537  1.00  0.00    -0.352 N 
HETATM   29  C8  UNL     1      19.448   8.027  13.692  1.00  0.00     0.089 A 
ATOM     30  H4  UNL     1      19.560   7.775  11.688  1.00  0.00     0.166 HD
HETATM   31  C9  UNL     1      18.854   7.689  14.886  1.00  0.00     0.018 A 
HETATM   32  C10 UNL     1      17.853   6.746  14.814  1.00  0.00     0.020 A 
HETATM   33  C11 UNL     1      17.470   6.172  13.596  1.00  0.00     0.045 A 
BRANCH  33  34
HETATM   34  C12 UNL     1      16.443   5.165  13.640  1.00  0.00     0.273 C 
HETATM   35  O2  UNL     1      15.292   5.543  14.094  1.00  0.00    -0.301 OA
ENDBRANCH  33  34
ENDBRANCH  24  27
ENDBRANCH  20  21
ENDBRANCH   1  20
TORSDOF 10
ENDMDL
MODEL 2
REMARK VINA RESULT: -7.732632526      1.835      4.962
REMARK  10 active torsions:
REMARK  status: ('A' for Active; 'I' for Inactive)
REMARK    1  A    between atoms: N1_2  and  C2_3 
REMARK       I    between atoms: N1_2  and  C15_23 
REMARK    2  A    between atoms: C2_3  and  C3_4 
REMARK    3  A    between atoms: C3_4  and  O1_5 
REMARK    4  A    between atoms: C3_4  and  C4_7 
REMARK    5  A    between atoms: C4_7  and  N2_8 
REMARK    6  A    between atoms: N3_11  and  C7_12 
REMARK    7  A    between atoms: C11_18  and  C12_19 
REMARK    8  A    between atoms: C15_23  and  C16_25 
REMARK    9  A    between atoms: C16_25  and  N5_26 
REMARK   10  A    between atoms: C18_30  and  N7_31 
ROOT
HETATM    1  C3  UNL     1      16.502   6.505  10.727  1.00  0.00     0.164 C 
ENDROOT
BRANCH   1   2
HETATM    2  C2  UNL     1      16.231   6.788  12.202  1.00  0.00     0.158 C 
BRANCH   2   3
HETATM    3  N1  UNL     1      17.283   6.140  12.951  1.00  0.00    -0.352 N 
HETATM    4  C1  UNL     1      18.587   6.737  13.012  1.00  0.00     0.152 C 
HETATM    5  C15 UNL     1      17.024   4.921  13.629  1.00  0.00     0.240 C 
HETATM    6  O3  UNL     1      15.866   4.393  13.553  1.00  0.00    -0.271 OA
BRANCH   5   7
HETATM    7  C16 UNL     1      18.013   4.205  14.432  1.00  0.00     0.272 C 
BRANCH   7   8
HETATM    8  N5  UNL     1      17.496   2.916  14.845  1.00  0.00    -0.224 N 
HETATM    9  N6  UNL     1      17.674   1.757  14.225  1.00  0.00    -0.291 N 
HETATM   10  C17 UNL     1      17.034   0.787  14.905  1.00  0.00     0.165 A 
ATOM     11  H6  UNL     1      18.210   1.622  13.368  1.00  0.00     0.188 HD
HETATM   12  C18 UNL     1      16.439   1.381  15.989  1.00  0.00     0.206 A 
HETATM   13  N8  UNL     1      16.751   2.682  15.907  1.00  0.00    -0.262 N 
ATOM     14  H8  UNL     1      16.453   3.393  16.575  1.00  0.00     0.190 HD
BRANCH  12  15
HETATM   15  N7  UNL     1      15.654   0.765  16.992  1.00  0.00    -0.095 N 
HETATM   16  O4  UNL     1      14.510   0.348  16.772  1.00  0.00    -0.530 OA
HETATM   17  O5  UNL     1      16.174   0.623  18.252  1.00  0.00    -0.530 OA
ENDBRANCH  12  15
ENDBRANCH   7   8
ENDBRANCH   5   7
ENDBRANCH   2   3
ENDBRANCH   1   2
BRANCH   1  18
HETATM   18  O1  UNL     1      16.815   7.670  10.072  1.00  0.00    -0.392 OA
ATOM     19  H1  UNL     1      17.746   7.845  10.141  1.00  0.00     0.210 HD
ENDBRANCH   1  18
BRANCH   1  20
HETATM   20  C4  UNL     1      15.392   5.705  10.084  1.00  0.00     0.305 C 
BRANCH  20  21
HETATM   21  N2  UNL     1      16.021   4.656   9.293  1.00  0.00     0.094 N 
HETATM   22  C5  UNL     1      15.405   3.368   9.568  1.00  0.00     0.292 C 
HETATM   23  C6  UNL     1      16.409   2.310   9.210  1.00  0.00     0.154 C 
HETATM   24  N3  UNL     1      17.394   2.322  10.334  1.00  0.00    -0.363 N 
HETATM   25  C13 UNL     1      17.781   3.646  10.677  1.00  0.00     0.154 C 
HETATM   26  C14 UNL     1      17.452   4.617   9.518  1.00  0.00     0.292 C 
BRANCH  24  27
HETATM   27  C7  UNL     1      17.782   1.070  10.816  1.00  0.00     0.116 A 
HETATM   28  N4  UNL     1      16.779   0.164  11.112  1.00  0.00    -0.352 N 
HETATM   29  C8  UNL     1      17.003  -1.075  11.547  1.00  0.00     0.089 A 
ATOM     30  H4  UNL     1      15.811   0.463  10.990  1.00  0.00     0.166 HD
HETATM   31  C9  UNL     1      18.273  -1.565  11.740  1.00  0.00     0.018 A 
HETATM   32  C10 UNL     1      19.303  -0.694  11.457  1.00  0.00     0.020 A 
HETATM   33  C11 UNL     1      19.061   0.607  11.001  1.00  0.00     0.045 A 
BRANCH  33  34
HETATM   34  C12 UNL     1      20.208   1.447  10.777  1.00  0.00     0.273 C 
HETATM   35  O2  UNL     1      20.582   2.180  11.774  1.00  0.00    -0.301 OA
ENDBRANCH  33  34
ENDBRANCH  24  27
ENDBRANCH  20  21
ENDBRANCH   1  20
TORSDOF 10
ENDMDL
MODEL 3
REMARK VINA RESULT: -7.621912807      2.297      5.896
REMARK  10 active torsions:
REMARK  status: ('A' for Active; 'I' for Inactive)
REMARK    1  A    between atoms: N1_2  and  C2_3 
REMARK       I    between atoms: N1_2  and  C15_23 
REMARK    2  A    between atoms: C2_3  and  C3_4 
REMARK    3  A    between atoms: C3_4  and  O1_5 
REMARK    4  A    between atoms: C3_4  and  C4_7 
REMARK    5  A    between atoms: C4_7  and  N2_8 
REMARK    6  A    between atoms: N3_11  and  C7_12 
REMARK    7  A    between atoms: C11_18  and  C12_19 
REMARK    8  A    between atoms: C15_23  and  C16_25 
REMARK    9  A    between atoms: C16_25  and  N5_26 
REMARK   10  A    between atoms: C18_30  and  N7_31 
ROOT
HETATM    1  C3  UNL     1      17.658   7.083  11.403  1.00  0.00     0.164 C 
ENDROOT
BRANCH   1   2
HETATM    2  C2  UNL     1      18.021   7.079   9.921  1.00  0.00     0.158 C 
BRANCH   2   3
HETATM    3  N1  UNL     1      16.976   6.351   9.237  1.00  0.00    -0.352 N 
HETATM    4  C1  UNL     1      15.654   6.906   9.161  1.00  0.00     0.152 C 
HETATM    5  C15 UNL     1      17.259   5.097   8.638  1.00  0.00     0.240 C 
HETATM    6  O3  UNL     1      18.434   4.609   8.728  1.00  0.00    -0.271 OA
BRANCH   5   7
HETATM    7  C16 UNL     1      16.279   4.299   7.905  1.00  0.00     0.272 C 
BRANCH   7   8
HETATM    8  N5  UNL     1      16.311   2.920   8.348  1.00  0.00    -0.224 N 
HETATM    9  N6  UNL     1      15.863   1.865   7.681  1.00  0.00    -0.291 N 
HETATM   10  C17 UNL     1      16.058   0.757   8.421  1.00  0.00     0.165 A 
ATOM     11  H6  UNL     1      15.438   1.889   6.754  1.00  0.00     0.188 HD
HETATM   12  C18 UNL     1      16.652   1.154   9.592  1.00  0.00     0.206 A 
HETATM   13  N8  UNL     1      16.784   2.484   9.498  1.00  0.00    -0.262 N 
ATOM     14  H8  UNL     1      17.196   3.078  10.219  1.00  0.00     0.190 HD
BRANCH  12  15
HETATM   15  N7  UNL     1      17.045   0.343  10.682  1.00  0.00    -0.095 N 
HETATM   16  O4  UNL     1      16.400   0.296  11.737  1.00  0.00    -0.530 OA
HETATM   17  O5  UNL     1      18.179  -0.418  10.571  1.00  0.00    -0.530 OA
ENDBRANCH  12  15
ENDBRANCH   7   8
ENDBRANCH   5   7
ENDBRANCH   2   3
ENDBRANCH   1   2
BRANCH   1  18
HETATM   18  O1  UNL     1      17.491   8.371  11.846  1.00  0.00    -0.392 OA
ATOM     19  H1  UNL     1      18.143   8.939  11.454  1.00  0.00     0.210 HD
ENDBRANCH   1  18
BRANCH   1  20
HETATM   20  C4  UNL     1      18.618   6.258  12.229  1.00  0.00     0.305 C 
BRANCH  20  21
HETATM   21  N2  UNL     1      18.131   4.885  12.209  1.00  0.00     0.094 N 
HETATM   22  C5  UNL     1      16.709   4.842  12.508  1.00  0.00     0.292 C 
HETATM   23  C6  UNL     1      16.407   3.467  13.031  1.00  0.00     0.154 C 
HETATM   24  N3  UNL     1      16.922   3.469  14.434  1.00  0.00    -0.363 N 
HETATM   25  C13 UNL     1      18.222   4.039  14.513  1.00  0.00     0.154 C 
HETATM   26  C14 UNL     1      18.889   4.047  13.116  1.00  0.00     0.292 C 
BRANCH  24  27
HETATM   27  C7  UNL     1      16.083   2.896  15.391  1.00  0.00     0.116 A 
HETATM   28  N4  UNL     1      15.059   3.680  15.889  1.00  0.00    -0.352 N 
HETATM   29  C8  UNL     1      14.163   3.256  16.780  1.00  0.00     0.089 A 
ATOM     30  H4  UNL     1      14.984   4.641  15.555  1.00  0.00     0.166 HD
HETATM   31  C9  UNL     1      14.185   1.977  17.286  1.00  0.00     0.018 A 
HETATM   32  C10 UNL     1      15.191   1.161  16.817  1.00  0.00     0.020 A 
HETATM   33  C11 UNL     1      16.128   1.614  15.882  1.00  0.00     0.045 A 
BRANCH  33  34
HETATM   34  C12 UNL     1      17.163   0.693  15.491  1.00  0.00     0.273 C 
HETATM   35  O2  UNL     1      18.235   0.699  16.213  1.00  0.00    -0.301 OA
ENDBRANCH  33  34
ENDBRANCH  24  27
ENDBRANCH  20  21
ENDBRANCH   1  20
TORSDOF 10
ENDMDL
MODEL 4
REMARK VINA RESULT: -7.564477687      2.780      3.759
REMARK  10 active torsions:
REMARK  status: ('A' for Active; 'I' for Inactive)
REMARK    1  A    between atoms: N1_2  and  C2_3 
REMARK       I    between atoms: N1_2  and  C15_23 
REMARK    2  A    between atoms: C2_3  and  C3_4 
REMARK    3  A    between atoms: C3_4  and  O1_5 
REMARK    4  A    between atoms: C3_4  and  C4_7 
REMARK    5  A    between atoms: C4_7  and  N2_8 
REMARK    6  A    between atoms: N3_11  and  C7_12 
REMARK    7  A    between atoms: C11_18  and  C12_19 
REMARK    8  A    between atoms: C15_23  and  C16_25 
REMARK    9  A    between atoms: C16_25  and  N5_26 
REMARK   10  A    between atoms: C18_30  and  N7_31 
ROOT
HETATM    1  C3  UNL     1      16.160   3.228   9.800  1.00  0.00     0.164 C 
ENDROOT
BRANCH   1   2
HETATM    2  C2  UNL     1      16.128   1.760   9.384  1.00  0.00     0.158 C 
BRANCH   2   3
HETATM    3  N1  UNL     1      17.010   1.052  10.285  1.00  0.00    -0.352 N 
HETATM    4  C1  UNL     1      18.117   0.305   9.757  1.00  0.00     0.152 C 
HETATM    5  C15 UNL     1      16.784   1.101  11.684  1.00  0.00     0.240 C 
HETATM    6  O3  UNL     1      15.788   1.755  12.138  1.00  0.00    -0.271 OA
BRANCH   5   7
HETATM    7  C16 UNL     1      17.633   0.441  12.674  1.00  0.00     0.272 C 
BRANCH   7   8
HETATM    8  N5  UNL     1      17.374   0.968  13.999  1.00  0.00    -0.224 N 
HETATM    9  N6  UNL     1      17.787   2.132  14.482  1.00  0.00    -0.291 N 
HETATM   10  C17 UNL     1      17.357   2.263  15.751  1.00  0.00     0.165 A 
ATOM     11  H6  UNL     1      18.342   2.819  13.973  1.00  0.00     0.188 HD
HETATM   12  C18 UNL     1      16.649   1.128  16.056  1.00  0.00     0.206 A 
HETATM   13  N8  UNL     1      16.690   0.368  14.953  1.00  0.00    -0.262 N 
ATOM     14  H8  UNL     1      16.251  -0.548  14.864  1.00  0.00     0.190 HD
BRANCH  12  15
HETATM   15  N7  UNL     1      16.008   0.809  17.276  1.00  0.00    -0.095 N 
HETATM   16  O4  UNL     1      15.967   1.599  18.227  1.00  0.00    -0.530 OA
HETATM   17  O5  UNL     1      15.411  -0.417  17.414  1.00  0.00    -0.530 OA
ENDBRANCH  12  15
ENDBRANCH   7   8
ENDBRANCH   5   7
ENDBRANCH   2   3
ENDBRANCH   1   2
BRANCH   1  18
HETATM   18  O1  UNL     1      14.884   3.728   9.866  1.00  0.00    -0.392 OA
ATOM     19  H1  UNL     1      14.278   3.140   9.431  1.00  0.00     0.210 HD
ENDBRANCH   1  18
BRANCH   1  20
HETATM   20  C4  UNL     1      17.108   4.043   8.949  1.00  0.00     0.305 C 
BRANCH  20  21
HETATM   21  N2  UNL     1      17.798   4.966   9.840  1.00  0.00     0.094 N 
HETATM   22  C5  UNL     1      18.856   5.667   9.131  1.00  0.00     0.292 C 
HETATM   23  C6  UNL     1      19.852   6.125  10.158  1.00  0.00     0.154 C 
HETATM   24  N3  UNL     1      20.616   4.895  10.526  1.00  0.00    -0.363 N 
HETATM   25  C13 UNL     1      19.752   3.789  10.751  1.00  0.00     0.154 C 
HETATM   26  C14 UNL     1      18.308   4.282  11.011  1.00  0.00     0.292 C 
BRANCH  24  27
HETATM   27  C7  UNL     1      22.001   5.045  10.618  1.00  0.00     0.116 A 
HETATM   28  N4  UNL     1      22.526   5.348  11.861  1.00  0.00    -0.352 N 
HETATM   29  C8  UNL     1      23.829   5.487  12.103  1.00  0.00     0.089 A 
ATOM     30  H4  UNL     1      21.877   5.473  12.638  1.00  0.00     0.166 HD
HETATM   31  C9  UNL     1      24.776   5.336  11.118  1.00  0.00     0.018 A 
HETATM   32  C10 UNL     1      24.296   5.033   9.862  1.00  0.00     0.020 A 
HETATM   33  C11 UNL     1      22.926   4.890   9.615  1.00  0.00     0.045 A 
BRANCH  33  34
HETATM   34  C12 UNL     1      22.530   4.616   8.259  1.00  0.00     0.273 C 
HETATM   35  O2  UNL     1      22.114   3.416   8.017  1.00  0.00    -0.301 OA
ENDBRANCH  33  34
ENDBRANCH  24  27
ENDBRANCH  20  21
ENDBRANCH   1  20
TORSDOF 10
ENDMDL
MODEL 5
REMARK VINA RESULT: -7.550912264      1.260      1.455
REMARK  10 active torsions:
REMARK  status: ('A' for Active; 'I' for Inactive)
REMARK    1  A    between atoms: N1_2  and  C2_3 
REMARK       I    between atoms: N1_2  and  C15_23 
REMARK    2  A    between atoms: C2_3  and  C3_4 
REMARK    3  A    between atoms: C3_4  and  O1_5 
REMARK    4  A    between atoms: C3_4  and  C4_7 
REMARK    5  A    between atoms: C4_7  and  N2_8 
REMARK    6  A    between atoms: N3_11  and  C7_12 
REMARK    7  A    between atoms: C11_18  and  C12_19 
REMARK    8  A    between atoms: C15_23  and  C16_25 
REMARK    9  A    between atoms: C16_25  and  N5_26 
REMARK   10  A    between atoms: C18_30  and  N7_31 
ROOT
HETATM    1  C3  UNL     1      16.493   4.264  10.078  1.00  0.00     0.164 C 
ENDROOT
BRANCH   1   2
HETATM    2  C2  UNL     1      15.805   2.931   9.800  1.00  0.00     0.158 C 
BRANCH   2   3
HETATM    3  N1  UNL     1      16.557   1.918  10.503  1.00  0.00    -0.352 N 
HETATM    4  C1  UNL     1      17.363   0.987   9.764  1.00  0.00     0.152 C 
HETATM    5  C15 UNL     1      16.505   1.848  11.919  1.00  0.00     0.240 C 
HETATM    6  O3  UNL     1      15.772   2.670  12.562  1.00  0.00    -0.271 OA
BRANCH   5   7
HETATM    7  C16 UNL     1      17.248   0.878  12.720  1.00  0.00     0.272 C 
BRANCH   7   8
HETATM    8  N5  UNL     1      17.182   1.221  14.126  1.00  0.00    -0.224 N 
HETATM    9  N6  UNL     1      17.869   2.174  14.741  1.00  0.00    -0.291 N 
HETATM   10  C17 UNL     1      17.545   2.182  16.048  1.00  0.00     0.165 A 
ATOM     11  H6  UNL     1      18.538   2.802  14.295  1.00  0.00     0.188 HD
HETATM   12  C18 UNL     1      16.618   1.189  16.238  1.00  0.00     0.206 A 
HETATM   13  N8  UNL     1      16.431   0.631  15.035  1.00  0.00    -0.262 N 
ATOM     14  H8  UNL     1      15.794  -0.143  14.847  1.00  0.00     0.190 HD
BRANCH  12  15
HETATM   15  N7  UNL     1      15.985   0.816  17.448  1.00  0.00    -0.095 N 
HETATM   16  O4  UNL     1      15.981   1.549  18.444  1.00  0.00    -0.530 OA
HETATM   17  O5  UNL     1      15.354  -0.398  17.522  1.00  0.00    -0.530 OA
ENDBRANCH  12  15
ENDBRANCH   7   8
ENDBRANCH   5   7
ENDBRANCH   2   3
ENDBRANCH   1   2
BRANCH   1  18
HETATM   18  O1  UNL     1      15.596   5.158  10.608  1.00  0.00    -0.392 OA
ATOM     19  H1  UNL     1      15.966   5.577  11.375  1.00  0.00     0.210 HD
ENDBRANCH   1  18
BRANCH   1  20
HETATM   20  C4  UNL     1      17.251   4.779   8.875  1.00  0.00     0.305 C 
BRANCH  20  21
HETATM   21  N2  UNL     1      18.571   5.181   9.340  1.00  0.00     0.094 N 
HETATM   22  C5  UNL     1      18.777   4.766  10.718  1.00  0.00     0.292 C 
HETATM   23  C6  UNL     1      19.833   5.663  11.299  1.00  0.00     0.154 C 
HETATM   24  N3  UNL     1      19.133   6.956  11.564  1.00  0.00    -0.363 N 
HETATM   25  C13 UNL     1      18.327   7.352  10.462  1.00  0.00     0.154 C 
HETATM   26  C14 UNL     1      18.771   6.607   9.180  1.00  0.00     0.292 C 
BRANCH  24  27
HETATM   27  C7  UNL     1      19.408   7.555  12.796  1.00  0.00     0.116 A 
HETATM   28  N4  UNL     1      20.421   8.495  12.833  1.00  0.00    -0.352 N 
HETATM   29  C8  UNL     1      20.770   9.169  13.928  1.00  0.00     0.089 A 
ATOM     30  H4  UNL     1      20.932   8.684  11.970  1.00  0.00     0.166 HD
HETATM   31  C9  UNL     1      20.138   8.980  15.135  1.00  0.00     0.018 A 
HETATM   32  C10 UNL     1      19.121   8.051  15.143  1.00  0.00     0.020 A 
HETATM   33  C11 UNL     1      18.761   7.347  13.988  1.00  0.00     0.045 A 
BRANCH  33  34
HETATM   34  C12 UNL     1      17.713   6.368  14.118  1.00  0.00     0.273 C 
HETATM   35  O2  UNL     1      18.090   5.160  14.386  1.00  0.00    -0.301 OA
ENDBRANCH  33  34
ENDBRANCH  24  27
ENDBRANCH  20  21
ENDBRANCH   1  20
TORSDOF 10
ENDMDL
