MODEL 1
REMARK VINA RESULT: -7.190222114      0.000      0.000
REMARK  11 active torsions:
REMARK  status: ('A' for Active; 'I' for Inactive)
REMARK    1  A    between atoms: C3_4  and  C4_5 
REMARK    2  A    between atoms: C7_8  and  N1_9 
REMARK    3  A    between atoms: N2_12  and  C10_13 
REMARK    4  A    between atoms: C10_13  and  C11_14 
REMARK    5  A    between atoms: C11_14  and  O2_15 
REMARK    6  A    between atoms: C14_19  and  N3_20 
REMARK    7  A    between atoms: N6_28  and  C16_29 
REMARK    8  A    between atoms: C16_29  and  C17_30 
REMARK    9  A    between atoms: C17_30  and  C18_31 
REMARK   10  A    between atoms: C18_31  and  O5_32 
REMARK   11  A    between atoms: O5_32  and  O6_33 
ROOT
HETATM    1  C4  UNL     1      15.657   6.080  10.156  1.00  0.00    -0.005 A 
HETATM    2  C5  UNL     1      16.335   5.946  11.348  1.00  0.00     0.016 A 
HETATM    3  C6  UNL     1      16.835   4.723  11.721  1.00  0.00     0.033 A 
HETATM    4  C7  UNL     1      16.655   3.620  10.895  1.00  0.00     0.063 A 
HETATM    5  C14 UNL     1      15.991   3.744   9.727  1.00  0.00     0.130 A 
HETATM    6  C15 UNL     1      15.481   4.993   9.344  1.00  0.00     0.052 A 
ENDROOT
BRANCH   1   7
HETATM    7  C3  UNL     1      15.123   7.394   9.755  1.00  0.00     0.065 A 
HETATM    8  C2  UNL     1      15.459   8.537  10.404  1.00  0.00     0.107 A 
HETATM    9  C1  UNL     1      14.899   9.738   9.935  1.00  0.00     0.265 A 
HETATM   10  O1  UNL     1      15.166  10.826  10.485  1.00  0.00    -0.267 OA
HETATM   11  N6  UNL     1      14.059   9.771   8.879  1.00  0.00    -0.243 N 
HETATM   12  N5  UNL     1      13.775   8.623   8.293  1.00  0.00    -0.237 N 
HETATM   13  N4  UNL     1      14.287   7.470   8.714  1.00  0.00    -0.285 N 
ATOM     14  H5  UNL     1      13.143   8.620   7.493  1.00  0.00     0.208 HD
ATOM     15  H4  UNL     1      14.033   6.612   8.224  1.00  0.00     0.188 HD
BRANCH  11  16
HETATM   16  C16 UNL     1      13.505  11.020   8.422  1.00  0.00     0.156 C 
BRANCH  16  17
HETATM   17  C17 UNL     1      12.784  10.878   7.077  1.00  0.00     0.051 C 
BRANCH  17  18
HETATM   18  C18 UNL     1      11.285  10.951   7.348  1.00  0.00     0.211 C 
BRANCH  18  19
HETATM   19  O5  UNL     1      10.806   9.664   7.631  1.00  0.00    -0.243 OA
BRANCH  19  20
HETATM   20  O6  UNL     1       9.486   9.661   7.694  1.00  0.00    -0.251 OA
ATOM     21  H6  UNL     1       9.187  10.100   8.482  1.00  0.00     0.253 HD
ENDBRANCH  19  20
ENDBRANCH  18  19
ENDBRANCH  17  18
ENDBRANCH  16  17
ENDBRANCH  11  16
ENDBRANCH   1   7
BRANCH   5  22
HETATM   22  N3  UNL     1      15.774   2.635   8.862  1.00  0.00    -0.113 N 
HETATM   23  O3  UNL     1      16.218   2.661   7.676  1.00  0.00    -0.532 OA
HETATM   24  O4  UNL     1      15.110   1.545   9.253  1.00  0.00    -0.532 OA
ENDBRANCH   5  22
BRANCH   4  25
HETATM   25  N1  UNL     1      17.250   2.396  11.315  1.00  0.00    -0.376 N 
HETATM   26  C8  UNL     1      18.522   2.039  10.768  1.00  0.00     0.142 C 
HETATM   27  C9  UNL     1      18.888   0.601  10.848  1.00  0.00     0.136 C 
HETATM   28  N2  UNL     1      18.323  -0.154  11.907  1.00  0.00    -0.407 N 
HETATM   29  C12 UNL     1      17.518   0.535  12.846  1.00  0.00     0.136 C 
HETATM   30  C13 UNL     1      16.602   1.562  12.273  1.00  0.00     0.142 C 
BRANCH  28  31
HETATM   31  C10 UNL     1      17.849  -1.455  11.564  1.00  0.00     0.143 C 
BRANCH  31  32
HETATM   32  C11 UNL     1      18.944  -2.483  11.472  1.00  0.00     0.183 C 
BRANCH  32  33
HETATM   33  O2  UNL     1      18.413  -3.760  11.510  1.00  0.00    -0.399 OA
ATOM     34  H2  UNL     1      18.836  -4.315  10.865  1.00  0.00     0.209 HD
ENDBRANCH  32  33
ENDBRANCH  31  32
ENDBRANCH  28  31
ENDBRANCH   4  25
TORSDOF 11
ENDMDL
MODEL 2
REMARK VINA RESULT: -7.056706808      1.842      2.211
REMARK  11 active torsions:
REMARK  status: ('A' for Active; 'I' for Inactive)
REMARK    1  A    between atoms: C3_4  and  C4_5 
REMARK    2  A    between atoms: C7_8  and  N1_9 
REMARK    3  A    between atoms: N2_12  and  C10_13 
REMARK    4  A    between atoms: C10_13  and  C11_14 
REMARK    5  A    between atoms: C11_14  and  O2_15 
REMARK    6  A    between atoms: C14_19  and  N3_20 
REMARK    7  A    between atoms: N6_28  and  C16_29 
REMARK    8  A    between atoms: C16_29  and  C17_30 
REMARK    9  A    between atoms: C17_30  and  C18_31 
REMARK   10  A    between atoms: C18_31  and  O5_32 
REMARK   11  A    between atoms: O5_32  and  O6_33 
ROOT
HETATM    1  C4  UNL     1      15.919   5.799   9.108  1.00  0.00    -0.005 A 
HETATM    2  C5  UNL     1      16.124   4.637   8.398  1.00  0.00     0.016 A 
HETATM    3  C6  UNL     1      16.602   3.518   9.035  1.00  0.00     0.033 A 
HETATM    4  C7  UNL     1      16.879   3.562  10.396  1.00  0.00     0.063 A 
HETATM    5  C14 UNL     1      16.682   4.698  11.097  1.00  0.00     0.130 A 
HETATM    6  C15 UNL     1      16.192   5.841  10.448  1.00  0.00     0.052 A 
ENDROOT
BRANCH   1   7
HETATM    7  C3  UNL     1      15.404   6.999   8.423  1.00  0.00     0.065 A 
HETATM    8  C2  UNL     1      15.554   8.244   8.941  1.00  0.00     0.107 A 
HETATM    9  C1  UNL     1      15.032   9.321   8.203  1.00  0.00     0.265 A 
HETATM   10  O1  UNL     1      15.136  10.492   8.620  1.00  0.00    -0.267 OA
HETATM   11  N6  UNL     1      14.404   9.141   7.022  1.00  0.00    -0.243 N 
HETATM   12  N5  UNL     1      14.293   7.903   6.576  1.00  0.00    -0.237 N 
HETATM   13  N4  UNL     1      14.775   6.864   7.250  1.00  0.00    -0.285 N 
ATOM     14  H5  UNL     1      13.823   7.739   5.686  1.00  0.00     0.208 HD
ATOM     15  H4  UNL     1      14.660   5.929   6.859  1.00  0.00     0.188 HD
BRANCH  11  16
HETATM   16  C16 UNL     1      13.883  10.267   6.290  1.00  0.00     0.156 C 
BRANCH  16  17
HETATM   17  C17 UNL     1      12.391  10.112   5.972  1.00  0.00     0.051 C 
BRANCH  17  18
HETATM   18  C18 UNL     1      11.611  10.496   7.224  1.00  0.00     0.211 C 
BRANCH  18  19
HETATM   19  O5  UNL     1      10.848   9.397   7.646  1.00  0.00    -0.243 OA
BRANCH  19  20
HETATM   20  O6  UNL     1       9.560   9.690   7.632  1.00  0.00    -0.251 OA
ATOM     21  H6  UNL     1       9.044   8.921   7.425  1.00  0.00     0.253 HD
ENDBRANCH  19  20
ENDBRANCH  18  19
ENDBRANCH  17  18
ENDBRANCH  16  17
ENDBRANCH  11  16
ENDBRANCH   1   7
BRANCH   5  22
HETATM   22  N3  UNL     1      16.968   4.784  12.488  1.00  0.00    -0.113 N 
HETATM   23  O3  UNL     1      16.031   4.677  13.334  1.00  0.00    -0.532 OA
HETATM   24  O4  UNL     1      18.205   4.978  12.951  1.00  0.00    -0.532 OA
ENDBRANCH   5  22
BRANCH   4  25
HETATM   25  N1  UNL     1      17.315   2.350  11.004  1.00  0.00    -0.376 N 
HETATM   26  C8  UNL     1      18.683   1.965  10.842  1.00  0.00     0.142 C 
HETATM   27  C9  UNL     1      18.989   0.528  11.066  1.00  0.00     0.136 C 
HETATM   28  N2  UNL     1      18.142  -0.185  11.952  1.00  0.00    -0.407 N 
HETATM   29  C12 UNL     1      17.121   0.543  12.609  1.00  0.00     0.136 C 
HETATM   30  C13 UNL     1      16.415   1.554  11.773  1.00  0.00     0.142 C 
BRANCH  28  31
HETATM   31  C10 UNL     1      17.760  -1.495  11.534  1.00  0.00     0.143 C 
BRANCH  31  32
HETATM   32  C11 UNL     1      18.912  -2.462  11.480  1.00  0.00     0.183 C 
BRANCH  32  33
HETATM   33  O2  UNL     1      18.450  -3.766  11.516  1.00  0.00    -0.399 OA
ATOM     34  H2  UNL     1      17.526  -3.797  11.296  1.00  0.00     0.209 HD
ENDBRANCH  32  33
ENDBRANCH  31  32
ENDBRANCH  28  31
ENDBRANCH   4  25
TORSDOF 11
ENDMDL
MODEL 3
REMARK VINA RESULT: -6.974140299      6.232      8.808
REMARK  11 active torsions:
REMARK  status: ('A' for Active; 'I' for Inactive)
REMARK    1  A    between atoms: C3_4  and  C4_5 
REMARK    2  A    between atoms: C7_8  and  N1_9 
REMARK    3  A    between atoms: N2_12  and  C10_13 
REMARK    4  A    between atoms: C10_13  and  C11_14 
REMARK    5  A    between atoms: C11_14  and  O2_15 
REMARK    6  A    between atoms: C14_19  and  N3_20 
REMARK    7  A    between atoms: N6_28  and  C16_29 
REMARK    8  A    between atoms: C16_29  and  C17_30 
REMARK    9  A    between atoms: C17_30  and  C18_31 
REMARK   10  A    between atoms: C18_31  and  O5_32 
REMARK   11  A    between atoms: O5_32  and  O6_33 
ROOT
HETATM    1  C4  UNL     1      19.043   4.210  12.461  1.00  0.00    -0.005 A 
HETATM    2  C5  UNL     1      19.079   3.539  11.259  1.00  0.00     0.016 A 
HETATM    3  C6  UNL     1      20.101   3.774  10.371  1.00  0.00     0.033 A 
HETATM    4  C7  UNL     1      21.096   4.691  10.688  1.00  0.00     0.063 A 
HETATM    5  C14 UNL     1      21.065   5.354  11.863  1.00  0.00     0.130 A 
HETATM    6  C15 UNL     1      20.023   5.113  12.771  1.00  0.00     0.052 A 
ENDROOT
BRANCH   1   7
HETATM    7  C3  UNL     1      17.948   3.956  13.415  1.00  0.00     0.065 A 
HETATM    8  C2  UNL     1      16.895   4.802  13.546  1.00  0.00     0.107 A 
HETATM    9  C1  UNL     1      15.901   4.460  14.480  1.00  0.00     0.265 A 
HETATM   10  O1  UNL     1      14.906   5.192  14.651  1.00  0.00    -0.267 OA
HETATM   11  N6  UNL     1      15.974   3.336  15.223  1.00  0.00    -0.243 N 
HETATM   12  N5  UNL     1      17.025   2.556  15.044  1.00  0.00    -0.237 N 
HETATM   13  N4  UNL     1      17.982   2.852  14.171  1.00  0.00    -0.285 N 
ATOM     14  H5  UNL     1      17.104   1.701  15.593  1.00  0.00     0.208 HD
ATOM     15  H4  UNL     1      18.772   2.214  14.074  1.00  0.00     0.188 HD
BRANCH  11  16
HETATM   16  C16 UNL     1      14.936   3.014  16.169  1.00  0.00     0.156 C 
BRANCH  16  17
HETATM   17  C17 UNL     1      15.435   2.092  17.288  1.00  0.00     0.051 C 
BRANCH  17  18
HETATM   18  C18 UNL     1      14.653   0.787  17.193  1.00  0.00     0.211 C 
BRANCH  18  19
HETATM   19  O5  UNL     1      15.553  -0.283  17.100  1.00  0.00    -0.243 OA
BRANCH  19  20
HETATM   20  O6  UNL     1      16.288  -0.182  16.007  1.00  0.00    -0.251 OA
ATOM     21  H6  UNL     1      16.812  -0.964  15.881  1.00  0.00     0.253 HD
ENDBRANCH  19  20
ENDBRANCH  18  19
ENDBRANCH  17  18
ENDBRANCH  16  17
ENDBRANCH  11  16
ENDBRANCH   1   7
BRANCH   5  22
HETATM   22  N3  UNL     1      22.057   6.310  12.214  1.00  0.00    -0.113 N 
HETATM   23  O3  UNL     1      21.740   7.529  12.353  1.00  0.00    -0.532 OA
HETATM   24  O4  UNL     1      23.335   5.974  12.408  1.00  0.00    -0.532 OA
ENDBRANCH   5  22
BRANCH   4  25
HETATM   25  N1  UNL     1      22.155   4.842   9.748  1.00  0.00    -0.376 N 
HETATM   26  C8  UNL     1      22.169   6.012   8.927  1.00  0.00     0.142 C 
HETATM   27  C9  UNL     1      22.974   5.927   7.680  1.00  0.00     0.136 C 
HETATM   28  N2  UNL     1      24.077   5.035   7.680  1.00  0.00    -0.407 N 
HETATM   29  C12 UNL     1      24.368   4.355   8.887  1.00  0.00     0.136 C 
HETATM   30  C13 UNL     1      23.186   3.861   9.646  1.00  0.00     0.142 C 
BRANCH  28  31
HETATM   31  C10 UNL     1      24.245   4.248   6.502  1.00  0.00     0.143 C 
BRANCH  31  32
HETATM   32  C11 UNL     1      22.954   3.981   5.776  1.00  0.00     0.183 C 
BRANCH  32  33
HETATM   33  O2  UNL     1      22.327   2.864   6.300  1.00  0.00    -0.399 OA
ATOM     34  H2  UNL     1      21.723   2.494   5.666  1.00  0.00     0.209 HD
ENDBRANCH  32  33
ENDBRANCH  31  32
ENDBRANCH  28  31
ENDBRANCH   4  25
TORSDOF 11
ENDMDL
MODEL 4
REMARK VINA RESULT: -6.883678595      1.820      2.223
REMARK  11 active torsions:
REMARK  status: ('A' for Active; 'I' for Inactive)
REMARK    1  A    between atoms: C3_4  and  C4_5 
REMARK    2  A    between atoms: C7_8  and  N1_9 
REMARK    3  A    between atoms: N2_12  and  C10_13 
REMARK    4  A    between atoms: C10_13  and  C11_14 
REMARK    5  A    between atoms: C11_14  and  O2_15 
REMARK    6  A    between atoms: C14_19  and  N3_20 
REMARK    7  A    between atoms: N6_28  and  C16_29 
REMARK    8  A    between atoms: C16_29  and  C17_30 
REMARK    9  A    between atoms: C17_30  and  C18_31 
REMARK   10  A    between atoms: C18_31  and  O5_32 
REMARK   11  A    between atoms: O5_32  and  O6_33 
ROOT
HETATM    1  C4  UNL     1      15.818   6.293  10.408  1.00  0.00    -0.005 A 
HETATM    2  C5  UNL     1      15.746   5.186   9.592  1.00  0.00     0.016 A 
HETATM    3  C6  UNL     1      16.277   3.990  10.008  1.00  0.00     0.033 A 
HETATM    4  C7  UNL     1      16.887   3.899  11.254  1.00  0.00     0.063 A 
HETATM    5  C14 UNL     1      16.962   4.981  12.057  1.00  0.00     0.130 A 
HETATM    6  C15 UNL     1      16.418   6.203  11.634  1.00  0.00     0.052 A 
ENDROOT
BRANCH   1   7
HETATM    7  C3  UNL     1      15.245   7.576   9.961  1.00  0.00     0.065 A 
HETATM    8  C2  UNL     1      15.581   8.756  10.541  1.00  0.00     0.107 A 
HETATM    9  C1  UNL     1      14.982   9.922  10.032  1.00  0.00     0.265 A 
HETATM   10  O1  UNL     1      15.247  11.040  10.518  1.00  0.00    -0.267 OA
HETATM   11  N6  UNL     1      14.106   9.888   9.006  1.00  0.00    -0.243 N 
HETATM   12  N5  UNL     1      13.824   8.706   8.488  1.00  0.00    -0.237 N 
HETATM   13  N4  UNL     1      14.372   7.586   8.947  1.00  0.00    -0.285 N 
ATOM     14  H5  UNL     1      13.165   8.652   7.712  1.00  0.00     0.208 HD
ATOM     15  H4  UNL     1      14.118   6.700   8.510  1.00  0.00     0.188 HD
BRANCH  11  16
HETATM   16  C16 UNL     1      13.513  11.102   8.508  1.00  0.00     0.156 C 
BRANCH  16  17
HETATM   17  C17 UNL     1      12.828  10.900   7.152  1.00  0.00     0.051 C 
BRANCH  17  18
HETATM   18  C18 UNL     1      11.322  10.955   7.383  1.00  0.00     0.211 C 
BRANCH  18  19
HETATM   19  O5  UNL     1      10.841   9.654   7.594  1.00  0.00    -0.243 OA
BRANCH  19  20
HETATM   20  O6  UNL     1       9.527   9.659   7.731  1.00  0.00    -0.251 OA
ATOM     21  H6  UNL     1       9.183   8.775   7.696  1.00  0.00     0.253 HD
ENDBRANCH  19  20
ENDBRANCH  18  19
ENDBRANCH  17  18
ENDBRANCH  16  17
ENDBRANCH  11  16
ENDBRANCH   1   7
BRANCH   5  22
HETATM   22  N3  UNL     1      17.592   4.930  13.332  1.00  0.00    -0.113 N 
HETATM   23  O3  UNL     1      16.897   4.737  14.373  1.00  0.00    -0.532 OA
HETATM   24  O4  UNL     1      18.910   5.080  13.483  1.00  0.00    -0.532 OA
ENDBRANCH   5  22
BRANCH   4  25
HETATM   25  N1  UNL     1      17.364   2.616  11.646  1.00  0.00    -0.376 N 
HETATM   26  C8  UNL     1      18.694   2.246  11.276  1.00  0.00     0.142 C 
HETATM   27  C9  UNL     1      18.993   0.790  11.277  1.00  0.00     0.136 C 
HETATM   28  N2  UNL     1      18.238  -0.026  12.158  1.00  0.00    -0.407 N 
HETATM   29  C12 UNL     1      17.315   0.617  13.018  1.00  0.00     0.136 C 
HETATM   30  C13 UNL     1      16.541   1.733  12.407  1.00  0.00     0.142 C 
BRANCH  28  31
HETATM   31  C10 UNL     1      17.781  -1.268  11.623  1.00  0.00     0.143 C 
BRANCH  31  32
HETATM   32  C11 UNL     1      18.885  -2.271  11.422  1.00  0.00     0.183 C 
BRANCH  32  33
HETATM   33  O2  UNL     1      18.391  -3.560  11.526  1.00  0.00    -0.399 OA
ATOM     34  H2  UNL     1      18.499  -3.885  12.412  1.00  0.00     0.209 HD
ENDBRANCH  32  33
ENDBRANCH  31  32
ENDBRANCH  28  31
ENDBRANCH   4  25
TORSDOF 11
ENDMDL
MODEL 5
REMARK VINA RESULT: -6.882032588      6.310      8.781
REMARK  11 active torsions:
REMARK  status: ('A' for Active; 'I' for Inactive)
REMARK    1  A    between atoms: C3_4  and  C4_5 
REMARK    2  A    between atoms: C7_8  and  N1_9 
REMARK    3  A    between atoms: N2_12  and  C10_13 
REMARK    4  A    between atoms: C10_13  and  C11_14 
REMARK    5  A    between atoms: C11_14  and  O2_15 
REMARK    6  A    between atoms: C14_19  and  N3_20 
REMARK    7  A    between atoms: N6_28  and  C16_29 
REMARK    8  A    between atoms: C16_29  and  C17_30 
REMARK    9  A    between atoms: C17_30  and  C18_31 
REMARK   10  A    between atoms: C18_31  and  O5_32 
REMARK   11  A    between atoms: O5_32  and  O6_33 
ROOT
HETATM    1  C4  UNL     1      19.167   4.560  13.112  1.00  0.00    -0.005 A 
HETATM    2  C5  UNL     1      19.988   5.571  13.558  1.00  0.00     0.016 A 
HETATM    3  C6  UNL     1      21.097   5.927  12.830  1.00  0.00     0.033 A 
HETATM    4  C7  UNL     1      21.389   5.264  11.644  1.00  0.00     0.063 A 
HETATM    5  C14 UNL     1      20.589   4.270  11.202  1.00  0.00     0.130 A 
HETATM    6  C15 UNL     1      19.455   3.907  11.944  1.00  0.00     0.052 A 
ENDROOT
BRANCH   1   7
HETATM    7  C3  UNL     1      17.975   4.180  13.892  1.00  0.00     0.065 A 
HETATM    8  C2  UNL     1      16.862   4.955  13.931  1.00  0.00     0.107 A 
HETATM    9  C1  UNL     1      15.778   4.495  14.700  1.00  0.00     0.265 A 
HETATM   10  O1  UNL     1      14.724   5.158  14.778  1.00  0.00    -0.267 OA
HETATM   11  N6  UNL     1      15.826   3.330  15.379  1.00  0.00    -0.243 N 
HETATM   12  N5  UNL     1      16.939   2.625  15.297  1.00  0.00    -0.237 N 
HETATM   13  N4  UNL     1      17.981   3.032  14.580  1.00  0.00    -0.285 N 
ATOM     14  H5  UNL     1      17.001   1.740  15.801  1.00  0.00     0.208 HD
ATOM     15  H4  UNL     1      18.817   2.448  14.553  1.00  0.00     0.188 HD
BRANCH  11  16
HETATM   16  C16 UNL     1      14.696   2.888  16.155  1.00  0.00     0.156 C 
BRANCH  16  17
HETATM   17  C17 UNL     1      15.117   2.280  17.498  1.00  0.00     0.051 C 
BRANCH  17  18
HETATM   18  C18 UNL     1      15.122   0.764  17.336  1.00  0.00     0.211 C 
BRANCH  18  19
HETATM   19  O5  UNL     1      16.411   0.344  16.976  1.00  0.00    -0.243 OA
BRANCH  19  20
HETATM   20  O6  UNL     1      16.404  -0.205  15.774  1.00  0.00    -0.251 OA
ATOM     21  H6  UNL     1      17.254  -0.579  15.572  1.00  0.00     0.253 HD
ENDBRANCH  19  20
ENDBRANCH  18  19
ENDBRANCH  17  18
ENDBRANCH  16  17
ENDBRANCH  11  16
ENDBRANCH   1   7
BRANCH   5  22
HETATM   22  N3  UNL     1      20.864   3.559  10.001  1.00  0.00    -0.113 N 
HETATM   23  O3  UNL     1      20.877   4.172   8.893  1.00  0.00    -0.532 OA
HETATM   24  O4  UNL     1      21.114   2.248   9.990  1.00  0.00    -0.532 OA
ENDBRANCH   5  22
BRANCH   4  25
HETATM   25  N1  UNL     1      22.520   5.723  10.911  1.00  0.00    -0.376 N 
HETATM   26  C8  UNL     1      22.408   6.956  10.196  1.00  0.00     0.142 C 
HETATM   27  C9  UNL     1      23.390   7.168   9.100  1.00  0.00     0.136 C 
HETATM   28  N2  UNL     1      24.645   6.517   9.218  1.00  0.00    -0.407 N 
HETATM   29  C12 UNL     1      24.890   5.779  10.401  1.00  0.00     0.136 C 
HETATM   30  C13 UNL     1      23.739   4.982  10.910  1.00  0.00     0.142 C 
BRANCH  28  31
HETATM   31  C10 UNL     1      25.150   5.912   8.028  1.00  0.00     0.143 C 
BRANCH  31  32
HETATM   32  C11 UNL     1      24.068   5.424   7.103  1.00  0.00     0.183 C 
BRANCH  32  33
HETATM   33  O2  UNL     1      23.630   4.170   7.490  1.00  0.00    -0.399 OA
ATOM     34  H2  UNL     1      24.274   3.752   8.051  1.00  0.00     0.209 HD
ENDBRANCH  32  33
ENDBRANCH  31  32
ENDBRANCH  28  31
ENDBRANCH   4  25
TORSDOF 11
ENDMDL
