MODEL 1
REMARK VINA RESULT: -7.763032827      0.000      0.000
REMARK  10 active torsions:
REMARK  status: ('A' for Active; 'I' for Inactive)
REMARK    1  A    between atoms: O1_2  and  C2_3 
REMARK    2  A    between atoms: C2_3  and  C3_4 
REMARK    3  A    between atoms: N4_11  and  C4_12 
REMARK    4  A    between atoms: C4_12  and  C5_13 
REMARK    5  A    between atoms: C5_13  and  N5_14 
REMARK    6  A    between atoms: N6_17  and  C8_18 
REMARK    7  A    between atoms: C8_18  and  C9_19 
REMARK    8  A    between atoms: C10_20  and  C11_21 
REMARK    9  A    between atoms: C11_21  and  N7_22 
REMARK   10  A    between atoms: C12_23  and  O2_24 
ROOT
HETATM    1  N5  UNL     1      15.994   2.397   8.668  1.00  0.00    -0.331 N 
HETATM    2  C6  UNL     1      16.347   3.340   7.597  1.00  0.00     0.147 C 
HETATM    3  C7  UNL     1      16.975   4.455   8.417  1.00  0.00     0.148 C 
HETATM    4  N6  UNL     1      16.034   4.559   9.516  1.00  0.00    -0.329 N 
HETATM    5  C19 UNL     1      15.557   3.243   9.746  1.00  0.00     0.320 C 
HETATM    6  O4  UNL     1      14.876   2.867  10.713  1.00  0.00    -0.247 OA
ENDROOT
BRANCH   4   7
HETATM    7  C8  UNL     1      15.665   5.745  10.219  1.00  0.00     0.154 C 
BRANCH   7   8
HETATM    8  C9  UNL     1      16.222   5.849  11.574  1.00  0.00    -0.009 C 
HETATM    9  C10 UNL     1      16.856   4.853  12.181  1.00  0.00    -0.009 C 
BRANCH   9  10
HETATM   10  C11 UNL     1      17.423   4.923  13.528  1.00  0.00     0.163 C 
BRANCH  10  11
HETATM   11  N7  UNL     1      16.784   4.039  14.475  1.00  0.00    -0.274 N 
HETATM   12  C12 UNL     1      15.537   4.156  14.956  1.00  0.00     0.174 A 
HETATM   13  C13 UNL     1      15.280   3.111  15.847  1.00  0.00     0.094 A 
HETATM   14  C14 UNL     1      14.196   2.757  16.604  1.00  0.00     0.034 A 
HETATM   15  N8  UNL     1      16.411   2.384  15.872  1.00  0.00    -0.270 N 
HETATM   16  C15 UNL     1      14.229   1.649  17.410  1.00  0.00     0.004 A 
HETATM   17  C16 UNL     1      15.380   0.904  17.439  1.00  0.00     0.018 A 
HETATM   18  C17 UNL     1      16.442   1.289  16.669  1.00  0.00     0.102 A 
HETATM   19  C18 UNL     1      17.312   2.943  15.047  1.00  0.00     0.335 A 
HETATM   20  O3  UNL     1      18.473   2.458  14.878  1.00  0.00    -0.246 OA
BRANCH  12  21
HETATM   21  O2  UNL     1      14.598   5.126  14.664  1.00  0.00    -0.344 OA
ATOM     22  H2  UNL     1      13.734   5.012  14.286  1.00  0.00     0.219 HD
ENDBRANCH  12  21
ENDBRANCH  10  11
ENDBRANCH   9  10
ENDBRANCH   7   8
ENDBRANCH   4   7
BRANCH   1  23
HETATM   23  C5  UNL     1      16.101   0.985   8.599  1.00  0.00     0.149 C 
BRANCH  23  24
HETATM   24  C4  UNL     1      17.300   0.348   9.191  1.00  0.00     0.172 C 
BRANCH  24  25
HETATM   25  N4  UNL     1      17.464   0.480  10.601  1.00  0.00    -0.260 N 
HETATM   26  C3  UNL     1      18.564   0.921  11.224  1.00  0.00     0.139 A 
HETATM   27  N1  UNL     1      18.287   0.903  12.561  1.00  0.00    -0.270 N 
HETATM   28  N2  UNL     1      17.071   0.469  12.750  1.00  0.00    -0.227 N 
ATOM     29  H1  UNL     1      18.932   1.186  13.300  1.00  0.00     0.190 HD
HETATM   30  N3  UNL     1      16.583   0.215  11.547  1.00  0.00    -0.224 N 
ATOM     31  H2  UNL     1      16.594   0.350  13.643  1.00  0.00     0.210 HD
ATOM     32  H3  UNL     1      15.643  -0.141  11.373  1.00  0.00     0.210 HD
BRANCH  26  33
HETATM   33  C2  UNL     1      19.865   1.346  10.704  1.00  0.00     0.246 C 
BRANCH  33  34
HETATM   34  O1  UNL     1      19.933   2.640  10.263  1.00  0.00    -0.389 OA
HETATM   35  C1  UNL     1      20.381   3.574  11.154  1.00  0.00     0.202 C 
ENDBRANCH  33  34
ENDBRANCH  26  33
ENDBRANCH  24  25
ENDBRANCH  23  24
ENDBRANCH   1  23
TORSDOF 10
ENDMDL
MODEL 2
REMARK VINA RESULT: -7.603151266      0.609      1.643
REMARK  10 active torsions:
REMARK  status: ('A' for Active; 'I' for Inactive)
REMARK    1  A    between atoms: O1_2  and  C2_3 
REMARK    2  A    between atoms: C2_3  and  C3_4 
REMARK    3  A    between atoms: N4_11  and  C4_12 
REMARK    4  A    between atoms: C4_12  and  C5_13 
REMARK    5  A    between atoms: C5_13  and  N5_14 
REMARK    6  A    between atoms: N6_17  and  C8_18 
REMARK    7  A    between atoms: C8_18  and  C9_19 
REMARK    8  A    between atoms: C10_20  and  C11_21 
REMARK    9  A    between atoms: C11_21  and  N7_22 
REMARK   10  A    between atoms: C12_23  and  O2_24 
ROOT
HETATM    1  N5  UNL     1      16.010   2.376   8.673  1.00  0.00    -0.331 N 
HETATM    2  C6  UNL     1      16.331   3.235   7.524  1.00  0.00     0.147 C 
HETATM    3  C7  UNL     1      16.881   4.454   8.245  1.00  0.00     0.148 C 
HETATM    4  N6  UNL     1      15.915   4.606   9.316  1.00  0.00    -0.329 N 
HETATM    5  C19 UNL     1      15.506   3.293   9.661  1.00  0.00     0.320 C 
HETATM    6  O4  UNL     1      14.828   2.969  10.649  1.00  0.00    -0.247 OA
ENDROOT
BRANCH   4   7
HETATM    7  C8  UNL     1      15.467   5.830   9.900  1.00  0.00     0.154 C 
BRANCH   7   8
HETATM    8  C9  UNL     1      15.901   6.038  11.286  1.00  0.00    -0.009 C 
HETATM    9  C10 UNL     1      16.887   5.353  11.855  1.00  0.00    -0.009 C 
BRANCH   9  10
HETATM   10  C11 UNL     1      17.344   5.535  13.232  1.00  0.00     0.163 C 
BRANCH  10  11
HETATM   11  N7  UNL     1      16.796   4.573  14.159  1.00  0.00    -0.274 N 
HETATM   12  C12 UNL     1      17.395   3.451  14.586  1.00  0.00     0.174 A 
HETATM   13  C13 UNL     1      16.552   2.782  15.477  1.00  0.00     0.094 A 
HETATM   14  C14 UNL     1      16.658   1.618  16.190  1.00  0.00     0.034 A 
HETATM   15  N8  UNL     1      15.447   3.544  15.556  1.00  0.00    -0.270 N 
HETATM   16  C15 UNL     1      15.644   1.195  17.008  1.00  0.00     0.004 A 
HETATM   17  C16 UNL     1      14.515   1.969  17.092  1.00  0.00     0.018 A 
HETATM   18  C17 UNL     1      14.444   3.124  16.364  1.00  0.00     0.102 A 
HETATM   19  C18 UNL     1      15.596   4.619  14.764  1.00  0.00     0.335 A 
HETATM   20  O3  UNL     1      14.699   5.510  14.648  1.00  0.00    -0.246 OA
BRANCH  12  21
HETATM   21  O2  UNL     1      18.644   2.967  14.246  1.00  0.00    -0.344 OA
ATOM     22  H2  UNL     1      19.457   3.451  14.162  1.00  0.00     0.219 HD
ENDBRANCH  12  21
ENDBRANCH  10  11
ENDBRANCH   9  10
ENDBRANCH   7   8
ENDBRANCH   4   7
BRANCH   1  23
HETATM   23  C5  UNL     1      16.196   0.972   8.738  1.00  0.00     0.149 C 
BRANCH  23  24
HETATM   24  C4  UNL     1      17.475   0.464   9.284  1.00  0.00     0.172 C 
BRANCH  24  25
HETATM   25  N4  UNL     1      17.587   0.408  10.705  1.00  0.00    -0.260 N 
HETATM   26  C3  UNL     1      18.618   0.859  11.428  1.00  0.00     0.139 A 
HETATM   27  N1  UNL     1      18.308   0.624  12.738  1.00  0.00    -0.270 N 
HETATM   28  N2  UNL     1      17.138   0.052  12.813  1.00  0.00    -0.227 N 
ATOM     29  H1  UNL     1      18.901   0.859  13.535  1.00  0.00     0.190 HD
HETATM   30  N3  UNL     1      16.712  -0.073  11.568  1.00  0.00    -0.224 N 
ATOM     31  H2  UNL     1      16.652  -0.240  13.661  1.00  0.00     0.210 HD
ATOM     32  H3  UNL     1      15.817  -0.490  11.307  1.00  0.00     0.210 HD
BRANCH  26  33
HETATM   33  C2  UNL     1      19.883   1.478  11.027  1.00  0.00     0.246 C 
BRANCH  33  34
HETATM   34  O1  UNL     1      20.373   2.431  11.878  1.00  0.00    -0.389 OA
HETATM   35  C1  UNL     1      20.487   3.701  11.387  1.00  0.00     0.202 C 
ENDBRANCH  33  34
ENDBRANCH  26  33
ENDBRANCH  24  25
ENDBRANCH  23  24
ENDBRANCH   1  23
TORSDOF 10
ENDMDL
MODEL 3
REMARK VINA RESULT: -7.575550956      1.513      2.539
REMARK  10 active torsions:
REMARK  status: ('A' for Active; 'I' for Inactive)
REMARK    1  A    between atoms: O1_2  and  C2_3 
REMARK    2  A    between atoms: C2_3  and  C3_4 
REMARK    3  A    between atoms: N4_11  and  C4_12 
REMARK    4  A    between atoms: C4_12  and  C5_13 
REMARK    5  A    between atoms: C5_13  and  N5_14 
REMARK    6  A    between atoms: N6_17  and  C8_18 
REMARK    7  A    between atoms: C8_18  and  C9_19 
REMARK    8  A    between atoms: C10_20  and  C11_21 
REMARK    9  A    between atoms: C11_21  and  N7_22 
REMARK   10  A    between atoms: C12_23  and  O2_24 
ROOT
HETATM    1  N5  UNL     1      16.018   2.351   8.902  1.00  0.00    -0.331 N 
HETATM    2  C6  UNL     1      16.101   3.031   7.601  1.00  0.00     0.147 C 
HETATM    3  C7  UNL     1      16.810   4.311   8.012  1.00  0.00     0.148 C 
HETATM    4  N6  UNL     1      16.097   4.650   9.228  1.00  0.00    -0.329 N 
HETATM    5  C19 UNL     1      15.751   3.415   9.834  1.00  0.00     0.320 C 
HETATM    6  O4  UNL     1      15.294   3.259  10.977  1.00  0.00    -0.247 OA
ENDROOT
BRANCH   4   7
HETATM    7  C8  UNL     1      15.803   5.960   9.713  1.00  0.00     0.154 C 
BRANCH   7   8
HETATM    8  C9  UNL     1      16.028   6.142  11.152  1.00  0.00    -0.009 C 
HETATM    9  C10 UNL     1      17.232   6.125  11.711  1.00  0.00    -0.009 C 
BRANCH   9  10
HETATM   10  C11 UNL     1      17.491   6.304  13.140  1.00  0.00     0.163 C 
BRANCH  10  11
HETATM   11  N7  UNL     1      17.123   5.163  13.945  1.00  0.00    -0.274 N 
HETATM   12  C12 UNL     1      17.932   4.159  14.319  1.00  0.00     0.174 A 
HETATM   13  C13 UNL     1      17.212   3.243  15.091  1.00  0.00     0.094 A 
HETATM   14  C14 UNL     1      17.536   2.067  15.712  1.00  0.00     0.034 A 
HETATM   15  N8  UNL     1      15.965   3.740  15.156  1.00  0.00    -0.270 N 
HETATM   16  C15 UNL     1      16.601   1.360  16.420  1.00  0.00     0.004 A 
HETATM   17  C16 UNL     1      15.326   1.863  16.489  1.00  0.00     0.018 A 
HETATM   18  C17 UNL     1      15.040   3.040  15.856  1.00  0.00     0.102 A 
HETATM   19  C18 UNL     1      15.913   4.893  14.467  1.00  0.00     0.335 A 
HETATM   20  O3  UNL     1      14.850   5.578  14.364  1.00  0.00    -0.246 OA
BRANCH  12  21
HETATM   21  O2  UNL     1      19.271   3.989  14.026  1.00  0.00    -0.344 OA
ATOM     22  H2  UNL     1      19.983   4.603  14.158  1.00  0.00     0.219 HD
ENDBRANCH  12  21
ENDBRANCH  10  11
ENDBRANCH   9  10
ENDBRANCH   7   8
ENDBRANCH   4   7
BRANCH   1  23
HETATM   23  C5  UNL     1      16.193   0.962   9.125  1.00  0.00     0.149 C 
BRANCH  23  24
HETATM   24  C4  UNL     1      17.566   0.461   9.364  1.00  0.00     0.172 C 
BRANCH  24  25
HETATM   25  N4  UNL     1      18.260   1.006  10.485  1.00  0.00    -0.260 N 
HETATM   26  C3  UNL     1      18.129   0.607  11.756  1.00  0.00     0.139 A 
HETATM   27  N1  UNL     1      18.982   1.378  12.494  1.00  0.00    -0.270 N 
HETATM   28  N2  UNL     1      19.607   2.212  11.710  1.00  0.00    -0.227 N 
ATOM     29  H1  UNL     1      19.111   1.311  13.504  1.00  0.00     0.190 HD
HETATM   30  N3  UNL     1      19.157   1.974  10.490  1.00  0.00    -0.224 N 
ATOM     31  H2  UNL     1      20.301   2.907  11.983  1.00  0.00     0.210 HD
ATOM     32  H3  UNL     1      19.464   2.476   9.656  1.00  0.00     0.210 HD
BRANCH  26  33
HETATM   33  C2  UNL     1      17.275  -0.413  12.367  1.00  0.00     0.246 C 
BRANCH  33  34
HETATM   34  O1  UNL     1      17.370  -1.667  11.827  1.00  0.00    -0.389 OA
HETATM   35  C1  UNL     1      18.629  -2.149  11.600  1.00  0.00     0.202 C 
ENDBRANCH  33  34
ENDBRANCH  26  33
ENDBRANCH  24  25
ENDBRANCH  23  24
ENDBRANCH   1  23
TORSDOF 10
ENDMDL
MODEL 4
REMARK VINA RESULT: -7.522768354      1.501      2.005
REMARK  10 active torsions:
REMARK  status: ('A' for Active; 'I' for Inactive)
REMARK    1  A    between atoms: O1_2  and  C2_3 
REMARK    2  A    between atoms: C2_3  and  C3_4 
REMARK    3  A    between atoms: N4_11  and  C4_12 
REMARK    4  A    between atoms: C4_12  and  C5_13 
REMARK    5  A    between atoms: C5_13  and  N5_14 
REMARK    6  A    between atoms: N6_17  and  C8_18 
REMARK    7  A    between atoms: C8_18  and  C9_19 
REMARK    8  A    between atoms: C10_20  and  C11_21 
REMARK    9  A    between atoms: C11_21  and  N7_22 
REMARK   10  A    between atoms: C12_23  and  O2_24 
ROOT
HETATM    1  N5  UNL     1      16.056   2.400   8.895  1.00  0.00    -0.331 N 
HETATM    2  C6  UNL     1      16.151   3.106   7.609  1.00  0.00     0.147 C 
HETATM    3  C7  UNL     1      16.849   4.381   8.054  1.00  0.00     0.148 C 
HETATM    4  N6  UNL     1      16.118   4.692   9.267  1.00  0.00    -0.329 N 
HETATM    5  C19 UNL     1      15.771   3.444   9.844  1.00  0.00     0.320 C 
HETATM    6  O4  UNL     1      15.300   3.263  10.978  1.00  0.00    -0.247 OA
ENDROOT
BRANCH   4   7
HETATM    7  C8  UNL     1      15.811   5.991   9.774  1.00  0.00     0.154 C 
BRANCH   7   8
HETATM    8  C9  UNL     1      16.054   6.157  11.212  1.00  0.00    -0.009 C 
HETATM    9  C10 UNL     1      17.264   6.117  11.758  1.00  0.00    -0.009 C 
BRANCH   9  10
HETATM   10  C11 UNL     1      17.542   6.280  13.185  1.00  0.00     0.163 C 
BRANCH  10  11
HETATM   11  N7  UNL     1      17.158   5.141  13.986  1.00  0.00    -0.274 N 
HETATM   12  C12 UNL     1      15.937   4.896  14.486  1.00  0.00     0.174 A 
HETATM   13  C13 UNL     1      15.959   3.698  15.204  1.00  0.00     0.094 A 
HETATM   14  C14 UNL     1      15.015   2.995  15.903  1.00  0.00     0.034 A 
HETATM   15  N8  UNL     1      17.224   3.253  15.109  1.00  0.00    -0.270 N 
HETATM   16  C15 UNL     1      15.329   1.816  16.526  1.00  0.00     0.004 A 
HETATM   17  C16 UNL     1      16.618   1.358  16.432  1.00  0.00     0.018 A 
HETATM   18  C17 UNL     1      17.534   2.088  15.726  1.00  0.00     0.102 A 
HETATM   19  C18 UNL     1      17.942   4.121  14.377  1.00  0.00     0.335 A 
HETATM   20  O3  UNL     1      19.174   3.946  14.128  1.00  0.00    -0.246 OA
BRANCH  12  21
HETATM   21  O2  UNL     1      14.792   5.658  14.354  1.00  0.00    -0.344 OA
ATOM     22  H2  UNL     1      14.700   6.599  14.443  1.00  0.00     0.219 HD
ENDBRANCH  12  21
ENDBRANCH  10  11
ENDBRANCH   9  10
ENDBRANCH   7   8
ENDBRANCH   4   7
BRANCH   1  23
HETATM   23  C5  UNL     1      16.234   1.007   9.093  1.00  0.00     0.149 C 
BRANCH  23  24
HETATM   24  C4  UNL     1      17.606   0.510   9.347  1.00  0.00     0.172 C 
BRANCH  24  25
HETATM   25  N4  UNL     1      18.283   1.050  10.480  1.00  0.00    -0.260 N 
HETATM   26  C3  UNL     1      18.121   0.658  11.749  1.00  0.00     0.139 A 
HETATM   27  N1  UNL     1      18.969   1.420  12.502  1.00  0.00    -0.270 N 
HETATM   28  N2  UNL     1      19.620   2.244  11.728  1.00  0.00    -0.227 N 
ATOM     29  H1  UNL     1      19.076   1.356  13.515  1.00  0.00     0.190 HD
HETATM   30  N3  UNL     1      19.192   2.006  10.500  1.00  0.00    -0.224 N 
ATOM     31  H2  UNL     1      20.318   2.931  12.013  1.00  0.00     0.210 HD
ATOM     32  H3  UNL     1      19.523   2.501   9.671  1.00  0.00     0.210 HD
BRANCH  26  33
HETATM   33  C2  UNL     1      17.241  -0.349  12.346  1.00  0.00     0.246 C 
BRANCH  33  34
HETATM   34  O1  UNL     1      17.376  -1.619  11.856  1.00  0.00    -0.389 OA
HETATM   35  C1  UNL     1      18.645  -2.044  11.577  1.00  0.00     0.202 C 
ENDBRANCH  33  34
ENDBRANCH  26  33
ENDBRANCH  24  25
ENDBRANCH  23  24
ENDBRANCH   1  23
TORSDOF 10
ENDMDL
MODEL 5
REMARK VINA RESULT: -7.519697626      2.539      6.226
REMARK  10 active torsions:
REMARK  status: ('A' for Active; 'I' for Inactive)
REMARK    1  A    between atoms: O1_2  and  C2_3 
REMARK    2  A    between atoms: C2_3  and  C3_4 
REMARK    3  A    between atoms: N4_11  and  C4_12 
REMARK    4  A    between atoms: C4_12  and  C5_13 
REMARK    5  A    between atoms: C5_13  and  N5_14 
REMARK    6  A    between atoms: N6_17  and  C8_18 
REMARK    7  A    between atoms: C8_18  and  C9_19 
REMARK    8  A    between atoms: C10_20  and  C11_21 
REMARK    9  A    between atoms: C11_21  and  N7_22 
REMARK   10  A    between atoms: C12_23  and  O2_24 
ROOT
HETATM    1  N5  UNL     1      16.770   1.163  11.896  1.00  0.00    -0.331 N 
HETATM    2  C6  UNL     1      17.519   0.029  11.336  1.00  0.00     0.147 C 
HETATM    3  C7  UNL     1      17.737   0.527   9.917  1.00  0.00     0.148 C 
HETATM    4  N6  UNL     1      16.425   1.060   9.602  1.00  0.00    -0.329 N 
HETATM    5  C19 UNL     1      15.915   1.582  10.818  1.00  0.00     0.320 C 
HETATM    6  O4  UNL     1      14.901   2.285  10.948  1.00  0.00    -0.247 OA
ENDROOT
BRANCH   4   7
HETATM    7  C8  UNL     1      15.781   1.057   8.327  1.00  0.00     0.154 C 
BRANCH   7   8
HETATM    8  C9  UNL     1      15.951   2.293   7.555  1.00  0.00    -0.009 C 
HETATM    9  C10 UNL     1      16.351   3.441   8.092  1.00  0.00    -0.009 C 
BRANCH   9  10
HETATM   10  C11 UNL     1      16.532   4.690   7.352  1.00  0.00     0.163 C 
BRANCH  10  11
HETATM   11  N7  UNL     1      16.117   5.864   8.084  1.00  0.00    -0.274 N 
HETATM   12  C12 UNL     1      15.737   5.906   9.370  1.00  0.00     0.174 A 
HETATM   13  C13 UNL     1      15.411   7.219   9.717  1.00  0.00     0.094 A 
HETATM   14  C14 UNL     1      14.973   7.814  10.871  1.00  0.00     0.034 A 
HETATM   15  N8  UNL     1      15.611   7.940   8.600  1.00  0.00    -0.270 N 
HETATM   16  C15 UNL     1      14.727   9.160  10.922  1.00  0.00     0.004 A 
HETATM   17  C16 UNL     1      14.929   9.900   9.785  1.00  0.00     0.018 A 
HETATM   18  C17 UNL     1      15.367   9.271   8.652  1.00  0.00     0.102 A 
HETATM   19  C18 UNL     1      16.035   7.123   7.620  1.00  0.00     0.335 A 
HETATM   20  O3  UNL     1      16.302   7.542   6.452  1.00  0.00    -0.246 OA
BRANCH  12  21
HETATM   21  O2  UNL     1      15.656   4.861  10.270  1.00  0.00    -0.344 OA
ATOM     22  H2  UNL     1      16.089   4.776  11.111  1.00  0.00     0.219 HD
ENDBRANCH  12  21
ENDBRANCH  10  11
ENDBRANCH   9  10
ENDBRANCH   7   8
ENDBRANCH   4   7
BRANCH   1  23
HETATM   23  C5  UNL     1      16.917   1.689  13.205  1.00  0.00     0.149 C 
BRANCH  23  24
HETATM   24  C4  UNL     1      16.998   3.160  13.359  1.00  0.00     0.172 C 
BRANCH  24  25
HETATM   25  N4  UNL     1      18.288   3.705  13.630  1.00  0.00    -0.260 N 
HETATM   26  C3  UNL     1      19.253   3.921  12.729  1.00  0.00     0.139 A 
HETATM   27  N1  UNL     1      20.306   4.465  13.408  1.00  0.00    -0.270 N 
HETATM   28  N2  UNL     1      19.999   4.576  14.671  1.00  0.00    -0.227 N 
ATOM     29  H1  UNL     1      21.195   4.742  12.992  1.00  0.00     0.190 HD
HETATM   30  N3  UNL     1      18.768   4.110  14.791  1.00  0.00    -0.224 N 
ATOM     31  H2  UNL     1      20.590   4.947  15.415  1.00  0.00     0.210 HD
ATOM     32  H3  UNL     1      18.254   4.067  15.672  1.00  0.00     0.210 HD
BRANCH  26  33
HETATM   33  C2  UNL     1      19.308   3.658  11.289  1.00  0.00     0.246 C 
BRANCH  33  34
HETATM   34  O1  UNL     1      18.654   4.561  10.496  1.00  0.00    -0.389 OA
HETATM   35  C1  UNL     1      19.428   5.443   9.795  1.00  0.00     0.202 C 
ENDBRANCH  33  34
ENDBRANCH  26  33
ENDBRANCH  24  25
ENDBRANCH  23  24
ENDBRANCH   1  23
TORSDOF 10
ENDMDL
