MODEL 1
REMARK VINA RESULT: -6.379231999      0.000      0.000
REMARK  8 active torsions:
REMARK  status: ('A' for Active; 'I' for Inactive)
REMARK    1  A    between atoms: N1_2  and  C3_4 
REMARK    2  A    between atoms: C5_10  and  N4_11 
REMARK    3  A    between atoms: N6_16  and  O1_17 
REMARK    4  A    between atoms: N7_22  and  C8_23 
REMARK    5  A    between atoms: C8_23  and  C9_24 
REMARK    6  A    between atoms: C8_23  and  C10_27 
REMARK    7  A    between atoms: C9_24  and  O3_25 
REMARK    8  A    between atoms: C10_27  and  O4_28 
ROOT
HETATM    1  C3  UNL     1      17.854   2.411  13.425  1.00  0.00     0.686 A 
HETATM    2  N2  UNL     1      18.842   3.329  13.565  1.00  0.00    -0.173 N 
ATOM      3  H2  UNL     1      18.849   3.933  14.386  1.00  0.00     0.186 HD
HETATM    4  C4  UNL     1      19.809   3.459  12.646  1.00  0.00     0.173 A 
HETATM    5  N3  UNL     1      20.790   4.364  12.776  1.00  0.00    -0.172 N 
ATOM      6  H3  UNL     1      20.815   4.978  13.589  1.00  0.00     0.186 HD
HETATM    7  C5  UNL     1      21.734   4.457  11.834  1.00  0.00     0.694 A 
HETATM    8  N5  UNL     1      21.683   3.636  10.766  1.00  0.00    -0.105 N 
ATOM      9  H5  UNL     1      22.406   3.713  10.051  1.00  0.00     0.208 HD
HETATM   10  N6  UNL     1      20.727   2.735  10.615  1.00  0.00    -0.140 N 
HETATM   11  C6  UNL     1      19.781   2.637  11.552  1.00  0.00     0.195 A 
HETATM   12  C7  UNL     1      18.754   1.712  11.447  1.00  0.00     0.297 A 
HETATM   13  O2  UNL     1      18.755   0.985  10.449  1.00  0.00    -0.265 OA
HETATM   14  N7  UNL     1      17.778   1.585  12.378  1.00  0.00    -0.136 N 
ENDROOT
BRANCH  14  15
HETATM   15  C8  UNL     1      16.724   0.634  12.265  1.00  0.00     0.158 C 
BRANCH  15  16
HETATM   16  C9  UNL     1      17.196  -0.803  12.415  1.00  0.00     0.192 C 
BRANCH  16  17
HETATM   17  O3  UNL     1      16.781  -1.319  13.606  1.00  0.00    -0.399 OA
ATOM     18  H3  UNL     1      17.456  -1.874  13.980  1.00  0.00     0.209 HD
ENDBRANCH  16  17
ENDBRANCH  15  16
BRANCH  15  19
HETATM   19  C10 UNL     1      15.991   0.770  10.922  1.00  0.00     0.192 C 
BRANCH  19  20
HETATM   20  O4  UNL     1      16.229  -0.292  10.081  1.00  0.00    -0.399 OA
ATOM     21  H4  UNL     1      16.673  -0.032   9.283  1.00  0.00     0.209 HD
ENDBRANCH  19  20
ENDBRANCH  15  19
ENDBRANCH  14  15
BRANCH   1  22
HETATM   22  N1  UNL     1      16.906   2.373  14.465  1.00  0.00    -0.226 N 
HETATM   23  C1  UNL     1      15.703   3.158  14.408  1.00  0.00     0.168 C 
HETATM   24  C2  UNL     1      17.152   1.552  15.623  1.00  0.00     0.168 C 
ENDBRANCH   1  22
BRANCH  10  25
HETATM   25  O1  UNL     1      20.700   1.899   9.497  1.00  0.00    -0.267 OA
ATOM     26  H1  UNL     1      19.880   1.688   9.064  1.00  0.00     0.247 HD
ENDBRANCH  10  25
BRANCH   7  27
HETATM   27  N4  UNL     1      22.711   5.314  11.901  1.00  0.00    -0.233 N 
ATOM     28  H42 UNL     1      23.406   5.192  12.638  1.00  0.00     0.174 HD
ATOM     29  H41 UNL     1      22.807   6.093  11.250  1.00  0.00     0.174 HD
ENDBRANCH   7  27
TORSDOF 8
ENDMDL
MODEL 2
REMARK VINA RESULT: -6.009707937      2.223      5.166
REMARK  8 active torsions:
REMARK  status: ('A' for Active; 'I' for Inactive)
REMARK    1  A    between atoms: N1_2  and  C3_4 
REMARK    2  A    between atoms: C5_10  and  N4_11 
REMARK    3  A    between atoms: N6_16  and  O1_17 
REMARK    4  A    between atoms: N7_22  and  C8_23 
REMARK    5  A    between atoms: C8_23  and  C9_24 
REMARK    6  A    between atoms: C8_23  and  C10_27 
REMARK    7  A    between atoms: C9_24  and  O3_25 
REMARK    8  A    between atoms: C10_27  and  O4_28 
ROOT
HETATM    1  C3  UNL     1      17.911   3.322  13.571  1.00  0.00     0.686 A 
HETATM    2  N2  UNL     1      17.427   2.988  14.793  1.00  0.00    -0.173 N 
ATOM      3  H2  UNL     1      17.347   3.707  15.512  1.00  0.00     0.186 HD
HETATM    4  C4  UNL     1      17.052   1.732  15.075  1.00  0.00     0.173 A 
HETATM    5  N3  UNL     1      16.574   1.392  16.281  1.00  0.00    -0.172 N 
ATOM      6  H3  UNL     1      16.487   2.096  17.014  1.00  0.00     0.186 HD
HETATM    7  C5  UNL     1      16.212   0.128  16.517  1.00  0.00     0.694 A 
HETATM    8  N5  UNL     1      16.335  -0.788  15.534  1.00  0.00    -0.105 N 
ATOM      9  H5  UNL     1      16.058  -1.751  15.721  1.00  0.00     0.208 HD
HETATM   10  N6  UNL     1      16.804  -0.478  14.338  1.00  0.00    -0.140 N 
HETATM   11  C6  UNL     1      17.168   0.784  14.095  1.00  0.00     0.195 A 
HETATM   12  C7  UNL     1      17.666   1.167  12.860  1.00  0.00     0.297 A 
HETATM   13  O2  UNL     1      17.757   0.290  11.996  1.00  0.00    -0.265 OA
HETATM   14  N7  UNL     1      18.044   2.437  12.579  1.00  0.00    -0.136 N 
ENDROOT
BRANCH  14  15
HETATM   15  C8  UNL     1      18.557   2.826  11.309  1.00  0.00     0.158 C 
BRANCH  15  16
HETATM   16  C9  UNL     1      17.563   2.627  10.176  1.00  0.00     0.192 C 
BRANCH  16  17
HETATM   17  O3  UNL     1      16.447   3.381  10.384  1.00  0.00    -0.399 OA
ATOM     18  H3  UNL     1      15.858   3.314   9.641  1.00  0.00     0.209 HD
ENDBRANCH  16  17
ENDBRANCH  15  16
BRANCH  15  19
HETATM   19  C10 UNL     1      19.845   2.061  10.969  1.00  0.00     0.192 C 
BRANCH  19  20
HETATM   20  O4  UNL     1      19.684   1.203   9.907  1.00  0.00    -0.399 OA
ATOM     21  H4  UNL     1      20.400   0.584   9.826  1.00  0.00     0.209 HD
ENDBRANCH  19  20
ENDBRANCH  15  19
ENDBRANCH  14  15
BRANCH   1  22
HETATM   22  N1  UNL     1      18.260   4.675  13.404  1.00  0.00    -0.226 N 
HETATM   23  C1  UNL     1      19.583   5.148  13.706  1.00  0.00     0.168 C 
HETATM   24  C2  UNL     1      17.269   5.615  12.944  1.00  0.00     0.168 C 
ENDBRANCH   1  22
BRANCH  10  25
HETATM   25  O1  UNL     1      16.921  -1.448  13.340  1.00  0.00    -0.267 OA
ATOM     26  H1  UNL     1      16.154  -1.902  13.008  1.00  0.00     0.247 HD
ENDBRANCH  10  25
BRANCH   7  27
HETATM   27  N4  UNL     1      15.741  -0.266  17.664  1.00  0.00    -0.233 N 
ATOM     28  H42 UNL     1      15.537   0.443  18.368  1.00  0.00     0.174 HD
ATOM     29  H41 UNL     1      15.568  -1.248  17.882  1.00  0.00     0.174 HD
ENDBRANCH   7  27
TORSDOF 8
ENDMDL
MODEL 3
REMARK VINA RESULT: -5.874157949      2.687      5.327
REMARK  8 active torsions:
REMARK  status: ('A' for Active; 'I' for Inactive)
REMARK    1  A    between atoms: N1_2  and  C3_4 
REMARK    2  A    between atoms: C5_10  and  N4_11 
REMARK    3  A    between atoms: N6_16  and  O1_17 
REMARK    4  A    between atoms: N7_22  and  C8_23 
REMARK    5  A    between atoms: C8_23  and  C9_24 
REMARK    6  A    between atoms: C8_23  and  C10_27 
REMARK    7  A    between atoms: C9_24  and  O3_25 
REMARK    8  A    between atoms: C10_27  and  O4_28 
ROOT
HETATM    1  C3  UNL     1      19.663   2.554  11.171  1.00  0.00     0.686 A 
HETATM    2  N2  UNL     1      19.954   1.234  11.267  1.00  0.00    -0.173 N 
ATOM      3  H2  UNL     1      20.927   0.941  11.348  1.00  0.00     0.186 HD
HETATM    4  C4  UNL     1      18.987   0.304  11.256  1.00  0.00     0.173 A 
HETATM    5  N3  UNL     1      19.265  -1.004  11.349  1.00  0.00    -0.172 N 
ATOM      6  H3  UNL     1      20.232  -1.318  11.431  1.00  0.00     0.186 HD
HETATM    7  C5  UNL     1      18.269  -1.895  11.335  1.00  0.00     0.694 A 
HETATM    8  N5  UNL     1      16.997  -1.460  11.227  1.00  0.00    -0.105 N 
ATOM      9  H5  UNL     1      16.242  -2.145  11.216  1.00  0.00     0.208 HD
HETATM   10  N6  UNL     1      16.697  -0.177  11.133  1.00  0.00    -0.140 N 
HETATM   11  C6  UNL     1      17.688   0.719  11.147  1.00  0.00     0.195 A 
HETATM   12  C7  UNL     1      17.434   2.078  11.052  1.00  0.00     0.297 A 
HETATM   13  O2  UNL     1      16.252   2.422  10.955  1.00  0.00    -0.265 OA
HETATM   14  N7  UNL     1      18.414   3.014  11.062  1.00  0.00    -0.136 N 
ENDROOT
BRANCH  14  15
HETATM   15  C8  UNL     1      18.148   4.409  10.963  1.00  0.00     0.158 C 
BRANCH  15  16
HETATM   16  C9  UNL     1      16.967   4.855  11.811  1.00  0.00     0.192 C 
BRANCH  16  17
HETATM   17  O3  UNL     1      15.932   5.247  11.016  1.00  0.00    -0.399 OA
ATOM     18  H3  UNL     1      15.105   5.133  11.469  1.00  0.00     0.209 HD
ENDBRANCH  16  17
ENDBRANCH  15  16
BRANCH  15  19
HETATM   19  C10 UNL     1      17.890   4.826   9.507  1.00  0.00     0.192 C 
BRANCH  19  20
HETATM   20  O4  UNL     1      17.346   3.811   8.757  1.00  0.00    -0.399 OA
ATOM     21  H4  UNL     1      17.914   3.539   8.046  1.00  0.00     0.209 HD
ENDBRANCH  19  20
ENDBRANCH  15  19
ENDBRANCH  14  15
BRANCH   1  22
HETATM   22  N1  UNL     1      20.769   3.424  11.203  1.00  0.00    -0.226 N 
HETATM   23  C1  UNL     1      21.042   4.243  12.353  1.00  0.00     0.168 C 
HETATM   24  C2  UNL     1      21.635   3.519  10.055  1.00  0.00     0.168 C 
ENDBRANCH   1  22
BRANCH  10  25
HETATM   25  O1  UNL     1      15.370   0.244  11.022  1.00  0.00    -0.267 OA
ATOM     26  H1  UNL     1      14.915   0.207  10.188  1.00  0.00     0.247 HD
ENDBRANCH  10  25
BRANCH   7  27
HETATM   27  N4  UNL     1      18.472  -3.178  11.422  1.00  0.00    -0.233 N 
ATOM     28  H42 UNL     1      19.429  -3.520  11.332  1.00  0.00     0.174 HD
ATOM     29  H41 UNL     1      17.717  -3.847  11.576  1.00  0.00     0.174 HD
ENDBRANCH   7  27
TORSDOF 8
ENDMDL
MODEL 4
REMARK VINA RESULT: -5.830237045      2.536      5.354
REMARK  8 active torsions:
REMARK  status: ('A' for Active; 'I' for Inactive)
REMARK    1  A    between atoms: N1_2  and  C3_4 
REMARK    2  A    between atoms: C5_10  and  N4_11 
REMARK    3  A    between atoms: N6_16  and  O1_17 
REMARK    4  A    between atoms: N7_22  and  C8_23 
REMARK    5  A    between atoms: C8_23  and  C9_24 
REMARK    6  A    between atoms: C8_23  and  C10_27 
REMARK    7  A    between atoms: C9_24  and  O3_25 
REMARK    8  A    between atoms: C10_27  and  O4_28 
ROOT
HETATM    1  C3  UNL     1      17.063   3.197  13.485  1.00  0.00     0.686 A 
HETATM    2  N2  UNL     1      16.541   3.221  14.736  1.00  0.00    -0.173 N 
ATOM      3  H2  UNL     1      16.324   4.118  15.170  1.00  0.00     0.186 HD
HETATM    4  C4  UNL     1      16.304   2.089  15.415  1.00  0.00     0.173 A 
HETATM    5  N3  UNL     1      15.788   2.103  16.652  1.00  0.00    -0.172 N 
ATOM      6  H3  UNL     1      15.565   2.989  17.104  1.00  0.00     0.186 HD
HETATM    7  C5  UNL     1      15.569   0.949  17.291  1.00  0.00     0.694 A 
HETATM    8  N5  UNL     1      15.872  -0.212  16.676  1.00  0.00    -0.105 N 
ATOM      9  H5  UNL     1      15.702  -1.089  17.169  1.00  0.00     0.208 HD
HETATM   10  N6  UNL     1      16.381  -0.253  15.457  1.00  0.00    -0.140 N 
HETATM   11  C6  UNL     1      16.603   0.896  14.814  1.00  0.00     0.195 A 
HETATM   12  C7  UNL     1      17.135   0.916  13.534  1.00  0.00     0.297 A 
HETATM   13  O2  UNL     1      17.393  -0.175  13.018  1.00  0.00    -0.265 OA
HETATM   14  N7  UNL     1      17.373   2.062  12.852  1.00  0.00    -0.136 N 
ENDROOT
BRANCH  14  15
HETATM   15  C8  UNL     1      17.921   2.078  11.538  1.00  0.00     0.158 C 
BRANCH  15  16
HETATM   16  C9  UNL     1      17.241   1.098  10.595  1.00  0.00     0.192 C 
BRANCH  16  17
HETATM   17  O3  UNL     1      15.893   1.302  10.588  1.00  0.00    -0.399 OA
ATOM     18  H3  UNL     1      15.688   2.149  10.209  1.00  0.00     0.209 HD
ENDBRANCH  16  17
ENDBRANCH  15  16
BRANCH  15  19
HETATM   19  C10 UNL     1      19.427   1.772  11.557  1.00  0.00     0.192 C 
BRANCH  19  20
HETATM   20  O4  UNL     1      19.696   0.436  11.375  1.00  0.00    -0.399 OA
ATOM     21  H4  UNL     1      20.214   0.069  12.082  1.00  0.00     0.209 HD
ENDBRANCH  19  20
ENDBRANCH  15  19
ENDBRANCH  14  15
BRANCH   1  22
HETATM   22  N1  UNL     1      17.254   4.454  12.881  1.00  0.00    -0.226 N 
HETATM   23  C1  UNL     1      16.236   5.050  12.060  1.00  0.00     0.168 C 
HETATM   24  C2  UNL     1      18.501   5.152  13.066  1.00  0.00     0.168 C 
ENDBRANCH   1  22
BRANCH  10  25
HETATM   25  O1  UNL     1      16.685  -1.471  14.847  1.00  0.00    -0.267 OA
ATOM     26  H1  UNL     1      16.426  -1.645  13.949  1.00  0.00     0.247 HD
ENDBRANCH  10  25
BRANCH   7  27
HETATM   27  N4  UNL     1      15.071   0.895  18.492  1.00  0.00    -0.233 N 
ATOM     28  H42 UNL     1      15.044   1.754  19.040  1.00  0.00     0.174 HD
ATOM     29  H41 UNL     1      14.709   0.033  18.901  1.00  0.00     0.174 HD
ENDBRANCH   7  27
TORSDOF 8
ENDMDL
MODEL 5
REMARK VINA RESULT: -5.829208629      2.291      5.247
REMARK  8 active torsions:
REMARK  status: ('A' for Active; 'I' for Inactive)
REMARK    1  A    between atoms: N1_2  and  C3_4 
REMARK    2  A    between atoms: C5_10  and  N4_11 
REMARK    3  A    between atoms: N6_16  and  O1_17 
REMARK    4  A    between atoms: N7_22  and  C8_23 
REMARK    5  A    between atoms: C8_23  and  C9_24 
REMARK    6  A    between atoms: C8_23  and  C10_27 
REMARK    7  A    between atoms: C9_24  and  O3_25 
REMARK    8  A    between atoms: C10_27  and  O4_28 
ROOT
HETATM    1  C3  UNL     1      17.357   2.513  12.347  1.00  0.00     0.686 A 
HETATM    2  N2  UNL     1      16.716   2.907  13.474  1.00  0.00    -0.173 N 
ATOM      3  H2  UNL     1      16.497   3.894  13.606  1.00  0.00     0.186 HD
HETATM    4  C4  UNL     1      16.363   2.025  14.421  1.00  0.00     0.173 A 
HETATM    5  N3  UNL     1      15.729   2.405  15.540  1.00  0.00    -0.172 N 
ATOM      6  H3  UNL     1      15.502   3.388  15.690  1.00  0.00     0.186 HD
HETATM    7  C5  UNL     1      15.396   1.491  16.455  1.00  0.00     0.694 A 
HETATM    8  N5  UNL     1      15.706   0.196  16.237  1.00  0.00    -0.105 N 
ATOM      9  H5  UNL     1      15.450  -0.496  16.941  1.00  0.00     0.208 HD
HETATM   10  N6  UNL     1      16.330  -0.204  15.143  1.00  0.00    -0.140 N 
HETATM   11  C6  UNL     1      16.665   0.705  14.224  1.00  0.00     0.195 A 
HETATM   12  C7  UNL     1      17.321   0.344  13.058  1.00  0.00     0.297 A 
HETATM   13  O2  UNL     1      17.580  -0.854  12.908  1.00  0.00    -0.265 OA
HETATM   14  N7  UNL     1      17.677   1.239  12.104  1.00  0.00    -0.136 N 
ENDROOT
BRANCH  14  15
HETATM   15  C8  UNL     1      18.352   0.864  10.908  1.00  0.00     0.158 C 
BRANCH  15  16
HETATM   16  C9  UNL     1      17.853  -0.449  10.326  1.00  0.00     0.192 C 
BRANCH  16  17
HETATM   17  O3  UNL     1      16.581  -0.309   9.855  1.00  0.00    -0.399 OA
ATOM     18  H3  UNL     1      16.298   0.595   9.929  1.00  0.00     0.209 HD
ENDBRANCH  16  17
ENDBRANCH  15  16
BRANCH  15  19
HETATM   19  C10 UNL     1      19.867   0.754  11.133  1.00  0.00     0.192 C 
BRANCH  19  20
HETATM   20  O4  UNL     1      20.593   1.404  10.163  1.00  0.00    -0.399 OA
ATOM     21  H4  UNL     1      21.037   0.803   9.576  1.00  0.00     0.209 HD
ENDBRANCH  19  20
ENDBRANCH  15  19
ENDBRANCH  14  15
BRANCH   1  22
HETATM   22  N1  UNL     1      17.662   3.537  11.431  1.00  0.00    -0.226 N 
HETATM   23  C1  UNL     1      16.843   3.772  10.274  1.00  0.00     0.168 C 
HETATM   24  C2  UNL     1      18.831   4.354  11.639  1.00  0.00     0.168 C 
ENDBRANCH   1  22
BRANCH  10  25
HETATM   25  O1  UNL     1      16.638  -1.552  14.945  1.00  0.00    -0.267 OA
ATOM     26  H1  UNL     1      16.588  -1.942  14.080  1.00  0.00     0.247 HD
ENDBRANCH  10  25
BRANCH   7  27
HETATM   27  N4  UNL     1      14.781   1.795  17.561  1.00  0.00    -0.233 N 
ATOM     28  H42 UNL     1      15.325   2.218  18.313  1.00  0.00     0.174 HD
ATOM     29  H41 UNL     1      13.784   1.628  17.702  1.00  0.00     0.174 HD
ENDBRANCH   7  27
TORSDOF 8
ENDMDL
