MODEL 1
REMARK VINA RESULT: -6.304948055      0.000      0.000
REMARK  6 active torsions:
REMARK  status: ('A' for Active; 'I' for Inactive)
REMARK    1  A    between atoms: S1_2  and  N1_3 
REMARK    2  A    between atoms: N1_3  and  N2_5 
REMARK    3  A    between atoms: N2_5  and  C2_7 
REMARK    4  A    between atoms: N4_12  and  C4_13 
REMARK    5  A    between atoms: C6_19  and  N7_20 
REMARK    6  A    between atoms: N7_20  and  N8_22 
ROOT
HETATM    1  C2  UNL     1      19.068   0.840  11.389  1.00  0.00     0.717 A 
HETATM    2  N3  UNL     1      18.437  -0.368  11.509  1.00  0.00    -0.136 N 
ATOM      3  H3  UNL     1      18.645  -1.218  10.985  1.00  0.00     0.189 HD
HETATM    4  C3  UNL     1      17.505  -0.221  12.437  1.00  0.00     0.375 A 
HETATM    5  O1  UNL     1      16.704  -1.130  12.833  1.00  0.00    -0.244 OA
HETATM    6  N4  UNL     1      17.534   1.059  12.904  1.00  0.00    -0.016 N 
HETATM    7  N10 UNL     1      18.490   1.672  12.250  1.00  0.00    -0.105 N 
ATOM      8  H10 UNL     1      18.753   2.649  12.381  1.00  0.00     0.207 HD
ENDROOT
BRANCH   6   9
HETATM    9  C4  UNL     1      16.628   1.497  13.908  1.00  0.00     0.723 A 
HETATM   10  N5  UNL     1      15.876   2.596  13.683  1.00  0.00    -0.185 N 
HETATM   11  C5  UNL     1      14.983   3.041  14.601  1.00  0.00     0.215 A 
ATOM     12  H5  UNL     1      15.981   3.102  12.803  1.00  0.00     0.185 HD
HETATM   13  N6  UNL     1      14.814   2.405  15.768  1.00  0.00    -0.185 N 
HETATM   14  C6  UNL     1      15.556   1.301  16.019  1.00  0.00     0.713 A 
ATOM     15  H6  UNL     1      14.140   2.746  16.454  1.00  0.00     0.185 HD
HETATM   16  N9  UNL     1      16.450   0.870  15.080  1.00  0.00    -0.019 N 
ATOM     17  H9  UNL     1      17.004   0.037  15.279  1.00  0.00     0.203 HD
BRANCH  14  18
HETATM   18  N7  UNL     1      15.405   0.578  17.221  1.00  0.00    -0.134 N 
HETATM   19  C7  UNL     1      15.029   1.236  18.446  1.00  0.00     0.197 C 
BRANCH  18  20
HETATM   20  N8  UNL     1      15.635  -0.788  17.244  1.00  0.00    -0.329 N 
ATOM     21  H82 UNL     1      16.405  -1.164  16.690  1.00  0.00     0.177 HD
ATOM     22  H81 UNL     1      15.034  -1.399  17.797  1.00  0.00     0.177 HD
ENDBRANCH  18  20
ENDBRANCH  14  18
ENDBRANCH   6   9
BRANCH   1  23
HETATM   23  N2  UNL     1      20.021   0.981  10.556  1.00  0.00    -0.125 N 
ATOM     24  H2  UNL     1      20.560   0.137  10.364  1.00  0.00     0.206 HD
BRANCH  23  25
HETATM   25  N1  UNL     1      20.430   2.100   9.881  1.00  0.00    -0.260 N 
ATOM     26  H1  UNL     1      19.961   2.389   9.023  1.00  0.00     0.195 HD
BRANCH  25  27
HETATM   27  S1  UNL     1      21.782   3.034  10.523  1.00  0.00    -0.043 SA
HETATM   28  C1  UNL     1      21.232   4.203  11.803  1.00  0.00     0.116 C 
ENDBRANCH  25  27
ENDBRANCH  23  25
ENDBRANCH   1  23
TORSDOF 6
ENDMDL
MODEL 2
REMARK VINA RESULT: -6.290853506      1.112      1.112
REMARK  6 active torsions:
REMARK  status: ('A' for Active; 'I' for Inactive)
REMARK    1  A    between atoms: S1_2  and  N1_3 
REMARK    2  A    between atoms: N1_3  and  N2_5 
REMARK    3  A    between atoms: N2_5  and  C2_7 
REMARK    4  A    between atoms: N4_12  and  C4_13 
REMARK    5  A    between atoms: C6_19  and  N7_20 
REMARK    6  A    between atoms: N7_20  and  N8_22 
ROOT
HETATM    1  C2  UNL     1      18.982   0.828  11.360  1.00  0.00     0.717 A 
HETATM    2  N3  UNL     1      18.389  -0.391  11.547  1.00  0.00    -0.136 N 
ATOM      3  H3  UNL     1      18.607  -1.256  11.052  1.00  0.00     0.189 HD
HETATM    4  C3  UNL     1      17.478  -0.231  12.493  1.00  0.00     0.375 A 
HETATM    5  O1  UNL     1      16.713  -1.144  12.948  1.00  0.00    -0.244 OA
HETATM    6  N4  UNL     1      17.483   1.068  12.907  1.00  0.00    -0.016 N 
HETATM    7  N10 UNL     1      18.403   1.679  12.202  1.00  0.00    -0.105 N 
ATOM      8  H10 UNL     1      18.642   2.667  12.287  1.00  0.00     0.207 HD
ENDROOT
BRANCH   6   9
HETATM    9  C4  UNL     1      16.593   1.522  13.917  1.00  0.00     0.723 A 
HETATM   10  N5  UNL     1      15.860   2.636  13.698  1.00  0.00    -0.185 N 
HETATM   11  C5  UNL     1      14.982   3.097  14.622  1.00  0.00     0.215 A 
ATOM     12  H5  UNL     1      15.970   3.140  12.818  1.00  0.00     0.185 HD
HETATM   13  N6  UNL     1      14.808   2.463  15.790  1.00  0.00    -0.185 N 
HETATM   14  C6  UNL     1      15.530   1.345  16.035  1.00  0.00     0.713 A 
ATOM     15  H6  UNL     1      14.145   2.816  16.480  1.00  0.00     0.185 HD
HETATM   16  N9  UNL     1      16.410   0.897  15.090  1.00  0.00    -0.019 N 
ATOM     17  H9  UNL     1      16.949   0.053  15.284  1.00  0.00     0.203 HD
BRANCH  14  18
HETATM   18  N7  UNL     1      15.374   0.624  17.237  1.00  0.00    -0.134 N 
HETATM   19  C7  UNL     1      15.019   1.287  18.466  1.00  0.00     0.197 C 
BRANCH  18  20
HETATM   20  N8  UNL     1      15.575  -0.747  17.256  1.00  0.00    -0.329 N 
ATOM     21  H82 UNL     1      14.979  -1.321  17.853  1.00  0.00     0.177 HD
ATOM     22  H81 UNL     1      16.315  -1.164  16.690  1.00  0.00     0.177 HD
ENDBRANCH  18  20
ENDBRANCH  14  18
ENDBRANCH   6   9
BRANCH   1  23
HETATM   23  N2  UNL     1      19.908   0.961  10.496  1.00  0.00    -0.125 N 
ATOM     24  H2  UNL     1      20.030   0.170   9.864  1.00  0.00     0.206 HD
BRANCH  23  25
HETATM   25  N1  UNL     1      20.764   2.009  10.290  1.00  0.00    -0.260 N 
ATOM     26  H1  UNL     1      21.674   2.034  10.750  1.00  0.00     0.195 HD
BRANCH  25  27
HETATM   27  S1  UNL     1      20.265   3.316   9.215  1.00  0.00    -0.043 SA
HETATM   28  C1  UNL     1      21.034   3.154   7.575  1.00  0.00     0.116 C 
ENDBRANCH  25  27
ENDBRANCH  23  25
ENDBRANCH   1  23
TORSDOF 6
ENDMDL
MODEL 3
REMARK VINA RESULT: -6.001277427      3.296      6.232
REMARK  6 active torsions:
REMARK  status: ('A' for Active; 'I' for Inactive)
REMARK    1  A    between atoms: S1_2  and  N1_3 
REMARK    2  A    between atoms: N1_3  and  N2_5 
REMARK    3  A    between atoms: N2_5  and  C2_7 
REMARK    4  A    between atoms: N4_12  and  C4_13 
REMARK    5  A    between atoms: C6_19  and  N7_20 
REMARK    6  A    between atoms: N7_20  and  N8_22 
ROOT
HETATM    1  C2  UNL     1      16.943   0.137  15.479  1.00  0.00     0.717 A 
HETATM    2  N3  UNL     1      16.811  -0.848  14.539  1.00  0.00    -0.136 N 
ATOM      3  H3  UNL     1      16.537  -1.816  14.706  1.00  0.00     0.189 HD
HETATM    4  C3  UNL     1      17.108  -0.302  13.370  1.00  0.00     0.375 A 
HETATM    5  O1  UNL     1      17.099  -0.905  12.247  1.00  0.00    -0.244 OA
HETATM    6  N4  UNL     1      17.427   1.011  13.555  1.00  0.00    -0.016 N 
HETATM    7  N10 UNL     1      17.316   1.242  14.841  1.00  0.00    -0.105 N 
ATOM      8  H10 UNL     1      17.492   2.142  15.288  1.00  0.00     0.207 HD
ENDROOT
BRANCH   6   9
HETATM    9  C4  UNL     1      17.795   1.840  12.462  1.00  0.00     0.723 A 
HETATM   10  N5  UNL     1      18.902   1.537  11.749  1.00  0.00    -0.185 N 
HETATM   11  C5  UNL     1      19.283   2.285  10.684  1.00  0.00     0.215 A 
ATOM     12  H5  UNL     1      19.462   0.727  12.017  1.00  0.00     0.185 HD
HETATM   13  N6  UNL     1      18.574   3.354  10.299  1.00  0.00    -0.185 N 
HETATM   14  C6  UNL     1      17.461   3.680  10.997  1.00  0.00     0.713 A 
ATOM     15  H6  UNL     1      18.867   3.912   9.497  1.00  0.00     0.185 HD
HETATM   16  N9  UNL     1      17.094   2.913  12.067  1.00  0.00    -0.019 N 
ATOM     17  H9  UNL     1      16.253   3.167  12.586  1.00  0.00     0.203 HD
BRANCH  14  18
HETATM   18  N7  UNL     1      16.663   4.782  10.625  1.00  0.00    -0.134 N 
HETATM   19  C7  UNL     1      16.273   5.782  11.588  1.00  0.00     0.197 C 
BRANCH  18  20
HETATM   20  N8  UNL     1      16.224   4.913   9.318  1.00  0.00    -0.329 N 
ATOM     21  H82 UNL     1      15.872   4.087   8.834  1.00  0.00     0.177 HD
ATOM     22  H81 UNL     1      16.267   5.820   8.852  1.00  0.00     0.177 HD
ENDBRANCH  18  20
ENDBRANCH  14  18
ENDBRANCH   6   9
BRANCH   1  23
HETATM   23  N2  UNL     1      16.712  -0.117  16.705  1.00  0.00    -0.125 N 
ATOM     24  H2  UNL     1      17.508   0.001  17.332  1.00  0.00     0.206 HD
BRANCH  23  25
HETATM   25  N1  UNL     1      15.552  -0.528  17.307  1.00  0.00    -0.260 N 
ATOM     26  H1  UNL     1      15.552  -1.323  17.945  1.00  0.00     0.195 HD
BRANCH  25  27
HETATM   27  S1  UNL     1      14.059   0.345  16.958  1.00  0.00    -0.043 SA
HETATM   28  C1  UNL     1      14.350   2.136  16.842  1.00  0.00     0.116 C 
ENDBRANCH  25  27
ENDBRANCH  23  25
ENDBRANCH   1  23
TORSDOF 6
ENDMDL
MODEL 4
REMARK VINA RESULT: -5.977543986      2.690      3.325
REMARK  6 active torsions:
REMARK  status: ('A' for Active; 'I' for Inactive)
REMARK    1  A    between atoms: S1_2  and  N1_3 
REMARK    2  A    between atoms: N1_3  and  N2_5 
REMARK    3  A    between atoms: N2_5  and  C2_7 
REMARK    4  A    between atoms: N4_12  and  C4_13 
REMARK    5  A    between atoms: C6_19  and  N7_20 
REMARK    6  A    between atoms: N7_20  and  N8_22 
ROOT
HETATM    1  C2  UNL     1      20.371   4.241  12.946  1.00  0.00     0.717 A 
HETATM    2  N3  UNL     1      19.884   5.419  13.443  1.00  0.00    -0.136 N 
ATOM      3  H3  UNL     1      20.320   6.339  13.367  1.00  0.00     0.189 HD
HETATM    4  C3  UNL     1      18.739   5.136  14.043  1.00  0.00     0.375 A 
HETATM    5  O1  UNL     1      17.983   5.977  14.631  1.00  0.00    -0.244 OA
HETATM    6  N4  UNL     1      18.494   3.799  13.935  1.00  0.00    -0.016 N 
HETATM    7  N10 UNL     1      19.499   3.290  13.266  1.00  0.00    -0.105 N 
ATOM      8  H10 UNL     1      19.599   2.304  13.025  1.00  0.00     0.207 HD
ENDROOT
BRANCH   6   9
HETATM    9  C4  UNL     1      17.327   3.217  14.500  1.00  0.00     0.723 A 
HETATM   10  N5  UNL     1      16.153   3.879  14.413  1.00  0.00    -0.185 N 
HETATM   11  C5  UNL     1      15.008   3.355  14.917  1.00  0.00     0.215 A 
ATOM     12  H5  UNL     1      16.127   4.792  13.958  1.00  0.00     0.185 HD
HETATM   13  N6  UNL     1      15.000   2.160  15.522  1.00  0.00    -0.185 N 
HETATM   14  C6  UNL     1      16.164   1.476  15.622  1.00  0.00     0.713 A 
ATOM     15  H6  UNL     1      14.135   1.772  15.899  1.00  0.00     0.185 HD
HETATM   16  N9  UNL     1      17.307   2.021  15.107  1.00  0.00    -0.019 N 
ATOM     17  H9  UNL     1      18.178   1.498  15.187  1.00  0.00     0.203 HD
BRANCH  14  18
HETATM   18  N7  UNL     1      16.213   0.203  16.228  1.00  0.00    -0.134 N 
HETATM   19  C7  UNL     1      15.396  -0.112  17.372  1.00  0.00     0.197 C 
BRANCH  18  20
HETATM   20  N8  UNL     1      17.069  -0.769  15.735  1.00  0.00    -0.329 N 
ATOM     21  H82 UNL     1      17.441  -1.466  16.381  1.00  0.00     0.177 HD
ATOM     22  H81 UNL     1      17.324  -0.774  14.747  1.00  0.00     0.177 HD
ENDBRANCH  18  20
ENDBRANCH  14  18
ENDBRANCH   6   9
BRANCH   1  23
HETATM   23  N2  UNL     1      21.475   4.225  12.311  1.00  0.00    -0.125 N 
ATOM     24  H2  UNL     1      22.014   5.090  12.354  1.00  0.00     0.206 HD
BRANCH  23  25
HETATM   25  N1  UNL     1      22.046   3.218  11.580  1.00  0.00    -0.260 N 
ATOM     26  H1  UNL     1      22.906   2.771  11.896  1.00  0.00     0.195 HD
BRANCH  25  27
HETATM   27  S1  UNL     1      21.265   2.706  10.083  1.00  0.00    -0.043 SA
HETATM   28  C1  UNL     1      20.063   1.375  10.384  1.00  0.00     0.116 C 
ENDBRANCH  25  27
ENDBRANCH  23  25
ENDBRANCH   1  23
TORSDOF 6
ENDMDL
MODEL 5
REMARK VINA RESULT: -5.924627238      3.556      6.520
REMARK  6 active torsions:
REMARK  status: ('A' for Active; 'I' for Inactive)
REMARK    1  A    between atoms: S1_2  and  N1_3 
REMARK    2  A    between atoms: N1_3  and  N2_5 
REMARK    3  A    between atoms: N2_5  and  C2_7 
REMARK    4  A    between atoms: N4_12  and  C4_13 
REMARK    5  A    between atoms: C6_19  and  N7_20 
REMARK    6  A    between atoms: N7_20  and  N8_22 
ROOT
HETATM    1  C2  UNL     1      17.150  -0.040  13.246  1.00  0.00     0.717 A 
HETATM    2  N3  UNL     1      16.680  -0.589  12.084  1.00  0.00    -0.136 N 
ATOM      3  H3  UNL     1      16.231  -1.499  11.978  1.00  0.00     0.189 HD
HETATM    4  C3  UNL     1      16.920   0.290  11.123  1.00  0.00     0.375 A 
HETATM    5  O1  UNL     1      16.624   0.140   9.892  1.00  0.00    -0.244 OA
HETATM    6  N4  UNL     1      17.535   1.383  11.657  1.00  0.00    -0.016 N 
HETATM    7  N10 UNL     1      17.658   1.150  12.941  1.00  0.00    -0.105 N 
ATOM      8  H10 UNL     1      18.083   1.791  13.611  1.00  0.00     0.207 HD
ENDROOT
BRANCH   6   9
HETATM    9  C4  UNL     1      17.915   2.484  10.843  1.00  0.00     0.723 A 
HETATM   10  N5  UNL     1      19.227   2.713  10.616  1.00  0.00    -0.185 N 
HETATM   11  C5  UNL     1      19.639   3.737   9.829  1.00  0.00     0.215 A 
ATOM     12  H5  UNL     1      19.922   2.101  11.045  1.00  0.00     0.185 HD
HETATM   13  N6  UNL     1      18.759   4.562   9.247  1.00  0.00    -0.185 N 
HETATM   14  C6  UNL     1      17.438   4.354   9.459  1.00  0.00     0.713 A 
ATOM     15  H6  UNL     1      19.076   5.331   8.657  1.00  0.00     0.185 HD
HETATM   16  N9  UNL     1      17.043   3.316  10.255  1.00  0.00    -0.019 N 
ATOM     17  H9  UNL     1      16.046   3.168  10.408  1.00  0.00     0.203 HD
BRANCH  14  18
HETATM   18  N7  UNL     1      16.463   5.177   8.855  1.00  0.00    -0.134 N 
HETATM   19  C7  UNL     1      15.662   6.084   9.637  1.00  0.00     0.197 C 
BRANCH  18  20
HETATM   20  N8  UNL     1      16.250   5.112   7.488  1.00  0.00    -0.329 N 
ATOM     21  H82 UNL     1      15.609   5.781   7.060  1.00  0.00     0.177 HD
ATOM     22  H81 UNL     1      16.721   4.400   6.929  1.00  0.00     0.177 HD
ENDBRANCH  18  20
ENDBRANCH  14  18
ENDBRANCH   6   9
BRANCH   1  23
HETATM   23  N2  UNL     1      17.045  -0.681  14.341  1.00  0.00    -0.125 N 
ATOM     24  H2  UNL     1      16.679  -1.629  14.258  1.00  0.00     0.206 HD
BRANCH  23  25
HETATM   25  N1  UNL     1      17.350  -0.284  15.616  1.00  0.00    -0.260 N 
ATOM     26  H1  UNL     1      18.184  -0.637  16.084  1.00  0.00     0.195 HD
BRANCH  25  27
HETATM   27  S1  UNL     1      16.274   0.850  16.434  1.00  0.00    -0.043 SA
HETATM   28  C1  UNL     1      14.779   0.018  17.050  1.00  0.00     0.116 C 
ENDBRANCH  25  27
ENDBRANCH  23  25
ENDBRANCH   1  23
TORSDOF 6
ENDMDL
