MODEL 1
REMARK VINA RESULT: -8.413242449      0.000      0.000
REMARK  4 active torsions:
REMARK  status: ('A' for Active; 'I' for Inactive)
REMARK    1  A    between atoms: N1_2  and  N2_3 
REMARK    2  A    between atoms: N1_2  and  N5_16 
REMARK    3  A    between atoms: N2_3  and  C2_5 
REMARK    4  A    between atoms: N6_18  and  C7_20 
ROOT
HETATM    1  C1  UNL     1      18.487   5.725  12.069  1.00  0.00     0.201 C 
HETATM    2  N1  UNL     1      17.230   4.967  12.039  1.00  0.00    -0.225 N 
ENDROOT
BRANCH   2   3
HETATM    3  N2  UNL     1      16.558   4.671  13.111  1.00  0.00    -0.294 N 
ATOM      4  H2  UNL     1      16.765   5.487  13.687  1.00  0.00     0.187 HD
BRANCH   3   5
HETATM    5  C2  UNL     1      15.844   4.050  13.863  1.00  0.00     0.127 C 
HETATM    6  C3  UNL     1      16.062   2.902  14.713  1.00  0.00     0.064 A 
HETATM    7  C4  UNL     1      15.025   2.412  15.474  1.00  0.00     0.111 A 
HETATM    8  C6  UNL     1      17.266   2.264  14.804  1.00  0.00     0.262 A 
HETATM    9  N3  UNL     1      15.163   1.333  16.296  1.00  0.00    -0.318 N 
HETATM   10  C5  UNL     1      16.374   0.739  16.349  1.00  0.00     0.327 A 
ATOM     11  H3  UNL     1      14.380   0.988  16.851  1.00  0.00     0.170 HD
HETATM   12  O1  UNL     1      16.549  -0.259  17.093  1.00  0.00    -0.247 OA
HETATM   13  N4  UNL     1      17.411   1.178  15.629  1.00  0.00    -0.275 N 
ATOM     14  H4  UNL     1      18.312   0.705  15.692  1.00  0.00     0.173 HD
HETATM   15  O2  UNL     1      18.250   2.640  14.153  1.00  0.00    -0.267 OA
ENDBRANCH   3   5
ENDBRANCH   2   3
BRANCH   2  16
HETATM   16  N5  UNL     1      16.786   4.591  10.751  1.00  0.00    -0.225 N 
HETATM   17  N6  UNL     1      16.882   3.445  10.274  1.00  0.00    -0.265 N 
ATOM     18  H6  UNL     1      16.517   3.317   9.330  1.00  0.00     0.190 HD
ATOM     19  H5  UNL     1      16.357   5.311  10.170  1.00  0.00     0.210 HD
BRANCH  17  20
HETATM   20  C7  UNL     1      17.434   2.308  10.886  1.00  0.00     0.194 A 
HETATM   21  N7  UNL     1      18.751   2.230  11.102  1.00  0.00    -0.266 N 
HETATM   22  N8  UNL     1      19.328   1.191  11.670  1.00  0.00    -0.238 N 
ATOM     23  H7  UNL     1      19.338   3.013  10.813  1.00  0.00     0.190 HD
HETATM   24  N9  UNL     1      18.591   0.164  12.055  1.00  0.00    -0.248 N 
ATOM     25  H8  UNL     1      20.338   1.180  11.812  1.00  0.00     0.208 HD
HETATM   26  C8  UNL     1      17.250   0.172  11.868  1.00  0.00     0.315 A 
ATOM     27  H9  UNL     1      19.036  -0.641  12.497  1.00  0.00     0.192 HD
HETATM   28  O3  UNL     1      16.562  -0.816  12.241  1.00  0.00    -0.262 OA
HETATM   29  C9  UNL     1      16.644   1.252  11.277  1.00  0.00     0.287 A 
HETATM   30  O4  UNL     1      15.394   1.245  11.109  1.00  0.00    -0.278 OA
ENDBRANCH  17  20
ENDBRANCH   2  16
TORSDOF 4
ENDMDL
MODEL 2
REMARK VINA RESULT: -7.687345859      2.555      5.680
REMARK  4 active torsions:
REMARK  status: ('A' for Active; 'I' for Inactive)
REMARK    1  A    between atoms: N1_2  and  N2_3 
REMARK    2  A    between atoms: N1_2  and  N5_16 
REMARK    3  A    between atoms: N2_3  and  C2_5 
REMARK    4  A    between atoms: N6_18  and  C7_20 
ROOT
HETATM    1  C1  UNL     1      18.141  -2.184  11.398  1.00  0.00     0.201 C 
HETATM    2  N1  UNL     1      18.041  -0.755  11.074  1.00  0.00    -0.225 N 
ENDROOT
BRANCH   2   3
HETATM    3  N2  UNL     1      19.077  -0.013  10.826  1.00  0.00    -0.294 N 
ATOM      4  H2  UNL     1      19.266  -0.279   9.859  1.00  0.00     0.187 HD
BRANCH   3   5
HETATM    5  C2  UNL     1      19.962   0.791  11.006  1.00  0.00     0.127 C 
HETATM    6  C3  UNL     1      20.047   2.224  10.841  1.00  0.00     0.064 A 
HETATM    7  C4  UNL     1      21.224   2.874  11.139  1.00  0.00     0.111 A 
HETATM    8  C6  UNL     1      19.002   2.982  10.398  1.00  0.00     0.262 A 
HETATM    9  N3  UNL     1      21.371   4.223  11.005  1.00  0.00    -0.318 N 
HETATM   10  C5  UNL     1      20.307   4.927  10.563  1.00  0.00     0.327 A 
ATOM     11  H3  UNL     1      22.252   4.683  11.231  1.00  0.00     0.170 HD
HETATM   12  O1  UNL     1      20.396   6.172  10.424  1.00  0.00    -0.247 OA
HETATM   13  N4  UNL     1      19.144   4.340  10.261  1.00  0.00    -0.275 N 
ATOM     14  H4  UNL     1      18.361   4.902   9.929  1.00  0.00     0.173 HD
HETATM   15  O2  UNL     1      17.910   2.476  10.108  1.00  0.00    -0.267 OA
ENDBRANCH   3   5
ENDBRANCH   2   3
BRANCH   2  16
HETATM   16  N5  UNL     1      16.725  -0.240  11.033  1.00  0.00    -0.225 N 
HETATM   17  N6  UNL     1      16.219   0.485  11.909  1.00  0.00    -0.265 N 
ATOM     18  H6  UNL     1      15.258   0.785  11.747  1.00  0.00     0.190 HD
ATOM     19  H5  UNL     1      16.148  -0.481  10.227  1.00  0.00     0.210 HD
BRANCH  17  20
HETATM   20  C7  UNL     1      16.820   0.939  13.094  1.00  0.00     0.194 A 
HETATM   21  N7  UNL     1      17.279   2.192  13.182  1.00  0.00    -0.266 N 
HETATM   22  N8  UNL     1      17.852   2.676  14.265  1.00  0.00    -0.238 N 
ATOM     23  H7  UNL     1      17.181   2.803  12.371  1.00  0.00     0.190 HD
HETATM   24  N9  UNL     1      17.991   1.906  15.331  1.00  0.00    -0.248 N 
ATOM     25  H8  UNL     1      18.187   3.639  14.282  1.00  0.00     0.208 HD
HETATM   26  C8  UNL     1      17.550   0.626  15.315  1.00  0.00     0.315 A 
ATOM     27  H9  UNL     1      18.433   2.279  16.171  1.00  0.00     0.192 HD
HETATM   28  O3  UNL     1      17.690  -0.096  16.339  1.00  0.00    -0.262 OA
HETATM   29  C9  UNL     1      16.952   0.117  14.189  1.00  0.00     0.287 A 
HETATM   30  O4  UNL     1      16.547  -1.078  14.189  1.00  0.00    -0.278 OA
ENDBRANCH  17  20
ENDBRANCH   2  16
TORSDOF 4
ENDMDL
MODEL 3
REMARK VINA RESULT: -7.609306457      1.692      1.821
REMARK  4 active torsions:
REMARK  status: ('A' for Active; 'I' for Inactive)
REMARK    1  A    between atoms: N1_2  and  N2_3 
REMARK    2  A    between atoms: N1_2  and  N5_16 
REMARK    3  A    between atoms: N2_3  and  C2_5 
REMARK    4  A    between atoms: N6_18  and  C7_20 
ROOT
HETATM    1  C1  UNL     1      18.644   4.965  12.497  1.00  0.00     0.201 C 
HETATM    2  N1  UNL     1      17.363   4.249  12.523  1.00  0.00    -0.225 N 
ENDROOT
BRANCH   2   3
HETATM    3  N2  UNL     1      16.847   3.765  13.612  1.00  0.00    -0.294 N 
ATOM      4  H2  UNL     1      17.695   3.546  14.135  1.00  0.00     0.187 HD
BRANCH   3   5
HETATM    5  C2  UNL     1      16.005   3.407  14.403  1.00  0.00     0.127 C 
HETATM    6  C3  UNL     1      15.810   2.192  15.160  1.00  0.00     0.064 A 
HETATM    7  C4  UNL     1      14.727   2.083  16.003  1.00  0.00     0.111 A 
HETATM    8  C6  UNL     1      16.659   1.126  15.083  1.00  0.00     0.262 A 
HETATM    9  N3  UNL     1      14.485   0.965  16.745  1.00  0.00    -0.318 N 
HETATM   10  C5  UNL     1      15.355  -0.061  16.632  1.00  0.00     0.327 A 
ATOM     11  H3  UNL     1      13.675   0.906  17.363  1.00  0.00     0.170 HD
HETATM   12  O1  UNL     1      15.172  -1.112  17.296  1.00  0.00    -0.247 OA
HETATM   13  N4  UNL     1      16.420  -0.002  15.826  1.00  0.00    -0.275 N 
ATOM     14  H4  UNL     1      17.057  -0.796  15.764  1.00  0.00     0.173 HD
HETATM   15  O2  UNL     1      17.656   1.143  14.349  1.00  0.00    -0.267 OA
ENDBRANCH   3   5
ENDBRANCH   2   3
BRANCH   2  16
HETATM   16  N5  UNL     1      16.713   4.136  11.273  1.00  0.00    -0.225 N 
HETATM   17  N6  UNL     1      16.586   3.077  10.632  1.00  0.00    -0.265 N 
ATOM     18  H6  UNL     1      16.091   3.144   9.742  1.00  0.00     0.190 HD
ATOM     19  H5  UNL     1      16.319   4.985  10.866  1.00  0.00     0.210 HD
BRANCH  17  20
HETATM   20  C7  UNL     1      17.046   1.800  10.992  1.00  0.00     0.194 A 
HETATM   21  N7  UNL     1      16.204   0.901  11.513  1.00  0.00    -0.266 N 
HETATM   22  N8  UNL     1      16.574  -0.311  11.871  1.00  0.00    -0.238 N 
ATOM     23  H7  UNL     1      15.227   1.168  11.640  1.00  0.00     0.190 HD
HETATM   24  N9  UNL     1      17.833  -0.682  11.717  1.00  0.00    -0.248 N 
ATOM     25  H8  UNL     1      15.893  -0.960  12.265  1.00  0.00     0.208 HD
HETATM   26  C8  UNL     1      18.742   0.175  11.196  1.00  0.00     0.315 A 
ATOM     27  H9  UNL     1      18.122  -1.621  11.992  1.00  0.00     0.192 HD
HETATM   28  O3  UNL     1      19.940  -0.194  11.056  1.00  0.00    -0.262 OA
HETATM   29  C9  UNL     1      18.362   1.440  10.822  1.00  0.00     0.287 A 
HETATM   30  O4  UNL     1      19.221   2.227  10.338  1.00  0.00    -0.278 OA
ENDBRANCH  17  20
ENDBRANCH   2  16
TORSDOF 4
ENDMDL
MODEL 4
REMARK VINA RESULT: -7.558523622      1.683      2.419
REMARK  4 active torsions:
REMARK  status: ('A' for Active; 'I' for Inactive)
REMARK    1  A    between atoms: N1_2  and  N2_3 
REMARK    2  A    between atoms: N1_2  and  N5_16 
REMARK    3  A    between atoms: N2_3  and  C2_5 
REMARK    4  A    between atoms: N6_18  and  C7_20 
ROOT
HETATM    1  C1  UNL     1      19.608   5.309  14.042  1.00  0.00     0.201 C 
HETATM    2  N1  UNL     1      19.309   3.873  13.992  1.00  0.00    -0.225 N 
ENDROOT
BRANCH   2   3
HETATM    3  N2  UNL     1      18.264   3.349  14.559  1.00  0.00    -0.294 N 
ATOM      4  H2  UNL     1      18.709   2.642  15.144  1.00  0.00     0.187 HD
BRANCH   3   5
HETATM    5  C2  UNL     1      17.102   3.163  14.837  1.00  0.00     0.127 C 
HETATM    6  C3  UNL     1      16.405   2.095  15.516  1.00  0.00     0.064 A 
HETATM    7  C4  UNL     1      15.041   2.173  15.686  1.00  0.00     0.111 A 
HETATM    8  C6  UNL     1      17.040   0.991  16.009  1.00  0.00     0.262 A 
HETATM    9  N3  UNL     1      14.324   1.201  16.317  1.00  0.00    -0.318 N 
HETATM   10  C5  UNL     1      14.999   0.130  16.785  1.00  0.00     0.327 A 
ATOM     11  H3  UNL     1      13.313   1.280  16.431  1.00  0.00     0.170 HD
HETATM   12  O1  UNL     1      14.379  -0.791  17.374  1.00  0.00    -0.247 OA
HETATM   13  N4  UNL     1      16.323   0.010  16.644  1.00  0.00    -0.275 N 
ATOM     14  H4  UNL     1      16.802  -0.814  17.009  1.00  0.00     0.173 HD
HETATM   15  O2  UNL     1      18.264   0.843  15.898  1.00  0.00    -0.267 OA
ENDBRANCH   3   5
ENDBRANCH   2   3
BRANCH   2  16
HETATM   16  N5  UNL     1      20.235   3.092  13.264  1.00  0.00    -0.225 N 
HETATM   17  N6  UNL     1      19.972   2.474  12.215  1.00  0.00    -0.265 N 
ATOM     18  H6  UNL     1      20.741   1.951  11.795  1.00  0.00     0.190 HD
ATOM     19  H5  UNL     1      21.187   3.029  13.624  1.00  0.00     0.210 HD
BRANCH  17  20
HETATM   20  C7  UNL     1      18.741   2.415  11.544  1.00  0.00     0.194 A 
HETATM   21  N7  UNL     1      18.366   3.409  10.732  1.00  0.00    -0.266 N 
HETATM   22  N8  UNL     1      17.224   3.412  10.075  1.00  0.00    -0.238 N 
ATOM     23  H7  UNL     1      18.995   4.204  10.615  1.00  0.00     0.190 HD
HETATM   24  N9  UNL     1      16.391   2.394  10.208  1.00  0.00    -0.248 N 
ATOM     25  H8  UNL     1      16.983   4.196   9.468  1.00  0.00     0.208 HD
HETATM   26  C8  UNL     1      16.704   1.352  11.013  1.00  0.00     0.315 A 
ATOM     27  H9  UNL     1      15.507   2.394   9.699  1.00  0.00     0.192 HD
HETATM   28  O3  UNL     1      15.898   0.390  11.130  1.00  0.00    -0.262 OA
HETATM   29  C9  UNL     1      17.892   1.344  11.700  1.00  0.00     0.287 A 
HETATM   30  O4  UNL     1      18.169   0.366  12.447  1.00  0.00    -0.278 OA
ENDBRANCH  17  20
ENDBRANCH   2  16
TORSDOF 4
ENDMDL
MODEL 5
REMARK VINA RESULT: -7.253426642      2.619      3.182
REMARK  4 active torsions:
REMARK  status: ('A' for Active; 'I' for Inactive)
REMARK    1  A    between atoms: N1_2  and  N2_3 
REMARK    2  A    between atoms: N1_2  and  N5_16 
REMARK    3  A    between atoms: N2_3  and  C2_5 
REMARK    4  A    between atoms: N6_18  and  C7_20 
ROOT
HETATM    1  C1  UNL     1      16.976   3.840  10.391  1.00  0.00     0.201 C 
HETATM    2  N1  UNL     1      16.951   2.784  11.411  1.00  0.00    -0.225 N 
ENDROOT
BRANCH   2   3
HETATM    3  N2  UNL     1      16.579   2.996  12.638  1.00  0.00    -0.294 N 
ATOM      4  H2  UNL     1      17.255   3.710  12.912  1.00  0.00     0.187 HD
BRANCH   3   5
HETATM    5  C2  UNL     1      15.947   2.890  13.662  1.00  0.00     0.127 C 
HETATM    6  C3  UNL     1      15.938   1.912  14.725  1.00  0.00     0.064 A 
HETATM    7  C4  UNL     1      15.081   2.071  15.790  1.00  0.00     0.111 A 
HETATM    8  C6  UNL     1      16.752   0.816  14.729  1.00  0.00     0.262 A 
HETATM    9  N3  UNL     1      15.024   1.185  16.825  1.00  0.00    -0.318 N 
HETATM   10  C5  UNL     1      15.849   0.118  16.781  1.00  0.00     0.327 A 
ATOM     11  H3  UNL     1      14.380   1.323  17.604  1.00  0.00     0.170 HD
HETATM   12  O1  UNL     1      15.831  -0.725  17.712  1.00  0.00    -0.247 OA
HETATM   13  N4  UNL     1      16.699  -0.080  15.767  1.00  0.00    -0.275 N 
ATOM     14  H4  UNL     1      17.308  -0.897  15.765  1.00  0.00     0.173 HD
HETATM   15  O2  UNL     1      17.553   0.598  13.809  1.00  0.00    -0.267 OA
ENDBRANCH   3   5
ENDBRANCH   2   3
BRANCH   2  16
HETATM   16  N5  UNL     1      17.346   1.504  10.960  1.00  0.00    -0.225 N 
HETATM   17  N6  UNL     1      18.526   1.134  10.820  1.00  0.00    -0.265 N 
ATOM     18  H6  UNL     1      18.663   0.180  10.486  1.00  0.00     0.190 HD
ATOM     19  H5  UNL     1      16.610   0.835  10.732  1.00  0.00     0.210 HD
BRANCH  17  20
HETATM   20  C7  UNL     1      19.690   1.879  11.068  1.00  0.00     0.194 A 
HETATM   21  N7  UNL     1      19.970   2.302  12.305  1.00  0.00    -0.266 N 
HETATM   22  N8  UNL     1      21.045   3.004  12.601  1.00  0.00    -0.238 N 
ATOM     23  H7  UNL     1      19.320   2.071  13.056  1.00  0.00     0.190 HD
HETATM   24  N9  UNL     1      21.904   3.317  11.646  1.00  0.00    -0.248 N 
ATOM     25  H8  UNL     1      21.213   3.305  13.561  1.00  0.00     0.208 HD
HETATM   26  C8  UNL     1      21.686   2.922  10.370  1.00  0.00     0.315 A 
ATOM     27  H9  UNL     1      22.738   3.859  11.873  1.00  0.00     0.192 HD
HETATM   28  O3  UNL     1      22.516   3.229   9.471  1.00  0.00    -0.262 OA
HETATM   29  C9  UNL     1      20.568   2.191  10.056  1.00  0.00     0.287 A 
HETATM   30  O4  UNL     1      20.379   1.831   8.862  1.00  0.00    -0.278 OA
ENDBRANCH  17  20
ENDBRANCH   2  16
TORSDOF 4
ENDMDL
