MODEL 1
REMARK VINA RESULT: -7.848106322      0.000      0.000
REMARK  6 active torsions:
REMARK  status: ('A' for Active; 'I' for Inactive)
REMARK    1  A    between atoms: N3_8  and  C5_10 
REMARK    2  A    between atoms: C5_10  and  C6_11 
REMARK    3  A    between atoms: N4_12  and  C7_14 
REMARK    4  A    between atoms: C7_14  and  C9_17 
REMARK    5  A    between atoms: C9_17  and  O1_18 
REMARK    6  A    between atoms: C10_22  and  N7_23 
ROOT
HETATM    1  C7  UNL     1      15.964   1.330  16.560  1.00  0.00     0.212 C 
HETATM    2  C8  UNL     1      15.552  -0.063  16.954  1.00  0.00     0.086 C 
HETATM    3  N5  UNL     1      15.220  -1.123  17.263  1.00  0.00    -0.195 NA
ENDROOT
BRANCH   1   4
HETATM    4  N4  UNL     1      15.014   1.816  15.655  1.00  0.00    -0.379 N 
HETATM    5  C6  UNL     1      14.739   3.125  15.382  1.00  0.00     0.102 C 
ATOM      6  H4  UNL     1      14.471   1.119  15.145  1.00  0.00     0.160 HD
BRANCH   5   7
HETATM    7  C5  UNL     1      15.740   3.981  14.615  1.00  0.00     0.123 C 
BRANCH   7   8
HETATM    8  N3  UNL     1      16.477   3.232  13.711  1.00  0.00    -0.198 N 
HETATM    9  C4  UNL     1      17.313   3.240  12.810  1.00  0.00     0.719 A 
HETATM   10  N2  UNL     1      17.621   1.997  12.304  1.00  0.00    -0.065 N 
HETATM   11  N6  UNL     1      17.926   4.331  12.284  1.00  0.00    -0.021 N 
HETATM   12  N1  UNL     1      17.044   0.903  12.795  1.00  0.00    -0.288 N 
HETATM   13  C11 UNL     1      18.512   1.906  11.312  1.00  0.00     0.211 A 
HETATM   14  C3  UNL     1      17.292  -0.346  12.357  1.00  0.00     0.123 A 
ATOM     15  H1  UNL     1      16.370   1.018  13.552  1.00  0.00     0.187 HD
HETATM   16  C2  UNL     1      18.202  -0.485  11.335  1.00  0.00     0.025 A 
HETATM   17  C1  UNL     1      18.466  -1.699  10.876  1.00  0.00     0.029 C 
HETATM   18  C12 UNL     1      18.808   0.629  10.817  1.00  0.00     0.229 A 
HETATM   19  O2  UNL     1      19.645   0.545   9.886  1.00  0.00    -0.283 OA
HETATM   20  N8  UNL     1      19.110   3.018  10.807  1.00  0.00    -0.170 N 
HETATM   21  C10 UNL     1      18.822   4.240  11.287  1.00  0.00     0.692 A 
ATOM     22  H8  UNL     1      19.788   2.924  10.052  1.00  0.00     0.186 HD
ATOM     23  H6  UNL     1      17.697   5.252  12.657  1.00  0.00     0.203 HD
ATOM     24  H3  UNL     1      16.211   2.258  13.854  1.00  0.00     0.183 HD
BRANCH  21  25
HETATM   25  N7  UNL     1      19.390   5.311  10.815  1.00  0.00    -0.234 N 
ATOM     26  H72 UNL     1      18.849   6.139  10.568  1.00  0.00     0.174 HD
ATOM     27  H71 UNL     1      20.401   5.339  10.678  1.00  0.00     0.174 HD
ENDBRANCH  21  25
ENDBRANCH   7   8
ENDBRANCH   5   7
ENDBRANCH   1   4
BRANCH   1  28
HETATM   28  C9  UNL     1      17.381   1.216  16.050  1.00  0.00     0.204 C 
BRANCH  28  29
HETATM   29  O1  UNL     1      17.754  -0.144  16.145  1.00  0.00    -0.398 OA
ATOM     30  H1  UNL     1      17.400  -0.588  15.383  1.00  0.00     0.209 HD
ENDBRANCH  28  29
ENDBRANCH   1  28
TORSDOF 6
ENDMDL
MODEL 2
REMARK VINA RESULT: -7.738290645      2.004      5.338
REMARK  6 active torsions:
REMARK  status: ('A' for Active; 'I' for Inactive)
REMARK    1  A    between atoms: N3_8  and  C5_10 
REMARK    2  A    between atoms: C5_10  and  C6_11 
REMARK    3  A    between atoms: N4_12  and  C7_14 
REMARK    4  A    between atoms: C7_14  and  C9_17 
REMARK    5  A    between atoms: C9_17  and  O1_18 
REMARK    6  A    between atoms: C10_22  and  N7_23 
ROOT
HETATM    1  C7  UNL     1      18.156  -1.162  10.919  1.00  0.00     0.212 C 
HETATM    2  C8  UNL     1      18.216  -2.613  11.317  1.00  0.00     0.086 C 
HETATM    3  N5  UNL     1      18.279  -3.726  11.612  1.00  0.00    -0.195 NA
ENDROOT
BRANCH   1   4
HETATM    4  N4  UNL     1      19.203  -0.499  11.570  1.00  0.00    -0.379 N 
HETATM    5  C6  UNL     1      19.771   0.687  11.205  1.00  0.00     0.102 C 
ATOM      6  H4  UNL     1      19.580  -0.949  12.404  1.00  0.00     0.160 HD
BRANCH   5   7
HETATM    7  C5  UNL     1      18.998   1.993  11.360  1.00  0.00     0.123 C 
BRANCH   7   8
HETATM    8  N3  UNL     1      18.121   1.952  12.432  1.00  0.00    -0.198 N 
HETATM    9  C4  UNL     1      17.226   2.524  13.050  1.00  0.00     0.719 A 
HETATM   10  N2  UNL     1      16.750   1.832  14.141  1.00  0.00    -0.065 N 
HETATM   11  N6  UNL     1      16.697   3.742  12.767  1.00  0.00    -0.021 N 
HETATM   12  N1  UNL     1      17.241   0.634  14.451  1.00  0.00    -0.288 N 
HETATM   13  C11 UNL     1      15.785   2.381  14.883  1.00  0.00     0.211 A 
HETATM   14  C3  UNL     1      16.830  -0.105  15.497  1.00  0.00     0.123 A 
ATOM     15  H1  UNL     1      17.978   0.253  13.857  1.00  0.00     0.187 HD
HETATM   16  C2  UNL     1      15.837   0.423  16.289  1.00  0.00     0.025 A 
HETATM   17  C1  UNL     1      15.411  -0.277  17.331  1.00  0.00     0.029 C 
HETATM   18  C12 UNL     1      15.318   1.654  15.986  1.00  0.00     0.229 A 
HETATM   19  O2  UNL     1      14.410   2.170  16.682  1.00  0.00    -0.283 OA
HETATM   20  N8  UNL     1      15.274   3.602  14.571  1.00  0.00    -0.170 N 
HETATM   21  C10 UNL     1      15.725   4.293  13.512  1.00  0.00     0.692 A 
ATOM     22  H8  UNL     1      14.535   3.999  15.151  1.00  0.00     0.186 HD
ATOM     23  H6  UNL     1      17.050   4.256  11.959  1.00  0.00     0.203 HD
ATOM     24  H3  UNL     1      18.290   1.070  12.914  1.00  0.00     0.183 HD
BRANCH  21  25
HETATM   25  N7  UNL     1      15.242   5.461  13.202  1.00  0.00    -0.234 N 
ATOM     26  H72 UNL     1      14.268   5.580  12.922  1.00  0.00     0.174 HD
ATOM     27  H71 UNL     1      15.838   6.289  13.229  1.00  0.00     0.174 HD
ENDBRANCH  21  25
ENDBRANCH   7   8
ENDBRANCH   5   7
ENDBRANCH   1   4
BRANCH   1  28
HETATM   28  C9  UNL     1      16.758  -0.698  11.250  1.00  0.00     0.204 C 
BRANCH  28  29
HETATM   29  O1  UNL     1      16.361   0.198  10.231  1.00  0.00    -0.398 OA
ATOM     30  H1  UNL     1      15.571  -0.155   9.838  1.00  0.00     0.209 HD
ENDBRANCH  28  29
ENDBRANCH   1  28
TORSDOF 6
ENDMDL
MODEL 3
REMARK VINA RESULT: -7.655139665      1.543      3.286
REMARK  6 active torsions:
REMARK  status: ('A' for Active; 'I' for Inactive)
REMARK    1  A    between atoms: N3_8  and  C5_10 
REMARK    2  A    between atoms: C5_10  and  C6_11 
REMARK    3  A    between atoms: N4_12  and  C7_14 
REMARK    4  A    between atoms: C7_14  and  C9_17 
REMARK    5  A    between atoms: C9_17  and  O1_18 
REMARK    6  A    between atoms: C10_22  and  N7_23 
ROOT
HETATM    1  C7  UNL     1      15.180   0.739  16.142  1.00  0.00     0.212 C 
HETATM    2  C8  UNL     1      16.680   0.611  16.173  1.00  0.00     0.086 C 
HETATM    3  N5  UNL     1      17.829   0.522  16.179  1.00  0.00    -0.195 NA
ENDROOT
BRANCH   1   4
HETATM    4  N4  UNL     1      14.867   2.102  16.203  1.00  0.00    -0.379 N 
HETATM    5  C6  UNL     1      15.425   3.102  15.460  1.00  0.00     0.102 C 
ATOM      6  H4  UNL     1      14.148   2.376  16.871  1.00  0.00     0.160 HD
BRANCH   5   7
HETATM    7  C5  UNL     1      15.126   3.216  13.969  1.00  0.00     0.123 C 
BRANCH   7   8
HETATM    8  N3  UNL     1      16.230   2.901  13.194  1.00  0.00    -0.198 N 
HETATM    9  C4  UNL     1      16.881   2.016  12.643  1.00  0.00     0.719 A 
HETATM   10  N2  UNL     1      17.990   2.460  11.959  1.00  0.00    -0.065 N 
HETATM   11  N6  UNL     1      16.615   0.684  12.663  1.00  0.00    -0.021 N 
HETATM   12  N1  UNL     1      18.283   3.758  11.913  1.00  0.00    -0.288 N 
HETATM   13  C11 UNL     1      18.767   1.568  11.338  1.00  0.00     0.211 A 
HETATM   14  C3  UNL     1      19.345   4.272  11.266  1.00  0.00     0.123 A 
ATOM     15  H1  UNL     1      17.663   4.404  12.401  1.00  0.00     0.187 HD
HETATM   16  C2  UNL     1      20.173   3.388  10.615  1.00  0.00     0.025 A 
HETATM   17  C1  UNL     1      21.231   3.860   9.971  1.00  0.00     0.029 C 
HETATM   18  C12 UNL     1      19.888   2.048  10.648  1.00  0.00     0.229 A 
HETATM   19  O2  UNL     1      20.616   1.209  10.065  1.00  0.00    -0.283 OA
HETATM   20  N8  UNL     1      18.472   0.241  11.376  1.00  0.00    -0.170 N 
HETATM   21  C10 UNL     1      17.395  -0.213  12.038  1.00  0.00     0.692 A 
ATOM     22  H8  UNL     1      19.079  -0.421  10.892  1.00  0.00     0.186 HD
ATOM     23  H6  UNL     1      15.794   0.354  13.171  1.00  0.00     0.203 HD
ATOM     24  H3  UNL     1      16.707   3.780  12.994  1.00  0.00     0.183 HD
BRANCH  21  25
HETATM   25  N7  UNL     1      17.102  -1.480  12.078  1.00  0.00    -0.234 N 
ATOM     26  H72 UNL     1      16.608  -1.890  12.871  1.00  0.00     0.174 HD
ATOM     27  H71 UNL     1      17.367  -2.094  11.308  1.00  0.00     0.174 HD
ENDBRANCH  21  25
ENDBRANCH   7   8
ENDBRANCH   5   7
ENDBRANCH   1   4
BRANCH   1  28
HETATM   28  C9  UNL     1      14.666  -0.118  17.274  1.00  0.00     0.204 C 
BRANCH  28  29
HETATM   29  O1  UNL     1      15.406  -1.322  17.260  1.00  0.00    -0.398 OA
ATOM     30  H1  UNL     1      16.253  -1.138  17.651  1.00  0.00     0.209 HD
ENDBRANCH  28  29
ENDBRANCH   1  28
TORSDOF 6
ENDMDL
MODEL 4
REMARK VINA RESULT: -7.649548767      2.108      5.250
REMARK  6 active torsions:
REMARK  status: ('A' for Active; 'I' for Inactive)
REMARK    1  A    between atoms: N3_8  and  C5_10 
REMARK    2  A    between atoms: C5_10  and  C6_11 
REMARK    3  A    between atoms: N4_12  and  C7_14 
REMARK    4  A    between atoms: C7_14  and  C9_17 
REMARK    5  A    between atoms: C9_17  and  O1_18 
REMARK    6  A    between atoms: C10_22  and  N7_23 
ROOT
HETATM    1  C7  UNL     1      17.950  -1.149  11.655  1.00  0.00     0.212 C 
HETATM    2  C8  UNL     1      16.719  -0.495  11.085  1.00  0.00     0.086 C 
HETATM    3  N5  UNL     1      15.783   0.022  10.655  1.00  0.00    -0.195 NA
ENDROOT
BRANCH   1   4
HETATM    4  N4  UNL     1      19.060  -0.625  10.983  1.00  0.00    -0.379 N 
HETATM    5  C6  UNL     1      19.264   0.678  10.632  1.00  0.00     0.102 C 
ATOM      6  H4  UNL     1      19.794  -1.286  10.730  1.00  0.00     0.160 HD
BRANCH   5   7
HETATM    7  C5  UNL     1      19.555   1.728  11.698  1.00  0.00     0.123 C 
BRANCH   7   8
HETATM    8  N3  UNL     1      18.559   1.781  12.660  1.00  0.00    -0.198 N 
HETATM    9  C4  UNL     1      17.628   2.422  13.142  1.00  0.00     0.719 A 
HETATM   10  N2  UNL     1      16.996   1.808  14.200  1.00  0.00    -0.065 N 
HETATM   11  N6  UNL     1      17.196   3.646  12.743  1.00  0.00    -0.021 N 
HETATM   12  N1  UNL     1      17.388   0.607  14.620  1.00  0.00    -0.288 N 
HETATM   13  C11 UNL     1      15.979   2.435  14.797  1.00  0.00     0.211 A 
HETATM   14  C3  UNL     1      16.822  -0.059  15.643  1.00  0.00     0.123 A 
ATOM     15  H1  UNL     1      18.168   0.164  14.135  1.00  0.00     0.187 HD
HETATM   16  C2  UNL     1      15.772   0.552  16.287  1.00  0.00     0.025 A 
HETATM   17  C1  UNL     1      15.195  -0.075  17.303  1.00  0.00     0.029 C 
HETATM   18  C12 UNL     1      15.352   1.787  15.869  1.00  0.00     0.229 A 
HETATM   19  O2  UNL     1      14.397   2.377  16.429  1.00  0.00    -0.283 OA
HETATM   20  N8  UNL     1      15.569   3.660  14.372  1.00  0.00    -0.170 N 
HETATM   21  C10 UNL     1      16.173   4.276  13.343  1.00  0.00     0.692 A 
ATOM     22  H8  UNL     1      14.788   4.118  14.842  1.00  0.00     0.186 HD
ATOM     23  H6  UNL     1      17.665   4.102  11.960  1.00  0.00     0.203 HD
ATOM     24  H3  UNL     1      18.628   0.917  13.199  1.00  0.00     0.183 HD
BRANCH  21  25
HETATM   25  N7  UNL     1      15.787   5.446  12.925  1.00  0.00    -0.234 N 
ATOM     26  H72 UNL     1      15.781   5.685  11.933  1.00  0.00     0.174 HD
ATOM     27  H71 UNL     1      15.484   6.157  13.591  1.00  0.00     0.174 HD
ENDBRANCH  21  25
ENDBRANCH   7   8
ENDBRANCH   5   7
ENDBRANCH   1   4
BRANCH   1  28
HETATM   28  C9  UNL     1      17.728  -2.637  11.525  1.00  0.00     0.204 C 
BRANCH  28  29
HETATM   29  O1  UNL     1      18.996  -3.237  11.348  1.00  0.00    -0.398 OA
ATOM     30  H1  UNL     1      19.310  -2.985  10.487  1.00  0.00     0.209 HD
ENDBRANCH  28  29
ENDBRANCH   1  28
TORSDOF 6
ENDMDL
MODEL 5
REMARK VINA RESULT: -7.534193446      1.874      5.244
REMARK  6 active torsions:
REMARK  status: ('A' for Active; 'I' for Inactive)
REMARK    1  A    between atoms: N3_8  and  C5_10 
REMARK    2  A    between atoms: C5_10  and  C6_11 
REMARK    3  A    between atoms: N4_12  and  C7_14 
REMARK    4  A    between atoms: C7_14  and  C9_17 
REMARK    5  A    between atoms: C9_17  and  O1_18 
REMARK    6  A    between atoms: C10_22  and  N7_23 
ROOT
HETATM    1  C7  UNL     1      19.723   4.771  12.599  1.00  0.00     0.212 C 
HETATM    2  C8  UNL     1      19.606   4.001  13.888  1.00  0.00     0.086 C 
HETATM    3  N5  UNL     1      19.509   3.427  14.882  1.00  0.00    -0.195 NA
ENDROOT
BRANCH   1   4
HETATM    4  N4  UNL     1      18.427   5.037  12.143  1.00  0.00    -0.379 N 
HETATM    5  C6  UNL     1      17.932   4.793  10.894  1.00  0.00     0.102 C 
ATOM      6  H4  UNL     1      17.784   5.457  12.814  1.00  0.00     0.160 HD
BRANCH   5   7
HETATM    7  C5  UNL     1      17.680   3.362  10.430  1.00  0.00     0.123 C 
BRANCH   7   8
HETATM    8  N3  UNL     1      17.419   2.511  11.492  1.00  0.00    -0.198 N 
HETATM    9  C4  UNL     1      17.417   1.354  11.905  1.00  0.00     0.719 A 
HETATM   10  N2  UNL     1      16.995   1.211  13.208  1.00  0.00    -0.065 N 
HETATM   11  N6  UNL     1      17.770   0.244  11.206  1.00  0.00    -0.021 N 
HETATM   12  N1  UNL     1      16.643   2.274  13.927  1.00  0.00    -0.288 N 
HETATM   13  C11 UNL     1      16.947  -0.013  13.741  1.00  0.00     0.211 A 
HETATM   14  C3  UNL     1      16.222   2.220  15.204  1.00  0.00     0.123 A 
ATOM     15  H1  UNL     1      16.695   3.190  13.481  1.00  0.00     0.187 HD
HETATM   16  C2  UNL     1      16.156   0.978  15.791  1.00  0.00     0.025 A 
HETATM   17  C1  UNL     1      15.741   0.887  17.047  1.00  0.00     0.029 C 
HETATM   18  C12 UNL     1      16.515  -0.129  15.069  1.00  0.00     0.229 A 
HETATM   19  O2  UNL     1      16.471  -1.279  15.568  1.00  0.00    -0.283 OA
HETATM   20  N8  UNL     1      17.309  -1.105  13.015  1.00  0.00    -0.170 N 
HETATM   21  C10 UNL     1      17.722  -0.986  11.743  1.00  0.00     0.692 A 
ATOM     22  H8  UNL     1      17.266  -2.029  13.445  1.00  0.00     0.186 HD
ATOM     23  H6  UNL     1      18.081   0.349  10.241  1.00  0.00     0.203 HD
ATOM     24  H3  UNL     1      17.087   3.095  12.259  1.00  0.00     0.183 HD
BRANCH  21  25
HETATM   25  N7  UNL     1      18.075  -2.023  11.040  1.00  0.00    -0.234 N 
ATOM     26  H72 UNL     1      17.940  -2.055  10.029  1.00  0.00     0.174 HD
ATOM     27  H71 UNL     1      18.493  -2.835  11.494  1.00  0.00     0.174 HD
ENDBRANCH  21  25
ENDBRANCH   7   8
ENDBRANCH   5   7
ENDBRANCH   1   4
BRANCH   1  28
HETATM   28  C9  UNL     1      20.594   3.935  11.692  1.00  0.00     0.204 C 
BRANCH  28  29
HETATM   29  O1  UNL     1      20.698   2.651  12.276  1.00  0.00    -0.398 OA
ATOM     30  H1  UNL     1      21.556   2.309  12.055  1.00  0.00     0.209 HD
ENDBRANCH  28  29
ENDBRANCH   1  28
TORSDOF 6
ENDMDL
