MODEL 1
REMARK VINA RESULT: -8.445334424      0.000      0.000
REMARK  5 active torsions:
REMARK  status: ('A' for Active; 'I' for Inactive)
REMARK    1  A    between atoms: N1_1  and  C1_4 
REMARK    2  A    between atoms: C2_7  and  C3_8 
REMARK    3  A    between atoms: C3_8  and  N3_9 
REMARK    4  A    between atoms: C7_21  and  N7_22 
REMARK    5  A    between atoms: C12_28  and  C13_29 
ROOT
HETATM    1  C1  UNL     1      17.391   2.332  12.399  1.00  0.00     0.117 A 
HETATM    2  N2  UNL     1      17.229   2.910  13.602  1.00  0.00    -0.330 N 
ATOM      3  H2  UNL     1      16.705   2.408  14.318  1.00  0.00     0.168 HD
HETATM    4  C2  UNL     1      17.732   4.132  13.905  1.00  0.00     0.104 A 
HETATM    5  N6  UNL     1      18.418   4.793  12.966  1.00  0.00    -0.330 N 
ATOM      6  H6  UNL     1      18.797   5.713  13.193  1.00  0.00     0.168 HD
HETATM    7  C7  UNL     1      18.632   4.287  11.714  1.00  0.00     0.122 A 
HETATM    8  C12 UNL     1      18.104   3.041  11.454  1.00  0.00     0.089 A 
ENDROOT
BRANCH   4   9
HETATM    9  C3  UNL     1      17.504   4.714  15.276  1.00  0.00     0.229 C 
BRANCH   9  10
HETATM   10  N3  UNL     1      16.342   4.061  15.878  1.00  0.00    -0.245 N 
HETATM   11  N4  UNL     1      15.167   4.710  15.905  1.00  0.00    -0.291 N 
HETATM   12  C4  UNL     1      14.070   4.147  16.452  1.00  0.00     0.200 A 
ATOM     13  H4  UNL     1      15.103   5.646  15.504  1.00  0.00     0.188 HD
HETATM   14  N5  UNL     1      14.117   2.911  16.989  1.00  0.00    -0.314 N 
HETATM   15  C5  UNL     1      15.270   2.235  16.978  1.00  0.00     0.316 A 
ATOM     16  H5  UNL     1      13.280   2.495  17.398  1.00  0.00     0.170 HD
HETATM   17  O1  UNL     1      15.333   1.084  17.471  1.00  0.00    -0.262 OA
HETATM   18  C6  UNL     1      16.379   2.842  16.411  1.00  0.00     0.330 A 
HETATM   19  O2  UNL     1      17.454   2.203  16.408  1.00  0.00    -0.260 OA
ENDBRANCH   9  10
ENDBRANCH   4   9
BRANCH   1  20
HETATM   20  N1  UNL     1      16.911   1.173  12.125  1.00  0.00    -0.385 N 
ATOM     21  H12 UNL     1      16.772   0.479  12.859  1.00  0.00     0.157 HD
ATOM     22  H11 UNL     1      16.650   0.901  11.177  1.00  0.00     0.157 HD
ENDBRANCH   1  20
BRANCH   7  23
HETATM   23  N7  UNL     1      19.354   5.033  10.737  1.00  0.00    -0.362 N 
HETATM   24  C8  UNL     1      18.668   6.064   9.972  1.00  0.00     0.150 C 
HETATM   25  C9  UNL     1      19.695   6.815   9.160  1.00  0.00     0.187 C 
HETATM   26  O3  UNL     1      20.464   5.852   8.479  1.00  0.00    -0.388 OA
HETATM   27  C10 UNL     1      21.381   5.291   9.345  1.00  0.00     0.187 C 
HETATM   28  C11 UNL     1      20.753   4.706  10.574  1.00  0.00     0.150 C 
ENDBRANCH   7  23
BRANCH   8  29
HETATM   29  C13 UNL     1      18.318   2.483  10.132  1.00  0.00     0.277 C 
HETATM   30  O4  UNL     1      17.319   2.321   9.391  1.00  0.00    -0.301 OA
ENDBRANCH   8  29
TORSDOF 5
ENDMDL
MODEL 2
REMARK VINA RESULT: -8.258141445      0.300      1.033
REMARK  5 active torsions:
REMARK  status: ('A' for Active; 'I' for Inactive)
REMARK    1  A    between atoms: N1_1  and  C1_4 
REMARK    2  A    between atoms: C2_7  and  C3_8 
REMARK    3  A    between atoms: C3_8  and  N3_9 
REMARK    4  A    between atoms: C7_21  and  N7_22 
REMARK    5  A    between atoms: C12_28  and  C13_29 
ROOT
HETATM    1  C1  UNL     1      17.380   2.313  12.415  1.00  0.00     0.117 A 
HETATM    2  N2  UNL     1      17.202   2.920  13.601  1.00  0.00    -0.330 N 
ATOM      3  H2  UNL     1      16.665   2.436  14.321  1.00  0.00     0.168 HD
HETATM    4  C2  UNL     1      17.705   4.146  13.884  1.00  0.00     0.104 A 
HETATM    5  N6  UNL     1      18.408   4.783  12.940  1.00  0.00    -0.330 N 
ATOM      6  H6  UNL     1      18.787   5.706  13.151  1.00  0.00     0.168 HD
HETATM    7  C7  UNL     1      18.639   4.246  11.704  1.00  0.00     0.122 A 
HETATM    8  C12 UNL     1      18.109   2.997  11.465  1.00  0.00     0.089 A 
ENDROOT
BRANCH   4   9
HETATM    9  C3  UNL     1      17.459   4.761  15.237  1.00  0.00     0.229 C 
BRANCH   9  10
HETATM   10  N3  UNL     1      16.310   4.098  15.854  1.00  0.00    -0.245 N 
HETATM   11  N4  UNL     1      15.127   4.730  15.883  1.00  0.00    -0.291 N 
HETATM   12  C4  UNL     1      14.041   4.156  16.444  1.00  0.00     0.200 A 
ATOM     13  H4  UNL     1      15.046   5.660  15.473  1.00  0.00     0.188 HD
HETATM   14  N5  UNL     1      14.110   2.927  16.992  1.00  0.00    -0.314 N 
HETATM   15  C5  UNL     1      15.272   2.268  16.981  1.00  0.00     0.316 A 
ATOM     16  H5  UNL     1      13.282   2.503  17.412  1.00  0.00     0.170 HD
HETATM   17  O1  UNL     1      15.355   1.123  17.485  1.00  0.00    -0.262 OA
HETATM   18  C6  UNL     1      16.368   2.885  16.399  1.00  0.00     0.330 A 
HETATM   19  O2  UNL     1      17.452   2.261  16.394  1.00  0.00    -0.260 OA
ENDBRANCH   9  10
ENDBRANCH   4   9
BRANCH   1  20
HETATM   20  N1  UNL     1      16.899   1.149  12.160  1.00  0.00    -0.385 N 
ATOM     21  H12 UNL     1      16.426   0.611  12.886  1.00  0.00     0.157 HD
ATOM     22  H11 UNL     1      16.969   0.721  11.237  1.00  0.00     0.157 HD
ENDBRANCH   1  20
BRANCH   7  23
HETATM   23  N7  UNL     1      19.378   4.967  10.721  1.00  0.00    -0.362 N 
HETATM   24  C8  UNL     1      20.772   4.622  10.476  1.00  0.00     0.150 C 
HETATM   25  C9  UNL     1      21.248   5.399   9.273  1.00  0.00     0.187 C 
HETATM   26  O3  UNL     1      20.903   6.747   9.491  1.00  0.00    -0.388 OA
HETATM   27  C10 UNL     1      19.561   6.931   9.229  1.00  0.00     0.187 C 
HETATM   28  C11 UNL     1      18.673   6.015  10.017  1.00  0.00     0.150 C 
ENDBRANCH   7  23
BRANCH   8  29
HETATM   29  C13 UNL     1      18.342   2.407  10.159  1.00  0.00     0.277 C 
HETATM   30  O4  UNL     1      17.369   2.314   9.373  1.00  0.00    -0.301 OA
ENDBRANCH   8  29
TORSDOF 5
ENDMDL
MODEL 3
REMARK VINA RESULT: -7.594321513      1.846      3.234
REMARK  5 active torsions:
REMARK  status: ('A' for Active; 'I' for Inactive)
REMARK    1  A    between atoms: N1_1  and  C1_4 
REMARK    2  A    between atoms: C2_7  and  C3_8 
REMARK    3  A    between atoms: C3_8  and  N3_9 
REMARK    4  A    between atoms: C7_21  and  N7_22 
REMARK    5  A    between atoms: C12_28  and  C13_29 
ROOT
HETATM    1  C1  UNL     1      17.386   5.464  10.238  1.00  0.00     0.117 A 
HETATM    2  N2  UNL     1      17.139   4.366  10.974  1.00  0.00    -0.330 N 
ATOM      3  H2  UNL     1      16.176   4.038  11.052  1.00  0.00     0.168 HD
HETATM    4  C2  UNL     1      18.112   3.676  11.617  1.00  0.00     0.104 A 
HETATM    5  N6  UNL     1      19.375   4.106  11.517  1.00  0.00    -0.330 N 
ATOM      6  H6  UNL     1      20.108   3.587  12.000  1.00  0.00     0.168 HD
HETATM    7  C7  UNL     1      19.722   5.213  10.794  1.00  0.00     0.122 A 
HETATM    8  C12 UNL     1      18.699   5.880  10.157  1.00  0.00     0.089 A 
ENDROOT
BRANCH   4   9
HETATM    9  C3  UNL     1      17.753   2.456  12.425  1.00  0.00     0.229 C 
BRANCH   9  10
HETATM   10  N3  UNL     1      17.374   2.878  13.773  1.00  0.00    -0.245 N 
HETATM   11  N4  UNL     1      17.648   4.132  14.167  1.00  0.00    -0.291 N 
HETATM   12  C4  UNL     1      17.318   4.564  15.403  1.00  0.00     0.200 A 
ATOM     13  H4  UNL     1      18.113   4.770  13.522  1.00  0.00     0.188 HD
HETATM   14  N5  UNL     1      16.700   3.750  16.282  1.00  0.00    -0.314 N 
HETATM   15  C5  UNL     1      16.412   2.496  15.923  1.00  0.00     0.316 A 
ATOM     16  H5  UNL     1      16.454   4.089  17.213  1.00  0.00     0.170 HD
HETATM   17  O1  UNL     1      15.836   1.725  16.727  1.00  0.00    -0.262 OA
HETATM   18  C6  UNL     1      16.765   2.082  14.649  1.00  0.00     0.330 A 
HETATM   19  O2  UNL     1      16.493   0.906  14.322  1.00  0.00    -0.260 OA
ENDBRANCH   9  10
ENDBRANCH   4   9
BRANCH   1  20
HETATM   20  N1  UNL     1      16.454   6.108   9.633  1.00  0.00    -0.385 N 
ATOM     21  H12 UNL     1      15.764   6.644  10.159  1.00  0.00     0.157 HD
ATOM     22  H11 UNL     1      16.366   6.112   8.617  1.00  0.00     0.157 HD
ENDBRANCH   1  20
BRANCH   7  23
HETATM   23  N7  UNL     1      21.079   5.647  10.728  1.00  0.00    -0.362 N 
HETATM   24  C8  UNL     1      21.955   5.108   9.698  1.00  0.00     0.150 C 
HETATM   25  C9  UNL     1      23.258   5.870   9.738  1.00  0.00     0.187 C 
HETATM   26  O3  UNL     1      23.692   5.870  11.078  1.00  0.00    -0.388 OA
HETATM   27  C10 UNL     1      22.982   6.809  11.797  1.00  0.00     0.187 C 
HETATM   28  C11 UNL     1      21.498   6.619  11.714  1.00  0.00     0.150 C 
ENDBRANCH   7  23
BRANCH   8  29
HETATM   29  C13 UNL     1      19.043   7.058   9.383  1.00  0.00     0.277 C 
HETATM   30  O4  UNL     1      19.081   6.953   8.134  1.00  0.00    -0.301 OA
ENDBRANCH   8  29
TORSDOF 5
ENDMDL
MODEL 4
REMARK VINA RESULT: -7.503967164      3.011      4.143
REMARK  5 active torsions:
REMARK  status: ('A' for Active; 'I' for Inactive)
REMARK    1  A    between atoms: N1_1  and  C1_4 
REMARK    2  A    between atoms: C2_7  and  C3_8 
REMARK    3  A    between atoms: C3_8  and  N3_9 
REMARK    4  A    between atoms: C7_21  and  N7_22 
REMARK    5  A    between atoms: C12_28  and  C13_29 
ROOT
HETATM    1  C1  UNL     1      19.328   6.426  13.021  1.00  0.00     0.117 A 
HETATM    2  N2  UNL     1      18.882   5.222  13.419  1.00  0.00    -0.330 N 
ATOM      3  H2  UNL     1      19.501   4.632  13.976  1.00  0.00     0.168 HD
HETATM    4  C2  UNL     1      17.646   4.757  13.114  1.00  0.00     0.104 A 
HETATM    5  N6  UNL     1      16.834   5.529  12.382  1.00  0.00    -0.330 N 
ATOM      6  H6  UNL     1      15.904   5.180  12.151  1.00  0.00     0.168 HD
HETATM    7  C7  UNL     1      17.201   6.766  11.931  1.00  0.00     0.122 A 
HETATM    8  C12 UNL     1      18.465   7.196  12.269  1.00  0.00     0.089 A 
ENDROOT
BRANCH   4   9
HETATM    9  C3  UNL     1      17.221   3.394  13.595  1.00  0.00     0.229 C 
BRANCH   9  10
HETATM   10  N3  UNL     1      16.446   3.549  14.826  1.00  0.00    -0.245 N 
HETATM   11  N4  UNL     1      15.493   4.493  14.884  1.00  0.00    -0.291 N 
HETATM   12  C4  UNL     1      14.756   4.673  16.001  1.00  0.00     0.200 A 
ATOM     13  H4  UNL     1      15.323   5.084  14.071  1.00  0.00     0.188 HD
HETATM   14  N5  UNL     1      14.951   3.909  17.094  1.00  0.00    -0.314 N 
HETATM   15  C5  UNL     1      15.890   2.959  17.070  1.00  0.00     0.316 A 
ATOM     16  H5  UNL     1      14.386   4.054  17.931  1.00  0.00     0.170 HD
HETATM   17  O1  UNL     1      16.085   2.237  18.076  1.00  0.00    -0.262 OA
HETATM   18  C6  UNL     1      16.632   2.801  15.910  1.00  0.00     0.330 A 
HETATM   19  O2  UNL     1      17.510   1.910  15.898  1.00  0.00    -0.260 OA
ENDBRANCH   9  10
ENDBRANCH   4   9
BRANCH   1  20
HETATM   20  N1  UNL     1      20.501   6.856  13.319  1.00  0.00    -0.385 N 
ATOM     21  H12 UNL     1      21.334   6.361  13.001  1.00  0.00     0.157 HD
ATOM     22  H11 UNL     1      20.648   7.698  13.876  1.00  0.00     0.157 HD
ENDBRANCH   1  20
BRANCH   7  23
HETATM   23  N7  UNL     1      16.311   7.548  11.138  1.00  0.00    -0.362 N 
HETATM   24  C8  UNL     1      15.445   8.524  11.785  1.00  0.00     0.150 C 
HETATM   25  C9  UNL     1      14.757   9.333  10.711  1.00  0.00     0.187 C 
HETATM   26  O3  UNL     1      14.198   8.415   9.800  1.00  0.00    -0.388 OA
HETATM   27  C10 UNL     1      15.184   7.925   8.968  1.00  0.00     0.187 C 
HETATM   28  C11 UNL     1      16.333   7.312   9.711  1.00  0.00     0.150 C 
ENDBRANCH   7  23
BRANCH   8  29
HETATM   29  C13 UNL     1      18.877   8.506  11.800  1.00  0.00     0.277 C 
HETATM   30  O4  UNL     1      18.927   9.442  12.634  1.00  0.00    -0.301 OA
ENDBRANCH   8  29
TORSDOF 5
ENDMDL
MODEL 5
REMARK VINA RESULT: -7.406960423      0.990      1.047
REMARK  5 active torsions:
REMARK  status: ('A' for Active; 'I' for Inactive)
REMARK    1  A    between atoms: N1_1  and  C1_4 
REMARK    2  A    between atoms: C2_7  and  C3_8 
REMARK    3  A    between atoms: C3_8  and  N3_9 
REMARK    4  A    between atoms: C7_21  and  N7_22 
REMARK    5  A    between atoms: C12_28  and  C13_29 
ROOT
HETATM    1  C1  UNL     1      17.216   1.625  12.251  1.00  0.00     0.117 A 
HETATM    2  N2  UNL     1      17.222   1.920  13.562  1.00  0.00    -0.330 N 
ATOM      3  H2  UNL     1      16.853   1.232  14.219  1.00  0.00     0.168 HD
HETATM    4  C2  UNL     1      17.696   3.092  14.051  1.00  0.00     0.104 A 
HETATM    5  N6  UNL     1      18.179   3.996  13.191  1.00  0.00    -0.330 N 
ATOM      6  H6  UNL     1      18.536   4.879  13.558  1.00  0.00     0.168 HD
HETATM    7  C7  UNL     1      18.212   3.786  11.841  1.00  0.00     0.122 A 
HETATM    8  C12 UNL     1      17.721   2.579  11.392  1.00  0.00     0.089 A 
ENDROOT
BRANCH   4   9
HETATM    9  C3  UNL     1      17.665   3.349  15.536  1.00  0.00     0.229 C 
BRANCH   9  10
HETATM   10  N3  UNL     1      16.283   3.607  15.940  1.00  0.00    -0.245 N 
HETATM   11  N4  UNL     1      15.777   4.842  15.791  1.00  0.00    -0.291 N 
HETATM   12  C4  UNL     1      14.508   5.125  16.153  1.00  0.00     0.200 A 
ATOM     13  H4  UNL     1      16.362   5.579  15.398  1.00  0.00     0.188 HD
HETATM   14  N5  UNL     1      13.705   4.176  16.674  1.00  0.00    -0.314 N 
HETATM   15  C5  UNL     1      14.175   2.935  16.834  1.00  0.00     0.316 A 
ATOM     16  H5  UNL     1      12.747   4.402  16.942  1.00  0.00     0.170 HD
HETATM   17  O1  UNL     1      13.443   2.039  17.316  1.00  0.00    -0.262 OA
HETATM   18  C6  UNL     1      15.483   2.677  16.456  1.00  0.00     0.330 A 
HETATM   19  O2  UNL     1      15.915   1.514  16.611  1.00  0.00    -0.260 OA
ENDBRANCH   9  10
ENDBRANCH   4   9
BRANCH   1  20
HETATM   20  N1  UNL     1      16.765   0.510  11.800  1.00  0.00    -0.385 N 
ATOM     21  H12 UNL     1      17.333  -0.336  11.839  1.00  0.00     0.157 HD
ATOM     22  H11 UNL     1      15.835   0.423  11.392  1.00  0.00     0.157 HD
ENDBRANCH   1  20
BRANCH   7  23
HETATM   23  N7  UNL     1      18.718   4.785  10.958  1.00  0.00    -0.362 N 
HETATM   24  C8  UNL     1      17.792   5.695  10.299  1.00  0.00     0.150 C 
HETATM   25  C9  UNL     1      18.596   6.754   9.584  1.00  0.00     0.187 C 
HETATM   26  O3  UNL     1      19.565   6.083   8.813  1.00  0.00    -0.388 OA
HETATM   27  C10 UNL     1      20.603   5.672   9.625  1.00  0.00     0.187 C 
HETATM   28  C11 UNL     1      20.152   4.825  10.777  1.00  0.00     0.150 C 
ENDBRANCH   7  23
BRANCH   8  29
HETATM   29  C13 UNL     1      17.746   2.334   9.962  1.00  0.00     0.277 C 
HETATM   30  O4  UNL     1      16.677   2.471   9.321  1.00  0.00    -0.301 OA
ENDBRANCH   8  29
TORSDOF 5
ENDMDL
