MODEL 1
REMARK VINA RESULT: -7.526079907      0.000      0.000
REMARK  8 active torsions:
REMARK  status: ('A' for Active; 'I' for Inactive)
REMARK    1  A    between atoms: C3_5  and  N2_6 
REMARK    2  A    between atoms: C5_12  and  C6_13 
REMARK    3  A    between atoms: C6_13  and  N4_14 
REMARK    4  A    between atoms: C10_22  and  C11_23 
REMARK    5  A    between atoms: C11_23  and  O1_24 
REMARK    6  A    between atoms: C11_23  and  N7_26 
REMARK    7  A    between atoms: N7_26  and  C12_28 
REMARK    8  A    between atoms: N10_33  and  O2_34 
ROOT
HETATM    1  C12 UNL     1      14.905   2.455  16.985  1.00  0.00     0.241 C 
HETATM    2  C13 UNL     1      14.524   3.859  17.006  1.00  0.00     0.078 C 
HETATM    3  N8  UNL     1      14.188   4.965  17.009  1.00  0.00    -0.196 NA
ENDROOT
BRANCH   1   4
HETATM    4  N7  UNL     1      16.179   2.148  16.463  1.00  0.00    -0.379 N 
ATOM      5  H7  UNL     1      16.558   1.207  16.566  1.00  0.00     0.157 HD
BRANCH   4   6
HETATM    6  C11 UNL     1      16.921   3.132  15.805  1.00  0.00     0.284 C 
BRANCH   6   7
HETATM    7  C10 UNL     1      16.927   2.993  14.326  1.00  0.00     0.149 A 
HETATM    8  N6  UNL     1      16.995   4.031  13.492  1.00  0.00    -0.324 N 
HETATM    9  C9  UNL     1      17.003   3.895  12.150  1.00  0.00     0.157 A 
ATOM     10  H6  UNL     1      17.042   4.970  13.887  1.00  0.00     0.169 HD
HETATM   11  N4  UNL     1      17.050   4.751  11.134  1.00  0.00    -0.270 N 
HETATM   12  C8  UNL     1      16.936   2.605  11.605  1.00  0.00     0.143 A 
HETATM   13  N5  UNL     1      17.011   4.017   9.984  1.00  0.00    -0.305 N 
HETATM   14  C7  UNL     1      16.943   2.731  10.241  1.00  0.00     0.145 A 
ATOM     15  H5  UNL     1      17.031   4.416   9.046  1.00  0.00     0.186 HD
HETATM   16  N10 UNL     1      16.869   1.578  12.463  1.00  0.00    -0.157 N 
HETATM   17  N9  UNL     1      16.864   1.751  13.766  1.00  0.00    -0.258 N 
ATOM     18  H9  UNL     1      16.810   0.934  14.375  1.00  0.00     0.191 HD
BRANCH  11  19
HETATM   19  C6  UNL     1      17.172   6.193  11.119  1.00  0.00     0.193 C 
BRANCH  19  20
HETATM   20  C5  UNL     1      18.523   6.601  11.526  1.00  0.00     0.000 A 
HETATM   21  C2  UNL     1      18.906   7.137  12.692  1.00  0.00     0.032 A 
HETATM   22  C1  UNL     1      17.970   7.537  13.735  1.00  0.00     0.069 C 
HETATM   23  N1  UNL     1      20.235   7.379  12.922  1.00  0.00    -0.196 N 
HETATM   24  C3  UNL     1      21.179   7.098  12.013  1.00  0.00     0.675 A 
ATOM     25  H1  UNL     1      20.515   7.787  13.814  1.00  0.00     0.184 HD
HETATM   26  N3  UNL     1      20.821   6.560  10.831  1.00  0.00    -0.202 N 
HETATM   27  C4  UNL     1      19.533   6.316  10.589  1.00  0.00     0.117 A 
ATOM     28  H3  UNL     1      21.528   6.341  10.129  1.00  0.00     0.183 HD
BRANCH  24  29
HETATM   29  N2  UNL     1      22.400   7.363  12.334  1.00  0.00    -0.234 N 
ATOM     30  H22 UNL     1      22.705   8.268  12.694  1.00  0.00     0.174 HD
ATOM     31  H21 UNL     1      23.085   6.616  12.212  1.00  0.00     0.174 HD
ENDBRANCH  24  29
ENDBRANCH  19  20
ENDBRANCH  11  19
BRANCH  16  32
HETATM   32  O2  UNL     1      16.806   0.325  11.886  1.00  0.00    -0.267 OA
ATOM     33  H2  UNL     1      15.933   0.021  11.664  1.00  0.00     0.247 HD
ENDBRANCH  16  32
ENDBRANCH   6   7
BRANCH   6  34
HETATM   34  O1  UNL     1      18.277   3.089  16.271  1.00  0.00    -0.370 OA
ATOM     35  H1  UNL     1      18.281   3.271  17.203  1.00  0.00     0.212 HD
ENDBRANCH   6  34
ENDBRANCH   4   6
ENDBRANCH   1   4
TORSDOF 8
ENDMDL
MODEL 2
REMARK VINA RESULT: -7.354698222      2.708      5.971
REMARK  8 active torsions:
REMARK  status: ('A' for Active; 'I' for Inactive)
REMARK    1  A    between atoms: C3_5  and  N2_6 
REMARK    2  A    between atoms: C5_12  and  C6_13 
REMARK    3  A    between atoms: C6_13  and  N4_14 
REMARK    4  A    between atoms: C10_22  and  C11_23 
REMARK    5  A    between atoms: C11_23  and  O1_24 
REMARK    6  A    between atoms: C11_23  and  N7_26 
REMARK    7  A    between atoms: N7_26  and  C12_28 
REMARK    8  A    between atoms: N10_33  and  O2_34 
ROOT
HETATM    1  C12 UNL     1      17.071   0.861  12.057  1.00  0.00     0.241 C 
HETATM    2  C13 UNL     1      17.984  -0.194  11.645  1.00  0.00     0.078 C 
HETATM    3  N8  UNL     1      18.733  -1.021  11.343  1.00  0.00    -0.196 NA
ENDROOT
BRANCH   1   4
HETATM    4  N7  UNL     1      16.464   1.615  11.032  1.00  0.00    -0.379 N 
ATOM      5  H7  UNL     1      15.460   1.540  10.870  1.00  0.00     0.157 HD
BRANCH   4   6
HETATM    6  C11 UNL     1      17.237   2.466  10.237  1.00  0.00     0.284 C 
BRANCH   6   7
HETATM    7  C10 UNL     1      17.169   3.893  10.641  1.00  0.00     0.149 A 
HETATM    8  N6  UNL     1      17.437   4.319  11.876  1.00  0.00    -0.324 N 
HETATM    9  C9  UNL     1      17.376   5.618  12.234  1.00  0.00     0.157 A 
ATOM     10  H6  UNL     1      17.699   3.631  12.582  1.00  0.00     0.169 HD
HETATM   11  N4  UNL     1      17.579   6.275  13.372  1.00  0.00    -0.270 N 
HETATM   12  C8  UNL     1      17.015   6.566  11.266  1.00  0.00     0.143 A 
HETATM   13  N5  UNL     1      17.348   7.596  13.124  1.00  0.00    -0.305 N 
HETATM   14  C7  UNL     1      17.010   7.795  11.871  1.00  0.00     0.145 A 
ATOM     15  H5  UNL     1      17.427   8.335  13.823  1.00  0.00     0.186 HD
HETATM   16  N10 UNL     1      16.752   6.115  10.032  1.00  0.00    -0.157 N 
HETATM   17  N9  UNL     1      16.821   4.839   9.721  1.00  0.00    -0.258 N 
ATOM     18  H9  UNL     1      16.610   4.548   8.766  1.00  0.00     0.191 HD
BRANCH  11  19
HETATM   19  C6  UNL     1      18.011   5.802  14.670  1.00  0.00     0.193 C 
BRANCH  19  20
HETATM   20  C5  UNL     1      16.958   5.001  15.305  1.00  0.00     0.000 A 
HETATM   21  C2  UNL     1      15.655   5.292  15.416  1.00  0.00     0.032 A 
HETATM   22  C1  UNL     1      15.084   6.572  15.018  1.00  0.00     0.069 C 
HETATM   23  N1  UNL     1      14.801   4.377  15.974  1.00  0.00    -0.196 N 
HETATM   24  C3  UNL     1      15.225   3.186  16.422  1.00  0.00     0.675 A 
ATOM     25  H1  UNL     1      13.811   4.610  16.052  1.00  0.00     0.184 HD
HETATM   26  N3  UNL     1      16.530   2.869  16.324  1.00  0.00    -0.202 N 
HETATM   27  C4  UNL     1      17.376   3.746  15.783  1.00  0.00     0.117 A 
ATOM     28  H3  UNL     1      16.868   1.967  16.661  1.00  0.00     0.183 HD
BRANCH  24  29
HETATM   29  N2  UNL     1      14.337   2.399  16.927  1.00  0.00    -0.234 N 
ATOM     30  H22 UNL     1      13.332   2.541  16.821  1.00  0.00     0.174 HD
ATOM     31  H21 UNL     1      14.675   1.597  17.459  1.00  0.00     0.174 HD
ENDBRANCH  24  29
ENDBRANCH  19  20
ENDBRANCH  11  19
BRANCH  16  32
HETATM   32  O2  UNL     1      16.400   7.079   9.109  1.00  0.00    -0.267 OA
ATOM     33  H2  UNL     1      16.432   7.976   9.422  1.00  0.00     0.247 HD
ENDBRANCH  16  32
ENDBRANCH   6   7
BRANCH   6  34
HETATM   34  O1  UNL     1      16.805   2.359   8.874  1.00  0.00    -0.370 OA
ATOM     35  H1  UNL     1      15.896   2.083   8.867  1.00  0.00     0.212 HD
ENDBRANCH   6  34
ENDBRANCH   4   6
ENDBRANCH   1   4
TORSDOF 8
ENDMDL
MODEL 3
REMARK VINA RESULT: -7.309797485      1.990      2.666
REMARK  8 active torsions:
REMARK  status: ('A' for Active; 'I' for Inactive)
REMARK    1  A    between atoms: C3_5  and  N2_6 
REMARK    2  A    between atoms: C5_12  and  C6_13 
REMARK    3  A    between atoms: C6_13  and  N4_14 
REMARK    4  A    between atoms: C10_22  and  C11_23 
REMARK    5  A    between atoms: C11_23  and  O1_24 
REMARK    6  A    between atoms: C11_23  and  N7_26 
REMARK    7  A    between atoms: N7_26  and  C12_28 
REMARK    8  A    between atoms: N10_33  and  O2_34 
ROOT
HETATM    1  C12 UNL     1      15.026   4.335  15.953  1.00  0.00     0.241 C 
HETATM    2  C13 UNL     1      14.868   5.373  14.946  1.00  0.00     0.078 C 
HETATM    3  N8  UNL     1      14.715   6.178  14.132  1.00  0.00    -0.196 NA
ENDROOT
BRANCH   1   4
HETATM    4  N7  UNL     1      16.341   3.907  16.227  1.00  0.00    -0.379 N 
ATOM      5  H7  UNL     1      16.994   4.536  16.695  1.00  0.00     0.157 HD
BRANCH   4   6
HETATM    6  C11 UNL     1      16.752   2.623  15.858  1.00  0.00     0.284 C 
BRANCH   6   7
HETATM    7  C10 UNL     1      17.130   2.500  14.427  1.00  0.00     0.149 A 
HETATM    8  N6  UNL     1      17.714   3.480  13.736  1.00  0.00    -0.324 N 
HETATM    9  C9  UNL     1      18.057   3.358  12.438  1.00  0.00     0.157 A 
ATOM     10  H6  UNL     1      17.910   4.361  14.211  1.00  0.00     0.169 HD
HETATM   11  N4  UNL     1      18.623   4.171  11.550  1.00  0.00    -0.270 N 
HETATM   12  C8  UNL     1      17.787   2.148  11.782  1.00  0.00     0.143 A 
HETATM   13  N5  UNL     1      18.701   3.489  10.370  1.00  0.00    -0.305 N 
HETATM   14  C7  UNL     1      18.209   2.278  10.484  1.00  0.00     0.145 A 
ATOM     15  H5  UNL     1      19.092   3.873   9.510  1.00  0.00     0.186 HD
HETATM   16  N10 UNL     1      17.201   1.179  12.496  1.00  0.00    -0.157 N 
HETATM   17  N9  UNL     1      16.881   1.336  13.763  1.00  0.00    -0.258 N 
ATOM     18  H9  UNL     1      16.434   0.565  14.261  1.00  0.00     0.191 HD
BRANCH  11  19
HETATM   19  C6  UNL     1      19.142   5.514  11.697  1.00  0.00     0.193 C 
BRANCH  19  20
HETATM   20  C5  UNL     1      18.044   6.487  11.763  1.00  0.00     0.000 A 
HETATM   21  C2  UNL     1      17.673   7.241  12.805  1.00  0.00     0.032 A 
HETATM   22  C1  UNL     1      18.250   7.105  14.137  1.00  0.00     0.069 C 
HETATM   23  N1  UNL     1      16.667   8.159  12.654  1.00  0.00    -0.196 N 
HETATM   24  C3  UNL     1      16.030   8.333  11.487  1.00  0.00     0.675 A 
ATOM     25  H1  UNL     1      16.394   8.728  13.455  1.00  0.00     0.184 HD
HETATM   26  N3  UNL     1      16.383   7.587  10.423  1.00  0.00    -0.202 N 
HETATM   27  C4  UNL     1      17.360   6.689  10.551  1.00  0.00     0.117 A 
ATOM     28  H3  UNL     1      15.907   7.707   9.528  1.00  0.00     0.183 HD
BRANCH  24  29
HETATM   29  N2  UNL     1      15.101   9.227  11.453  1.00  0.00    -0.234 N 
ATOM     30  H22 UNL     1      15.218  10.146  11.025  1.00  0.00     0.174 HD
ATOM     31  H21 UNL     1      14.209   8.986  11.885  1.00  0.00     0.174 HD
ENDBRANCH  24  29
ENDBRANCH  19  20
ENDBRANCH  11  19
BRANCH  16  32
HETATM   32  O2  UNL     1      16.953   0.004  11.814  1.00  0.00    -0.267 OA
ATOM     33  H2  UNL     1      17.669  -0.620  11.802  1.00  0.00     0.247 HD
ENDBRANCH  16  32
ENDBRANCH   6   7
BRANCH   6  34
HETATM   34  O1  UNL     1      15.694   1.695  16.131  1.00  0.00    -0.370 OA
ATOM     35  H1  UNL     1      15.528   1.693  17.066  1.00  0.00     0.212 HD
ENDBRANCH   6  34
ENDBRANCH   4   6
ENDBRANCH   1   4
TORSDOF 8
ENDMDL
MODEL 4
REMARK VINA RESULT: -7.256124008      2.004      4.630
REMARK  8 active torsions:
REMARK  status: ('A' for Active; 'I' for Inactive)
REMARK    1  A    between atoms: C3_5  and  N2_6 
REMARK    2  A    between atoms: C5_12  and  C6_13 
REMARK    3  A    between atoms: C6_13  and  N4_14 
REMARK    4  A    between atoms: C10_22  and  C11_23 
REMARK    5  A    between atoms: C11_23  and  O1_24 
REMARK    6  A    between atoms: C11_23  and  N7_26 
REMARK    7  A    between atoms: N7_26  and  C12_28 
REMARK    8  A    between atoms: N10_33  and  O2_34 
ROOT
HETATM    1  C12 UNL     1      15.017   2.684  16.833  1.00  0.00     0.241 C 
HETATM    2  C13 UNL     1      15.074   3.511  18.030  1.00  0.00     0.078 C 
HETATM    3  N8  UNL     1      15.083   4.166  18.981  1.00  0.00    -0.196 NA
ENDROOT
BRANCH   1   4
HETATM    4  N7  UNL     1      15.854   3.057  15.761  1.00  0.00    -0.379 N 
ATOM      5  H7  UNL     1      15.555   2.890  14.800  1.00  0.00     0.157 HD
BRANCH   4   6
HETATM    6  C11 UNL     1      17.092   3.655  16.013  1.00  0.00     0.284 C 
BRANCH   6   7
HETATM    7  C10 UNL     1      17.561   4.548  14.924  1.00  0.00     0.149 A 
HETATM    8  N6  UNL     1      17.351   4.300  13.630  1.00  0.00    -0.324 N 
HETATM    9  C9  UNL     1      17.778   5.120  12.648  1.00  0.00     0.157 A 
ATOM     10  H6  UNL     1      16.845   3.453  13.373  1.00  0.00     0.169 HD
HETATM   11  N4  UNL     1      17.706   5.087  11.320  1.00  0.00    -0.270 N 
HETATM   12  C8  UNL     1      18.476   6.284  12.998  1.00  0.00     0.143 A 
HETATM   13  N5  UNL     1      18.344   6.199  10.853  1.00  0.00    -0.305 N 
HETATM   14  C7  UNL     1      18.811   6.931  11.838  1.00  0.00     0.145 A 
ATOM     15  H5  UNL     1      18.445   6.433   9.865  1.00  0.00     0.186 HD
HETATM   16  N10 UNL     1      18.674   6.512  14.303  1.00  0.00    -0.157 N 
HETATM   17  N9  UNL     1      18.242   5.689  15.234  1.00  0.00    -0.258 N 
ATOM     18  H9  UNL     1      18.421   5.909  16.214  1.00  0.00     0.191 HD
BRANCH  11  19
HETATM   19  C6  UNL     1      17.062   4.142  10.432  1.00  0.00     0.193 C 
BRANCH  19  20
HETATM   20  C5  UNL     1      17.538   2.779  10.697  1.00  0.00     0.000 A 
HETATM   21  C2  UNL     1      18.800   2.331  10.695  1.00  0.00     0.032 A 
HETATM   22  C1  UNL     1      19.936   3.144  10.279  1.00  0.00     0.069 C 
HETATM   23  N1  UNL     1      19.060   1.033  11.048  1.00  0.00    -0.196 N 
HETATM   24  C3  UNL     1      18.086   0.181  11.400  1.00  0.00     0.675 A 
ATOM     25  H1  UNL     1      20.025   0.704  11.044  1.00  0.00     0.184 HD
HETATM   26  N3  UNL     1      16.807   0.605  11.409  1.00  0.00    -0.202 N 
HETATM   27  C4  UNL     1      16.535   1.865  11.069  1.00  0.00     0.117 A 
ATOM     28  H3  UNL     1      16.055  -0.032  11.673  1.00  0.00     0.183 HD
BRANCH  24  29
HETATM   29  N2  UNL     1      18.441  -1.017  11.718  1.00  0.00    -0.234 N 
ATOM     30  H22 UNL     1      17.816  -1.692  12.160  1.00  0.00     0.174 HD
ATOM     31  H21 UNL     1      19.403  -1.287  11.511  1.00  0.00     0.174 HD
ENDBRANCH  24  29
ENDBRANCH  19  20
ENDBRANCH  11  19
BRANCH  16  32
HETATM   32  O2  UNL     1      19.364   7.669  14.606  1.00  0.00    -0.267 OA
ATOM     33  H2  UNL     1      19.454   7.860  15.532  1.00  0.00     0.247 HD
ENDBRANCH  16  32
ENDBRANCH   6   7
BRANCH   6  34
HETATM   34  O1  UNL     1      18.075   2.632  16.219  1.00  0.00    -0.370 OA
ATOM     35  H1  UNL     1      18.004   2.321  17.114  1.00  0.00     0.212 HD
ENDBRANCH   6  34
ENDBRANCH   4   6
ENDBRANCH   1   4
TORSDOF 8
ENDMDL
MODEL 5
REMARK VINA RESULT: -7.240984498      2.443      5.572
REMARK  8 active torsions:
REMARK  status: ('A' for Active; 'I' for Inactive)
REMARK    1  A    between atoms: C3_5  and  N2_6 
REMARK    2  A    between atoms: C5_12  and  C6_13 
REMARK    3  A    between atoms: C6_13  and  N4_14 
REMARK    4  A    between atoms: C10_22  and  C11_23 
REMARK    5  A    between atoms: C11_23  and  O1_24 
REMARK    6  A    between atoms: C11_23  and  N7_26 
REMARK    7  A    between atoms: N7_26  and  C12_28 
REMARK    8  A    between atoms: N10_33  and  O2_34 
ROOT
HETATM    1  C12 UNL     1      17.072   0.907  12.226  1.00  0.00     0.241 C 
HETATM    2  C13 UNL     1      17.974  -0.113  11.712  1.00  0.00     0.078 C 
HETATM    3  N8  UNL     1      18.710  -0.918  11.332  1.00  0.00    -0.196 NA
ENDROOT
BRANCH   1   4
HETATM    4  N7  UNL     1      16.647   1.899  11.319  1.00  0.00    -0.379 N 
ATOM      5  H7  UNL     1      15.697   2.268  11.375  1.00  0.00     0.157 HD
BRANCH   4   6
HETATM    6  C11 UNL     1      17.525   2.377  10.342  1.00  0.00     0.284 C 
BRANCH   6   7
HETATM    7  C10 UNL     1      18.438   3.443  10.825  1.00  0.00     0.149 A 
HETATM    8  N6  UNL     1      18.078   4.372  11.711  1.00  0.00    -0.324 N 
HETATM    9  C9  UNL     1      18.917   5.335  12.147  1.00  0.00     0.157 A 
ATOM     10  H6  UNL     1      17.125   4.355  12.075  1.00  0.00     0.169 HD
HETATM   11  N4  UNL     1      18.795   6.354  12.993  1.00  0.00    -0.270 N 
HETATM   12  C8  UNL     1      20.226   5.363  11.647  1.00  0.00     0.143 A 
HETATM   13  N5  UNL     1      19.995   7.003  13.019  1.00  0.00    -0.305 N 
HETATM   14  C7  UNL     1      20.867   6.428  12.223  1.00  0.00     0.145 A 
ATOM     15  H5  UNL     1      20.189   7.829  13.585  1.00  0.00     0.186 HD
HETATM   16  N10 UNL     1      20.565   4.419  10.759  1.00  0.00    -0.157 N 
HETATM   17  N9  UNL     1      19.719   3.496  10.358  1.00  0.00    -0.258 N 
ATOM     18  H9  UNL     1      20.028   2.800   9.678  1.00  0.00     0.191 HD
BRANCH  11  19
HETATM   19  C6  UNL     1      17.681   6.766  13.821  1.00  0.00     0.193 C 
BRANCH  19  20
HETATM   20  C5  UNL     1      17.184   5.637  14.616  1.00  0.00     0.000 A 
HETATM   21  C2  UNL     1      15.913   5.257  14.805  1.00  0.00     0.032 A 
HETATM   22  C1  UNL     1      14.770   6.026  14.331  1.00  0.00     0.069 C 
HETATM   23  N1  UNL     1      15.644   4.120  15.519  1.00  0.00    -0.196 N 
HETATM   24  C3  UNL     1      16.617   3.361  16.046  1.00  0.00     0.675 A 
ATOM     25  H1  UNL     1      14.673   3.841  15.656  1.00  0.00     0.184 HD
HETATM   26  N3  UNL     1      17.903   3.721  15.873  1.00  0.00    -0.202 N 
HETATM   27  C4  UNL     1      18.184   4.825  15.179  1.00  0.00     0.117 A 
ATOM     28  H3  UNL     1      18.655   3.155  16.269  1.00  0.00     0.183 HD
BRANCH  24  29
HETATM   29  N2  UNL     1      16.253   2.309  16.698  1.00  0.00    -0.234 N 
ATOM     30  H22 UNL     1      15.600   1.617  16.331  1.00  0.00     0.174 HD
ATOM     31  H21 UNL     1      16.648   2.181  17.630  1.00  0.00     0.174 HD
ENDBRANCH  24  29
ENDBRANCH  19  20
ENDBRANCH  11  19
BRANCH  16  32
HETATM   32  O2  UNL     1      21.863   4.481  10.293  1.00  0.00    -0.267 OA
ATOM     33  H2  UNL     1      22.382   3.696  10.422  1.00  0.00     0.247 HD
ENDBRANCH  16  32
ENDBRANCH   6   7
BRANCH   6  34
HETATM   34  O1  UNL     1      16.766   2.893   9.240  1.00  0.00    -0.370 OA
ATOM     35  H1  UNL     1      15.991   2.355   9.128  1.00  0.00     0.212 HD
ENDBRANCH   6  34
ENDBRANCH   4   6
ENDBRANCH   1   4
TORSDOF 8
ENDMDL
