MODEL 1
REMARK VINA RESULT: -7.162880529      0.000      0.000
REMARK  7 active torsions:
REMARK  status: ('A' for Active; 'I' for Inactive)
REMARK    1  A    between atoms: N2_6  and  C3_7 
REMARK    2  A    between atoms: C3_7  and  C4_8 
REMARK    3  A    between atoms: C4_8  and  S1_9 
REMARK    4  A    between atoms: S1_9  and  C5_10 
REMARK    5  A    between atoms: C7_14  and  C8_15 
REMARK    6  A    between atoms: C8_15  and  O2_16 
REMARK    7  A    between atoms: N4_18  and  C9_19 
ROOT
HETATM    1  C5  UNL     1      18.351   6.147  11.954  1.00  0.00     0.145 C 
HETATM    2  N3  UNL     1      19.302   6.968  11.504  1.00  0.00    -0.368 N 
ATOM      3  H3  UNL     1      19.253   7.986  11.555  1.00  0.00     0.161 HD
HETATM    4  C6  UNL     1      20.390   6.246  10.947  1.00  0.00     0.149 C 
HETATM    5  C7  UNL     1      20.185   4.861  11.396  1.00  0.00     0.136 C 
HETATM    6  N4  UNL     1      18.738   4.823  11.712  1.00  0.00    -0.291 N 
ENDROOT
BRANCH   1   7
HETATM    7  S1  UNL     1      16.861   6.771  12.705  1.00  0.00    -0.092 SA
BRANCH   7   8
HETATM    8  C4  UNL     1      16.819   6.635  14.454  1.00  0.00     0.104 C 
BRANCH   8   9
HETATM    9  C3  UNL     1      17.603   5.433  14.948  1.00  0.00     0.164 C 
BRANCH   9  10
HETATM   10  N2  UNL     1      16.683   4.494  15.561  1.00  0.00    -0.242 N 
HETATM   11  N1  UNL     1      15.372   4.814  15.627  1.00  0.00    -0.300 N 
HETATM   12  C2  UNL     1      14.463   3.984  16.155  1.00  0.00     0.181 A 
ATOM     13  H1  UNL     1      15.065   5.716  15.263  1.00  0.00     0.186 HD
HETATM   14  C1  UNL     1      14.819   2.754  16.661  1.00  0.00     0.266 A 
HETATM   15  O1  UNL     1      13.950   1.990  17.153  1.00  0.00    -0.267 OA
HETATM   16  N7  UNL     1      16.121   2.444  16.594  1.00  0.00    -0.273 N 
HETATM   17  C12 UNL     1      17.038   3.309  16.049  1.00  0.00     0.344 A 
ATOM     18  H7  UNL     1      16.438   1.545  16.955  1.00  0.00     0.173 HD
HETATM   19  O3  UNL     1      18.244   2.933  16.031  1.00  0.00    -0.245 OA
ENDBRANCH   9  10
ENDBRANCH   8   9
ENDBRANCH   7   8
ENDBRANCH   1   7
BRANCH   6  20
HETATM   20  C9  UNL     1      18.016   3.574  11.757  1.00  0.00     0.180 C 
HETATM   21  N5  UNL     1      17.972   2.696  12.679  1.00  0.00    -0.360 N 
HETATM   22  C10 UNL     1      17.120   1.586  12.315  1.00  0.00     0.142 C 
ATOM     23  H5  UNL     1      18.475   2.767  13.563  1.00  0.00     0.162 HD
HETATM   24  C11 UNL     1      16.276   2.155  11.207  1.00  0.00     0.142 C 
HETATM   25  N6  UNL     1      17.152   3.178  10.666  1.00  0.00    -0.360 N 
ATOM     26  H6  UNL     1      17.158   3.543   9.713  1.00  0.00     0.162 HD
ENDBRANCH   6  20
BRANCH   5  27
HETATM   27  C8  UNL     1      20.513   3.814  10.355  1.00  0.00     0.191 C 
BRANCH  27  28
HETATM   28  O2  UNL     1      20.939   4.487   9.213  1.00  0.00    -0.399 OA
ATOM     29  H2  UNL     1      21.644   3.977   8.831  1.00  0.00     0.209 HD
ENDBRANCH  27  28
ENDBRANCH   5  27
TORSDOF 7
ENDMDL
MODEL 2
REMARK VINA RESULT: -7.081993290      1.569      3.064
REMARK  7 active torsions:
REMARK  status: ('A' for Active; 'I' for Inactive)
REMARK    1  A    between atoms: N2_6  and  C3_7 
REMARK    2  A    between atoms: C3_7  and  C4_8 
REMARK    3  A    between atoms: C4_8  and  S1_9 
REMARK    4  A    between atoms: S1_9  and  C5_10 
REMARK    5  A    between atoms: C7_14  and  C8_15 
REMARK    6  A    between atoms: C8_15  and  O2_16 
REMARK    7  A    between atoms: N4_18  and  C9_19 
ROOT
HETATM    1  C5  UNL     1      17.147   4.466  11.933  1.00  0.00     0.145 C 
HETATM    2  N3  UNL     1      16.226   3.530  12.171  1.00  0.00    -0.368 N 
ATOM      3  H3  UNL     1      15.333   3.707  12.631  1.00  0.00     0.161 HD
HETATM    4  C6  UNL     1      16.646   2.257  11.702  1.00  0.00     0.149 C 
HETATM    5  C7  UNL     1      17.797   2.543  10.832  1.00  0.00     0.136 C 
HETATM    6  N4  UNL     1      18.249   3.873  11.303  1.00  0.00    -0.291 N 
ENDROOT
BRANCH   1   7
HETATM    7  S1  UNL     1      16.897   6.162  12.414  1.00  0.00    -0.092 SA
BRANCH   7   8
HETATM    8  C4  UNL     1      16.851   6.425  14.148  1.00  0.00     0.104 C 
BRANCH   8   9
HETATM    9  C3  UNL     1      17.635   5.366  14.902  1.00  0.00     0.164 C 
BRANCH   9  10
HETATM   10  N2  UNL     1      16.700   4.454  15.535  1.00  0.00    -0.242 N 
HETATM   11  N1  UNL     1      15.390   4.781  15.565  1.00  0.00    -0.300 N 
HETATM   12  C2  UNL     1      14.469   3.975  16.109  1.00  0.00     0.181 A 
ATOM     13  H1  UNL     1      15.093   5.670  15.162  1.00  0.00     0.186 HD
HETATM   14  C1  UNL     1      14.811   2.764  16.668  1.00  0.00     0.266 A 
HETATM   15  O1  UNL     1      13.930   2.022  17.173  1.00  0.00    -0.267 OA
HETATM   16  N7  UNL     1      16.112   2.447  16.635  1.00  0.00    -0.273 N 
HETATM   17  C12 UNL     1      17.042   3.288  16.073  1.00  0.00     0.344 A 
ATOM     18  H7  UNL     1      16.420   1.561  17.036  1.00  0.00     0.173 HD
HETATM   19  O3  UNL     1      18.247   2.907  16.091  1.00  0.00    -0.245 OA
ENDBRANCH   9  10
ENDBRANCH   8   9
ENDBRANCH   7   8
ENDBRANCH   1   7
BRANCH   6  20
HETATM   20  C9  UNL     1      19.591   4.338  11.049  1.00  0.00     0.180 C 
HETATM   21  N5  UNL     1      20.168   4.586   9.940  1.00  0.00    -0.360 N 
HETATM   22  C10 UNL     1      21.528   5.034  10.136  1.00  0.00     0.142 C 
ATOM     23  H5  UNL     1      19.724   4.480   9.027  1.00  0.00     0.162 HD
HETATM   24  C11 UNL     1      21.536   5.470  11.577  1.00  0.00     0.142 C 
HETATM   25  N6  UNL     1      20.490   4.637  12.143  1.00  0.00    -0.360 N 
ATOM     26  H6  UNL     1      20.407   4.327  13.111  1.00  0.00     0.162 HD
ENDBRANCH   6  20
BRANCH   5  27
HETATM   27  C8  UNL     1      18.926   1.544  10.946  1.00  0.00     0.191 C 
BRANCH  27  28
HETATM   28  O2  UNL     1      18.360   0.317  11.283  1.00  0.00    -0.399 OA
ATOM     29  H2  UNL     1      18.802  -0.348  10.769  1.00  0.00     0.209 HD
ENDBRANCH  27  28
ENDBRANCH   5  27
TORSDOF 7
ENDMDL
MODEL 3
REMARK VINA RESULT: -6.857563588      1.466      1.668
REMARK  7 active torsions:
REMARK  status: ('A' for Active; 'I' for Inactive)
REMARK    1  A    between atoms: N2_6  and  C3_7 
REMARK    2  A    between atoms: C3_7  and  C4_8 
REMARK    3  A    between atoms: C4_8  and  S1_9 
REMARK    4  A    between atoms: S1_9  and  C5_10 
REMARK    5  A    between atoms: C7_14  and  C8_15 
REMARK    6  A    between atoms: C8_15  and  O2_16 
REMARK    7  A    between atoms: N4_18  and  C9_19 
ROOT
HETATM    1  C5  UNL     1      19.455   6.322  12.941  1.00  0.00     0.145 C 
HETATM    2  N3  UNL     1      20.277   7.365  12.802  1.00  0.00    -0.368 N 
ATOM      3  H3  UNL     1      20.353   8.129  13.473  1.00  0.00     0.161 HD
HETATM    4  C6  UNL     1      21.032   7.275  11.603  1.00  0.00     0.149 C 
HETATM    5  C7  UNL     1      20.849   5.887  11.153  1.00  0.00     0.136 C 
HETATM    6  N4  UNL     1      19.599   5.477  11.833  1.00  0.00    -0.291 N 
ENDROOT
BRANCH   1   7
HETATM    7  S1  UNL     1      18.380   6.166  14.352  1.00  0.00    -0.092 SA
BRANCH   7   8
HETATM    8  C4  UNL     1      16.675   6.367  13.989  1.00  0.00     0.104 C 
BRANCH   8   9
HETATM    9  C3  UNL     1      16.019   5.053  13.602  1.00  0.00     0.164 C 
BRANCH   9  10
HETATM   10  N2  UNL     1      16.004   4.179  14.760  1.00  0.00    -0.242 N 
HETATM   11  N1  UNL     1      15.219   4.502  15.810  1.00  0.00    -0.300 N 
HETATM   12  C2  UNL     1      15.137   3.727  16.900  1.00  0.00     0.181 A 
ATOM     13  H1  UNL     1      14.672   5.362  15.773  1.00  0.00     0.186 HD
HETATM   14  C1  UNL     1      15.851   2.556  17.007  1.00  0.00     0.266 A 
HETATM   15  O1  UNL     1      15.759   1.843  18.039  1.00  0.00    -0.267 OA
HETATM   16  N7  UNL     1      16.628   2.243  15.961  1.00  0.00    -0.273 N 
HETATM   17  C12 UNL     1      16.700   3.050  14.853  1.00  0.00     0.344 A 
ATOM     18  H7  UNL     1      17.180   1.385  15.989  1.00  0.00     0.173 HD
HETATM   19  O3  UNL     1      17.463   2.677  13.917  1.00  0.00    -0.245 OA
ENDBRANCH   9  10
ENDBRANCH   8   9
ENDBRANCH   7   8
ENDBRANCH   1   7
BRANCH   6  20
HETATM   20  C9  UNL     1      18.810   4.371  11.344  1.00  0.00     0.180 C 
HETATM   21  N5  UNL     1      17.717   4.382  10.689  1.00  0.00    -0.360 N 
HETATM   22  C10 UNL     1      17.261   3.043  10.396  1.00  0.00     0.142 C 
ATOM     23  H5  UNL     1      17.226   5.231  10.407  1.00  0.00     0.162 HD
HETATM   24  C11 UNL     1      18.505   2.214  10.573  1.00  0.00     0.142 C 
HETATM   25  N6  UNL     1      19.252   3.007  11.533  1.00  0.00    -0.360 N 
ATOM     26  H6  UNL     1      19.944   2.671  12.203  1.00  0.00     0.162 HD
ENDBRANCH   6  20
BRANCH   5  27
HETATM   27  C8  UNL     1      20.697   5.733   9.657  1.00  0.00     0.191 C 
BRANCH  27  28
HETATM   28  O2  UNL     1      21.111   4.444   9.330  1.00  0.00    -0.399 OA
ATOM     29  H2  UNL     1      20.906   4.305   8.412  1.00  0.00     0.209 HD
ENDBRANCH  27  28
ENDBRANCH   5  27
TORSDOF 7
ENDMDL
MODEL 4
REMARK VINA RESULT: -6.754371684      1.060      1.543
REMARK  7 active torsions:
REMARK  status: ('A' for Active; 'I' for Inactive)
REMARK    1  A    between atoms: N2_6  and  C3_7 
REMARK    2  A    between atoms: C3_7  and  C4_8 
REMARK    3  A    between atoms: C4_8  and  S1_9 
REMARK    4  A    between atoms: S1_9  and  C5_10 
REMARK    5  A    between atoms: C7_14  and  C8_15 
REMARK    6  A    between atoms: C8_15  and  O2_16 
REMARK    7  A    between atoms: N4_18  and  C9_19 
ROOT
HETATM    1  C5  UNL     1      18.635   6.258  12.072  1.00  0.00     0.145 C 
HETATM    2  N3  UNL     1      19.644   7.031  11.662  1.00  0.00    -0.368 N 
ATOM      3  H3  UNL     1      19.683   8.041  11.793  1.00  0.00     0.161 HD
HETATM    4  C6  UNL     1      20.655   6.266  11.021  1.00  0.00     0.149 C 
HETATM    5  C7  UNL     1      20.341   4.872  11.366  1.00  0.00     0.136 C 
HETATM    6  N4  UNL     1      18.903   4.931  11.717  1.00  0.00    -0.291 N 
ENDROOT
BRANCH   1   7
HETATM    7  S1  UNL     1      17.219   6.943  12.909  1.00  0.00    -0.092 SA
BRANCH   7   8
HETATM    8  C4  UNL     1      16.972   6.331  14.535  1.00  0.00     0.104 C 
BRANCH   8   9
HETATM    9  C3  UNL     1      15.512   6.019  14.807  1.00  0.00     0.164 C 
BRANCH   9  10
HETATM   10  N2  UNL     1      15.429   4.755  15.514  1.00  0.00    -0.242 N 
HETATM   11  N1  UNL     1      16.147   3.705  15.061  1.00  0.00    -0.300 N 
HETATM   12  C2  UNL     1      16.138   2.517  15.680  1.00  0.00     0.181 A 
ATOM     13  H1  UNL     1      16.714   3.820  14.221  1.00  0.00     0.186 HD
HETATM   14  C1  UNL     1      15.392   2.303  16.817  1.00  0.00     0.266 A 
HETATM   15  O1  UNL     1      15.398   1.180  17.383  1.00  0.00    -0.267 OA
HETATM   16  N7  UNL     1      14.681   3.349  17.260  1.00  0.00    -0.273 N 
HETATM   17  C12 UNL     1      14.703   4.559  16.611  1.00  0.00     0.344 A 
ATOM     18  H7  UNL     1      14.110   3.244  18.099  1.00  0.00     0.173 HD
HETATM   19  O3  UNL     1      13.998   5.487  17.100  1.00  0.00    -0.245 OA
ENDBRANCH   9  10
ENDBRANCH   8   9
ENDBRANCH   7   8
ENDBRANCH   1   7
BRANCH   6  20
HETATM   20  C9  UNL     1      18.078   3.746  11.684  1.00  0.00     0.180 C 
HETATM   21  N5  UNL     1      18.084   2.732  12.455  1.00  0.00    -0.360 N 
HETATM   22  C10 UNL     1      17.086   1.762  12.066  1.00  0.00     0.142 C 
ATOM     23  H5  UNL     1      18.716   2.618  13.248  1.00  0.00     0.162 HD
HETATM   24  C11 UNL     1      16.147   2.568  11.208  1.00  0.00     0.142 C 
HETATM   25  N6  UNL     1      17.029   3.602  10.697  1.00  0.00    -0.360 N 
ATOM     26  H6  UNL     1      16.931   4.119   9.824  1.00  0.00     0.162 HD
ENDBRANCH   6  20
BRANCH   5  27
HETATM   27  C8  UNL     1      20.557   3.888  10.239  1.00  0.00     0.191 C 
BRANCH  27  28
HETATM   28  O2  UNL     1      20.996   4.615   9.135  1.00  0.00    -0.399 OA
ATOM     29  H2  UNL     1      20.228   4.842   8.623  1.00  0.00     0.209 HD
ENDBRANCH  27  28
ENDBRANCH   5  27
TORSDOF 7
ENDMDL
MODEL 5
REMARK VINA RESULT: -6.668290307      1.220      1.586
REMARK  7 active torsions:
REMARK  status: ('A' for Active; 'I' for Inactive)
REMARK    1  A    between atoms: N2_6  and  C3_7 
REMARK    2  A    between atoms: C3_7  and  C4_8 
REMARK    3  A    between atoms: C4_8  and  S1_9 
REMARK    4  A    between atoms: S1_9  and  C5_10 
REMARK    5  A    between atoms: C7_14  and  C8_15 
REMARK    6  A    between atoms: C8_15  and  O2_16 
REMARK    7  A    between atoms: N4_18  and  C9_19 
ROOT
HETATM    1  C5  UNL     1      18.221   6.503  11.251  1.00  0.00     0.145 C 
HETATM    2  N3  UNL     1      19.279   7.239  10.900  1.00  0.00    -0.368 N 
ATOM      3  H3  UNL     1      19.243   8.238  10.700  1.00  0.00     0.161 HD
HETATM    4  C6  UNL     1      20.460   6.452  10.842  1.00  0.00     0.149 C 
HETATM    5  C7  UNL     1      20.106   5.199  11.525  1.00  0.00     0.136 C 
HETATM    6  N4  UNL     1      18.627   5.176  11.434  1.00  0.00    -0.291 N 
ENDROOT
BRANCH   1   7
HETATM    7  S1  UNL     1      16.598   7.222  11.402  1.00  0.00    -0.092 SA
BRANCH   7   8
HETATM    8  C4  UNL     1      15.980   7.276  13.044  1.00  0.00     0.104 C 
BRANCH   8   9
HETATM    9  C3  UNL     1      17.097   7.255  14.072  1.00  0.00     0.164 C 
BRANCH   9  10
HETATM   10  N2  UNL     1      17.092   5.968  14.741  1.00  0.00    -0.242 N 
HETATM   11  N1  UNL     1      15.912   5.346  14.949  1.00  0.00    -0.300 N 
HETATM   12  C2  UNL     1      15.836   4.144  15.537  1.00  0.00     0.181 A 
ATOM     13  H1  UNL     1      15.051   5.804  14.650  1.00  0.00     0.186 HD
HETATM   14  C1  UNL     1      16.963   3.478  15.962  1.00  0.00     0.266 A 
HETATM   15  O1  UNL     1      16.869   2.350  16.512  1.00  0.00    -0.267 OA
HETATM   16  N7  UNL     1      18.130   4.102  15.753  1.00  0.00    -0.273 N 
HETATM   17  C12 UNL     1      18.187   5.334  15.150  1.00  0.00     0.344 A 
ATOM     18  H7  UNL     1      18.996   3.652  16.050  1.00  0.00     0.173 HD
HETATM   19  O3  UNL     1      19.332   5.848  14.997  1.00  0.00    -0.245 OA
ENDBRANCH   9  10
ENDBRANCH   8   9
ENDBRANCH   7   8
ENDBRANCH   1   7
BRANCH   6  20
HETATM   20  C9  UNL     1      17.890   3.942  11.568  1.00  0.00     0.180 C 
HETATM   21  N5  UNL     1      17.847   3.125  12.544  1.00  0.00    -0.360 N 
HETATM   22  C10 UNL     1      16.977   2.005  12.263  1.00  0.00     0.142 C 
ATOM     23  H5  UNL     1      18.362   3.246  13.417  1.00  0.00     0.162 HD
HETATM   24  C11 UNL     1      16.126   2.514  11.130  1.00  0.00     0.142 C 
HETATM   25  N6  UNL     1      17.008   3.489  10.514  1.00  0.00    -0.360 N 
ATOM     26  H6  UNL     1      17.006   3.792   9.540  1.00  0.00     0.162 HD
ENDBRANCH   6  20
BRANCH   5  27
HETATM   27  C8  UNL     1      20.681   3.957  10.883  1.00  0.00     0.191 C 
BRANCH  27  28
HETATM   28  O2  UNL     1      20.666   4.159   9.505  1.00  0.00    -0.399 OA
ATOM     29  H2  UNL     1      21.544   3.988   9.185  1.00  0.00     0.209 HD
ENDBRANCH  27  28
ENDBRANCH   5  27
TORSDOF 7
ENDMDL
