MODEL 1
REMARK VINA RESULT: -7.550946504      0.000      0.000
REMARK  22 active torsions:
REMARK  status: ('A' for Active; 'I' for Inactive)
REMARK       I    between atoms: N1_2  and  C2_3 
REMARK    1  A    between atoms: N1_2  and  C4_10 
REMARK    2  A    between atoms: C2_3  and  C3_5 
REMARK    3  A    between atoms: C3_5  and  N2_6 
REMARK    4  A    between atoms: C5_11  and  O2_12 
REMARK    5  A    between atoms: O2_12  and  C6_13 
REMARK    6  A    between atoms: C6_13  and  C7_14 
REMARK    7  A    between atoms: C7_14  and  C8_15 
REMARK    8  A    between atoms: C8_15  and  C9_16 
REMARK    9  A    between atoms: C9_16  and  C10_17 
REMARK   10  A    between atoms: C10_17  and  C11_18 
REMARK   11  A    between atoms: C11_18  and  C12_19 
REMARK   12  A    between atoms: C12_19  and  C13_20 
REMARK   13  A    between atoms: C13_20  and  C14_21 
REMARK   14  A    between atoms: C14_21  and  C15_22 
REMARK   15  A    between atoms: C15_22  and  C16_23 
REMARK   16  A    between atoms: C16_23  and  C17_24 
REMARK   17  A    between atoms: C18_27  and  O5_28 
REMARK   18  A    between atoms: C19_30  and  C20_31 
REMARK   19  A    between atoms: C20_31  and  O6_32 
REMARK   20  A    between atoms: C20_31  and  N3_34 
REMARK   21  A    between atoms: C22_36  and  C23_37 
REMARK   22  A    between atoms: C25_41  and  C26_42 
ROOT
HETATM    1  C4  UNL     1      15.389   5.326  15.207  1.00  0.00     0.132 C 
HETATM    2  C5  UNL     1      15.501   6.625  15.910  1.00  0.00     0.174 C 
HETATM    3  C18 UNL     1      15.409   7.343  14.605  1.00  0.00     0.163 C 
HETATM    4  C19 UNL     1      15.123   6.005  13.918  1.00  0.00     0.117 C 
ENDROOT
BRANCH   2   5
HETATM    5  O2  UNL     1      14.438   6.914  16.794  1.00  0.00    -0.381 OA
BRANCH   5   6
HETATM    6  C6  UNL     1      14.934   6.654  18.104  1.00  0.00     0.168 C 
BRANCH   6   7
HETATM    7  C7  UNL     1      14.076   7.421  19.054  1.00  0.00     0.026 C 
BRANCH   7   8
HETATM    8  C8  UNL     1      13.707   8.776  18.422  1.00  0.00     0.002 C 
BRANCH   8   9
HETATM    9  C9  UNL     1      12.683   9.488  19.218  1.00  0.00     0.000 C 
BRANCH   9  10
HETATM   10  C10 UNL     1      12.479  10.921  19.005  1.00  0.00     0.000 C 
BRANCH  10  11
HETATM   11  C11 UNL     1      11.505  11.384  18.029  1.00  0.00     0.000 C 
BRANCH  11  12
HETATM   12  C12 UNL     1      11.886  12.208  16.850  1.00  0.00     0.000 C 
BRANCH  12  13
HETATM   13  C13 UNL     1      12.780  11.504  15.913  1.00  0.00     0.000 C 
BRANCH  13  14
HETATM   14  C14 UNL     1      13.383  12.241  14.790  1.00  0.00     0.001 C 
BRANCH  14  15
HETATM   15  C15 UNL     1      13.178  11.819  13.413  1.00  0.00     0.010 C 
BRANCH  15  16
HETATM   16  C16 UNL     1      14.280  11.142  12.668  1.00  0.00     0.113 C 
BRANCH  16  17
HETATM   17  C17 UNL     1      13.946  11.098  11.189  1.00  0.00     0.172 C 
HETATM   18  O3  UNL     1      13.157  11.940  10.749  1.00  0.00    -0.648 OA
HETATM   19  O4  UNL     1      14.512  10.149  10.393  1.00  0.00    -0.648 OA
ENDBRANCH  16  17
ENDBRANCH  15  16
ENDBRANCH  14  15
ENDBRANCH  13  14
ENDBRANCH  12  13
ENDBRANCH  11  12
ENDBRANCH  10  11
ENDBRANCH   9  10
ENDBRANCH   8   9
ENDBRANCH   7   8
ENDBRANCH   6   7
ENDBRANCH   5   6
ENDBRANCH   2   5
BRANCH   1  20
HETATM   20  N1  UNL     1      16.410   4.368  15.402  1.00  0.00    -0.347 N 
HETATM   21  C1  UNL     1      17.591   4.770  16.188  1.00  0.00     0.153 C 
HETATM   22  C2  UNL     1      16.360   3.055  14.905  1.00  0.00     0.245 C 
HETATM   23  O1  UNL     1      15.366   2.695  14.170  1.00  0.00    -0.272 OA
BRANCH  22  24
HETATM   24  C3  UNL     1      17.347   1.973  15.124  1.00  0.00     0.332 C 
BRANCH  24  25
HETATM   25  N2  UNL     1      18.042   1.493  13.995  1.00  0.00    -0.071 N 
ATOM     26  H23 UNL     1      18.920   2.004  13.894  1.00  0.00     0.274 HD
ATOM     27  H22 UNL     1      18.391   0.554  14.185  1.00  0.00     0.274 HD
ATOM     28  H21 UNL     1      17.546   1.496  13.103  1.00  0.00     0.274 HD
ENDBRANCH  24  25
ENDBRANCH  22  24
ENDBRANCH   1  20
BRANCH   3  29
HETATM   29  O5  UNL     1      14.263   8.174  14.590  1.00  0.00    -0.392 OA
ATOM     30  H5  UNL     1      13.593   7.792  14.035  1.00  0.00     0.210 HD
ENDBRANCH   3  29
BRANCH   4  31
HETATM   31  C20 UNL     1      15.945   5.825  12.736  1.00  0.00     0.123 C 
BRANCH  31  32
HETATM   32  O6  UNL     1      15.566   4.809  11.983  1.00  0.00    -0.349 OA
ATOM     33  H6  UNL     1      15.708   3.963  12.392  1.00  0.00     0.219 HD
ENDBRANCH  31  32
BRANCH  31  34
HETATM   34  N3  UNL     1      17.046   6.497  12.225  1.00  0.00    -0.351 N 
HETATM   35  C21 UNL     1      16.834   7.518  11.110  1.00  0.00     0.139 C 
HETATM   36  C22 UNL     1      17.423   8.717  11.886  1.00  0.00     0.095 C 
HETATM   37  C24 UNL     1      18.593   8.101  12.676  1.00  0.00     0.050 C 
HETATM   38  C25 UNL     1      18.460   6.602  12.330  1.00  0.00     0.176 C 
BRANCH  36  39
HETATM   39  C23 UNL     1      17.896   9.769  10.974  1.00  0.00     0.236 C 
HETATM   40  N4  UNL     1      18.699   9.451   9.853  1.00  0.00    -0.062 NA
HETATM   41  O7  UNL     1      17.585  10.963  11.192  1.00  0.00    -0.276 OA
ENDBRANCH  36  39
BRANCH  38  42
HETATM   42  C26 UNL     1      19.264   5.714  13.107  1.00  0.00     0.254 C 
HETATM   43  N5  UNL     1      19.271   4.280  12.873  1.00  0.00    -0.060 NA
HETATM   44  O8  UNL     1      20.013   6.089  14.034  1.00  0.00    -0.275 OA
ENDBRANCH  38  42
ENDBRANCH  31  34
ENDBRANCH   4  31
TORSDOF 22
ENDMDL
MODEL 2
REMARK VINA RESULT: -7.454583790      3.016      6.612
REMARK  22 active torsions:
REMARK  status: ('A' for Active; 'I' for Inactive)
REMARK       I    between atoms: N1_2  and  C2_3 
REMARK    1  A    between atoms: N1_2  and  C4_10 
REMARK    2  A    between atoms: C2_3  and  C3_5 
REMARK    3  A    between atoms: C3_5  and  N2_6 
REMARK    4  A    between atoms: C5_11  and  O2_12 
REMARK    5  A    between atoms: O2_12  and  C6_13 
REMARK    6  A    between atoms: C6_13  and  C7_14 
REMARK    7  A    between atoms: C7_14  and  C8_15 
REMARK    8  A    between atoms: C8_15  and  C9_16 
REMARK    9  A    between atoms: C9_16  and  C10_17 
REMARK   10  A    between atoms: C10_17  and  C11_18 
REMARK   11  A    between atoms: C11_18  and  C12_19 
REMARK   12  A    between atoms: C12_19  and  C13_20 
REMARK   13  A    between atoms: C13_20  and  C14_21 
REMARK   14  A    between atoms: C14_21  and  C15_22 
REMARK   15  A    between atoms: C15_22  and  C16_23 
REMARK   16  A    between atoms: C16_23  and  C17_24 
REMARK   17  A    between atoms: C18_27  and  O5_28 
REMARK   18  A    between atoms: C19_30  and  C20_31 
REMARK   19  A    between atoms: C20_31  and  O6_32 
REMARK   20  A    between atoms: C20_31  and  N3_34 
REMARK   21  A    between atoms: C22_36  and  C23_37 
REMARK   22  A    between atoms: C25_41  and  C26_42 
ROOT
HETATM    1  C4  UNL     1      17.034   4.791  14.769  1.00  0.00     0.132 C 
HETATM    2  C5  UNL     1      16.116   5.635  15.568  1.00  0.00     0.174 C 
HETATM    3  C18 UNL     1      16.774   5.169  16.823  1.00  0.00     0.163 C 
HETATM    4  C19 UNL     1      17.819   4.440  15.974  1.00  0.00     0.117 C 
ENDROOT
BRANCH   2   5
HETATM    5  O2  UNL     1      16.241   7.024  15.343  1.00  0.00    -0.381 OA
BRANCH   5   6
HETATM    6  C6  UNL     1      15.010   7.441  14.758  1.00  0.00     0.168 C 
BRANCH   6   7
HETATM    7  C7  UNL     1      15.353   8.279  13.572  1.00  0.00     0.026 C 
BRANCH   7   8
HETATM    8  C8  UNL     1      14.826   9.710  13.793  1.00  0.00     0.002 C 
BRANCH   8   9
HETATM    9  C9  UNL     1      13.904   9.778  14.948  1.00  0.00     0.000 C 
BRANCH   9  10
HETATM   10  C10 UNL     1      13.127  10.997  15.174  1.00  0.00     0.000 C 
BRANCH  10  11
HETATM   11  C11 UNL     1      13.060  11.586  16.501  1.00  0.00     0.000 C 
BRANCH  11  12
HETATM   12  C12 UNL     1      11.770  11.860  17.190  1.00  0.00     0.000 C 
BRANCH  12  13
HETATM   13  C13 UNL     1      11.627  11.135  18.465  1.00  0.00     0.000 C 
BRANCH  13  14
HETATM   14  C14 UNL     1      12.794  10.453  19.049  1.00  0.00     0.001 C 
BRANCH  14  15
HETATM   15  C15 UNL     1      12.761   9.033  19.363  1.00  0.00     0.010 C 
BRANCH  15  16
HETATM   16  C16 UNL     1      13.804   8.440  20.250  1.00  0.00     0.113 C 
BRANCH  16  17
HETATM   17  C17 UNL     1      14.773   7.616  19.423  1.00  0.00     0.172 C 
HETATM   18  O3  UNL     1      14.576   7.543  18.206  1.00  0.00    -0.648 OA
HETATM   19  O4  UNL     1      15.818   6.986  20.028  1.00  0.00    -0.648 OA
ENDBRANCH  16  17
ENDBRANCH  15  16
ENDBRANCH  14  15
ENDBRANCH  13  14
ENDBRANCH  12  13
ENDBRANCH  11  12
ENDBRANCH  10  11
ENDBRANCH   9  10
ENDBRANCH   8   9
ENDBRANCH   7   8
ENDBRANCH   6   7
ENDBRANCH   5   6
ENDBRANCH   2   5
BRANCH   1  20
HETATM   20  N1  UNL     1      16.472   3.842  13.885  1.00  0.00    -0.347 N 
HETATM   21  C1  UNL     1      15.021   3.595  13.970  1.00  0.00     0.153 C 
HETATM   22  C2  UNL     1      17.210   3.132  12.923  1.00  0.00     0.245 C 
HETATM   23  O1  UNL     1      18.486   3.289  12.863  1.00  0.00    -0.272 OA
BRANCH  22  24
HETATM   24  C3  UNL     1      16.690   2.179  11.915  1.00  0.00     0.332 C 
BRANCH  24  25
HETATM   25  N2  UNL     1      17.209   0.868  11.937  1.00  0.00    -0.071 N 
ATOM     26  H23 UNL     1      16.967   0.393  11.068  1.00  0.00     0.274 HD
ATOM     27  H22 UNL     1      18.226   0.904  11.856  1.00  0.00     0.274 HD
ATOM     28  H21 UNL     1      16.954   0.277  12.728  1.00  0.00     0.274 HD
ENDBRANCH  24  25
ENDBRANCH  22  24
ENDBRANCH   1  20
BRANCH   3  29
HETATM   29  O5  UNL     1      17.353   6.268  17.502  1.00  0.00    -0.392 OA
ATOM     30  H5  UNL     1      17.353   6.107  18.439  1.00  0.00     0.210 HD
ENDBRANCH   3  29
BRANCH   4  31
HETATM   31  C20 UNL     1      18.019   3.076  16.428  1.00  0.00     0.123 C 
BRANCH  31  32
HETATM   32  O6  UNL     1      19.053   2.482  15.862  1.00  0.00    -0.349 OA
ATOM     33  H6  UNL     1      19.189   2.741  14.958  1.00  0.00     0.219 HD
ENDBRANCH  31  32
BRANCH  31  34
HETATM   34  N3  UNL     1      17.356   2.263  17.334  1.00  0.00    -0.351 N 
HETATM   35  C21 UNL     1      17.654   2.421  18.823  1.00  0.00     0.139 C 
HETATM   36  C22 UNL     1      16.205   2.763  19.235  1.00  0.00     0.095 C 
HETATM   37  C24 UNL     1      15.346   1.868  18.321  1.00  0.00     0.050 C 
HETATM   38  C25 UNL     1      16.414   1.201  17.428  1.00  0.00     0.176 C 
BRANCH  36  39
HETATM   39  C23 UNL     1      15.963   2.459  20.653  1.00  0.00     0.236 C 
HETATM   40  N4  UNL     1      15.821   3.498  21.603  1.00  0.00    -0.062 NA
HETATM   41  O7  UNL     1      15.882   1.266  21.026  1.00  0.00    -0.276 OA
ENDBRANCH  36  39
BRANCH  38  42
HETATM   42  C26 UNL     1      15.916   0.484  16.299  1.00  0.00     0.254 C 
HETATM   43  N5  UNL     1      16.692   0.336  15.078  1.00  0.00    -0.060 NA
HETATM   44  O8  UNL     1      14.795  -0.066  16.266  1.00  0.00    -0.275 OA
ENDBRANCH  38  42
ENDBRANCH  31  34
ENDBRANCH   4  31
TORSDOF 22
ENDMDL
MODEL 3
REMARK VINA RESULT: -7.221173150      2.914      6.399
REMARK  22 active torsions:
REMARK  status: ('A' for Active; 'I' for Inactive)
REMARK       I    between atoms: N1_2  and  C2_3 
REMARK    1  A    between atoms: N1_2  and  C4_10 
REMARK    2  A    between atoms: C2_3  and  C3_5 
REMARK    3  A    between atoms: C3_5  and  N2_6 
REMARK    4  A    between atoms: C5_11  and  O2_12 
REMARK    5  A    between atoms: O2_12  and  C6_13 
REMARK    6  A    between atoms: C6_13  and  C7_14 
REMARK    7  A    between atoms: C7_14  and  C8_15 
REMARK    8  A    between atoms: C8_15  and  C9_16 
REMARK    9  A    between atoms: C9_16  and  C10_17 
REMARK   10  A    between atoms: C10_17  and  C11_18 
REMARK   11  A    between atoms: C11_18  and  C12_19 
REMARK   12  A    between atoms: C12_19  and  C13_20 
REMARK   13  A    between atoms: C13_20  and  C14_21 
REMARK   14  A    between atoms: C14_21  and  C15_22 
REMARK   15  A    between atoms: C15_22  and  C16_23 
REMARK   16  A    between atoms: C16_23  and  C17_24 
REMARK   17  A    between atoms: C18_27  and  O5_28 
REMARK   18  A    between atoms: C19_30  and  C20_31 
REMARK   19  A    between atoms: C20_31  and  O6_32 
REMARK   20  A    between atoms: C20_31  and  N3_34 
REMARK   21  A    between atoms: C22_36  and  C23_37 
REMARK   22  A    between atoms: C25_41  and  C26_42 
ROOT
HETATM    1  C4  UNL     1      17.501   5.670  14.560  1.00  0.00     0.132 C 
HETATM    2  C5  UNL     1      18.690   5.346  15.381  1.00  0.00     0.174 C 
HETATM    3  C18 UNL     1      19.079   6.787  15.393  1.00  0.00     0.163 C 
HETATM    4  C19 UNL     1      17.759   7.122  14.693  1.00  0.00     0.117 C 
ENDROOT
BRANCH   2   5
HETATM    5  O2  UNL     1      18.401   4.825  16.662  1.00  0.00    -0.381 OA
BRANCH   5   6
HETATM    6  C6  UNL     1      17.265   3.981  16.496  1.00  0.00     0.168 C 
BRANCH   6   7
HETATM    7  C7  UNL     1      16.445   4.107  17.737  1.00  0.00     0.026 C 
BRANCH   7   8
HETATM    8  C8  UNL     1      16.419   5.582  18.179  1.00  0.00     0.002 C 
BRANCH   8   9
HETATM    9  C9  UNL     1      15.081   6.184  17.986  1.00  0.00     0.000 C 
BRANCH   9  10
HETATM   10  C10 UNL     1      14.299   6.582  19.158  1.00  0.00     0.000 C 
BRANCH  10  11
HETATM   11  C11 UNL     1      14.971   7.013  20.373  1.00  0.00     0.000 C 
BRANCH  11  12
HETATM   12  C12 UNL     1      14.917   6.228  21.637  1.00  0.00     0.000 C 
BRANCH  12  13
HETATM   13  C13 UNL     1      14.527   4.821  21.431  1.00  0.00     0.000 C 
BRANCH  13  14
HETATM   14  C14 UNL     1      15.568   3.784  21.341  1.00  0.00     0.001 C 
BRANCH  14  15
HETATM   15  C15 UNL     1      15.227   2.370  21.326  1.00  0.00     0.010 C 
BRANCH  15  16
HETATM   16  C16 UNL     1      15.965   1.433  20.430  1.00  0.00     0.113 C 
BRANCH  16  17
HETATM   17  C17 UNL     1      15.007   0.826  19.423  1.00  0.00     0.172 C 
HETATM   18  O3  UNL     1      14.195   1.576  18.872  1.00  0.00    -0.648 OA
HETATM   19  O4  UNL     1      15.061  -0.508  19.152  1.00  0.00    -0.648 OA
ENDBRANCH  16  17
ENDBRANCH  15  16
ENDBRANCH  14  15
ENDBRANCH  13  14
ENDBRANCH  12  13
ENDBRANCH  11  12
ENDBRANCH  10  11
ENDBRANCH   9  10
ENDBRANCH   8   9
ENDBRANCH   7   8
ENDBRANCH   6   7
ENDBRANCH   5   6
ENDBRANCH   2   5
BRANCH   1  20
HETATM   20  N1  UNL     1      17.339   5.004  13.323  1.00  0.00    -0.347 N 
HETATM   21  C1  UNL     1      18.540   4.429  12.688  1.00  0.00     0.153 C 
HETATM   22  C2  UNL     1      16.105   4.846  12.672  1.00  0.00     0.245 C 
HETATM   23  O1  UNL     1      15.050   5.384  13.178  1.00  0.00    -0.272 OA
BRANCH  22  24
HETATM   24  C3  UNL     1      15.838   4.103  11.419  1.00  0.00     0.332 C 
BRANCH  24  25
HETATM   25  N2  UNL     1      15.482   2.744  11.535  1.00  0.00    -0.071 N 
ATOM     26  H23 UNL     1      16.190   2.168  11.079  1.00  0.00     0.274 HD
ATOM     27  H22 UNL     1      15.592   2.447  12.505  1.00  0.00     0.274 HD
ATOM     28  H21 UNL     1      14.558   2.472  11.200  1.00  0.00     0.274 HD
ENDBRANCH  24  25
ENDBRANCH  22  24
ENDBRANCH   1  20
BRANCH   3  29
HETATM   29  O5  UNL     1      19.084   7.275  16.722  1.00  0.00    -0.392 OA
ATOM     30  H5  UNL     1      18.877   8.203  16.727  1.00  0.00     0.210 HD
ENDBRANCH   3  29
BRANCH   4  31
HETATM   31  C20 UNL     1      17.965   8.004  13.559  1.00  0.00     0.123 C 
BRANCH  31  32
HETATM   32  O6  UNL     1      19.200   8.460  13.467  1.00  0.00    -0.349 OA
ATOM     33  H6  UNL     1      19.248   9.375  13.215  1.00  0.00     0.219 HD
ENDBRANCH  31  32
BRANCH  31  34
HETATM   34  N3  UNL     1      17.139   8.470  12.547  1.00  0.00    -0.351 N 
HETATM   35  C21 UNL     1      15.701   8.855  12.887  1.00  0.00     0.139 C 
HETATM   36  C22 UNL     1      15.821  10.323  12.420  1.00  0.00     0.095 C 
HETATM   37  C24 UNL     1      16.727  10.238  11.177  1.00  0.00     0.050 C 
HETATM   38  C25 UNL     1      17.097   8.738  11.151  1.00  0.00     0.176 C 
BRANCH  36  39
HETATM   39  C23 UNL     1      14.507  10.889  12.080  1.00  0.00     0.236 C 
HETATM   40  N4  UNL     1      13.887  10.590  10.844  1.00  0.00    -0.062 NA
HETATM   41  O7  UNL     1      13.930  11.646  12.893  1.00  0.00    -0.276 OA
ENDBRANCH  36  39
BRANCH  38  42
HETATM   42  C26 UNL     1      18.136   8.374  10.243  1.00  0.00     0.254 C 
HETATM   43  N5  UNL     1      18.495   6.985  10.005  1.00  0.00    -0.060 NA
HETATM   44  O8  UNL     1      18.808   9.199   9.590  1.00  0.00    -0.275 OA
ENDBRANCH  38  42
ENDBRANCH  31  34
ENDBRANCH   4  31
TORSDOF 22
ENDMDL
MODEL 4
REMARK VINA RESULT: -7.191366785      2.226      4.265
REMARK  22 active torsions:
REMARK  status: ('A' for Active; 'I' for Inactive)
REMARK       I    between atoms: N1_2  and  C2_3 
REMARK    1  A    between atoms: N1_2  and  C4_10 
REMARK    2  A    between atoms: C2_3  and  C3_5 
REMARK    3  A    between atoms: C3_5  and  N2_6 
REMARK    4  A    between atoms: C5_11  and  O2_12 
REMARK    5  A    between atoms: O2_12  and  C6_13 
REMARK    6  A    between atoms: C6_13  and  C7_14 
REMARK    7  A    between atoms: C7_14  and  C8_15 
REMARK    8  A    between atoms: C8_15  and  C9_16 
REMARK    9  A    between atoms: C9_16  and  C10_17 
REMARK   10  A    between atoms: C10_17  and  C11_18 
REMARK   11  A    between atoms: C11_18  and  C12_19 
REMARK   12  A    between atoms: C12_19  and  C13_20 
REMARK   13  A    between atoms: C13_20  and  C14_21 
REMARK   14  A    between atoms: C14_21  and  C15_22 
REMARK   15  A    between atoms: C15_22  and  C16_23 
REMARK   16  A    between atoms: C16_23  and  C17_24 
REMARK   17  A    between atoms: C18_27  and  O5_28 
REMARK   18  A    between atoms: C19_30  and  C20_31 
REMARK   19  A    between atoms: C20_31  and  O6_32 
REMARK   20  A    between atoms: C20_31  and  N3_34 
REMARK   21  A    between atoms: C22_36  and  C23_37 
REMARK   22  A    between atoms: C25_41  and  C26_42 
ROOT
HETATM    1  C4  UNL     1      17.136   6.972  14.881  1.00  0.00     0.132 C 
HETATM    2  C5  UNL     1      16.610   6.033  15.899  1.00  0.00     0.174 C 
HETATM    3  C18 UNL     1      17.354   4.912  15.253  1.00  0.00     0.163 C 
HETATM    4  C19 UNL     1      18.020   5.925  14.318  1.00  0.00     0.117 C 
ENDROOT
BRANCH   2   5
HETATM    5  O2  UNL     1      17.024   6.302  17.223  1.00  0.00    -0.381 OA
BRANCH   5   6
HETATM    6  C6  UNL     1      15.846   6.668  17.937  1.00  0.00     0.168 C 
BRANCH   6   7
HETATM    7  C7  UNL     1      15.749   5.756  19.113  1.00  0.00     0.026 C 
BRANCH   7   8
HETATM    8  C8  UNL     1      15.314   6.567  20.348  1.00  0.00     0.002 C 
BRANCH   8   9
HETATM    9  C9  UNL     1      14.991   7.967  19.994  1.00  0.00     0.000 C 
BRANCH   9  10
HETATM   10  C10 UNL     1      13.693   8.522  20.380  1.00  0.00     0.000 C 
BRANCH  10  11
HETATM   11  C11 UNL     1      12.705   8.847  19.364  1.00  0.00     0.000 C 
BRANCH  11  12
HETATM   12  C12 UNL     1      12.153  10.219  19.197  1.00  0.00     0.000 C 
BRANCH  12  13
HETATM   13  C13 UNL     1      12.274  10.729  17.819  1.00  0.00     0.000 C 
BRANCH  13  14
HETATM   14  C14 UNL     1      13.408  10.302  16.982  1.00  0.00     0.001 C 
BRANCH  14  15
HETATM   15  C15 UNL     1      13.427  10.551  15.549  1.00  0.00     0.010 C 
BRANCH  15  16
HETATM   16  C16 UNL     1      13.254  11.940  15.031  1.00  0.00     0.113 C 
BRANCH  16  17
HETATM   17  C17 UNL     1      12.764  11.893  13.596  1.00  0.00     0.172 C 
HETATM   18  O3  UNL     1      11.797  11.170  13.338  1.00  0.00    -0.648 OA
HETATM   19  O4  UNL     1      13.390  12.635  12.641  1.00  0.00    -0.648 OA
ENDBRANCH  16  17
ENDBRANCH  15  16
ENDBRANCH  14  15
ENDBRANCH  13  14
ENDBRANCH  12  13
ENDBRANCH  11  12
ENDBRANCH  10  11
ENDBRANCH   9  10
ENDBRANCH   8   9
ENDBRANCH   7   8
ENDBRANCH   6   7
ENDBRANCH   5   6
ENDBRANCH   2   5
BRANCH   1  20
HETATM   20  N1  UNL     1      16.211   7.722  14.119  1.00  0.00    -0.347 N 
HETATM   21  C1  UNL     1      14.780   7.394  14.256  1.00  0.00     0.153 C 
HETATM   22  C2  UNL     1      16.571   8.767  13.253  1.00  0.00     0.245 C 
HETATM   23  O1  UNL     1      17.817   9.038  13.074  1.00  0.00    -0.272 OA
BRANCH  22  24
HETATM   24  C3  UNL     1      15.665   9.645  12.478  1.00  0.00     0.332 C 
BRANCH  24  25
HETATM   25  N2  UNL     1      16.049  10.992  12.319  1.00  0.00    -0.071 N 
ATOM     26  H23 UNL     1      16.246  11.399  13.233  1.00  0.00     0.274 HD
ATOM     27  H22 UNL     1      16.974  11.032  11.891  1.00  0.00     0.274 HD
ATOM     28  H21 UNL     1      15.413  11.603  11.806  1.00  0.00     0.274 HD
ENDBRANCH  24  25
ENDBRANCH  22  24
ENDBRANCH   1  20
BRANCH   3  29
HETATM   29  O5  UNL     1      18.295   4.369  16.162  1.00  0.00    -0.392 OA
ATOM     30  H5  UNL     1      18.520   3.483  15.905  1.00  0.00     0.210 HD
ENDBRANCH   3  29
BRANCH   4  31
HETATM   31  C20 UNL     1      17.964   5.492  12.934  1.00  0.00     0.123 C 
BRANCH  31  32
HETATM   32  O6  UNL     1      19.147   5.201  12.428  1.00  0.00    -0.349 OA
ATOM     33  H6  UNL     1      19.214   5.378  11.497  1.00  0.00     0.219 HD
ENDBRANCH  31  32
BRANCH  31  34
HETATM   34  N3  UNL     1      16.929   5.315  12.028  1.00  0.00    -0.351 N 
HETATM   35  C21 UNL     1      16.853   6.230  10.808  1.00  0.00     0.139 C 
HETATM   36  C22 UNL     1      16.942   5.097   9.761  1.00  0.00     0.095 C 
HETATM   37  C24 UNL     1      16.129   3.951  10.394  1.00  0.00     0.050 C 
HETATM   38  C25 UNL     1      15.764   4.540  11.774  1.00  0.00     0.176 C 
BRANCH  36  39
HETATM   39  C23 UNL     1      16.363   5.508   8.473  1.00  0.00     0.236 C 
HETATM   40  N4  UNL     1      16.490   4.688   7.327  1.00  0.00    -0.062 NA
HETATM   41  O7  UNL     1      15.751   6.597   8.389  1.00  0.00    -0.276 OA
ENDBRANCH  36  39
BRANCH  38  42
HETATM   42  C26 UNL     1      15.207   3.619  12.711  1.00  0.00     0.254 C 
HETATM   43  N5  UNL     1      14.278   4.044  13.746  1.00  0.00    -0.060 NA
HETATM   44  O8  UNL     1      15.464   2.397  12.720  1.00  0.00    -0.275 OA
ENDBRANCH  38  42
ENDBRANCH  31  34
ENDBRANCH   4  31
TORSDOF 22
ENDMDL
MODEL 5
REMARK VINA RESULT: -7.116367673      2.175      3.510
REMARK  22 active torsions:
REMARK  status: ('A' for Active; 'I' for Inactive)
REMARK       I    between atoms: N1_2  and  C2_3 
REMARK    1  A    between atoms: N1_2  and  C4_10 
REMARK    2  A    between atoms: C2_3  and  C3_5 
REMARK    3  A    between atoms: C3_5  and  N2_6 
REMARK    4  A    between atoms: C5_11  and  O2_12 
REMARK    5  A    between atoms: O2_12  and  C6_13 
REMARK    6  A    between atoms: C6_13  and  C7_14 
REMARK    7  A    between atoms: C7_14  and  C8_15 
REMARK    8  A    between atoms: C8_15  and  C9_16 
REMARK    9  A    between atoms: C9_16  and  C10_17 
REMARK   10  A    between atoms: C10_17  and  C11_18 
REMARK   11  A    between atoms: C11_18  and  C12_19 
REMARK   12  A    between atoms: C12_19  and  C13_20 
REMARK   13  A    between atoms: C13_20  and  C14_21 
REMARK   14  A    between atoms: C14_21  and  C15_22 
REMARK   15  A    between atoms: C15_22  and  C16_23 
REMARK   16  A    between atoms: C16_23  and  C17_24 
REMARK   17  A    between atoms: C18_27  and  O5_28 
REMARK   18  A    between atoms: C19_30  and  C20_31 
REMARK   19  A    between atoms: C20_31  and  O6_32 
REMARK   20  A    between atoms: C20_31  and  N3_34 
REMARK   21  A    between atoms: C22_36  and  C23_37 
REMARK   22  A    between atoms: C25_41  and  C26_42 
ROOT
HETATM    1  C4  UNL     1      16.034   5.669  13.417  1.00  0.00     0.132 C 
HETATM    2  C5  UNL     1      16.091   6.320  14.746  1.00  0.00     0.174 C 
HETATM    3  C18 UNL     1      16.258   7.650  14.090  1.00  0.00     0.163 C 
HETATM    4  C19 UNL     1      16.026   6.982  12.732  1.00  0.00     0.117 C 
ENDROOT
BRANCH   2   5
HETATM    5  O2  UNL     1      14.909   6.209  15.511  1.00  0.00    -0.381 OA
BRANCH   5   6
HETATM    6  C6  UNL     1      15.305   5.677  16.773  1.00  0.00     0.168 C 
BRANCH   6   7
HETATM    7  C7  UNL     1      15.614   6.838  17.657  1.00  0.00     0.026 C 
BRANCH   7   8
HETATM    8  C8  UNL     1      14.365   7.186  18.490  1.00  0.00     0.002 C 
BRANCH   8   9
HETATM    9  C9  UNL     1      13.751   8.456  18.044  1.00  0.00     0.000 C 
BRANCH   9  10
HETATM   10  C10 UNL     1      12.900   9.204  18.970  1.00  0.00     0.000 C 
BRANCH  10  11
HETATM   11  C11 UNL     1      12.791  10.650  18.859  1.00  0.00     0.000 C 
BRANCH  11  12
HETATM   12  C12 UNL     1      11.555  11.324  18.379  1.00  0.00     0.000 C 
BRANCH  12  13
HETATM   13  C13 UNL     1      11.711  11.947  17.052  1.00  0.00     0.000 C 
BRANCH  13  14
HETATM   14  C14 UNL     1      13.032  11.950  16.401  1.00  0.00     0.001 C 
BRANCH  14  15
HETATM   15  C15 UNL     1      13.230  11.349  15.091  1.00  0.00     0.010 C 
BRANCH  15  16
HETATM   16  C16 UNL     1      13.391  12.216  13.888  1.00  0.00     0.113 C 
BRANCH  16  17
HETATM   17  C17 UNL     1      13.902  11.389  12.724  1.00  0.00     0.172 C 
HETATM   18  O3  UNL     1      13.145  11.209  11.765  1.00  0.00    -0.648 OA
HETATM   19  O4  UNL     1      15.162  10.872  12.761  1.00  0.00    -0.648 OA
ENDBRANCH  16  17
ENDBRANCH  15  16
ENDBRANCH  14  15
ENDBRANCH  13  14
ENDBRANCH  12  13
ENDBRANCH  11  12
ENDBRANCH  10  11
ENDBRANCH   9  10
ENDBRANCH   8   9
ENDBRANCH   7   8
ENDBRANCH   6   7
ENDBRANCH   5   6
ENDBRANCH   2   5
BRANCH   1  20
HETATM   20  N1  UNL     1      16.957   4.636  13.137  1.00  0.00    -0.347 N 
HETATM   21  C1  UNL     1      18.244   4.648  13.856  1.00  0.00     0.153 C 
HETATM   22  C2  UNL     1      16.716   3.593  12.227  1.00  0.00     0.245 C 
HETATM   23  O1  UNL     1      15.623   3.588  11.546  1.00  0.00    -0.272 OA
BRANCH  22  24
HETATM   24  C3  UNL     1      17.594   2.437  11.931  1.00  0.00     0.332 C 
BRANCH  24  25
HETATM   25  N2  UNL     1      17.514   1.879  10.639  1.00  0.00    -0.071 N 
ATOM     26  H23 UNL     1      16.658   1.330  10.559  1.00  0.00     0.274 HD
ATOM     27  H22 UNL     1      17.329   2.618   9.961  1.00  0.00     0.274 HD
ATOM     28  H21 UNL     1      18.305   1.319  10.321  1.00  0.00     0.274 HD
ENDBRANCH  24  25
ENDBRANCH  22  24
ENDBRANCH   1  20
BRANCH   3  29
HETATM   29  O5  UNL     1      15.175   8.496  14.429  1.00  0.00    -0.392 OA
ATOM     30  H5  UNL     1      14.758   8.822  13.640  1.00  0.00     0.210 HD
ENDBRANCH   3  29
BRANCH   4  31
HETATM   31  C20 UNL     1      17.027   7.384  11.761  1.00  0.00     0.123 C 
BRANCH  31  32
HETATM   32  O6  UNL     1      18.069   7.987  12.302  1.00  0.00    -0.349 OA
ATOM     33  H6  UNL     1      18.647   7.395  12.769  1.00  0.00     0.219 HD
ENDBRANCH  31  32
BRANCH  31  34
HETATM   34  N3  UNL     1      17.124   7.265  10.383  1.00  0.00    -0.351 N 
HETATM   35  C21 UNL     1      17.700   5.981   9.792  1.00  0.00     0.139 C 
HETATM   36  C22 UNL     1      16.446   5.614   8.969  1.00  0.00     0.095 C 
HETATM   37  C24 UNL     1      15.923   6.976   8.474  1.00  0.00     0.050 C 
HETATM   38  C25 UNL     1      16.891   7.962   9.166  1.00  0.00     0.176 C 
BRANCH  36  39
HETATM   39  C23 UNL     1      16.781   4.733   7.839  1.00  0.00     0.236 C 
HETATM   40  N4  UNL     1      17.495   3.530   8.046  1.00  0.00    -0.062 NA
HETATM   41  O7  UNL     1      16.430   5.053   6.680  1.00  0.00    -0.276 OA
ENDBRANCH  36  39
BRANCH  38  42
HETATM   42  C26 UNL     1      16.521   9.339   9.100  1.00  0.00     0.254 C 
HETATM   43  N5  UNL     1      17.307  10.310   8.357  1.00  0.00    -0.060 NA
HETATM   44  O8  UNL     1      15.513   9.814   9.663  1.00  0.00    -0.275 OA
ENDBRANCH  38  42
ENDBRANCH  31  34
ENDBRANCH   4  31
TORSDOF 22
ENDMDL
