MODEL 1
REMARK VINA RESULT: -8.749523507      0.000      0.000
REMARK  18 active torsions:
REMARK  status: ('A' for Active; 'I' for Inactive)
REMARK       I    between atoms: C1_4  and  N3_6 
REMARK    1  A    between atoms: N3_6  and  C2_8 
REMARK    2  A    between atoms: C2_8  and  C3_9 
REMARK    3  A    between atoms: C3_9  and  N4_10 
REMARK    4  A    between atoms: N4_10  and  C4_11 
REMARK    5  A    between atoms: N4_10  and  C5_13 
REMARK    6  A    between atoms: C5_13  and  C6_14 
REMARK    7  A    between atoms: C6_14  and  C7_15 
REMARK    8  A    between atoms: C7_15  and  C8_16 
REMARK    9  A    between atoms: C7_15  and  N5_24 
REMARK   10  A    between atoms: C8_16  and  O2_17 
REMARK   11  A    between atoms: O2_17  and  C9_18 
REMARK       I    between atoms: N6_27  and  C17_28 
REMARK   12  A    between atoms: C17_28  and  C18_30 
REMARK   13  A    between atoms: C18_30  and  C19_31 
REMARK   14  A    between atoms: C18_30  and  C23_39 
REMARK   15  A    between atoms: C19_31  and  C20_32 
REMARK   16  A    between atoms: C20_32  and  C21_33 
REMARK   17  A    between atoms: C21_33  and  N7_34 
REMARK   18  A    between atoms: C23_39  and  C24_40 
ROOT
HETATM    1  C7  UNL     1      15.062   7.522  14.196  1.00  0.00     0.114 C 
ENDROOT
BRANCH   1   2
HETATM    2  C6  UNL     1      16.168   8.239  13.432  1.00  0.00     0.047 C 
BRANCH   2   3
HETATM    3  C5  UNL     1      16.205   7.779  12.010  1.00  0.00     0.127 C 
BRANCH   3   4
HETATM    4  N4  UNL     1      16.521   8.804  11.049  1.00  0.00    -0.358 N 
BRANCH   4   5
HETATM    5  C3  UNL     1      17.314   9.934  11.393  1.00  0.00     0.145 C 
BRANCH   5   6
HETATM    6  C2  UNL     1      16.592  11.238  11.261  1.00  0.00     0.142 C 
BRANCH   6   7
HETATM    7  N3  UNL     1      15.370  11.213  12.066  1.00  0.00    -0.363 N 
HETATM    8  C1  UNL     1      14.178  11.643  11.442  1.00  0.00     0.181 C 
HETATM    9  N1  UNL     1      13.982  12.891  11.215  1.00  0.00    -0.374 N 
HETATM   10  N2  UNL     1      13.195  10.703  11.068  1.00  0.00    -0.064 NA
ATOM     11  H12 UNL     1      13.121  13.202  10.765  1.00  0.00     0.158 HD
ATOM     12  H11 UNL     1      14.693  13.571  11.486  1.00  0.00     0.158 HD
ATOM     13  H3  UNL     1      15.379  10.898  13.036  1.00  0.00     0.162 HD
ENDBRANCH   6   7
ENDBRANCH   5   6
ENDBRANCH   4   5
BRANCH   4  14
HETATM   14  C4  UNL     1      16.013   8.751   9.707  1.00  0.00     0.350 C 
HETATM   15  O1  UNL     1      16.718   8.962   8.715  1.00  0.00    -0.284 OA
ENDBRANCH   4  14
ENDBRANCH   3   4
ENDBRANCH   2   3
ENDBRANCH   1   2
BRANCH   1  16
HETATM   16  C8  UNL     1      14.380   8.387  15.219  1.00  0.00     0.193 C 
BRANCH  16  17
HETATM   17  O2  UNL     1      14.129   9.615  14.583  1.00  0.00    -0.384 OA
BRANCH  17  18
HETATM   18  C9  UNL     1      13.162  10.345  15.262  1.00  0.00     0.121 C 
HETATM   19  C10 UNL     1      13.477  10.245  16.752  1.00  0.00     0.032 C 
HETATM   20  C11 UNL     1      12.288  10.835  17.483  1.00  0.00     0.002 C 
HETATM   21  C12 UNL     1      11.979  12.231  16.999  1.00  0.00     0.000 C 
HETATM   22  C13 UNL     1      12.995  12.732  16.012  1.00  0.00     0.002 C 
HETATM   23  C14 UNL     1      13.239  11.785  14.869  1.00  0.00     0.032 C 
ENDBRANCH  17  18
ENDBRANCH  16  17
ENDBRANCH   1  16
BRANCH   1  24
HETATM   24  N5  UNL     1      15.573   6.296  14.790  1.00  0.00    -0.325 N 
HETATM   25  C15 UNL     1      16.516   6.174  15.887  1.00  0.00     0.148 C 
HETATM   26  C16 UNL     1      15.900   4.969  16.611  1.00  0.00     0.157 C 
HETATM   27  N6  UNL     1      15.679   4.057  15.490  1.00  0.00    -0.264 N 
HETATM   28  C17 UNL     1      15.827   2.655  15.420  1.00  0.00     0.257 C 
HETATM   29  C27 UNL     1      15.263   4.951  14.435  1.00  0.00     0.328 C 
HETATM   30  O3  UNL     1      15.559   2.111  14.321  1.00  0.00    -0.267 OA
HETATM   31  O4  UNL     1      14.714   4.566  13.379  1.00  0.00    -0.247 OA
BRANCH  28  32
HETATM   32  C18 UNL     1      16.266   1.808  16.534  1.00  0.00     0.007 C 
BRANCH  32  33
HETATM   33  C19 UNL     1      15.446   0.644  16.872  1.00  0.00    -0.012 C 
BRANCH  33  34
HETATM   34  C20 UNL     1      14.426   0.569  17.886  1.00  0.00     0.047 C 
BRANCH  34  35
HETATM   35  C21 UNL     1      14.636   1.333  19.155  1.00  0.00     0.126 C 
BRANCH  35  36
HETATM   36  N7  UNL     1      14.144   2.681  19.112  1.00  0.00    -0.367 N 
HETATM   37  C22 UNL     1      14.666   3.555  19.876  1.00  0.00     0.196 C 
HETATM   38  N8  UNL     1      14.251   4.910  19.909  1.00  0.00    -0.067 NA
HETATM   39  N9  UNL     1      15.733   3.213  20.773  1.00  0.00    -0.067 NA
ATOM     40  H7  UNL     1      13.386   2.935  18.478  1.00  0.00     0.161 HD
ENDBRANCH  35  36
ENDBRANCH  34  35
ENDBRANCH  33  34
ENDBRANCH  32  33
BRANCH  32  41
HETATM   41  C23 UNL     1      17.722   1.815  16.815  1.00  0.00     0.048 C 
BRANCH  41  42
HETATM   42  C24 UNL     1      18.245   2.303  18.090  1.00  0.00    -0.010 A 
HETATM   43  C25 UNL     1      19.602   1.637  18.500  1.00  0.00     0.005 A 
HETATM   44  C26 UNL     1      18.382   1.218  19.190  1.00  0.00     0.005 A 
ENDBRANCH  41  42
ENDBRANCH  32  41
ENDBRANCH  28  32
ENDBRANCH   1  24
TORSDOF 18
ENDMDL
MODEL 2
REMARK VINA RESULT: -8.638654858      2.502      8.628
REMARK  18 active torsions:
REMARK  status: ('A' for Active; 'I' for Inactive)
REMARK       I    between atoms: C1_4  and  N3_6 
REMARK    1  A    between atoms: N3_6  and  C2_8 
REMARK    2  A    between atoms: C2_8  and  C3_9 
REMARK    3  A    between atoms: C3_9  and  N4_10 
REMARK    4  A    between atoms: N4_10  and  C4_11 
REMARK    5  A    between atoms: N4_10  and  C5_13 
REMARK    6  A    between atoms: C5_13  and  C6_14 
REMARK    7  A    between atoms: C6_14  and  C7_15 
REMARK    8  A    between atoms: C7_15  and  C8_16 
REMARK    9  A    between atoms: C7_15  and  N5_24 
REMARK   10  A    between atoms: C8_16  and  O2_17 
REMARK   11  A    between atoms: O2_17  and  C9_18 
REMARK       I    between atoms: N6_27  and  C17_28 
REMARK   12  A    between atoms: C17_28  and  C18_30 
REMARK   13  A    between atoms: C18_30  and  C19_31 
REMARK   14  A    between atoms: C18_30  and  C23_39 
REMARK   15  A    between atoms: C19_31  and  C20_32 
REMARK   16  A    between atoms: C20_32  and  C21_33 
REMARK   17  A    between atoms: C21_33  and  N7_34 
REMARK   18  A    between atoms: C23_39  and  C24_40 
ROOT
HETATM    1  C7  UNL     1      15.623   6.195  18.424  1.00  0.00     0.114 C 
ENDROOT
BRANCH   1   2
HETATM    2  C6  UNL     1      15.752   4.747  18.878  1.00  0.00     0.047 C 
BRANCH   2   3
HETATM    3  C5  UNL     1      15.489   4.633  20.346  1.00  0.00     0.127 C 
BRANCH   3   4
HETATM    4  N4  UNL     1      14.692   3.499  20.734  1.00  0.00    -0.358 N 
BRANCH   4   5
HETATM    5  C3  UNL     1      15.275   2.339  21.317  1.00  0.00     0.145 C 
BRANCH   5   6
HETATM    6  C2  UNL     1      16.065   1.512  20.351  1.00  0.00     0.142 C 
BRANCH   6   7
HETATM    7  N3  UNL     1      15.185   0.555  19.681  1.00  0.00    -0.363 N 
HETATM    8  C1  UNL     1      15.119   0.617  18.271  1.00  0.00     0.181 C 
HETATM    9  N1  UNL     1      14.488   1.575  17.695  1.00  0.00    -0.374 N 
HETATM   10  N2  UNL     1      15.746  -0.375  17.488  1.00  0.00    -0.064 NA
ATOM     11  H12 UNL     1      14.440   1.620  16.677  1.00  0.00     0.158 HD
ATOM     12  H11 UNL     1      14.035   2.293  18.262  1.00  0.00     0.158 HD
ATOM     13  H3  UNL     1      14.642  -0.128  20.209  1.00  0.00     0.162 HD
ENDBRANCH   6   7
ENDBRANCH   5   6
ENDBRANCH   4   5
BRANCH   4  14
HETATM   14  C4  UNL     1      13.274   3.470  20.510  1.00  0.00     0.350 C 
HETATM   15  O1  UNL     1      12.695   2.502  20.007  1.00  0.00    -0.284 OA
ENDBRANCH   4  14
ENDBRANCH   3   4
ENDBRANCH   2   3
ENDBRANCH   1   2
BRANCH   1  16
HETATM   16  C8  UNL     1      14.323   6.836  18.825  1.00  0.00     0.193 C 
BRANCH  16  17
HETATM   17  O2  UNL     1      14.559   8.222  18.826  1.00  0.00    -0.384 OA
BRANCH  17  18
HETATM   18  C9  UNL     1      13.394   8.931  18.561  1.00  0.00     0.121 C 
HETATM   19  C10 UNL     1      13.255  10.001  19.641  1.00  0.00     0.032 C 
HETATM   20  C11 UNL     1      11.871  10.596  19.479  1.00  0.00     0.002 C 
HETATM   21  C12 UNL     1      11.642  11.091  18.071  1.00  0.00     0.000 C 
HETATM   22  C13 UNL     1      12.877  10.986  17.222  1.00  0.00     0.002 C 
HETATM   23  C14 UNL     1      13.504   9.619  17.239  1.00  0.00     0.032 C 
ENDBRANCH  17  18
ENDBRANCH  16  17
ENDBRANCH   1  16
BRANCH   1  24
HETATM   24  N5  UNL     1      15.846   6.295  16.990  1.00  0.00    -0.325 N 
HETATM   25  C15 UNL     1      14.853   6.206  15.935  1.00  0.00     0.148 C 
HETATM   26  C16 UNL     1      15.403   7.279  14.985  1.00  0.00     0.157 C 
HETATM   27  N6  UNL     1      16.818   6.910  14.943  1.00  0.00    -0.264 N 
HETATM   28  C17 UNL     1      17.727   6.932  13.864  1.00  0.00     0.257 C 
HETATM   29  C27 UNL     1      17.078   6.506  16.304  1.00  0.00     0.328 C 
HETATM   30  O3  UNL     1      18.903   6.567  14.106  1.00  0.00    -0.267 OA
HETATM   31  O4  UNL     1      18.227   6.370  16.777  1.00  0.00    -0.247 OA
BRANCH  28  32
HETATM   32  C18 UNL     1      17.389   7.347  12.498  1.00  0.00     0.007 C 
BRANCH  32  33
HETATM   33  C19 UNL     1      18.189   8.409  11.889  1.00  0.00    -0.012 C 
BRANCH  33  34
HETATM   34  C20 UNL     1      17.776   9.319  10.852  1.00  0.00     0.047 C 
BRANCH  34  35
HETATM   35  C21 UNL     1      17.132  10.607  11.260  1.00  0.00     0.126 C 
BRANCH  35  36
HETATM   36  N7  UNL     1      15.846  10.831  10.660  1.00  0.00    -0.367 N 
HETATM   37  C22 UNL     1      14.797  10.567  11.330  1.00  0.00     0.196 C 
HETATM   38  N8  UNL     1      13.484  10.753  10.828  1.00  0.00    -0.067 NA
HETATM   39  N9  UNL     1      14.881  10.051  12.667  1.00  0.00    -0.067 NA
ATOM     40  H7  UNL     1      15.776  11.197   9.711  1.00  0.00     0.161 HD
ENDBRANCH  35  36
ENDBRANCH  34  35
ENDBRANCH  33  34
ENDBRANCH  32  33
BRANCH  32  41
HETATM   41  C23 UNL     1      16.728   6.320  11.657  1.00  0.00     0.048 C 
BRANCH  41  42
HETATM   42  C24 UNL     1      16.786   4.901  12.007  1.00  0.00    -0.010 A 
HETATM   43  C25 UNL     1      15.880   4.001  11.102  1.00  0.00     0.005 A 
HETATM   44  C26 UNL     1      15.435   4.292  12.464  1.00  0.00     0.005 A 
ENDBRANCH  41  42
ENDBRANCH  32  41
ENDBRANCH  28  32
ENDBRANCH   1  24
TORSDOF 18
ENDMDL
MODEL 3
REMARK VINA RESULT: -8.586553785      1.356      2.295
REMARK  18 active torsions:
REMARK  status: ('A' for Active; 'I' for Inactive)
REMARK       I    between atoms: C1_4  and  N3_6 
REMARK    1  A    between atoms: N3_6  and  C2_8 
REMARK    2  A    between atoms: C2_8  and  C3_9 
REMARK    3  A    between atoms: C3_9  and  N4_10 
REMARK    4  A    between atoms: N4_10  and  C4_11 
REMARK    5  A    between atoms: N4_10  and  C5_13 
REMARK    6  A    between atoms: C5_13  and  C6_14 
REMARK    7  A    between atoms: C6_14  and  C7_15 
REMARK    8  A    between atoms: C7_15  and  C8_16 
REMARK    9  A    between atoms: C7_15  and  N5_24 
REMARK   10  A    between atoms: C8_16  and  O2_17 
REMARK   11  A    between atoms: O2_17  and  C9_18 
REMARK       I    between atoms: N6_27  and  C17_28 
REMARK   12  A    between atoms: C17_28  and  C18_30 
REMARK   13  A    between atoms: C18_30  and  C19_31 
REMARK   14  A    between atoms: C18_30  and  C23_39 
REMARK   15  A    between atoms: C19_31  and  C20_32 
REMARK   16  A    between atoms: C20_32  and  C21_33 
REMARK   17  A    between atoms: C21_33  and  N7_34 
REMARK   18  A    between atoms: C23_39  and  C24_40 
ROOT
HETATM    1  C7  UNL     1      15.021   7.484  14.168  1.00  0.00     0.114 C 
ENDROOT
BRANCH   1   2
HETATM    2  C6  UNL     1      16.116   8.289  13.482  1.00  0.00     0.047 C 
BRANCH   2   3
HETATM    3  C5  UNL     1      15.913   8.292  12.000  1.00  0.00     0.127 C 
BRANCH   3   4
HETATM    4  N4  UNL     1      16.018   9.585  11.375  1.00  0.00    -0.358 N 
BRANCH   4   5
HETATM    5  C3  UNL     1      17.235  10.040  10.796  1.00  0.00     0.145 C 
BRANCH   5   6
HETATM    6  C2  UNL     1      17.149  10.272   9.320  1.00  0.00     0.142 C 
BRANCH   6   7
HETATM    7  N3  UNL     1      16.856   9.012   8.636  1.00  0.00    -0.363 N 
HETATM    8  C1  UNL     1      17.838   8.516   7.749  1.00  0.00     0.181 C 
HETATM    9  N1  UNL     1      18.018   9.075   6.607  1.00  0.00    -0.374 N 
HETATM   10  N2  UNL     1      18.623   7.403   8.113  1.00  0.00    -0.064 NA
ATOM     11  H12 UNL     1      18.727   8.717   5.967  1.00  0.00     0.158 HD
ATOM     12  H11 UNL     1      17.450   9.881   6.344  1.00  0.00     0.158 HD
ATOM     13  H3  UNL     1      15.980   8.513   8.792  1.00  0.00     0.162 HD
ENDBRANCH   6   7
ENDBRANCH   5   6
ENDBRANCH   4   5
BRANCH   4  14
HETATM   14  C4  UNL     1      14.906  10.492  11.345  1.00  0.00     0.350 C 
HETATM   15  O1  UNL     1      13.901  10.298  10.654  1.00  0.00    -0.284 OA
ENDBRANCH   4  14
ENDBRANCH   3   4
ENDBRANCH   2   3
ENDBRANCH   1   2
BRANCH   1  16
HETATM   16  C8  UNL     1      14.253   8.270  15.195  1.00  0.00     0.193 C 
BRANCH  16  17
HETATM   17  O2  UNL     1      13.763   9.406  14.527  1.00  0.00    -0.384 OA
BRANCH  17  18
HETATM   18  C9  UNL     1      13.736  10.512  15.369  1.00  0.00     0.121 C 
HETATM   19  C10 UNL     1      12.724  11.498  14.794  1.00  0.00     0.032 C 
HETATM   20  C11 UNL     1      12.885  12.785  15.579  1.00  0.00     0.002 C 
HETATM   21  C12 UNL     1      12.757  12.546  17.064  1.00  0.00     0.000 C 
HETATM   22  C13 UNL     1      12.379  11.128  17.384  1.00  0.00     0.002 C 
HETATM   23  C14 UNL     1      13.268  10.106  16.729  1.00  0.00     0.032 C 
ENDBRANCH  17  18
ENDBRANCH  16  17
ENDBRANCH   1  16
BRANCH   1  24
HETATM   24  N5  UNL     1      15.572   6.263  14.735  1.00  0.00    -0.325 N 
HETATM   25  C15 UNL     1      16.565   6.149  15.788  1.00  0.00     0.148 C 
HETATM   26  C16 UNL     1      15.996   4.935  16.535  1.00  0.00     0.157 C 
HETATM   27  N6  UNL     1      15.735   4.024  15.422  1.00  0.00    -0.264 N 
HETATM   28  C17 UNL     1      15.896   2.623  15.342  1.00  0.00     0.257 C 
HETATM   29  C27 UNL     1      15.261   4.915  14.390  1.00  0.00     0.328 C 
HETATM   30  O3  UNL     1      15.585   2.079  14.254  1.00  0.00    -0.267 OA
HETATM   31  O4  UNL     1      14.670   4.527  13.359  1.00  0.00    -0.247 OA
BRANCH  28  32
HETATM   32  C18 UNL     1      16.394   1.779  16.432  1.00  0.00     0.007 C 
BRANCH  32  33
HETATM   33  C19 UNL     1      15.624   0.585  16.779  1.00  0.00    -0.012 C 
BRANCH  33  34
HETATM   34  C20 UNL     1      14.543   0.496  17.727  1.00  0.00     0.047 C 
BRANCH  34  35
HETATM   35  C21 UNL     1      14.686   1.222  19.027  1.00  0.00     0.126 C 
BRANCH  35  36
HETATM   36  N7  UNL     1      14.277   2.598  18.974  1.00  0.00    -0.367 N 
HETATM   37  C22 UNL     1      14.744   3.416  19.830  1.00  0.00     0.196 C 
HETATM   38  N8  UNL     1      14.403   4.792  19.862  1.00  0.00    -0.067 NA
HETATM   39  N9  UNL     1      15.669   2.984  20.840  1.00  0.00    -0.067 NA
ATOM     40  H7  UNL     1      13.621   2.915  18.261  1.00  0.00     0.161 HD
ENDBRANCH  35  36
ENDBRANCH  34  35
ENDBRANCH  33  34
ENDBRANCH  32  33
BRANCH  32  41
HETATM   41  C23 UNL     1      17.857   1.832  16.671  1.00  0.00     0.048 C 
BRANCH  41  42
HETATM   42  C24 UNL     1      18.402   2.375  17.914  1.00  0.00    -0.010 A 
HETATM   43  C25 UNL     1      19.700   1.644  18.395  1.00  0.00     0.005 A 
HETATM   44  C26 UNL     1      18.445   1.371  19.095  1.00  0.00     0.005 A 
ENDBRANCH  41  42
ENDBRANCH  32  41
ENDBRANCH  28  32
ENDBRANCH   1  24
TORSDOF 18
ENDMDL
MODEL 4
REMARK VINA RESULT: -8.573558942      1.130      1.579
REMARK  18 active torsions:
REMARK  status: ('A' for Active; 'I' for Inactive)
REMARK       I    between atoms: C1_4  and  N3_6 
REMARK    1  A    between atoms: N3_6  and  C2_8 
REMARK    2  A    between atoms: C2_8  and  C3_9 
REMARK    3  A    between atoms: C3_9  and  N4_10 
REMARK    4  A    between atoms: N4_10  and  C4_11 
REMARK    5  A    between atoms: N4_10  and  C5_13 
REMARK    6  A    between atoms: C5_13  and  C6_14 
REMARK    7  A    between atoms: C6_14  and  C7_15 
REMARK    8  A    between atoms: C7_15  and  C8_16 
REMARK    9  A    between atoms: C7_15  and  N5_24 
REMARK   10  A    between atoms: C8_16  and  O2_17 
REMARK   11  A    between atoms: O2_17  and  C9_18 
REMARK       I    between atoms: N6_27  and  C17_28 
REMARK   12  A    between atoms: C17_28  and  C18_30 
REMARK   13  A    between atoms: C18_30  and  C19_31 
REMARK   14  A    between atoms: C18_30  and  C23_39 
REMARK   15  A    between atoms: C19_31  and  C20_32 
REMARK   16  A    between atoms: C20_32  and  C21_33 
REMARK   17  A    between atoms: C21_33  and  N7_34 
REMARK   18  A    between atoms: C23_39  and  C24_40 
ROOT
HETATM    1  C7  UNL     1      14.900   7.170  14.194  1.00  0.00     0.114 C 
ENDROOT
BRANCH   1   2
HETATM    2  C6  UNL     1      15.878   7.869  13.260  1.00  0.00     0.047 C 
BRANCH   2   3
HETATM    3  C5  UNL     1      16.128   7.034  12.045  1.00  0.00     0.127 C 
BRANCH   3   4
HETATM    4  N4  UNL     1      17.107   7.566  11.133  1.00  0.00    -0.358 N 
BRANCH   4   5
HETATM    5  C3  UNL     1      16.767   7.931   9.800  1.00  0.00     0.145 C 
BRANCH   5   6
HETATM    6  C2  UNL     1      15.809   9.078   9.716  1.00  0.00     0.142 C 
BRANCH   6   7
HETATM    7  N3  UNL     1      16.500  10.327  10.038  1.00  0.00    -0.363 N 
HETATM    8  C1  UNL     1      16.053  11.037  11.174  1.00  0.00     0.181 C 
HETATM    9  N1  UNL     1      14.942  11.681  11.138  1.00  0.00    -0.374 N 
HETATM   10  N2  UNL     1      16.824  11.044  12.354  1.00  0.00    -0.064 NA
ATOM     11  H12 UNL     1      14.619  12.193  11.958  1.00  0.00     0.158 HD
ATOM     12  H11 UNL     1      14.384  11.675  10.284  1.00  0.00     0.158 HD
ATOM     13  H3  UNL     1      17.272  10.670   9.466  1.00  0.00     0.162 HD
ENDBRANCH   6   7
ENDBRANCH   5   6
ENDBRANCH   4   5
BRANCH   4  14
HETATM   14  C4  UNL     1      18.482   7.715  11.516  1.00  0.00     0.350 C 
HETATM   15  O1  UNL     1      18.984   8.808  11.799  1.00  0.00    -0.284 OA
ENDBRANCH   4  14
ENDBRANCH   3   4
ENDBRANCH   2   3
ENDBRANCH   1   2
BRANCH   1  16
HETATM   16  C8  UNL     1      14.337   8.072  15.259  1.00  0.00     0.193 C 
BRANCH  16  17
HETATM   17  O2  UNL     1      14.299   9.359  14.695  1.00  0.00    -0.384 OA
BRANCH  17  18
HETATM   18  C9  UNL     1      13.294  10.129  15.268  1.00  0.00     0.121 C 
HETATM   19  C10 UNL     1      13.596  10.236  16.760  1.00  0.00     0.032 C 
HETATM   20  C11 UNL     1      12.374  10.865  17.401  1.00  0.00     0.002 C 
HETATM   21  C12 UNL     1      12.013  12.172  16.737  1.00  0.00     0.000 C 
HETATM   22  C13 UNL     1      13.018  12.583  15.700  1.00  0.00     0.002 C 
HETATM   23  C14 UNL     1      13.315  11.508  14.691  1.00  0.00     0.032 C 
ENDBRANCH  17  18
ENDBRANCH  16  17
ENDBRANCH   1  16
BRANCH   1  24
HETATM   24  N5  UNL     1      15.513   5.984  14.771  1.00  0.00    -0.325 N 
HETATM   25  C15 UNL     1      16.561   5.932  15.774  1.00  0.00     0.148 C 
HETATM   26  C16 UNL     1      16.065   4.728  16.589  1.00  0.00     0.157 C 
HETATM   27  N6  UNL     1      15.773   3.774  15.521  1.00  0.00    -0.264 N 
HETATM   28  C17 UNL     1      15.968   2.376  15.478  1.00  0.00     0.257 C 
HETATM   29  C27 UNL     1      15.223   4.617  14.486  1.00  0.00     0.328 C 
HETATM   30  O3  UNL     1      15.618   1.788  14.426  1.00  0.00    -0.267 OA
HETATM   31  O4  UNL     1      14.591   4.179  13.501  1.00  0.00    -0.247 OA
BRANCH  28  32
HETATM   32  C18 UNL     1      16.545   1.582  16.567  1.00  0.00     0.007 C 
BRANCH  32  33
HETATM   33  C19 UNL     1      15.802   0.409  17.026  1.00  0.00    -0.012 C 
BRANCH  33  34
HETATM   34  C20 UNL     1      14.454   0.381  17.534  1.00  0.00     0.047 C 
BRANCH  34  35
HETATM   35  C21 UNL     1      14.255   0.074  18.984  1.00  0.00     0.126 C 
BRANCH  35  36
HETATM   36  N7  UNL     1      15.206   0.712  19.851  1.00  0.00    -0.367 N 
HETATM   37  C22 UNL     1      14.856   1.753  20.494  1.00  0.00     0.196 C 
HETATM   38  N8  UNL     1      15.720   2.455  21.372  1.00  0.00    -0.067 NA
HETATM   39  N9  UNL     1      13.532   2.294  20.364  1.00  0.00    -0.067 NA
ATOM     40  H7  UNL     1      16.149   0.335  19.950  1.00  0.00     0.161 HD
ENDBRANCH  35  36
ENDBRANCH  34  35
ENDBRANCH  33  34
ENDBRANCH  32  33
BRANCH  32  41
HETATM   41  C23 UNL     1      18.022   1.641  16.696  1.00  0.00     0.048 C 
BRANCH  41  42
HETATM   42  C24 UNL     1      18.657   2.252  17.863  1.00  0.00    -0.010 A 
HETATM   43  C25 UNL     1      19.936   1.488  18.345  1.00  0.00     0.005 A 
HETATM   44  C26 UNL     1      18.704   1.346  19.121  1.00  0.00     0.005 A 
ENDBRANCH  41  42
ENDBRANCH  32  41
ENDBRANCH  28  32
ENDBRANCH   1  24
TORSDOF 18
ENDMDL
MODEL 5
REMARK VINA RESULT: -8.515300947      2.364      8.853
REMARK  18 active torsions:
REMARK  status: ('A' for Active; 'I' for Inactive)
REMARK       I    between atoms: C1_4  and  N3_6 
REMARK    1  A    between atoms: N3_6  and  C2_8 
REMARK    2  A    between atoms: C2_8  and  C3_9 
REMARK    3  A    between atoms: C3_9  and  N4_10 
REMARK    4  A    between atoms: N4_10  and  C4_11 
REMARK    5  A    between atoms: N4_10  and  C5_13 
REMARK    6  A    between atoms: C5_13  and  C6_14 
REMARK    7  A    between atoms: C6_14  and  C7_15 
REMARK    8  A    between atoms: C7_15  and  C8_16 
REMARK    9  A    between atoms: C7_15  and  N5_24 
REMARK   10  A    between atoms: C8_16  and  O2_17 
REMARK   11  A    between atoms: O2_17  and  C9_18 
REMARK       I    between atoms: N6_27  and  C17_28 
REMARK   12  A    between atoms: C17_28  and  C18_30 
REMARK   13  A    between atoms: C18_30  and  C19_31 
REMARK   14  A    between atoms: C18_30  and  C23_39 
REMARK   15  A    between atoms: C19_31  and  C20_32 
REMARK   16  A    between atoms: C20_32  and  C21_33 
REMARK   17  A    between atoms: C21_33  and  N7_34 
REMARK   18  A    between atoms: C23_39  and  C24_40 
ROOT
HETATM    1  C7  UNL     1      15.408   6.484  17.992  1.00  0.00     0.114 C 
ENDROOT
BRANCH   1   2
HETATM    2  C6  UNL     1      15.611   5.034  18.408  1.00  0.00     0.047 C 
BRANCH   2   3
HETATM    3  C5  UNL     1      15.695   4.924  19.897  1.00  0.00     0.127 C 
BRANCH   3   4
HETATM    4  N4  UNL     1      14.896   3.875  20.475  1.00  0.00    -0.358 N 
BRANCH   4   5
HETATM    5  C3  UNL     1      15.484   2.788  21.180  1.00  0.00     0.145 C 
BRANCH   5   6
HETATM    6  C2  UNL     1      16.220   1.827  20.299  1.00  0.00     0.142 C 
BRANCH   6   7
HETATM    7  N3  UNL     1      15.311   0.777  19.840  1.00  0.00    -0.363 N 
HETATM    8  C1  UNL     1      15.121   0.653  18.446  1.00  0.00     0.181 C 
HETATM    9  N1  UNL     1      14.415   1.518  17.811  1.00  0.00    -0.374 N 
HETATM   10  N2  UNL     1      15.702  -0.423  17.744  1.00  0.00    -0.064 NA
ATOM     11  H12 UNL     1      14.278   1.428  16.804  1.00  0.00     0.158 HD
ATOM     12  H11 UNL     1      13.994   2.296  18.319  1.00  0.00     0.158 HD
ATOM     13  H3  UNL     1      14.835   0.160  20.499  1.00  0.00     0.162 HD
ENDBRANCH   6   7
ENDBRANCH   5   6
ENDBRANCH   4   5
BRANCH   4  14
HETATM   14  C4  UNL     1      13.468   3.857  20.329  1.00  0.00     0.350 C 
HETATM   15  O1  UNL     1      12.838   2.838  20.030  1.00  0.00    -0.284 OA
ENDBRANCH   4  14
ENDBRANCH   3   4
ENDBRANCH   2   3
ENDBRANCH   1   2
BRANCH   1  16
HETATM   16  C8  UNL     1      14.111   7.072  18.475  1.00  0.00     0.193 C 
BRANCH  16  17
HETATM   17  O2  UNL     1      14.351   8.446  18.652  1.00  0.00    -0.384 OA
BRANCH  17  18
HETATM   18  C9  UNL     1      13.208   9.193  18.397  1.00  0.00     0.121 C 
HETATM   19  C10 UNL     1      13.045  10.186  19.545  1.00  0.00     0.032 C 
HETATM   20  C11 UNL     1      11.677  10.816  19.376  1.00  0.00     0.002 C 
HETATM   21  C12 UNL     1      11.510  11.414  17.999  1.00  0.00     0.000 C 
HETATM   22  C13 UNL     1      12.774  11.347  17.190  1.00  0.00     0.002 C 
HETATM   23  C14 UNL     1      13.378   9.971  17.132  1.00  0.00     0.032 C 
ENDBRANCH  17  18
ENDBRANCH  16  17
ENDBRANCH   1  16
BRANCH   1  24
HETATM   24  N5  UNL     1      15.549   6.619  16.550  1.00  0.00    -0.325 N 
HETATM   25  C15 UNL     1      14.486   6.712  15.565  1.00  0.00     0.148 C 
HETATM   26  C16 UNL     1      15.115   7.743  14.618  1.00  0.00     0.157 C 
HETATM   27  N6  UNL     1      16.460   7.190  14.463  1.00  0.00    -0.264 N 
HETATM   28  C17 UNL     1      17.291   7.138  13.323  1.00  0.00     0.257 C 
HETATM   29  C27 UNL     1      16.750   6.693  15.786  1.00  0.00     0.328 C 
HETATM   30  O3  UNL     1      18.420   6.608  13.469  1.00  0.00    -0.267 OA
HETATM   31  O4  UNL     1      17.899   6.383  16.172  1.00  0.00    -0.247 OA
BRANCH  28  32
HETATM   32  C18 UNL     1      16.926   7.657  12.001  1.00  0.00     0.007 C 
BRANCH  32  33
HETATM   33  C19 UNL     1      17.515   8.927  11.578  1.00  0.00    -0.012 C 
BRANCH  33  34
HETATM   34  C20 UNL     1      16.847  10.199  11.472  1.00  0.00     0.047 C 
BRANCH  34  35
HETATM   35  C21 UNL     1      15.405  10.206  11.071  1.00  0.00     0.126 C 
BRANCH  35  36
HETATM   36  N7  UNL     1      14.500  10.469  12.154  1.00  0.00    -0.367 N 
HETATM   37  C22 UNL     1      13.536  11.280  11.972  1.00  0.00     0.196 C 
HETATM   38  N8  UNL     1      12.590  11.607  12.976  1.00  0.00    -0.067 NA
HETATM   39  N9  UNL     1      13.343  11.929  10.705  1.00  0.00    -0.067 NA
ATOM     40  H7  UNL     1      14.628  10.013  13.057  1.00  0.00     0.161 HD
ENDBRANCH  35  36
ENDBRANCH  34  35
ENDBRANCH  33  34
ENDBRANCH  32  33
BRANCH  32  41
HETATM   41  C23 UNL     1      16.517   6.641  11.000  1.00  0.00     0.048 C 
BRANCH  41  42
HETATM   42  C24 UNL     1      17.022   6.683   9.628  1.00  0.00    -0.010 A 
HETATM   43  C25 UNL     1      15.981   7.243   8.601  1.00  0.00     0.005 A 
HETATM   44  C26 UNL     1      16.236   5.803   8.623  1.00  0.00     0.005 A 
ENDBRANCH  41  42
ENDBRANCH  32  41
ENDBRANCH  28  32
ENDBRANCH   1  24
TORSDOF 18
ENDMDL
