MODEL 1
REMARK VINA RESULT: -7.782486251      0.000      0.000
REMARK  19 active torsions:
REMARK  status: ('A' for Active; 'I' for Inactive)
REMARK    1  A    between atoms: C2_2  and  C3_3 
REMARK    2  A    between atoms: N1_5  and  C5_6 
REMARK    3  A    between atoms: C5_6  and  C6_7 
REMARK       I    between atoms: N3_14  and  C10_15 
REMARK    4  A    between atoms: C10_15  and  C11_17 
REMARK    5  A    between atoms: C11_17  and  C12_18 
REMARK    6  A    between atoms: C11_17  and  N7_26 
REMARK    7  A    between atoms: C12_18  and  C13_19 
REMARK    8  A    between atoms: C13_19  and  C14_20 
REMARK    9  A    between atoms: C14_20  and  N4_21 
REMARK   10  A    between atoms: N7_26  and  S1_28 
REMARK   11  A    between atoms: S1_28  and  C16_31 
REMARK   12  A    between atoms: C16_31  and  C17_32 
REMARK   13  A    between atoms: C17_32  and  C18_33 
REMARK   14  A    between atoms: C18_33  and  C19_34 
REMARK   15  A    between atoms: C19_34  and  C20_35 
REMARK   16  A    between atoms: C20_35  and  C21_36 
REMARK   17  A    between atoms: C21_36  and  C22_37 
REMARK   18  A    between atoms: C24_39  and  C25_40 
REMARK   19  A    between atoms: C25_40  and  O5_41 
ROOT
HETATM    1  C11 UNL     1      15.678   6.557  15.478  1.00  0.00     0.184 C 
ENDROOT
BRANCH   1   2
HETATM    2  C10 UNL     1      15.822   5.243  14.812  1.00  0.00     0.244 C 
HETATM    3  N3  UNL     1      17.082   4.582  14.583  1.00  0.00    -0.334 N 
HETATM    4  C6  UNL     1      17.089   3.294  13.960  1.00  0.00     0.207 C 
HETATM    5  C9  UNL     1      18.323   5.201  14.939  1.00  0.00     0.146 C 
HETATM    6  C7  UNL     1      18.483   2.834  13.596  1.00  0.00     0.242 C 
HETATM    7  O1  UNL     1      18.626   1.620  13.364  1.00  0.00    -0.271 OA
HETATM    8  N2  UNL     1      19.556   3.734  13.526  1.00  0.00    -0.358 N 
HETATM    9  C8  UNL     1      19.253   5.164  13.728  1.00  0.00     0.142 C 
ATOM     10  H2  UNL     1      20.506   3.414  13.342  1.00  0.00     0.162 HD
HETATM   11  O2  UNL     1      14.713   4.733  14.459  1.00  0.00    -0.271 OA
BRANCH   4  12
HETATM   12  C5  UNL     1      16.324   2.182  14.595  1.00  0.00     0.308 C 
BRANCH  12  13
HETATM   13  N1  UNL     1      16.488   2.145  15.989  1.00  0.00     0.099 N 
HETATM   14  C4  UNL     1      15.403   1.886  16.868  1.00  0.00     0.284 C 
HETATM   15  C3  UNL     1      16.447   1.210  17.796  1.00  0.00     0.071 C 
HETATM   16  C24 UNL     1      17.349   1.157  16.591  1.00  0.00     0.255 C 
BRANCH  15  17
HETATM   17  C2  UNL     1      16.814   2.146  18.851  1.00  0.00    -0.028 C 
HETATM   18  C1  UNL     1      16.602   1.944  20.131  1.00  0.00     0.007 C 
ENDBRANCH  15  17
BRANCH  16  19
HETATM   19  C25 UNL     1      17.324  -0.232  15.992  1.00  0.00     0.200 C 
BRANCH  19  20
HETATM   20  O5  UNL     1      18.588  -0.569  15.524  1.00  0.00    -0.399 OA
ATOM     21  H5  UNL     1      18.558  -0.712  14.585  1.00  0.00     0.209 HD
ENDBRANCH  19  20
ENDBRANCH  16  19
ENDBRANCH  12  13
ENDBRANCH   4  12
ENDBRANCH   1   2
BRANCH   1  22
HETATM   22  C12 UNL     1      15.085   7.608  14.623  1.00  0.00     0.037 C 
BRANCH  22  23
HETATM   23  C13 UNL     1      15.525   7.936  13.273  1.00  0.00     0.022 C 
BRANCH  23  24
HETATM   24  C14 UNL     1      15.914   9.353  12.964  1.00  0.00     0.122 C 
BRANCH  24  25
HETATM   25  N4  UNL     1      14.830  10.099  12.378  1.00  0.00    -0.367 N 
HETATM   26  C15 UNL     1      14.540  10.381  11.206  1.00  0.00     0.196 C 
HETATM   27  N5  UNL     1      15.321   9.969  10.097  1.00  0.00    -0.067 NA
HETATM   28  N6  UNL     1      13.370  11.161  10.886  1.00  0.00    -0.067 NA
ATOM     29  H4  UNL     1      14.171  10.469  13.062  1.00  0.00     0.161 HD
ENDBRANCH  24  25
ENDBRANCH  23  24
ENDBRANCH  22  23
ENDBRANCH   1  22
BRANCH   1  30
HETATM   30  N7  UNL     1      14.622   6.312  16.553  1.00  0.00    -0.306 N 
ATOM     31  H7  UNL     1      13.639   6.117  16.361  1.00  0.00     0.173 HD
BRANCH  30  32
HETATM   32  S1  UNL     1      15.292   6.408  18.105  1.00  0.00     0.227 S 
HETATM   33  O3  UNL     1      16.816   6.474  17.935  1.00  0.00    -0.206 OA
HETATM   34  O4  UNL     1      15.063   5.120  18.865  1.00  0.00    -0.206 OA
BRANCH  32  35
HETATM   35  C16 UNL     1      14.843   7.792  19.070  1.00  0.00     0.163 C 
BRANCH  35  36
HETATM   36  C17 UNL     1      13.810   8.695  18.498  1.00  0.00     0.017 C 
BRANCH  36  37
HETATM   37  C18 UNL     1      12.640   8.980  19.410  1.00  0.00     0.001 C 
BRANCH  37  38
HETATM   38  C19 UNL     1      11.956  10.278  19.153  1.00  0.00     0.000 C 
BRANCH  38  39
HETATM   39  C20 UNL     1      12.680  11.192  18.197  1.00  0.00     0.000 C 
BRANCH  39  40
HETATM   40  C21 UNL     1      11.767  11.851  17.206  1.00  0.00    -0.000 C 
BRANCH  40  41
HETATM   41  C22 UNL     1      12.439  12.033  15.858  1.00  0.00    -0.005 C 
HETATM   42  C23 UNL     1      13.262  10.804  15.546  1.00  0.00     0.005 C 
ENDBRANCH  40  41
ENDBRANCH  39  40
ENDBRANCH  38  39
ENDBRANCH  37  38
ENDBRANCH  36  37
ENDBRANCH  35  36
ENDBRANCH  32  35
ENDBRANCH  30  32
ENDBRANCH   1  30
TORSDOF 19
ENDMDL
MODEL 2
REMARK VINA RESULT: -7.629677362      1.554      1.803
REMARK  19 active torsions:
REMARK  status: ('A' for Active; 'I' for Inactive)
REMARK    1  A    between atoms: C2_2  and  C3_3 
REMARK    2  A    between atoms: N1_5  and  C5_6 
REMARK    3  A    between atoms: C5_6  and  C6_7 
REMARK       I    between atoms: N3_14  and  C10_15 
REMARK    4  A    between atoms: C10_15  and  C11_17 
REMARK    5  A    between atoms: C11_17  and  C12_18 
REMARK    6  A    between atoms: C11_17  and  N7_26 
REMARK    7  A    between atoms: C12_18  and  C13_19 
REMARK    8  A    between atoms: C13_19  and  C14_20 
REMARK    9  A    between atoms: C14_20  and  N4_21 
REMARK   10  A    between atoms: N7_26  and  S1_28 
REMARK   11  A    between atoms: S1_28  and  C16_31 
REMARK   12  A    between atoms: C16_31  and  C17_32 
REMARK   13  A    between atoms: C17_32  and  C18_33 
REMARK   14  A    between atoms: C18_33  and  C19_34 
REMARK   15  A    between atoms: C19_34  and  C20_35 
REMARK   16  A    between atoms: C20_35  and  C21_36 
REMARK   17  A    between atoms: C21_36  and  C22_37 
REMARK   18  A    between atoms: C24_39  and  C25_40 
REMARK   19  A    between atoms: C25_40  and  O5_41 
ROOT
HETATM    1  C11 UNL     1      15.852   6.461  15.674  1.00  0.00     0.184 C 
ENDROOT
BRANCH   1   2
HETATM    2  C10 UNL     1      16.541   5.165  15.479  1.00  0.00     0.244 C 
HETATM    3  N3  UNL     1      17.906   4.905  15.859  1.00  0.00    -0.334 N 
HETATM    4  C6  UNL     1      18.450   3.598  15.653  1.00  0.00     0.207 C 
HETATM    5  C9  UNL     1      18.735   5.935  16.409  1.00  0.00     0.146 C 
HETATM    6  C7  UNL     1      19.941   3.544  15.897  1.00  0.00     0.242 C 
HETATM    7  O1  UNL     1      20.437   2.416  16.069  1.00  0.00    -0.271 OA
HETATM    8  N2  UNL     1      20.719   4.710  15.929  1.00  0.00    -0.358 N 
HETATM    9  C8  UNL     1      20.042   5.984  15.620  1.00  0.00     0.142 C 
ATOM     10  H2  UNL     1      21.713   4.678  16.156  1.00  0.00     0.162 HD
HETATM   11  O2  UNL     1      15.803   4.278  14.945  1.00  0.00    -0.271 OA
BRANCH   4  12
HETATM   12  C5  UNL     1      17.776   2.429  16.291  1.00  0.00     0.308 C 
BRANCH  12  13
HETATM   13  N1  UNL     1      17.202   2.751  17.531  1.00  0.00     0.099 N 
HETATM   14  C4  UNL     1      16.020   2.119  18.000  1.00  0.00     0.284 C 
HETATM   15  C3  UNL     1      16.606   2.304  19.424  1.00  0.00     0.071 C 
HETATM   16  C24 UNL     1      17.936   2.520  18.750  1.00  0.00     0.255 C 
BRANCH  15  17
HETATM   17  C2  UNL     1      15.984   3.470  20.040  1.00  0.00    -0.028 C 
HETATM   18  C1  UNL     1      15.658   3.554  21.310  1.00  0.00     0.007 C 
ENDBRANCH  15  17
BRANCH  16  19
HETATM   19  C25 UNL     1      18.761   1.255  18.826  1.00  0.00     0.200 C 
BRANCH  19  20
HETATM   20  O5  UNL     1      20.101   1.573  19.009  1.00  0.00    -0.399 OA
ATOM     21  H5  UNL     1      20.178   2.434  19.403  1.00  0.00     0.209 HD
ENDBRANCH  19  20
ENDBRANCH  16  19
ENDBRANCH  12  13
ENDBRANCH   4  12
ENDBRANCH   1   2
BRANCH   1  22
HETATM   22  C12 UNL     1      15.257   7.021  14.441  1.00  0.00     0.037 C 
BRANCH  22  23
HETATM   23  C13 UNL     1      15.108   8.441  14.153  1.00  0.00     0.022 C 
BRANCH  23  24
HETATM   24  C14 UNL     1      15.651   8.978  12.861  1.00  0.00     0.122 C 
BRANCH  24  25
HETATM   25  N4  UNL     1      14.774   9.954  12.265  1.00  0.00    -0.367 N 
HETATM   26  C15 UNL     1      14.622  10.348  11.100  1.00  0.00     0.196 C 
HETATM   27  N5  UNL     1      15.378   9.848  10.011  1.00  0.00    -0.067 NA
HETATM   28  N6  UNL     1      13.650  11.359  10.767  1.00  0.00    -0.067 NA
ATOM     29  H4  UNL     1      14.156  10.411  12.935  1.00  0.00     0.161 HD
ENDBRANCH  24  25
ENDBRANCH  23  24
ENDBRANCH  22  23
ENDBRANCH   1  22
BRANCH   1  30
HETATM   30  N7  UNL     1      14.647   6.113  16.544  1.00  0.00    -0.306 N 
ATOM     31  H7  UNL     1      13.912   5.460  16.275  1.00  0.00     0.173 HD
BRANCH  30  32
HETATM   32  S1  UNL     1      14.690   6.951  18.014  1.00  0.00     0.227 S 
HETATM   33  O3  UNL     1      16.154   6.979  18.476  1.00  0.00    -0.206 OA
HETATM   34  O4  UNL     1      13.979   6.167  19.096  1.00  0.00    -0.206 OA
BRANCH  32  35
HETATM   35  C16 UNL     1      14.150   8.611  17.988  1.00  0.00     0.163 C 
BRANCH  35  36
HETATM   36  C17 UNL     1      13.072   8.975  18.943  1.00  0.00     0.017 C 
BRANCH  36  37
HETATM   37  C18 UNL     1      12.897  10.459  19.170  1.00  0.00     0.001 C 
BRANCH  37  38
HETATM   38  C19 UNL     1      11.575  10.998  18.746  1.00  0.00     0.000 C 
BRANCH  38  39
HETATM   39  C20 UNL     1      11.596  11.774  17.453  1.00  0.00     0.000 C 
BRANCH  39  40
HETATM   40  C21 UNL     1      12.901  12.471  17.207  1.00  0.00    -0.000 C 
BRANCH  40  41
HETATM   41  C22 UNL     1      13.160  12.671  15.725  1.00  0.00    -0.005 C 
HETATM   42  C23 UNL     1      12.824  11.395  14.989  1.00  0.00     0.005 C 
ENDBRANCH  40  41
ENDBRANCH  39  40
ENDBRANCH  38  39
ENDBRANCH  37  38
ENDBRANCH  36  37
ENDBRANCH  35  36
ENDBRANCH  32  35
ENDBRANCH  30  32
ENDBRANCH   1  30
TORSDOF 19
ENDMDL
MODEL 3
REMARK VINA RESULT: -7.607752117      2.458      3.846
REMARK  19 active torsions:
REMARK  status: ('A' for Active; 'I' for Inactive)
REMARK    1  A    between atoms: C2_2  and  C3_3 
REMARK    2  A    between atoms: N1_5  and  C5_6 
REMARK    3  A    between atoms: C5_6  and  C6_7 
REMARK       I    between atoms: N3_14  and  C10_15 
REMARK    4  A    between atoms: C10_15  and  C11_17 
REMARK    5  A    between atoms: C11_17  and  C12_18 
REMARK    6  A    between atoms: C11_17  and  N7_26 
REMARK    7  A    between atoms: C12_18  and  C13_19 
REMARK    8  A    between atoms: C13_19  and  C14_20 
REMARK    9  A    between atoms: C14_20  and  N4_21 
REMARK   10  A    between atoms: N7_26  and  S1_28 
REMARK   11  A    between atoms: S1_28  and  C16_31 
REMARK   12  A    between atoms: C16_31  and  C17_32 
REMARK   13  A    between atoms: C17_32  and  C18_33 
REMARK   14  A    between atoms: C18_33  and  C19_34 
REMARK   15  A    between atoms: C19_34  and  C20_35 
REMARK   16  A    between atoms: C20_35  and  C21_36 
REMARK   17  A    between atoms: C21_36  and  C22_37 
REMARK   18  A    between atoms: C24_39  and  C25_40 
REMARK   19  A    between atoms: C25_40  and  O5_41 
ROOT
HETATM    1  C11 UNL     1      16.217   4.294  14.630  1.00  0.00     0.184 C 
ENDROOT
BRANCH   1   2
HETATM    2  C10 UNL     1      16.317   3.169  15.586  1.00  0.00     0.244 C 
HETATM    3  N3  UNL     1      17.398   2.991  16.523  1.00  0.00    -0.334 N 
HETATM    4  C6  UNL     1      17.363   1.880  17.423  1.00  0.00     0.207 C 
HETATM    5  C9  UNL     1      18.517   3.884  16.546  1.00  0.00     0.146 C 
HETATM    6  C7  UNL     1      18.658   1.709  18.184  1.00  0.00     0.242 C 
HETATM    7  O1  UNL     1      18.615   1.001  19.207  1.00  0.00    -0.271 OA
HETATM    8  N2  UNL     1      19.845   2.321  17.754  1.00  0.00    -0.358 N 
HETATM    9  C8  UNL     1      19.802   3.060  16.479  1.00  0.00     0.142 C 
ATOM     10  H2  UNL     1      20.703   2.257  18.302  1.00  0.00     0.162 HD
HETATM   11  O2  UNL     1      15.339   2.361  15.516  1.00  0.00    -0.271 OA
BRANCH   4  12
HETATM   12  C5  UNL     1      16.197   1.736  18.343  1.00  0.00     0.308 C 
BRANCH  12  13
HETATM   13  N1  UNL     1      15.942   2.907  19.075  1.00  0.00     0.099 N 
HETATM   14  C4  UNL     1      14.656   3.509  19.106  1.00  0.00     0.284 C 
HETATM   15  C3  UNL     1      15.012   3.958  20.548  1.00  0.00     0.071 C 
HETATM   16  C24 UNL     1      16.096   2.913  20.508  1.00  0.00     0.255 C 
BRANCH  15  17
HETATM   17  C2  UNL     1      15.441   5.351  20.514  1.00  0.00    -0.028 C 
HETATM   18  C1  UNL     1      15.076   6.262  21.386  1.00  0.00     0.007 C 
ENDBRANCH  15  17
BRANCH  16  19
HETATM   19  C25 UNL     1      15.644   1.677  21.253  1.00  0.00     0.200 C 
BRANCH  19  20
HETATM   20  O5  UNL     1      16.728   0.836  21.478  1.00  0.00    -0.399 OA
ATOM     21  H5  UNL     1      17.341   1.250  22.073  1.00  0.00     0.209 HD
ENDBRANCH  19  20
ENDBRANCH  16  19
ENDBRANCH  12  13
ENDBRANCH   4  12
ENDBRANCH   1   2
BRANCH   1  22
HETATM   22  C12 UNL     1      15.913   3.884  13.242  1.00  0.00     0.037 C 
BRANCH  22  23
HETATM   23  C13 UNL     1      15.696   4.797  12.127  1.00  0.00     0.022 C 
BRANCH  23  24
HETATM   24  C14 UNL     1      16.878   5.509  11.536  1.00  0.00     0.122 C 
BRANCH  24  25
HETATM   25  N4  UNL     1      17.147   6.760  12.197  1.00  0.00    -0.367 N 
HETATM   26  C15 UNL     1      17.922   7.694  11.947  1.00  0.00     0.196 C 
HETATM   27  N5  UNL     1      18.791   7.698  10.828  1.00  0.00    -0.067 NA
HETATM   28  N6  UNL     1      17.995   8.860  12.793  1.00  0.00    -0.067 NA
ATOM     29  H4  UNL     1      16.589   6.906  13.038  1.00  0.00     0.161 HD
ENDBRANCH  24  25
ENDBRANCH  23  24
ENDBRANCH  22  23
ENDBRANCH   1  22
BRANCH   1  30
HETATM   30  N7  UNL     1      14.969   5.051  15.077  1.00  0.00    -0.306 N 
ATOM     31  H7  UNL     1      14.026   4.662  15.068  1.00  0.00     0.173 HD
BRANCH  30  32
HETATM   32  S1  UNL     1      15.352   6.618  15.589  1.00  0.00     0.227 S 
HETATM   33  O3  UNL     1      16.845   6.835  15.303  1.00  0.00    -0.206 OA
HETATM   34  O4  UNL     1      15.247   6.728  17.095  1.00  0.00    -0.206 OA
BRANCH  32  35
HETATM   35  C16 UNL     1      14.505   7.929  14.806  1.00  0.00     0.163 C 
BRANCH  35  36
HETATM   36  C17 UNL     1      13.851   8.924  15.696  1.00  0.00     0.017 C 
BRANCH  36  37
HETATM   37  C18 UNL     1      13.705  10.306  15.105  1.00  0.00     0.001 C 
BRANCH  37  38
HETATM   38  C19 UNL     1      12.880  11.243  15.917  1.00  0.00     0.000 C 
BRANCH  38  39
HETATM   39  C20 UNL     1      12.903  10.977  17.401  1.00  0.00     0.000 C 
BRANCH  39  40
HETATM   40  C21 UNL     1      11.638  11.391  18.093  1.00  0.00    -0.000 C 
BRANCH  40  41
HETATM   41  C22 UNL     1      11.465  10.678  19.421  1.00  0.00    -0.005 C 
HETATM   42  C23 UNL     1      12.402   9.493  19.471  1.00  0.00     0.005 C 
ENDBRANCH  40  41
ENDBRANCH  39  40
ENDBRANCH  38  39
ENDBRANCH  37  38
ENDBRANCH  36  37
ENDBRANCH  35  36
ENDBRANCH  32  35
ENDBRANCH  30  32
ENDBRANCH   1  30
TORSDOF 19
ENDMDL
MODEL 4
REMARK VINA RESULT: -7.564412602      3.415      6.843
REMARK  19 active torsions:
REMARK  status: ('A' for Active; 'I' for Inactive)
REMARK    1  A    between atoms: C2_2  and  C3_3 
REMARK    2  A    between atoms: N1_5  and  C5_6 
REMARK    3  A    between atoms: C5_6  and  C6_7 
REMARK       I    between atoms: N3_14  and  C10_15 
REMARK    4  A    between atoms: C10_15  and  C11_17 
REMARK    5  A    between atoms: C11_17  and  C12_18 
REMARK    6  A    between atoms: C11_17  and  N7_26 
REMARK    7  A    between atoms: C12_18  and  C13_19 
REMARK    8  A    between atoms: C13_19  and  C14_20 
REMARK    9  A    between atoms: C14_20  and  N4_21 
REMARK   10  A    between atoms: N7_26  and  S1_28 
REMARK   11  A    between atoms: S1_28  and  C16_31 
REMARK   12  A    between atoms: C16_31  and  C17_32 
REMARK   13  A    between atoms: C17_32  and  C18_33 
REMARK   14  A    between atoms: C18_33  and  C19_34 
REMARK   15  A    between atoms: C19_34  and  C20_35 
REMARK   16  A    between atoms: C20_35  and  C21_36 
REMARK   17  A    between atoms: C21_36  and  C22_37 
REMARK   18  A    between atoms: C24_39  and  C25_40 
REMARK   19  A    between atoms: C25_40  and  O5_41 
ROOT
HETATM    1  C11 UNL     1      17.154   5.588  14.206  1.00  0.00     0.184 C 
ENDROOT
BRANCH   1   2
HETATM    2  C10 UNL     1      17.745   5.816  12.869  1.00  0.00     0.244 C 
HETATM    3  N3  UNL     1      17.092   5.492  11.625  1.00  0.00    -0.334 N 
HETATM    4  C6  UNL     1      17.752   5.795  10.393  1.00  0.00     0.207 C 
HETATM    5  C9  UNL     1      15.814   4.847  11.602  1.00  0.00     0.146 C 
HETATM    6  C7  UNL     1      17.044   5.203   9.195  1.00  0.00     0.242 C 
HETATM    7  O1  UNL     1      17.338   5.677   8.083  1.00  0.00    -0.271 OA
HETATM    8  N2  UNL     1      16.103   4.173   9.338  1.00  0.00    -0.358 N 
HETATM    9  C8  UNL     1      15.900   3.624  10.692  1.00  0.00     0.142 C 
ATOM     10  H2  UNL     1      15.580   3.818   8.537  1.00  0.00     0.162 HD
HETATM   11  O2  UNL     1      18.900   6.345  12.912  1.00  0.00    -0.271 OA
BRANCH   4  12
HETATM   12  C5  UNL     1      18.149   7.206  10.116  1.00  0.00     0.308 C 
BRANCH  12  13
HETATM   13  N1  UNL     1      17.106   8.115  10.358  1.00  0.00     0.099 N 
HETATM   14  C4  UNL     1      17.298   9.294  11.125  1.00  0.00     0.284 C 
HETATM   15  C3  UNL     1      16.223   9.942  10.213  1.00  0.00     0.071 C 
HETATM   16  C24 UNL     1      16.479   8.806   9.258  1.00  0.00     0.255 C 
BRANCH  15  17
HETATM   17  C2  UNL     1      14.945   9.936  10.915  1.00  0.00    -0.028 C 
HETATM   18  C1  UNL     1      14.190  10.996  11.092  1.00  0.00     0.007 C 
ENDBRANCH  15  17
BRANCH  16  19
HETATM   19  C25 UNL     1      17.380   9.272   8.136  1.00  0.00     0.200 C 
BRANCH  19  20
HETATM   20  O5  UNL     1      17.184   8.479   7.011  1.00  0.00    -0.399 OA
ATOM     21  H5  UNL     1      17.540   7.611   7.161  1.00  0.00     0.209 HD
ENDBRANCH  19  20
ENDBRANCH  16  19
ENDBRANCH  12  13
ENDBRANCH   4  12
ENDBRANCH   1   2
BRANCH   1  22
HETATM   22  C12 UNL     1      18.090   4.998  15.189  1.00  0.00     0.037 C 
BRANCH  22  23
HETATM   23  C13 UNL     1      18.590   5.673  16.379  1.00  0.00     0.022 C 
BRANCH  23  24
HETATM   24  C14 UNL     1      20.042   6.049  16.440  1.00  0.00     0.122 C 
BRANCH  24  25
HETATM   25  N4  UNL     1      20.435   6.887  15.336  1.00  0.00    -0.367 N 
HETATM   26  C15 UNL     1      21.151   7.895  15.257  1.00  0.00     0.196 C 
HETATM   27  N5  UNL     1      21.790   8.477  16.381  1.00  0.00    -0.067 NA
HETATM   28  N6  UNL     1      21.387   8.557  13.998  1.00  0.00    -0.067 NA
ATOM     29  H4  UNL     1      20.046   6.591  14.440  1.00  0.00     0.161 HD
ENDBRANCH  24  25
ENDBRANCH  23  24
ENDBRANCH  22  23
ENDBRANCH   1  22
BRANCH   1  30
HETATM   30  N7  UNL     1      16.893   6.994  14.741  1.00  0.00    -0.306 N 
ATOM     31  H7  UNL     1      17.622   7.672  14.959  1.00  0.00     0.173 HD
BRANCH  30  32
HETATM   32  S1  UNL     1      15.234   7.282  14.923  1.00  0.00     0.227 S 
HETATM   33  O3  UNL     1      14.935   7.262  16.428  1.00  0.00    -0.206 OA
HETATM   34  O4  UNL     1      14.429   6.126  14.373  1.00  0.00    -0.206 OA
BRANCH  32  35
HETATM   35  C16 UNL     1      14.632   8.807  14.321  1.00  0.00     0.163 C 
BRANCH  35  36
HETATM   36  C17 UNL     1      13.836   9.629  15.269  1.00  0.00     0.017 C 
BRANCH  36  37
HETATM   37  C18 UNL     1      13.498  11.017  14.778  1.00  0.00     0.001 C 
BRANCH  37  38
HETATM   38  C19 UNL     1      12.376  11.675  15.506  1.00  0.00     0.000 C 
BRANCH  38  39
HETATM   39  C20 UNL     1      12.803  12.708  16.517  1.00  0.00     0.000 C 
BRANCH  39  40
HETATM   40  C21 UNL     1      12.904  12.161  17.910  1.00  0.00    -0.000 C 
BRANCH  40  41
HETATM   41  C22 UNL     1      11.771  11.199  18.219  1.00  0.00    -0.005 C 
HETATM   42  C23 UNL     1      12.333   9.976  18.905  1.00  0.00     0.005 C 
ENDBRANCH  40  41
ENDBRANCH  39  40
ENDBRANCH  38  39
ENDBRANCH  37  38
ENDBRANCH  36  37
ENDBRANCH  35  36
ENDBRANCH  32  35
ENDBRANCH  30  32
ENDBRANCH   1  30
TORSDOF 19
ENDMDL
MODEL 5
REMARK VINA RESULT: -7.559565627      3.190      7.086
REMARK  19 active torsions:
REMARK  status: ('A' for Active; 'I' for Inactive)
REMARK    1  A    between atoms: C2_2  and  C3_3 
REMARK    2  A    between atoms: N1_5  and  C5_6 
REMARK    3  A    between atoms: C5_6  and  C6_7 
REMARK       I    between atoms: N3_14  and  C10_15 
REMARK    4  A    between atoms: C10_15  and  C11_17 
REMARK    5  A    between atoms: C11_17  and  C12_18 
REMARK    6  A    between atoms: C11_17  and  N7_26 
REMARK    7  A    between atoms: C12_18  and  C13_19 
REMARK    8  A    between atoms: C13_19  and  C14_20 
REMARK    9  A    between atoms: C14_20  and  N4_21 
REMARK   10  A    between atoms: N7_26  and  S1_28 
REMARK   11  A    between atoms: S1_28  and  C16_31 
REMARK   12  A    between atoms: C16_31  and  C17_32 
REMARK   13  A    between atoms: C17_32  and  C18_33 
REMARK   14  A    between atoms: C18_33  and  C19_34 
REMARK   15  A    between atoms: C19_34  and  C20_35 
REMARK   16  A    between atoms: C20_35  and  C21_36 
REMARK   17  A    between atoms: C21_36  and  C22_37 
REMARK   18  A    between atoms: C24_39  and  C25_40 
REMARK   19  A    between atoms: C25_40  and  O5_41 
ROOT
HETATM    1  C11 UNL     1      17.115   5.486  14.175  1.00  0.00     0.184 C 
ENDROOT
BRANCH   1   2
HETATM    2  C10 UNL     1      17.718   5.751  12.849  1.00  0.00     0.244 C 
HETATM    3  N3  UNL     1      17.075   5.464  11.592  1.00  0.00    -0.334 N 
HETATM    4  C6  UNL     1      17.745   5.801  10.374  1.00  0.00     0.207 C 
HETATM    5  C9  UNL     1      15.795   4.823  11.539  1.00  0.00     0.146 C 
HETATM    6  C7  UNL     1      17.046   5.245   9.154  1.00  0.00     0.242 C 
HETATM    7  O1  UNL     1      17.351   5.750   8.058  1.00  0.00    -0.271 OA
HETATM    8  N2  UNL     1      16.102   4.214   9.259  1.00  0.00    -0.358 N 
HETATM    9  C8  UNL     1      15.887   3.626  10.595  1.00  0.00     0.142 C 
ATOM     10  H2  UNL     1      15.585   3.883   8.444  1.00  0.00     0.162 HD
HETATM   11  O2  UNL     1      18.873   6.275  12.917  1.00  0.00    -0.271 OA
BRANCH   4  12
HETATM   12  C5  UNL     1      18.148   7.219  10.142  1.00  0.00     0.308 C 
BRANCH  12  13
HETATM   13  N1  UNL     1      17.094   8.120  10.368  1.00  0.00     0.099 N 
HETATM   14  C4  UNL     1      17.263   9.293  11.149  1.00  0.00     0.284 C 
HETATM   15  C3  UNL     1      16.205   9.944  10.220  1.00  0.00     0.071 C 
HETATM   16  C24 UNL     1      16.488   8.817   9.261  1.00  0.00     0.255 C 
BRANCH  15  17
HETATM   17  C2  UNL     1      14.913   9.925  10.893  1.00  0.00    -0.028 C 
HETATM   18  C1  UNL     1      14.201  10.995  11.164  1.00  0.00     0.007 C 
ENDBRANCH  15  17
BRANCH  16  19
HETATM   19  C25 UNL     1      17.411   9.297   8.163  1.00  0.00     0.200 C 
BRANCH  19  20
HETATM   20  O5  UNL     1      17.214   8.540   7.014  1.00  0.00    -0.399 OA
ATOM     21  H5  UNL     1      17.433   9.055   6.246  1.00  0.00     0.209 HD
ENDBRANCH  19  20
ENDBRANCH  16  19
ENDBRANCH  12  13
ENDBRANCH   4  12
ENDBRANCH   1   2
BRANCH   1  22
HETATM   22  C12 UNL     1      18.037   4.854  15.143  1.00  0.00     0.037 C 
BRANCH  22  23
HETATM   23  C13 UNL     1      17.670   3.809  16.091  1.00  0.00     0.022 C 
BRANCH  23  24
HETATM   24  C14 UNL     1      16.217   3.587  16.394  1.00  0.00     0.122 C 
BRANCH  24  25
HETATM   25  N4  UNL     1      15.748   4.433  17.461  1.00  0.00    -0.367 N 
HETATM   26  C15 UNL     1      15.766   4.319  18.696  1.00  0.00     0.196 C 
HETATM   27  N5  UNL     1      16.320   3.195  19.358  1.00  0.00    -0.067 NA
HETATM   28  N6  UNL     1      15.216   5.338  19.555  1.00  0.00    -0.067 NA
ATOM     29  H4  UNL     1      15.314   5.297  17.138  1.00  0.00     0.161 HD
ENDBRANCH  24  25
ENDBRANCH  23  24
ENDBRANCH  22  23
ENDBRANCH   1  22
BRANCH   1  30
HETATM   30  N7  UNL     1      16.865   6.877  14.753  1.00  0.00    -0.306 N 
ATOM     31  H7  UNL     1      17.598   7.551  14.969  1.00  0.00     0.173 HD
BRANCH  30  32
HETATM   32  S1  UNL     1      15.211   7.154  14.989  1.00  0.00     0.227 S 
HETATM   33  O3  UNL     1      14.956   7.103  16.502  1.00  0.00    -0.206 OA
HETATM   34  O4  UNL     1      14.394   6.005  14.440  1.00  0.00    -0.206 OA
BRANCH  32  35
HETATM   35  C16 UNL     1      14.586   8.687  14.435  1.00  0.00     0.163 C 
BRANCH  35  36
HETATM   36  C17 UNL     1      13.803   9.480  15.417  1.00  0.00     0.017 C 
BRANCH  36  37
HETATM   37  C18 UNL     1      13.347  10.833  14.923  1.00  0.00     0.001 C 
BRANCH  37  38
HETATM   38  C19 UNL     1      12.736  11.701  15.968  1.00  0.00     0.000 C 
BRANCH  38  39
HETATM   39  C20 UNL     1      12.763  11.123  17.361  1.00  0.00     0.000 C 
BRANCH  39  40
HETATM   40  C21 UNL     1      11.531  11.442  18.154  1.00  0.00    -0.000 C 
BRANCH  40  41
HETATM   41  C22 UNL     1      11.454  10.617  19.426  1.00  0.00    -0.005 C 
HETATM   42  C23 UNL     1      12.475   9.506  19.357  1.00  0.00     0.005 C 
ENDBRANCH  40  41
ENDBRANCH  39  40
ENDBRANCH  38  39
ENDBRANCH  37  38
ENDBRANCH  36  37
ENDBRANCH  35  36
ENDBRANCH  32  35
ENDBRANCH  30  32
ENDBRANCH   1  30
TORSDOF 19
ENDMDL
