MODEL 1
REMARK VINA RESULT: -7.623850026      0.000      0.000
REMARK  19 active torsions:
REMARK  status: ('A' for Active; 'I' for Inactive)
REMARK    1  A    between atoms: C2_2  and  C3_3 
REMARK    2  A    between atoms: C3_3  and  C4_4 
REMARK    3  A    between atoms: C4_4  and  C5_5 
REMARK    4  A    between atoms: C5_5  and  C6_6 
REMARK    5  A    between atoms: C6_6  and  C7_7 
REMARK       I    between atoms: C7_7  and  N1_9 
REMARK    6  A    between atoms: N1_9  and  C9_11 
REMARK    7  A    between atoms: C9_11  and  C10_12 
REMARK    8  A    between atoms: C10_12  and  C11_13 
REMARK    9  A    between atoms: C11_13  and  C12_14 
REMARK   10  A    between atoms: C12_14  and  C13_15 
REMARK   11  A    between atoms: C16_21  and  C17_22 
REMARK   12  A    between atoms: C17_22  and  C18_23 
REMARK   13  A    between atoms: C18_23  and  C19_24 
REMARK   14  A    between atoms: C19_24  and  N3_25 
REMARK   15  A    between atoms: N6_30  and  S1_31 
REMARK   16  A    between atoms: S1_31  and  N7_34 
REMARK   17  A    between atoms: N7_34  and  C21_36 
REMARK   18  A    between atoms: C21_36  and  C23_38 
REMARK   19  A    between atoms: C23_38  and  N8_39 
ROOT
HETATM    1  C11 UNL     1      16.522   5.466  16.953  1.00  0.00     0.116 C 
HETATM    2  N2  UNL     1      15.450   4.895  16.170  1.00  0.00    -0.341 N 
ATOM      3  H2  UNL     1      14.689   4.411  16.646  1.00  0.00     0.163 HD
HETATM    4  C15 UNL     1      15.430   4.989  14.767  1.00  0.00     0.242 C 
HETATM    5  O2  UNL     1      14.966   4.093  14.061  1.00  0.00    -0.271 OA
HETATM    6  C16 UNL     1      15.999   6.232  14.106  1.00  0.00     0.198 C 
HETATM    7  N6  UNL     1      17.316   6.446  14.697  1.00  0.00    -0.212 N 
HETATM    8  C24 UNL     1      17.447   6.260  16.092  1.00  0.00     0.263 C 
HETATM    9  O5  UNL     1      18.426   6.807  16.669  1.00  0.00    -0.269 OA
ENDROOT
BRANCH   1  10
HETATM   10  C10 UNL     1      16.066   6.385  18.047  1.00  0.00     0.061 C 
BRANCH  10  11
HETATM   11  C9  UNL     1      14.591   6.374  18.323  1.00  0.00     0.128 C 
BRANCH  11  12
HETATM   12  N1  UNL     1      14.225   7.439  19.254  1.00  0.00    -0.356 N 
HETATM   13  C7  UNL     1      13.757   8.666  18.712  1.00  0.00     0.219 C 
HETATM   14  O1  UNL     1      13.633   8.804  17.469  1.00  0.00    -0.273 OA
HETATM   15  C8  UNL     1      14.369   7.205  20.652  1.00  0.00     0.152 C 
BRANCH  13  16
HETATM   16  C6  UNL     1      13.396   9.828  19.555  1.00  0.00     0.103 C 
BRANCH  16  17
HETATM   17  C5  UNL     1      12.002  10.261  19.258  1.00  0.00     0.009 C 
BRANCH  17  18
HETATM   18  C4  UNL     1      11.917  11.718  18.857  1.00  0.00     0.000 C 
BRANCH  18  19
HETATM   19  C3  UNL     1      11.527  11.788  17.384  1.00  0.00    -0.000 C 
BRANCH  19  20
HETATM   20  C2  UNL     1      12.702  12.307  16.567  1.00  0.00    -0.005 C 
HETATM   21  C1  UNL     1      12.773  11.499  15.282  1.00  0.00     0.005 C 
ENDBRANCH  19  20
ENDBRANCH  18  19
ENDBRANCH  17  18
ENDBRANCH  16  17
ENDBRANCH  13  16
ENDBRANCH  11  12
ENDBRANCH  10  11
ENDBRANCH   1  10
BRANCH   1  22
HETATM   22  C12 UNL     1      17.349   4.369  17.589  1.00  0.00     0.041 C 
BRANCH  22  23
HETATM   23  C13 UNL     1      16.515   3.136  17.891  1.00  0.00    -0.002 C 
HETATM   24  C14 UNL     1      16.547   2.896  19.374  1.00  0.00     0.005 C 
ENDBRANCH  22  23
ENDBRANCH   1  22
BRANCH   7  25
HETATM   25  S1  UNL     1      18.679   6.905  13.761  1.00  0.00     0.324 S 
HETATM   26  O3  UNL     1      18.877   8.410  13.786  1.00  0.00    -0.182 OA
HETATM   27  O4  UNL     1      18.532   6.542  12.296  1.00  0.00    -0.182 OA
BRANCH  25  28
HETATM   28  N7  UNL     1      20.112   6.091  14.271  1.00  0.00    -0.296 N 
ATOM     29  H7  UNL     1      20.132   5.103  14.522  1.00  0.00     0.174 HD
BRANCH  28  30
HETATM   30  C21 UNL     1      21.270   6.927  14.309  1.00  0.00     0.115 C 
HETATM   31  C22 UNL     1      22.374   6.515  13.372  1.00  0.00     0.034 C 
BRANCH  30  32
HETATM   32  C23 UNL     1      21.798   7.104  15.731  1.00  0.00     0.254 C 
BRANCH  32  33
HETATM   33  N8  UNL     1      21.012   8.146  16.362  1.00  0.00    -0.077 N 
ATOM     34  H83 UNL     1      20.021   7.911  16.431  1.00  0.00     0.274 HD
ATOM     35  H82 UNL     1      21.198   8.234  17.361  1.00  0.00     0.274 HD
ATOM     36  H81 UNL     1      21.181   9.011  15.849  1.00  0.00     0.274 HD
ENDBRANCH  32  33
ENDBRANCH  30  32
ENDBRANCH  28  30
ENDBRANCH  25  28
ENDBRANCH   7  25
BRANCH   6  37
HETATM   37  C17 UNL     1      15.005   7.300  14.409  1.00  0.00     0.038 C 
BRANCH  37  38
HETATM   38  C18 UNL     1      15.337   8.696  14.056  1.00  0.00     0.022 C 
BRANCH  38  39
HETATM   39  C19 UNL     1      15.534   9.008  12.614  1.00  0.00     0.122 C 
BRANCH  39  40
HETATM   40  N3  UNL     1      14.630  10.080  12.232  1.00  0.00    -0.367 N 
HETATM   41  C20 UNL     1      14.519  10.490  11.023  1.00  0.00     0.196 C 
HETATM   42  N4  UNL     1      15.330   9.845  10.034  1.00  0.00    -0.067 NA
HETATM   43  N5  UNL     1      13.626  11.535  10.695  1.00  0.00    -0.067 NA
ATOM     44  H3  UNL     1      14.062  10.522  12.954  1.00  0.00     0.161 HD
ENDBRANCH  39  40
ENDBRANCH  38  39
ENDBRANCH  37  38
ENDBRANCH   6  37
TORSDOF 19
ENDMDL
MODEL 2
REMARK VINA RESULT: -7.480913328      3.165      5.739
REMARK  19 active torsions:
REMARK  status: ('A' for Active; 'I' for Inactive)
REMARK    1  A    between atoms: C2_2  and  C3_3 
REMARK    2  A    between atoms: C3_3  and  C4_4 
REMARK    3  A    between atoms: C4_4  and  C5_5 
REMARK    4  A    between atoms: C5_5  and  C6_6 
REMARK    5  A    between atoms: C6_6  and  C7_7 
REMARK       I    between atoms: C7_7  and  N1_9 
REMARK    6  A    between atoms: N1_9  and  C9_11 
REMARK    7  A    between atoms: C9_11  and  C10_12 
REMARK    8  A    between atoms: C10_12  and  C11_13 
REMARK    9  A    between atoms: C11_13  and  C12_14 
REMARK   10  A    between atoms: C12_14  and  C13_15 
REMARK   11  A    between atoms: C16_21  and  C17_22 
REMARK   12  A    between atoms: C17_22  and  C18_23 
REMARK   13  A    between atoms: C18_23  and  C19_24 
REMARK   14  A    between atoms: C19_24  and  N3_25 
REMARK   15  A    between atoms: N6_30  and  S1_31 
REMARK   16  A    between atoms: S1_31  and  N7_34 
REMARK   17  A    between atoms: N7_34  and  C21_36 
REMARK   18  A    between atoms: C21_36  and  C23_38 
REMARK   19  A    between atoms: C23_38  and  N8_39 
ROOT
HETATM    1  C11 UNL     1      17.506   6.988  13.529  1.00  0.00     0.116 C 
HETATM    2  N2  UNL     1      18.364   6.342  12.563  1.00  0.00    -0.341 N 
ATOM      3  H2  UNL     1      18.917   5.534  12.850  1.00  0.00     0.163 HD
HETATM    4  C15 UNL     1      18.455   6.798  11.236  1.00  0.00     0.242 C 
HETATM    5  O2  UNL     1      19.506   6.732  10.596  1.00  0.00    -0.271 OA
HETATM    6  C16 UNL     1      17.223   7.389  10.576  1.00  0.00     0.198 C 
HETATM    7  N6  UNL     1      16.691   8.378  11.508  1.00  0.00    -0.212 N 
HETATM    8  C24 UNL     1      16.669   8.040  12.881  1.00  0.00     0.263 C 
HETATM    9  O5  UNL     1      15.879   8.676  13.631  1.00  0.00    -0.269 OA
ENDROOT
BRANCH   1  10
HETATM   10  C10 UNL     1      16.557   6.063  14.230  1.00  0.00     0.061 C 
BRANCH  10  11
HETATM   11  C9  UNL     1      16.678   6.029  15.725  1.00  0.00     0.128 C 
BRANCH  11  12
HETATM   12  N1  UNL     1      15.435   6.461  16.361  1.00  0.00    -0.356 N 
HETATM   13  C7  UNL     1      15.419   6.589  17.776  1.00  0.00     0.219 C 
HETATM   14  O1  UNL     1      16.461   6.370  18.444  1.00  0.00    -0.273 OA
HETATM   15  C8  UNL     1      14.298   6.715  15.539  1.00  0.00     0.152 C 
BRANCH  13  16
HETATM   16  C6  UNL     1      14.208   6.980  18.531  1.00  0.00     0.103 C 
BRANCH  16  17
HETATM   17  C5  UNL     1      14.338   8.382  19.016  1.00  0.00     0.009 C 
BRANCH  17  18
HETATM   18  C4  UNL     1      13.119   9.223  18.700  1.00  0.00     0.000 C 
BRANCH  18  19
HETATM   19  C3  UNL     1      13.321   9.863  17.331  1.00  0.00    -0.000 C 
BRANCH  19  20
HETATM   20  C2  UNL     1      12.445  11.102  17.209  1.00  0.00    -0.005 C 
HETATM   21  C1  UNL     1      11.611  11.214  18.474  1.00  0.00     0.005 C 
ENDBRANCH  19  20
ENDBRANCH  18  19
ENDBRANCH  17  18
ENDBRANCH  16  17
ENDBRANCH  13  16
ENDBRANCH  11  12
ENDBRANCH  10  11
ENDBRANCH   1  10
BRANCH   1  22
HETATM   22  C12 UNL     1      18.338   7.681  14.588  1.00  0.00     0.041 C 
BRANCH  22  23
HETATM   23  C13 UNL     1      19.816   7.670  14.242  1.00  0.00    -0.002 C 
HETATM   24  C14 UNL     1      20.601   7.661  15.523  1.00  0.00     0.005 C 
ENDBRANCH  22  23
ENDBRANCH   1  22
BRANCH   7  25
HETATM   25  S1  UNL     1      16.108   9.907  10.992  1.00  0.00     0.324 S 
HETATM   26  O3  UNL     1      16.251  10.068   9.490  1.00  0.00    -0.182 OA
HETATM   27  O4  UNL     1      16.880  11.063  11.596  1.00  0.00    -0.182 OA
BRANCH  25  28
HETATM   28  N7  UNL     1      14.474  10.170  11.482  1.00  0.00    -0.296 N 
ATOM     29  H7  UNL     1      13.738   9.475  11.362  1.00  0.00     0.174 HD
BRANCH  28  30
HETATM   30  C21 UNL     1      14.246  11.452  12.071  1.00  0.00     0.115 C 
HETATM   31  C22 UNL     1      13.893  11.416  13.534  1.00  0.00     0.034 C 
BRANCH  30  32
HETATM   32  C23 UNL     1      13.226  12.269  11.281  1.00  0.00     0.254 C 
BRANCH  32  33
HETATM   33  N8  UNL     1      12.082  12.490  12.143  1.00  0.00    -0.077 N 
ATOM     34  H83 UNL     1      11.295  11.877  11.926  1.00  0.00     0.274 HD
ATOM     35  H82 UNL     1      12.238  12.173  13.100  1.00  0.00     0.274 HD
ATOM     36  H81 UNL     1      11.842  13.480  12.087  1.00  0.00     0.274 HD
ENDBRANCH  32  33
ENDBRANCH  30  32
ENDBRANCH  28  30
ENDBRANCH  25  28
ENDBRANCH   7  25
BRANCH   6  37
HETATM   37  C17 UNL     1      16.331   6.219  10.342  1.00  0.00     0.038 C 
BRANCH  37  38
HETATM   38  C18 UNL     1      16.420   5.509   9.048  1.00  0.00     0.022 C 
BRANCH  38  39
HETATM   39  C19 UNL     1      16.687   6.329   7.835  1.00  0.00     0.122 C 
BRANCH  39  40
HETATM   40  N3  UNL     1      17.984   5.965   7.290  1.00  0.00    -0.367 N 
HETATM   41  C20 UNL     1      18.925   6.817   7.122  1.00  0.00     0.196 C 
HETATM   42  N4  UNL     1      18.658   8.173   7.498  1.00  0.00    -0.067 NA
HETATM   43  N5  UNL     1      20.172   6.419   6.589  1.00  0.00    -0.067 NA
ATOM     44  H3  UNL     1      18.151   4.993   7.032  1.00  0.00     0.161 HD
ENDBRANCH  39  40
ENDBRANCH  38  39
ENDBRANCH  37  38
ENDBRANCH   6  37
TORSDOF 19
ENDMDL
MODEL 3
REMARK VINA RESULT: -7.410778841      3.925      7.735
REMARK  19 active torsions:
REMARK  status: ('A' for Active; 'I' for Inactive)
REMARK    1  A    between atoms: C2_2  and  C3_3 
REMARK    2  A    between atoms: C3_3  and  C4_4 
REMARK    3  A    between atoms: C4_4  and  C5_5 
REMARK    4  A    between atoms: C5_5  and  C6_6 
REMARK    5  A    between atoms: C6_6  and  C7_7 
REMARK       I    between atoms: C7_7  and  N1_9 
REMARK    6  A    between atoms: N1_9  and  C9_11 
REMARK    7  A    between atoms: C9_11  and  C10_12 
REMARK    8  A    between atoms: C10_12  and  C11_13 
REMARK    9  A    between atoms: C11_13  and  C12_14 
REMARK   10  A    between atoms: C12_14  and  C13_15 
REMARK   11  A    between atoms: C16_21  and  C17_22 
REMARK   12  A    between atoms: C17_22  and  C18_23 
REMARK   13  A    between atoms: C18_23  and  C19_24 
REMARK   14  A    between atoms: C19_24  and  N3_25 
REMARK   15  A    between atoms: N6_30  and  S1_31 
REMARK   16  A    between atoms: S1_31  and  N7_34 
REMARK   17  A    between atoms: N7_34  and  C21_36 
REMARK   18  A    between atoms: C21_36  and  C23_38 
REMARK   19  A    between atoms: C23_38  and  N8_39 
ROOT
HETATM    1  C11 UNL     1      16.616   6.272  13.170  1.00  0.00     0.116 C 
HETATM    2  N2  UNL     1      18.040   6.111  12.984  1.00  0.00    -0.341 N 
ATOM      3  H2  UNL     1      18.476   6.478  12.139  1.00  0.00     0.163 HD
HETATM    4  C15 UNL     1      18.840   5.460  13.940  1.00  0.00     0.242 C 
HETATM    5  O2  UNL     1      19.819   4.785  13.619  1.00  0.00    -0.271 OA
HETATM    6  C16 UNL     1      18.484   5.594  15.410  1.00  0.00     0.198 C 
HETATM    7  N6  UNL     1      17.061   5.288  15.518  1.00  0.00    -0.212 N 
HETATM    8  C24 UNL     1      16.200   5.812  14.528  1.00  0.00     0.263 C 
HETATM    9  O5  UNL     1      14.973   5.904  14.804  1.00  0.00    -0.269 OA
ENDROOT
BRANCH   1  10
HETATM   10  C10 UNL     1      16.131   7.684  13.033  1.00  0.00     0.061 C 
BRANCH  10  11
HETATM   11  C9  UNL     1      17.193   8.740  13.122  1.00  0.00     0.128 C 
BRANCH  11  12
HETATM   12  N1  UNL     1      17.141   9.633  11.966  1.00  0.00    -0.356 N 
HETATM   13  C7  UNL     1      18.016   9.366  10.879  1.00  0.00     0.219 C 
HETATM   14  O1  UNL     1      18.780   8.369  10.909  1.00  0.00    -0.273 OA
HETATM   15  C8  UNL     1      16.234  10.732  11.990  1.00  0.00     0.152 C 
BRANCH  13  16
HETATM   16  C6  UNL     1      18.080  10.224   9.674  1.00  0.00     0.103 C 
BRANCH  16  17
HETATM   17  C5  UNL     1      17.104   9.748   8.655  1.00  0.00     0.009 C 
BRANCH  17  18
HETATM   18  C4  UNL     1      17.771   9.055   7.486  1.00  0.00     0.000 C 
BRANCH  18  19
HETATM   19  C3  UNL     1      17.618   7.549   7.672  1.00  0.00    -0.000 C 
BRANCH  19  20
HETATM   20  C2  UNL     1      16.271   7.244   8.312  1.00  0.00    -0.005 C 
HETATM   21  C1  UNL     1      16.148   5.737   8.451  1.00  0.00     0.005 C 
ENDBRANCH  19  20
ENDBRANCH  18  19
ENDBRANCH  17  18
ENDBRANCH  16  17
ENDBRANCH  13  16
ENDBRANCH  11  12
ENDBRANCH  10  11
ENDBRANCH   1  10
BRANCH   1  22
HETATM   22  C12 UNL     1      15.858   5.425  12.169  1.00  0.00     0.041 C 
BRANCH  22  23
HETATM   23  C13 UNL     1      16.345   3.987  12.162  1.00  0.00    -0.002 C 
HETATM   24  C14 UNL     1      15.158   3.085  12.344  1.00  0.00     0.005 C 
ENDBRANCH  22  23
ENDBRANCH   1  22
BRANCH   7  25
HETATM   25  S1  UNL     1      16.423   4.326  16.788  1.00  0.00     0.324 S 
HETATM   26  O3  UNL     1      15.718   5.184  17.822  1.00  0.00    -0.182 OA
HETATM   27  O4  UNL     1      17.498   3.576  17.552  1.00  0.00    -0.182 OA
BRANCH  25  28
HETATM   28  N7  UNL     1      15.371   3.094  16.194  1.00  0.00    -0.296 N 
ATOM     29  H7  UNL     1      14.500   3.295  15.703  1.00  0.00     0.174 HD
BRANCH  28  30
HETATM   30  C21 UNL     1      15.830   1.766  16.454  1.00  0.00     0.115 C 
HETATM   31  C22 UNL     1      16.346   1.033  15.244  1.00  0.00     0.034 C 
BRANCH  30  32
HETATM   32  C23 UNL     1      14.783   0.935  17.191  1.00  0.00     0.254 C 
BRANCH  32  33
HETATM   33  N8  UNL     1      14.194   1.780  18.212  1.00  0.00    -0.077 N 
ATOM     34  H83 UNL     1      13.367   2.281  17.885  1.00  0.00     0.274 HD
ATOM     35  H82 UNL     1      13.743   1.248  18.956  1.00  0.00     0.274 HD
ATOM     36  H81 UNL     1      14.925   2.402  18.555  1.00  0.00     0.274 HD
ENDBRANCH  32  33
ENDBRANCH  30  32
ENDBRANCH  28  30
ENDBRANCH  25  28
ENDBRANCH   7  25
BRANCH   6  37
HETATM   37  C17 UNL     1      18.840   7.001  15.750  1.00  0.00     0.038 C 
BRANCH  37  38
HETATM   38  C18 UNL     1      20.244   7.312  16.091  1.00  0.00     0.022 C 
BRANCH  38  39
HETATM   39  C19 UNL     1      21.044   8.059  15.083  1.00  0.00     0.122 C 
BRANCH  39  40
HETATM   40  N3  UNL     1      22.281   8.511  15.696  1.00  0.00    -0.367 N 
HETATM   41  C20 UNL     1      23.167   9.176  15.053  1.00  0.00     0.196 C 
HETATM   42  N4  UNL     1      22.897   9.470  13.678  1.00  0.00    -0.067 NA
HETATM   43  N5  UNL     1      24.357   9.597  15.690  1.00  0.00    -0.067 NA
ATOM     44  H3  UNL     1      22.450   8.291  16.678  1.00  0.00     0.161 HD
ENDBRANCH  39  40
ENDBRANCH  38  39
ENDBRANCH  37  38
ENDBRANCH   6  37
TORSDOF 19
ENDMDL
MODEL 4
REMARK VINA RESULT: -7.386987463      3.880      7.858
REMARK  19 active torsions:
REMARK  status: ('A' for Active; 'I' for Inactive)
REMARK    1  A    between atoms: C2_2  and  C3_3 
REMARK    2  A    between atoms: C3_3  and  C4_4 
REMARK    3  A    between atoms: C4_4  and  C5_5 
REMARK    4  A    between atoms: C5_5  and  C6_6 
REMARK    5  A    between atoms: C6_6  and  C7_7 
REMARK       I    between atoms: C7_7  and  N1_9 
REMARK    6  A    between atoms: N1_9  and  C9_11 
REMARK    7  A    between atoms: C9_11  and  C10_12 
REMARK    8  A    between atoms: C10_12  and  C11_13 
REMARK    9  A    between atoms: C11_13  and  C12_14 
REMARK   10  A    between atoms: C12_14  and  C13_15 
REMARK   11  A    between atoms: C16_21  and  C17_22 
REMARK   12  A    between atoms: C17_22  and  C18_23 
REMARK   13  A    between atoms: C18_23  and  C19_24 
REMARK   14  A    between atoms: C19_24  and  N3_25 
REMARK   15  A    between atoms: N6_30  and  S1_31 
REMARK   16  A    between atoms: S1_31  and  N7_34 
REMARK   17  A    between atoms: N7_34  and  C21_36 
REMARK   18  A    between atoms: C21_36  and  C23_38 
REMARK   19  A    between atoms: C23_38  and  N8_39 
ROOT
HETATM    1  C11 UNL     1      16.886   6.867  13.273  1.00  0.00     0.116 C 
HETATM    2  N2  UNL     1      17.921   6.756  12.270  1.00  0.00    -0.341 N 
ATOM      3  H2  UNL     1      18.604   6.002  12.342  1.00  0.00     0.163 HD
HETATM    4  C15 UNL     1      18.009   7.661  11.198  1.00  0.00     0.242 C 
HETATM    5  O2  UNL     1      19.093   8.001  10.721  1.00  0.00    -0.271 OA
HETATM    6  C16 UNL     1      16.732   8.237  10.615  1.00  0.00     0.198 C 
HETATM    7  N6  UNL     1      15.949   8.729  11.745  1.00  0.00    -0.212 N 
HETATM    8  C24 UNL     1      15.901   7.927  12.908  1.00  0.00     0.263 C 
HETATM    9  O5  UNL     1      14.950   8.116  13.714  1.00  0.00    -0.269 OA
ENDROOT
BRANCH   1  10
HETATM   10  C10 UNL     1      16.097   5.610  13.488  1.00  0.00     0.061 C 
BRANCH  10  11
HETATM   11  C9  UNL     1      16.454   4.829  14.719  1.00  0.00     0.128 C 
BRANCH  11  12
HETATM   12  N1  UNL     1      17.316   3.697  14.387  1.00  0.00    -0.356 N 
HETATM   13  C7  UNL     1      16.697   2.456  14.077  1.00  0.00     0.219 C 
HETATM   14  O1  UNL     1      15.444   2.360  14.059  1.00  0.00    -0.273 OA
HETATM   15  C8  UNL     1      18.729   3.883  14.406  1.00  0.00     0.152 C 
BRANCH  13  16
HETATM   16  C6  UNL     1      17.467   1.231  13.766  1.00  0.00     0.103 C 
BRANCH  16  17
HETATM   17  C5  UNL     1      17.432   0.964  12.302  1.00  0.00     0.009 C 
BRANCH  17  18
HETATM   18  C4  UNL     1      18.575   1.624  11.560  1.00  0.00     0.000 C 
BRANCH  18  19
HETATM   19  C3  UNL     1      18.008   2.315  10.324  1.00  0.00    -0.000 C 
BRANCH  19  20
HETATM   20  C2  UNL     1      17.380   3.644  10.721  1.00  0.00    -0.005 C 
HETATM   21  C1  UNL     1      15.904   3.591  10.366  1.00  0.00     0.005 C 
ENDBRANCH  19  20
ENDBRANCH  18  19
ENDBRANCH  17  18
ENDBRANCH  16  17
ENDBRANCH  13  16
ENDBRANCH  11  12
ENDBRANCH  10  11
ENDBRANCH   1  10
BRANCH   1  22
HETATM   22  C12 UNL     1      17.487   7.266  14.604  1.00  0.00     0.041 C 
BRANCH  22  23
HETATM   23  C13 UNL     1      18.959   7.615  14.478  1.00  0.00    -0.002 C 
HETATM   24  C14 UNL     1      19.630   7.315  15.789  1.00  0.00     0.005 C 
ENDBRANCH  22  23
ENDBRANCH   1  22
BRANCH   7  25
HETATM   25  S1  UNL     1      15.107  10.223  11.697  1.00  0.00     0.324 S 
HETATM   26  O3  UNL     1      14.306  10.358  10.415  1.00  0.00    -0.182 OA
HETATM   27  O4  UNL     1      16.036  11.420  11.721  1.00  0.00    -0.182 OA
BRANCH  25  28
HETATM   28  N7  UNL     1      14.091  10.432  13.077  1.00  0.00    -0.296 N 
ATOM     29  H7  UNL     1      13.755   9.653  13.644  1.00  0.00     0.174 HD
BRANCH  28  30
HETATM   30  C21 UNL     1      13.764  11.795  13.353  1.00  0.00     0.115 C 
HETATM   31  C22 UNL     1      13.326  12.061  14.769  1.00  0.00     0.034 C 
BRANCH  30  32
HETATM   32  C23 UNL     1      12.752  12.351  12.354  1.00  0.00     0.254 C 
BRANCH  32  33
HETATM   33  N8  UNL     1      13.455  13.283  11.493  1.00  0.00    -0.077 N 
ATOM     34  H83 UNL     1      13.144  14.247  11.613  1.00  0.00     0.274 HD
ATOM     35  H82 UNL     1      14.427  13.421  11.768  1.00  0.00     0.274 HD
ATOM     36  H81 UNL     1      13.357  12.949  10.535  1.00  0.00     0.274 HD
ENDBRANCH  32  33
ENDBRANCH  30  32
ENDBRANCH  28  30
ENDBRANCH  25  28
ENDBRANCH   7  25
BRANCH   6  37
HETATM   37  C17 UNL     1      16.112   7.096   9.884  1.00  0.00     0.038 C 
BRANCH  37  38
HETATM   38  C18 UNL     1      16.098   7.127   8.407  1.00  0.00     0.022 C 
BRANCH  38  39
HETATM   39  C19 UNL     1      16.804   6.028   7.693  1.00  0.00     0.122 C 
BRANCH  39  40
HETATM   40  N3  UNL     1      17.944   6.579   6.981  1.00  0.00    -0.367 N 
HETATM   41  C20 UNL     1      19.154   6.307   7.299  1.00  0.00     0.196 C 
HETATM   42  N4  UNL     1      19.357   5.419   8.405  1.00  0.00    -0.067 NA
HETATM   43  N5  UNL     1      20.234   6.865   6.578  1.00  0.00    -0.067 NA
ATOM     44  H3  UNL     1      17.774   7.208   6.196  1.00  0.00     0.161 HD
ENDBRANCH  39  40
ENDBRANCH  38  39
ENDBRANCH  37  38
ENDBRANCH   6  37
TORSDOF 19
ENDMDL
MODEL 5
REMARK VINA RESULT: -7.363583467      3.266      7.195
REMARK  19 active torsions:
REMARK  status: ('A' for Active; 'I' for Inactive)
REMARK    1  A    between atoms: C2_2  and  C3_3 
REMARK    2  A    between atoms: C3_3  and  C4_4 
REMARK    3  A    between atoms: C4_4  and  C5_5 
REMARK    4  A    between atoms: C5_5  and  C6_6 
REMARK    5  A    between atoms: C6_6  and  C7_7 
REMARK       I    between atoms: C7_7  and  N1_9 
REMARK    6  A    between atoms: N1_9  and  C9_11 
REMARK    7  A    between atoms: C9_11  and  C10_12 
REMARK    8  A    between atoms: C10_12  and  C11_13 
REMARK    9  A    between atoms: C11_13  and  C12_14 
REMARK   10  A    between atoms: C12_14  and  C13_15 
REMARK   11  A    between atoms: C16_21  and  C17_22 
REMARK   12  A    between atoms: C17_22  and  C18_23 
REMARK   13  A    between atoms: C18_23  and  C19_24 
REMARK   14  A    between atoms: C19_24  and  N3_25 
REMARK   15  A    between atoms: N6_30  and  S1_31 
REMARK   16  A    between atoms: S1_31  and  N7_34 
REMARK   17  A    between atoms: N7_34  and  C21_36 
REMARK   18  A    between atoms: C21_36  and  C23_38 
REMARK   19  A    between atoms: C23_38  and  N8_39 
ROOT
HETATM    1  C11 UNL     1      16.801   6.608  13.538  1.00  0.00     0.116 C 
HETATM    2  N2  UNL     1      17.896   6.143  12.717  1.00  0.00    -0.341 N 
ATOM      3  H2  UNL     1      18.388   5.290  12.980  1.00  0.00     0.163 HD
HETATM    4  C15 UNL     1      18.300   6.839  11.564  1.00  0.00     0.242 C 
HETATM    5  O2  UNL     1      19.479   6.881  11.209  1.00  0.00    -0.271 OA
HETATM    6  C16 UNL     1      17.252   7.559  10.735  1.00  0.00     0.198 C 
HETATM    7  N6  UNL     1      16.469   8.362  11.668  1.00  0.00    -0.212 N 
HETATM    8  C24 UNL     1      16.117   7.773  12.904  1.00  0.00     0.263 C 
HETATM    9  O5  UNL     1      15.142   8.266  13.534  1.00  0.00    -0.269 OA
ENDROOT
BRANCH   1  10
HETATM   10  C10 UNL     1      15.740   5.579  13.793  1.00  0.00     0.061 C 
BRANCH  10  11
HETATM   11  C9  UNL     1      15.486   5.263  15.237  1.00  0.00     0.128 C 
BRANCH  11  12
HETATM   12  N1  UNL     1      15.871   3.888  15.548  1.00  0.00    -0.356 N 
HETATM   13  C7  UNL     1      16.266   3.591  16.880  1.00  0.00     0.219 C 
HETATM   14  O1  UNL     1      16.246   4.487  17.762  1.00  0.00    -0.273 OA
HETATM   15  C8  UNL     1      15.848   2.919  14.504  1.00  0.00     0.152 C 
BRANCH  13  16
HETATM   16  C6  UNL     1      16.714   2.245  17.302  1.00  0.00     0.103 C 
BRANCH  16  17
HETATM   17  C5  UNL     1      17.829   2.362  18.283  1.00  0.00     0.009 C 
BRANCH  17  18
HETATM   18  C4  UNL     1      17.674   1.420  19.457  1.00  0.00     0.000 C 
BRANCH  18  19
HETATM   19  C3  UNL     1      16.185   1.253  19.744  1.00  0.00    -0.000 C 
BRANCH  19  20
HETATM   20  C2  UNL     1      15.881   1.715  21.162  1.00  0.00    -0.005 C 
HETATM   21  C1  UNL     1      15.734   3.226  21.142  1.00  0.00     0.005 C 
ENDBRANCH  19  20
ENDBRANCH  18  19
ENDBRANCH  17  18
ENDBRANCH  16  17
ENDBRANCH  13  16
ENDBRANCH  11  12
ENDBRANCH  10  11
ENDBRANCH   1  10
BRANCH   1  22
HETATM   22  C12 UNL     1      17.317   7.080  14.881  1.00  0.00     0.041 C 
BRANCH  22  23
HETATM   23  C13 UNL     1      18.811   6.852  15.025  1.00  0.00    -0.002 C 
HETATM   24  C14 UNL     1      19.042   5.977  16.224  1.00  0.00     0.005 C 
ENDBRANCH  22  23
ENDBRANCH   1  22
BRANCH   7  25
HETATM   25  S1  UNL     1      15.979   9.967  11.312  1.00  0.00     0.324 S 
HETATM   26  O3  UNL     1      16.181  10.287   9.843  1.00  0.00    -0.182 OA
HETATM   27  O4  UNL     1      16.787  11.007  12.066  1.00  0.00    -0.182 OA
BRANCH  25  28
HETATM   28  N7  UNL     1      14.345  10.260  11.783  1.00  0.00    -0.296 N 
ATOM     29  H7  UNL     1      13.597   9.580  11.648  1.00  0.00     0.174 HD
BRANCH  28  30
HETATM   30  C21 UNL     1      14.135  11.541  12.380  1.00  0.00     0.115 C 
HETATM   31  C22 UNL     1      13.631  11.498  13.798  1.00  0.00     0.034 C 
BRANCH  30  32
HETATM   32  C23 UNL     1      13.253  12.435  11.512  1.00  0.00     0.254 C 
BRANCH  32  33
HETATM   33  N8  UNL     1      11.932  12.458  12.109  1.00  0.00    -0.077 N 
ATOM     34  H83 UNL     1      11.343  11.685  11.799  1.00  0.00     0.274 HD
ATOM     35  H82 UNL     1      11.941  12.228  13.103  1.00  0.00     0.274 HD
ATOM     36  H81 UNL     1      11.523  13.371  11.916  1.00  0.00     0.274 HD
ENDBRANCH  32  33
ENDBRANCH  30  32
ENDBRANCH  28  30
ENDBRANCH  25  28
ENDBRANCH   7  25
BRANCH   6  37
HETATM   37  C17 UNL     1      16.490   6.464  10.071  1.00  0.00     0.038 C 
BRANCH  37  38
HETATM   38  C18 UNL     1      16.117   6.623   8.650  1.00  0.00     0.022 C 
BRANCH  38  39
HETATM   39  C19 UNL     1      16.789   5.734   7.663  1.00  0.00     0.122 C 
BRANCH  39  40
HETATM   40  N3  UNL     1      17.860   6.470   7.013  1.00  0.00    -0.367 N 
HETATM   41  C20 UNL     1      19.097   6.256   7.269  1.00  0.00     0.196 C 
HETATM   42  N4  UNL     1      19.402   5.245   8.236  1.00  0.00    -0.067 NA
HETATM   43  N5  UNL     1      20.108   6.995   6.612  1.00  0.00    -0.067 NA
ATOM     44  H3  UNL     1      17.618   7.184   6.327  1.00  0.00     0.161 HD
ENDBRANCH  39  40
ENDBRANCH  38  39
ENDBRANCH  37  38
ENDBRANCH   6  37
TORSDOF 19
ENDMDL
