MODEL 1
REMARK VINA RESULT: -8.455399861      0.000      0.000
REMARK  18 active torsions:
REMARK  status: ('A' for Active; 'I' for Inactive)
REMARK    1  A    between atoms: N1_4  and  C4_5 
REMARK    2  A    between atoms: C4_5  and  C5_6 
REMARK    3  A    between atoms: C5_6  and  C6_7 
REMARK    4  A    between atoms: C6_7  and  C7_8 
REMARK    5  A    between atoms: C7_8  and  C8_9 
REMARK    6  A    between atoms: C8_9  and  C9_10 
REMARK    7  A    between atoms: C9_10  and  N2_11 
REMARK    8  A    between atoms: C16_18  and  C17_19 
REMARK       I    between atoms: C17_19  and  N3_21 
REMARK    9  A    between atoms: N3_21  and  C18_22 
REMARK   10  A    between atoms: N3_21  and  C20_26 
REMARK   11  A    between atoms: C18_22  and  C19_23 
REMARK   12  A    between atoms: C20_26  and  C21_27 
REMARK       I    between atoms: C21_27  and  N4_29 
REMARK   13  A    between atoms: N4_29  and  C22_30 
REMARK   14  A    between atoms: C22_30  and  C23_31 
REMARK   15  A    between atoms: C22_30  and  C27_39 
REMARK   16  A    between atoms: C23_31  and  C24_32 
REMARK   17  A    between atoms: C24_32  and  C25_33 
REMARK   18  A    between atoms: C25_33  and  N5_34 
ROOT
HETATM    1  C17 UNL     1      16.675   4.778  15.963  1.00  0.00     0.229 C 
HETATM    2  O1  UNL     1      17.765   5.447  16.026  1.00  0.00    -0.273 OA
HETATM    3  N3  UNL     1      16.756   3.376  16.254  1.00  0.00    -0.332 N 
ENDROOT
BRANCH   3   4
HETATM    4  C18 UNL     1      15.588   2.546  16.149  1.00  0.00     0.239 C 
BRANCH   4   5
HETATM    5  C19 UNL     1      15.809   1.385  15.197  1.00  0.00     0.191 C 
HETATM    6  O2  UNL     1      15.741   0.192  15.599  1.00  0.00    -0.647 OA
HETATM    7  O3  UNL     1      16.077   1.652  13.884  1.00  0.00    -0.647 OA
ENDBRANCH   4   5
ENDBRANCH   3   4
BRANCH   3   8
HETATM    8  C20 UNL     1      18.002   2.756  16.515  1.00  0.00     0.245 C 
BRANCH   8   9
HETATM    9  C21 UNL     1      18.352   2.890  18.064  1.00  0.00     0.305 C 
HETATM   10  O4  UNL     1      19.381   3.415  18.207  1.00  0.00    -0.256 OA
HETATM   11  N4  UNL     1      17.311   2.338  18.747  1.00  0.00    -0.397 NA
BRANCH  11  12
HETATM   12  C22 UNL     1      16.250   1.775  19.453  1.00  0.00     0.267 C 
BRANCH  12  13
HETATM   13  C23 UNL     1      16.068   2.607  20.730  1.00  0.00     0.052 C 
BRANCH  13  14
HETATM   14  C24 UNL     1      14.753   2.628  21.327  1.00  0.00     0.023 C 
BRANCH  14  15
HETATM   15  C25 UNL     1      13.731   3.585  20.708  1.00  0.00     0.122 C 
BRANCH  15  16
HETATM   16  N5  UNL     1      13.597   4.640  21.677  1.00  0.00    -0.367 N 
HETATM   17  C26 UNL     1      14.201   5.698  21.895  1.00  0.00     0.196 C 
HETATM   18  N6  UNL     1      15.277   6.189  21.179  1.00  0.00    -0.067 NA
HETATM   19  N7  UNL     1      13.739   6.523  22.992  1.00  0.00    -0.067 NA
ATOM     20  H5  UNL     1      12.832   4.479  22.333  1.00  0.00     0.161 HD
ENDBRANCH  15  16
ENDBRANCH  14  15
ENDBRANCH  13  14
ENDBRANCH  12  13
BRANCH  12  21
HETATM   21  C27 UNL     1      16.503   0.321  19.744  1.00  0.00     0.210 C 
HETATM   22  O5  UNL     1      15.891  -0.561  19.154  1.00  0.00    -0.646 OA
HETATM   23  O6  UNL     1      17.442  -0.040  20.684  1.00  0.00    -0.646 OA
ENDBRANCH  12  21
ENDBRANCH  11  12
ENDBRANCH   8   9
ENDBRANCH   3   8
BRANCH   1  24
HETATM   24  C16 UNL     1      15.482   5.512  15.615  1.00  0.00     0.113 C 
HETATM   25  C2  UNL     1      15.423   5.812  14.141  1.00  0.00    -0.039 C 
HETATM   26  C1  UNL     1      14.898   4.972  13.327  1.00  0.00     0.021 C 
HETATM   27  C3  UNL     1      15.930   7.176  13.687  1.00  0.00     0.092 C 
HETATM   28  N1  UNL     1      14.981   8.048  14.190  1.00  0.00    -0.389 N 
HETATM   29  C14 UNL     1      14.358   7.649  15.406  1.00  0.00     0.123 C 
HETATM   30  C15 UNL     1      15.377   6.928  16.265  1.00  0.00     0.039 C 
BRANCH  28  31
HETATM   31  C4  UNL     1      14.930   9.420  13.848  1.00  0.00     0.122 C 
BRANCH  31  32
HETATM   32  C5  UNL     1      13.926  10.127  14.794  1.00  0.00     0.020 C 
BRANCH  32  33
HETATM   33  C6  UNL     1      13.553  11.437  14.163  1.00  0.00     0.002 C 
BRANCH  33  34
HETATM   34  C7  UNL     1      13.078  12.473  15.182  1.00  0.00     0.002 C 
BRANCH  34  35
HETATM   35  C8  UNL     1      12.794  11.756  16.484  1.00  0.00     0.030 C 
BRANCH  35  36
HETATM   36  C9  UNL     1      13.249  12.332  17.746  1.00  0.00     0.272 C 
BRANCH  36  37
HETATM   37  N2  UNL     1      13.489  11.502  18.859  1.00  0.00     0.088 N 
HETATM   38  C10 UNL     1      12.248  11.584  19.717  1.00  0.00     0.272 C 
HETATM   39  C11 UNL     1      11.552  10.309  19.660  1.00  0.00     0.032 C 
HETATM   40  C12 UNL     1      12.605   9.318  19.249  1.00  0.00     0.032 C 
HETATM   41  C13 UNL     1      13.773  10.145  18.780  1.00  0.00     0.272 C 
ENDBRANCH  36  37
ENDBRANCH  35  36
ENDBRANCH  34  35
ENDBRANCH  33  34
ENDBRANCH  32  33
ENDBRANCH  31  32
ENDBRANCH  28  31
ENDBRANCH   1  24
TORSDOF 18
ENDMDL
MODEL 2
REMARK VINA RESULT: -8.295432280      3.717      8.831
REMARK  18 active torsions:
REMARK  status: ('A' for Active; 'I' for Inactive)
REMARK    1  A    between atoms: N1_4  and  C4_5 
REMARK    2  A    between atoms: C4_5  and  C5_6 
REMARK    3  A    between atoms: C5_6  and  C6_7 
REMARK    4  A    between atoms: C6_7  and  C7_8 
REMARK    5  A    between atoms: C7_8  and  C8_9 
REMARK    6  A    between atoms: C8_9  and  C9_10 
REMARK    7  A    between atoms: C9_10  and  N2_11 
REMARK    8  A    between atoms: C16_18  and  C17_19 
REMARK       I    between atoms: C17_19  and  N3_21 
REMARK    9  A    between atoms: N3_21  and  C18_22 
REMARK   10  A    between atoms: N3_21  and  C20_26 
REMARK   11  A    between atoms: C18_22  and  C19_23 
REMARK   12  A    between atoms: C20_26  and  C21_27 
REMARK       I    between atoms: C21_27  and  N4_29 
REMARK   13  A    between atoms: N4_29  and  C22_30 
REMARK   14  A    between atoms: C22_30  and  C23_31 
REMARK   15  A    between atoms: C22_30  and  C27_39 
REMARK   16  A    between atoms: C23_31  and  C24_32 
REMARK   17  A    between atoms: C24_32  and  C25_33 
REMARK   18  A    between atoms: C25_33  and  N5_34 
ROOT
HETATM    1  C17 UNL     1      16.369   6.789  12.064  1.00  0.00     0.229 C 
HETATM    2  O1  UNL     1      15.580   7.093  13.026  1.00  0.00    -0.273 OA
HETATM    3  N3  UNL     1      16.541   7.770  11.031  1.00  0.00    -0.332 N 
ENDROOT
BRANCH   3   4
HETATM    4  C18 UNL     1      17.364   7.482   9.890  1.00  0.00     0.239 C 
BRANCH   4   5
HETATM    5  C19 UNL     1      16.602   7.657   8.590  1.00  0.00     0.191 C 
HETATM    6  O2  UNL     1      15.727   6.824   8.232  1.00  0.00    -0.647 OA
HETATM    7  O3  UNL     1      16.874   8.745   7.808  1.00  0.00    -0.647 OA
ENDBRANCH   4   5
ENDBRANCH   3   4
BRANCH   3   8
HETATM    8  C20 UNL     1      15.802   8.977  11.042  1.00  0.00     0.245 C 
BRANCH   8   9
HETATM    9  C21 UNL     1      16.475  10.007  12.057  1.00  0.00     0.305 C 
HETATM   10  O4  UNL     1      17.635   9.942  11.996  1.00  0.00    -0.256 OA
HETATM   11  N4  UNL     1      15.456  10.653  12.688  1.00  0.00    -0.397 NA
BRANCH  11  12
HETATM   12  C22 UNL     1      14.419  11.320  13.337  1.00  0.00     0.267 C 
BRANCH  12  13
HETATM   13  C23 UNL     1      13.848  10.353  14.384  1.00  0.00     0.052 C 
BRANCH  13  14
HETATM   14  C24 UNL     1      13.173  10.930  15.522  1.00  0.00     0.023 C 
BRANCH  14  15
HETATM   15  C25 UNL     1      13.357  10.220  16.866  1.00  0.00     0.122 C 
BRANCH  15  16
HETATM   16  N5  UNL     1      12.335  10.780  17.709  1.00  0.00    -0.367 N 
HETATM   17  C26 UNL     1      11.885  10.500  18.829  1.00  0.00     0.196 C 
HETATM   18  N6  UNL     1      12.300   9.461  19.640  1.00  0.00    -0.067 NA
HETATM   19  N7  UNL     1      10.834  11.341  19.361  1.00  0.00    -0.067 NA
ATOM     20  H5  UNL     1      11.879  11.592  17.291  1.00  0.00     0.161 HD
ENDBRANCH  15  16
ENDBRANCH  14  15
ENDBRANCH  13  14
ENDBRANCH  12  13
BRANCH  12  21
HETATM   21  C27 UNL     1      13.378  11.787  12.358  1.00  0.00     0.210 C 
HETATM   22  O5  UNL     1      12.753  12.825  12.540  1.00  0.00    -0.646 OA
HETATM   23  O6  UNL     1      13.116  11.048  11.226  1.00  0.00    -0.646 OA
ENDBRANCH  12  21
ENDBRANCH  11  12
ENDBRANCH   8   9
ENDBRANCH   3   8
BRANCH   1  24
HETATM   24  C16 UNL     1      17.007   5.497  12.131  1.00  0.00     0.113 C 
HETATM   25  C2  UNL     1      16.078   4.394  11.700  1.00  0.00    -0.039 C 
HETATM   26  C1  UNL     1      15.992   4.062  10.465  1.00  0.00     0.021 C 
HETATM   27  C3  UNL     1      15.324   3.650  12.796  1.00  0.00     0.092 C 
HETATM   28  N1  UNL     1      16.321   2.940  13.439  1.00  0.00    -0.389 N 
HETATM   29  C14 UNL     1      17.606   3.553  13.451  1.00  0.00     0.123 C 
HETATM   30  C15 UNL     1      17.432   5.054  13.567  1.00  0.00     0.039 C 
BRANCH  28  31
HETATM   31  C4  UNL     1      16.063   1.945  14.411  1.00  0.00     0.122 C 
BRANCH  31  32
HETATM   32  C5  UNL     1      15.591   2.640  15.714  1.00  0.00     0.020 C 
BRANCH  32  33
HETATM   33  C6  UNL     1      15.949   1.742  16.862  1.00  0.00     0.002 C 
BRANCH  33  34
HETATM   34  C7  UNL     1      15.044   0.513  16.960  1.00  0.00     0.002 C 
BRANCH  34  35
HETATM   35  C8  UNL     1      14.557   0.402  18.388  1.00  0.00     0.030 C 
BRANCH  35  36
HETATM   36  C9  UNL     1      13.835   1.515  19.000  1.00  0.00     0.272 C 
BRANCH  36  37
HETATM   37  N2  UNL     1      13.935   1.749  20.386  1.00  0.00     0.088 N 
HETATM   38  C10 UNL     1      15.412   1.784  20.699  1.00  0.00     0.272 C 
HETATM   39  C11 UNL     1      15.788   3.146  21.039  1.00  0.00     0.032 C 
HETATM   40  C12 UNL     1      14.505   3.802  21.466  1.00  0.00     0.032 C 
HETATM   41  C13 UNL     1      13.411   2.860  21.033  1.00  0.00     0.272 C 
ENDBRANCH  36  37
ENDBRANCH  35  36
ENDBRANCH  34  35
ENDBRANCH  33  34
ENDBRANCH  32  33
ENDBRANCH  31  32
ENDBRANCH  28  31
ENDBRANCH   1  24
TORSDOF 18
ENDMDL
MODEL 3
REMARK VINA RESULT: -8.293315243      3.720      8.173
REMARK  18 active torsions:
REMARK  status: ('A' for Active; 'I' for Inactive)
REMARK    1  A    between atoms: N1_4  and  C4_5 
REMARK    2  A    between atoms: C4_5  and  C5_6 
REMARK    3  A    between atoms: C5_6  and  C6_7 
REMARK    4  A    between atoms: C6_7  and  C7_8 
REMARK    5  A    between atoms: C7_8  and  C8_9 
REMARK    6  A    between atoms: C8_9  and  C9_10 
REMARK    7  A    between atoms: C9_10  and  N2_11 
REMARK    8  A    between atoms: C16_18  and  C17_19 
REMARK       I    between atoms: C17_19  and  N3_21 
REMARK    9  A    between atoms: N3_21  and  C18_22 
REMARK   10  A    between atoms: N3_21  and  C20_26 
REMARK   11  A    between atoms: C18_22  and  C19_23 
REMARK   12  A    between atoms: C20_26  and  C21_27 
REMARK       I    between atoms: C21_27  and  N4_29 
REMARK   13  A    between atoms: N4_29  and  C22_30 
REMARK   14  A    between atoms: C22_30  and  C23_31 
REMARK   15  A    between atoms: C22_30  and  C27_39 
REMARK   16  A    between atoms: C23_31  and  C24_32 
REMARK   17  A    between atoms: C24_32  and  C25_33 
REMARK   18  A    between atoms: C25_33  and  N5_34 
ROOT
HETATM    1  C17 UNL     1      16.012   7.498  12.573  1.00  0.00     0.229 C 
HETATM    2  O1  UNL     1      15.129   7.837  13.436  1.00  0.00    -0.273 OA
HETATM    3  N3  UNL     1      16.231   8.400  11.479  1.00  0.00    -0.332 N 
ENDROOT
BRANCH   3   4
HETATM    4  C18 UNL     1      17.164   8.064  10.440  1.00  0.00     0.239 C 
BRANCH   4   5
HETATM    5  C19 UNL     1      16.507   8.075   9.071  1.00  0.00     0.191 C 
HETATM    6  O2  UNL     1      15.742   7.141   8.710  1.00  0.00    -0.647 OA
HETATM    7  O3  UNL     1      16.753   9.124   8.231  1.00  0.00    -0.647 OA
ENDBRANCH   4   5
ENDBRANCH   3   4
BRANCH   3   8
HETATM    8  C20 UNL     1      15.442   9.565  11.326  1.00  0.00     0.245 C 
BRANCH   8   9
HETATM    9  C21 UNL     1      15.970  10.702  12.312  1.00  0.00     0.305 C 
HETATM   10  O4  UNL     1      17.110  10.877  12.160  1.00  0.00    -0.256 OA
HETATM   11  N4  UNL     1      14.895  11.119  13.035  1.00  0.00    -0.397 NA
BRANCH  11  12
HETATM   12  C22 UNL     1      13.799  11.553  13.778  1.00  0.00     0.267 C 
BRANCH  12  13
HETATM   13  C23 UNL     1      13.536  10.490  14.854  1.00  0.00     0.052 C 
BRANCH  13  14
HETATM   14  C24 UNL     1      13.417  10.943  16.220  1.00  0.00     0.023 C 
BRANCH  14  15
HETATM   15  C25 UNL     1      12.455  12.105  16.480  1.00  0.00     0.122 C 
BRANCH  15  16
HETATM   16  N5  UNL     1      11.647  11.660  17.584  1.00  0.00    -0.367 N 
HETATM   17  C26 UNL     1      11.812  11.599  18.809  1.00  0.00     0.196 C 
HETATM   18  N6  UNL     1      12.943  11.989  19.503  1.00  0.00    -0.067 NA
HETATM   19  N7  UNL     1      10.721  11.087  19.611  1.00  0.00    -0.067 NA
ATOM     20  H5  UNL     1      10.732  11.317  17.290  1.00  0.00     0.161 HD
ENDBRANCH  15  16
ENDBRANCH  14  15
ENDBRANCH  13  14
ENDBRANCH  12  13
BRANCH  12  21
HETATM   21  C27 UNL     1      12.603  11.787  12.896  1.00  0.00     0.210 C 
HETATM   22  O5  UNL     1      12.694  12.432  11.858  1.00  0.00    -0.646 OA
HETATM   23  O6  UNL     1      11.377  11.267  13.246  1.00  0.00    -0.646 OA
ENDBRANCH  12  21
ENDBRANCH  11  12
ENDBRANCH   8   9
ENDBRANCH   3   8
BRANCH   1  24
HETATM   24  C16 UNL     1      16.698   6.249  12.802  1.00  0.00     0.113 C 
HETATM   25  C2  UNL     1      15.859   5.069  12.389  1.00  0.00    -0.039 C 
HETATM   26  C1  UNL     1      15.898   4.635  11.183  1.00  0.00     0.021 C 
HETATM   27  C3  UNL     1      15.045   4.378  13.476  1.00  0.00     0.092 C 
HETATM   28  N1  UNL     1      16.013   3.774  14.258  1.00  0.00    -0.389 N 
HETATM   29  C14 UNL     1      17.263   4.451  14.326  1.00  0.00     0.123 C 
HETATM   30  C15 UNL     1      17.014   5.946  14.301  1.00  0.00     0.039 C 
BRANCH  28  31
HETATM   31  C4  UNL     1      15.713   2.848  15.286  1.00  0.00     0.122 C 
BRANCH  31  32
HETATM   32  C5  UNL     1      16.065   3.495  16.650  1.00  0.00     0.020 C 
BRANCH  32  33
HETATM   33  C6  UNL     1      15.930   2.435  17.703  1.00  0.00     0.002 C 
BRANCH  33  34
HETATM   34  C7  UNL     1      15.379   2.976  19.024  1.00  0.00     0.002 C 
BRANCH  34  35
HETATM   35  C8  UNL     1      15.552   4.479  19.023  1.00  0.00     0.030 C 
BRANCH  35  36
HETATM   36  C9  UNL     1      14.747   5.304  19.920  1.00  0.00     0.272 C 
BRANCH  36  37
HETATM   37  N2  UNL     1      15.091   6.652  20.144  1.00  0.00     0.088 N 
HETATM   38  C10 UNL     1      14.944   7.348  18.811  1.00  0.00     0.272 C 
HETATM   39  C11 UNL     1      13.800   8.243  18.873  1.00  0.00     0.032 C 
HETATM   40  C12 UNL     1      13.601   8.509  20.338  1.00  0.00     0.032 C 
HETATM   41  C13 UNL     1      14.448   7.485  21.050  1.00  0.00     0.272 C 
ENDBRANCH  36  37
ENDBRANCH  35  36
ENDBRANCH  34  35
ENDBRANCH  33  34
ENDBRANCH  32  33
ENDBRANCH  31  32
ENDBRANCH  28  31
ENDBRANCH   1  24
TORSDOF 18
ENDMDL
MODEL 4
REMARK VINA RESULT: -8.201249625      3.819      8.719
REMARK  18 active torsions:
REMARK  status: ('A' for Active; 'I' for Inactive)
REMARK    1  A    between atoms: N1_4  and  C4_5 
REMARK    2  A    between atoms: C4_5  and  C5_6 
REMARK    3  A    between atoms: C5_6  and  C6_7 
REMARK    4  A    between atoms: C6_7  and  C7_8 
REMARK    5  A    between atoms: C7_8  and  C8_9 
REMARK    6  A    between atoms: C8_9  and  C9_10 
REMARK    7  A    between atoms: C9_10  and  N2_11 
REMARK    8  A    between atoms: C16_18  and  C17_19 
REMARK       I    between atoms: C17_19  and  N3_21 
REMARK    9  A    between atoms: N3_21  and  C18_22 
REMARK   10  A    between atoms: N3_21  and  C20_26 
REMARK   11  A    between atoms: C18_22  and  C19_23 
REMARK   12  A    between atoms: C20_26  and  C21_27 
REMARK       I    between atoms: C21_27  and  N4_29 
REMARK   13  A    between atoms: N4_29  and  C22_30 
REMARK   14  A    between atoms: C22_30  and  C23_31 
REMARK   15  A    between atoms: C22_30  and  C27_39 
REMARK   16  A    between atoms: C23_31  and  C24_32 
REMARK   17  A    between atoms: C24_32  and  C25_33 
REMARK   18  A    between atoms: C25_33  and  N5_34 
ROOT
HETATM    1  C17 UNL     1      15.956   7.469  13.120  1.00  0.00     0.229 C 
HETATM    2  O1  UNL     1      14.913   8.036  13.603  1.00  0.00    -0.273 OA
HETATM    3  N3  UNL     1      16.554   8.082  11.969  1.00  0.00    -0.332 N 
ENDROOT
BRANCH   3   4
HETATM    4  C18 UNL     1      17.691   7.475  11.336  1.00  0.00     0.239 C 
BRANCH   4   5
HETATM    5  C19 UNL     1      17.815   7.898   9.883  1.00  0.00     0.191 C 
HETATM    6  O2  UNL     1      17.113   7.359   8.987  1.00  0.00    -0.647 OA
HETATM    7  O3  UNL     1      18.702   8.886   9.558  1.00  0.00    -0.647 OA
ENDBRANCH   4   5
ENDBRANCH   3   4
BRANCH   3   8
HETATM    8  C20 UNL     1      15.962   9.211  11.354  1.00  0.00     0.245 C 
BRANCH   8   9
HETATM    9  C21 UNL     1      16.405  10.534  12.127  1.00  0.00     0.305 C 
HETATM   10  O4  UNL     1      17.563  10.636  12.132  1.00  0.00    -0.256 OA
HETATM   11  N4  UNL     1      15.260  11.141  12.545  1.00  0.00    -0.397 NA
BRANCH  11  12
HETATM   12  C22 UNL     1      14.093  11.769  12.976  1.00  0.00     0.267 C 
BRANCH  12  13
HETATM   13  C23 UNL     1      13.628  11.037  14.242  1.00  0.00     0.052 C 
BRANCH  13  14
HETATM   14  C24 UNL     1      12.560  11.640  15.004  1.00  0.00     0.023 C 
BRANCH  14  15
HETATM   15  C25 UNL     1      12.971  12.571  16.149  1.00  0.00     0.122 C 
BRANCH  15  16
HETATM   16  N5  UNL     1      12.034  12.278  17.200  1.00  0.00    -0.367 N 
HETATM   17  C26 UNL     1      11.902  11.350  18.010  1.00  0.00     0.196 C 
HETATM   18  N6  UNL     1      12.716  10.237  18.119  1.00  0.00    -0.067 NA
HETATM   19  N7  UNL     1      10.806  11.429  18.951  1.00  0.00    -0.067 NA
ATOM     20  H5  UNL     1      11.317  12.996  17.302  1.00  0.00     0.161 HD
ENDBRANCH  15  16
ENDBRANCH  14  15
ENDBRANCH  13  14
ENDBRANCH  12  13
BRANCH  12  21
HETATM   21  C27 UNL     1      13.047  11.769  11.895  1.00  0.00     0.210 C 
HETATM   22  O5  UNL     1      13.105  10.989  10.952  1.00  0.00    -0.646 OA
HETATM   23  O6  UNL     1      11.994  12.655  11.956  1.00  0.00    -0.646 OA
ENDBRANCH  12  21
ENDBRANCH  11  12
ENDBRANCH   8   9
ENDBRANCH   3   8
BRANCH   1  24
HETATM   24  C16 UNL     1      16.419   6.280  13.794  1.00  0.00     0.113 C 
HETATM   25  C2  UNL     1      15.301   5.580  14.520  1.00  0.00    -0.039 C 
HETATM   26  C1  UNL     1      14.579   4.710  13.917  1.00  0.00     0.021 C 
HETATM   27  C3  UNL     1      15.133   5.890  16.003  1.00  0.00     0.092 C 
HETATM   28  N1  UNL     1      16.248   5.306  16.576  1.00  0.00    -0.389 N 
HETATM   29  C14 UNL     1      17.416   5.276  15.763  1.00  0.00     0.123 C 
HETATM   30  C15 UNL     1      17.463   6.540  14.927  1.00  0.00     0.039 C 
BRANCH  28  31
HETATM   31  C4  UNL     1      16.420   5.168  17.974  1.00  0.00     0.122 C 
BRANCH  31  32
HETATM   32  C5  UNL     1      15.773   6.391  18.673  1.00  0.00     0.020 C 
BRANCH  32  33
HETATM   33  C6  UNL     1      15.285   5.938  20.018  1.00  0.00     0.002 C 
BRANCH  33  34
HETATM   34  C7  UNL     1      14.049   5.042  19.930  1.00  0.00     0.002 C 
BRANCH  34  35
HETATM   35  C8  UNL     1      13.936   4.268  21.226  1.00  0.00     0.030 C 
BRANCH  35  36
HETATM   36  C9  UNL     1      13.505   2.873  21.205  1.00  0.00     0.272 C 
BRANCH  36  37
HETATM   37  N2  UNL     1      14.452   1.840  21.053  1.00  0.00     0.088 N 
HETATM   38  C10 UNL     1      14.279   1.318  19.645  1.00  0.00     0.272 C 
HETATM   39  C11 UNL     1      15.440   1.698  18.858  1.00  0.00     0.032 C 
HETATM   40  C12 UNL     1      16.524   1.944  19.869  1.00  0.00     0.032 C 
HETATM   41  C13 UNL     1      15.823   2.005  21.201  1.00  0.00     0.272 C 
ENDBRANCH  36  37
ENDBRANCH  35  36
ENDBRANCH  34  35
ENDBRANCH  33  34
ENDBRANCH  32  33
ENDBRANCH  31  32
ENDBRANCH  28  31
ENDBRANCH   1  24
TORSDOF 18
ENDMDL
MODEL 5
REMARK VINA RESULT: -8.153772120      5.057      9.446
REMARK  18 active torsions:
REMARK  status: ('A' for Active; 'I' for Inactive)
REMARK    1  A    between atoms: N1_4  and  C4_5 
REMARK    2  A    between atoms: C4_5  and  C5_6 
REMARK    3  A    between atoms: C5_6  and  C6_7 
REMARK    4  A    between atoms: C6_7  and  C7_8 
REMARK    5  A    between atoms: C7_8  and  C8_9 
REMARK    6  A    between atoms: C8_9  and  C9_10 
REMARK    7  A    between atoms: C9_10  and  N2_11 
REMARK    8  A    between atoms: C16_18  and  C17_19 
REMARK       I    between atoms: C17_19  and  N3_21 
REMARK    9  A    between atoms: N3_21  and  C18_22 
REMARK   10  A    between atoms: N3_21  and  C20_26 
REMARK   11  A    between atoms: C18_22  and  C19_23 
REMARK   12  A    between atoms: C20_26  and  C21_27 
REMARK       I    between atoms: C21_27  and  N4_29 
REMARK   13  A    between atoms: N4_29  and  C22_30 
REMARK   14  A    between atoms: C22_30  and  C23_31 
REMARK   15  A    between atoms: C22_30  and  C27_39 
REMARK   16  A    between atoms: C23_31  and  C24_32 
REMARK   17  A    between atoms: C24_32  and  C25_33 
REMARK   18  A    between atoms: C25_33  and  N5_34 
ROOT
HETATM    1  C17 UNL     1      16.488   8.292  12.411  1.00  0.00     0.229 C 
HETATM    2  O1  UNL     1      17.667   8.123  12.882  1.00  0.00    -0.273 OA
HETATM    3  N3  UNL     1      16.367   9.124  11.249  1.00  0.00    -0.332 N 
ENDROOT
BRANCH   3   4
HETATM    4  C18 UNL     1      15.073   9.409  10.694  1.00  0.00     0.239 C 
BRANCH   4   5
HETATM    5  C19 UNL     1      14.549  10.756  11.156  1.00  0.00     0.191 C 
HETATM    6  O2  UNL     1      13.666  11.370  10.499  1.00  0.00    -0.647 OA
HETATM    7  O3  UNL     1      15.047  11.296  12.308  1.00  0.00    -0.647 OA
ENDBRANCH   4   5
ENDBRANCH   3   4
BRANCH   3   8
HETATM    8  C20 UNL     1      17.494   9.788  10.707  1.00  0.00     0.245 C 
BRANCH   8   9
HETATM    9  C21 UNL     1      17.614   9.455   9.152  1.00  0.00     0.305 C 
HETATM   10  O4  UNL     1      17.546  10.428   8.519  1.00  0.00    -0.256 OA
HETATM   11  N4  UNL     1      17.766   8.105   9.055  1.00  0.00    -0.397 NA
BRANCH  11  12
HETATM   12  C22 UNL     1      17.922   6.725   8.947  1.00  0.00     0.267 C 
BRANCH  12  13
HETATM   13  C23 UNL     1      16.559   6.148   8.543  1.00  0.00     0.052 C 
BRANCH  13  14
HETATM   14  C24 UNL     1      16.519   5.283   7.388  1.00  0.00     0.023 C 
BRANCH  14  15
HETATM   15  C25 UNL     1      17.550   4.151   7.338  1.00  0.00     0.122 C 
BRANCH  15  16
HETATM   16  N5  UNL     1      17.038   3.246   6.344  1.00  0.00    -0.367 N 
HETATM   17  C26 UNL     1      17.328   2.999   5.166  1.00  0.00     0.196 C 
HETATM   18  N6  UNL     1      18.330   3.599   4.427  1.00  0.00    -0.067 NA
HETATM   19  N7  UNL     1      16.564   1.974   4.486  1.00  0.00    -0.067 NA
ATOM     20  H5  UNL     1      16.262   2.679   6.688  1.00  0.00     0.161 HD
ENDBRANCH  15  16
ENDBRANCH  14  15
ENDBRANCH  13  14
ENDBRANCH  12  13
BRANCH  12  21
HETATM   21  C27 UNL     1      18.440   6.136  10.231  1.00  0.00     0.210 C 
HETATM   22  O5  UNL     1      17.898   5.168  10.751  1.00  0.00    -0.646 OA
HETATM   23  O6  UNL     1      19.547   6.681  10.842  1.00  0.00    -0.646 OA
ENDBRANCH  12  21
ENDBRANCH  11  12
ENDBRANCH   8   9
ENDBRANCH   3   8
BRANCH   1  24
HETATM   24  C16 UNL     1      15.412   7.619  13.097  1.00  0.00     0.113 C 
HETATM   25  C2  UNL     1      15.194   8.179  14.478  1.00  0.00    -0.039 C 
HETATM   26  C1  UNL     1      14.412   9.179  14.658  1.00  0.00     0.021 C 
HETATM   27  C3  UNL     1      15.870   7.456  15.637  1.00  0.00     0.092 C 
HETATM   28  N1  UNL     1      15.180   6.260  15.708  1.00  0.00    -0.389 N 
HETATM   29  C14 UNL     1      14.678   5.762  14.473  1.00  0.00     0.123 C 
HETATM   30  C15 UNL     1      15.662   6.102  13.371  1.00  0.00     0.039 C 
BRANCH  28  31
HETATM   31  C4  UNL     1      15.332   5.339  16.771  1.00  0.00     0.122 C 
BRANCH  31  32
HETATM   32  C5  UNL     1      15.652   6.129  18.066  1.00  0.00     0.020 C 
BRANCH  32  33
HETATM   33  C6  UNL     1      14.345   6.506  18.702  1.00  0.00     0.002 C 
BRANCH  33  34
HETATM   34  C7  UNL     1      14.437   7.788  19.531  1.00  0.00     0.002 C 
BRANCH  34  35
HETATM   35  C8  UNL     1      13.782   8.903  18.745  1.00  0.00     0.030 C 
BRANCH  35  36
HETATM   36  C9  UNL     1      14.011  10.294  19.126  1.00  0.00     0.272 C 
BRANCH  36  37
HETATM   37  N2  UNL     1      13.006  11.261  18.923  1.00  0.00     0.088 N 
HETATM   38  C10 UNL     1      13.683  12.434  18.253  1.00  0.00     0.272 C 
HETATM   39  C11 UNL     1      13.220  12.520  16.878  1.00  0.00     0.032 C 
HETATM   40  C12 UNL     1      11.906  11.791  16.870  1.00  0.00     0.032 C 
HETATM   41  C13 UNL     1      11.853  11.048  18.180  1.00  0.00     0.272 C 
ENDBRANCH  36  37
ENDBRANCH  35  36
ENDBRANCH  34  35
ENDBRANCH  33  34
ENDBRANCH  32  33
ENDBRANCH  31  32
ENDBRANCH  28  31
ENDBRANCH   1  24
TORSDOF 18
ENDMDL
