MODEL 1
REMARK VINA RESULT: -8.541930385      0.000      0.000
REMARK  21 active torsions:
REMARK  status: ('A' for Active; 'I' for Inactive)
REMARK    1  A    between atoms: C2_2  and  C3_3 
REMARK    2  A    between atoms: C3_3  and  C5_5 
REMARK    3  A    between atoms: C3_3  and  C15_16 
REMARK    4  A    between atoms: C5_5  and  C6_6 
REMARK    5  A    between atoms: C6_6  and  C7_7 
REMARK    6  A    between atoms: C7_7  and  C8_8 
REMARK    7  A    between atoms: C8_8  and  C9_9 
REMARK    8  A    between atoms: C9_9  and  C10_10 
REMARK    9  A    between atoms: C10_10  and  C11_11 
REMARK   10  A    between atoms: C11_11  and  C12_12 
REMARK   11  A    between atoms: C12_12  and  N1_13 
REMARK   12  A    between atoms: C15_16  and  C16_18 
REMARK   13  A    between atoms: C16_18  and  C17_19 
REMARK   14  A    between atoms: N2_20  and  C18_22 
REMARK   15  A    between atoms: C19_25  and  N4_26 
REMARK   16  A    between atoms: N4_26  and  C20_28 
REMARK   17  A    between atoms: C20_28  and  C21_29 
REMARK   18  A    between atoms: C21_29  and  C22_30 
REMARK   19  A    between atoms: C22_30  and  C23_31 
REMARK   20  A    between atoms: C23_31  and  N5_32 
REMARK   21  A    between atoms: C23_31  and  C24_36 
ROOT
HETATM    1  C18 UNL     1      14.438   5.965  19.474  1.00  0.00     0.131 C 
HETATM    2  N3  UNL     1      14.672   6.254  18.149  1.00  0.00    -0.176 N 
ATOM      3  H3  UNL     1      14.320   7.153  17.823  1.00  0.00     0.186 HD
HETATM    4  C19 UNL     1      15.306   5.502  17.223  1.00  0.00     0.682 C 
HETATM    5  N7  UNL     1      16.236   4.530  17.454  1.00  0.00    -0.155 N 
ATOM      6  H7  UNL     1      17.024   4.476  16.809  1.00  0.00     0.187 HD
HETATM    7  C25 UNL     1      16.201   3.628  18.472  1.00  0.00     0.270 C 
HETATM    8  O3  UNL     1      17.010   2.694  18.405  1.00  0.00    -0.267 OA
HETATM    9  C26 UNL     1      15.345   3.654  19.576  1.00  0.00     0.043 A 
HETATM   10  C27 UNL     1      14.560   4.687  20.025  1.00  0.00     0.021 A 
HETATM   11  C28 UNL     1      13.886   4.339  21.090  1.00  0.00    -0.007 A 
HETATM   12  C29 UNL     1      14.226   2.928  21.435  1.00  0.00     0.056 A 
HETATM   13  C30 UNL     1      15.186   2.589  20.367  1.00  0.00    -0.005 A 
ENDROOT
BRANCH   1  14
HETATM   14  N2  UNL     1      14.103   6.929  20.137  1.00  0.00    -0.354 N 
HETATM   15  C17 UNL     1      13.855   8.232  20.388  1.00  0.00     0.070 C 
ATOM     16  H2  UNL     1      13.874   6.497  21.032  1.00  0.00     0.166 HD
BRANCH  15  17
HETATM   17  C16 UNL     1      12.733   8.933  19.643  1.00  0.00     0.123 C 
BRANCH  17  18
HETATM   18  C15 UNL     1      13.214   9.571  18.391  1.00  0.00     0.139 C 
HETATM   19  O1  UNL     1      13.758   8.907  17.534  1.00  0.00    -0.297 OA
BRANCH  18  20
HETATM   20  C3  UNL     1      13.035  11.020  18.170  1.00  0.00     0.017 C 
HETATM   21  C4  UNL     1      11.544  11.337  18.236  1.00  0.00     0.023 C 
BRANCH  20  22
HETATM   22  C2  UNL     1      13.707  11.787  19.267  1.00  0.00     0.012 C 
HETATM   23  C1  UNL     1      14.572  12.908  18.758  1.00  0.00     0.006 C 
ENDBRANCH  20  22
BRANCH  20  24
HETATM   24  C5  UNL     1      13.523  11.448  16.800  1.00  0.00     0.017 C 
BRANCH  24  25
HETATM   25  C6  UNL     1      12.325  11.767  15.933  1.00  0.00     0.001 C 
BRANCH  25  26
HETATM   26  C7  UNL     1      12.646  11.490  14.458  1.00  0.00     0.000 C 
BRANCH  26  27
HETATM   27  C8  UNL     1      13.841  10.567  14.410  1.00  0.00     0.000 C 
BRANCH  27  28
HETATM   28  C9  UNL     1      14.592  10.685  13.122  1.00  0.00     0.000 C 
BRANCH  28  29
HETATM   29  C10 UNL     1      15.639   9.629  13.010  1.00  0.00     0.002 C 
BRANCH  29  30
HETATM   30  C11 UNL     1      15.798   9.015  11.662  1.00  0.00     0.019 C 
BRANCH  30  31
HETATM   31  C12 UNL     1      15.724  10.006  10.529  1.00  0.00     0.116 C 
BRANCH  31  32
HETATM   32  N1  UNL     1      16.195   9.503   9.288  1.00  0.00    -0.421 N 
HETATM   33  C13 UNL     1      16.164   8.093   9.120  1.00  0.00     0.142 C 
HETATM   34  C14 UNL     1      17.314  10.179   8.715  1.00  0.00     0.142 C 
ENDBRANCH  31  32
ENDBRANCH  30  31
ENDBRANCH  29  30
ENDBRANCH  28  29
ENDBRANCH  27  28
ENDBRANCH  26  27
ENDBRANCH  25  26
ENDBRANCH  24  25
ENDBRANCH  20  24
ENDBRANCH  18  20
ENDBRANCH  17  18
ENDBRANCH  15  17
ENDBRANCH   1  14
BRANCH   4  35
HETATM   35  N4  UNL     1      14.975   5.774  16.030  1.00  0.00    -0.226 N 
ATOM     36  H4  UNL     1      13.979   5.743  15.814  1.00  0.00     0.177 HD
BRANCH  35  37
HETATM   37  C20 UNL     1      15.843   6.115  14.967  1.00  0.00     0.138 C 
BRANCH  37  38
HETATM   38  C21 UNL     1      15.119   5.794  13.669  1.00  0.00     0.023 C 
BRANCH  38  39
HETATM   39  C22 UNL     1      14.645   4.382  13.669  1.00  0.00     0.043 C 
BRANCH  39  40
HETATM   40  C23 UNL     1      15.714   3.453  13.159  1.00  0.00     0.271 C 
BRANCH  40  41
HETATM   41  N5  UNL     1      15.228   2.813  11.941  1.00  0.00    -0.067 N 
ATOM     42  H53 UNL     1      14.882   3.486  11.258  1.00  0.00     0.275 HD
ATOM     43  H52 UNL     1      15.982   2.418  11.380  1.00  0.00     0.275 HD
ATOM     44  H51 UNL     1      14.526   2.120  12.198  1.00  0.00     0.275 HD
ENDBRANCH  40  41
BRANCH  40  45
HETATM   45  C24 UNL     1      15.913   2.410  14.223  1.00  0.00     0.261 C 
HETATM   46  N6  UNL     1      16.778   1.314  14.029  1.00  0.00    -0.060 NA
HETATM   47  O2  UNL     1      15.289   2.536  15.297  1.00  0.00    -0.275 OA
ENDBRANCH  40  45
ENDBRANCH  39  40
ENDBRANCH  38  39
ENDBRANCH  37  38
ENDBRANCH  35  37
ENDBRANCH   4  35
TORSDOF 21
ENDMDL
MODEL 2
REMARK VINA RESULT: -8.433629390      2.863      8.259
REMARK  21 active torsions:
REMARK  status: ('A' for Active; 'I' for Inactive)
REMARK    1  A    between atoms: C2_2  and  C3_3 
REMARK    2  A    between atoms: C3_3  and  C5_5 
REMARK    3  A    between atoms: C3_3  and  C15_16 
REMARK    4  A    between atoms: C5_5  and  C6_6 
REMARK    5  A    between atoms: C6_6  and  C7_7 
REMARK    6  A    between atoms: C7_7  and  C8_8 
REMARK    7  A    between atoms: C8_8  and  C9_9 
REMARK    8  A    between atoms: C9_9  and  C10_10 
REMARK    9  A    between atoms: C10_10  and  C11_11 
REMARK   10  A    between atoms: C11_11  and  C12_12 
REMARK   11  A    between atoms: C12_12  and  N1_13 
REMARK   12  A    between atoms: C15_16  and  C16_18 
REMARK   13  A    between atoms: C16_18  and  C17_19 
REMARK   14  A    between atoms: N2_20  and  C18_22 
REMARK   15  A    between atoms: C19_25  and  N4_26 
REMARK   16  A    between atoms: N4_26  and  C20_28 
REMARK   17  A    between atoms: C20_28  and  C21_29 
REMARK   18  A    between atoms: C21_29  and  C22_30 
REMARK   19  A    between atoms: C22_30  and  C23_31 
REMARK   20  A    between atoms: C23_31  and  N5_32 
REMARK   21  A    between atoms: C23_31  and  C24_36 
ROOT
HETATM    1  C18 UNL     1      15.095   6.061  15.581  1.00  0.00     0.131 C 
HETATM    2  N3  UNL     1      14.650   7.363  15.631  1.00  0.00    -0.176 N 
ATOM      3  H3  UNL     1      14.330   7.686  16.544  1.00  0.00     0.186 HD
HETATM    4  C19 UNL     1      14.581   8.269  14.632  1.00  0.00     0.682 C 
HETATM    5  N7  UNL     1      15.325   8.284  13.488  1.00  0.00    -0.155 N 
ATOM      6  H7  UNL     1      15.644   9.192  13.151  1.00  0.00     0.187 HD
HETATM    7  C25 UNL     1      15.679   7.191  12.759  1.00  0.00     0.270 C 
HETATM    8  O3  UNL     1      16.174   7.410  11.647  1.00  0.00    -0.267 OA
HETATM    9  C26 UNL     1      15.538   5.855  13.144  1.00  0.00     0.043 A 
HETATM   10  C27 UNL     1      15.278   5.347  14.393  1.00  0.00     0.021 A 
HETATM   11  C28 UNL     1      15.208   4.042  14.368  1.00  0.00    -0.007 A 
HETATM   12  C29 UNL     1      15.446   3.575  12.971  1.00  0.00     0.056 A 
HETATM   13  C30 UNL     1      15.644   4.855  12.264  1.00  0.00    -0.005 A 
ENDROOT
BRANCH   1  14
HETATM   14  N2  UNL     1      15.312   5.571  16.672  1.00  0.00    -0.354 N 
HETATM   15  C17 UNL     1      15.632   5.565  17.985  1.00  0.00     0.070 C 
ATOM     16  H2  UNL     1      15.168   4.579  16.488  1.00  0.00     0.166 HD
BRANCH  15  17
HETATM   17  C16 UNL     1      14.701   6.234  18.980  1.00  0.00     0.123 C 
BRANCH  17  18
HETATM   18  C15 UNL     1      15.220   6.146  20.369  1.00  0.00     0.139 C 
HETATM   19  O1  UNL     1      16.030   6.954  20.773  1.00  0.00    -0.297 OA
BRANCH  18  20
HETATM   20  C3  UNL     1      14.757   5.077  21.277  1.00  0.00     0.017 C 
HETATM   21  C4  UNL     1      15.813   3.976  21.302  1.00  0.00     0.023 C 
BRANCH  20  22
HETATM   22  C2  UNL     1      14.632   5.614  22.670  1.00  0.00     0.012 C 
HETATM   23  C1  UNL     1      13.514   6.609  22.820  1.00  0.00     0.006 C 
ENDBRANCH  20  22
BRANCH  20  24
HETATM   24  C5  UNL     1      13.465   4.448  20.796  1.00  0.00     0.017 C 
BRANCH  24  25
HETATM   25  C6  UNL     1      13.459   2.986  21.187  1.00  0.00     0.001 C 
BRANCH  25  26
HETATM   26  C7  UNL     1      13.016   2.119  20.000  1.00  0.00     0.000 C 
BRANCH  26  27
HETATM   27  C8  UNL     1      13.991   0.971  19.876  1.00  0.00     0.000 C 
BRANCH  27  28
HETATM   28  C9  UNL     1      14.397   0.730  18.457  1.00  0.00     0.000 C 
BRANCH  28  29
HETATM   29  C10 UNL     1      14.938   1.971  17.833  1.00  0.00     0.002 C 
BRANCH  29  30
HETATM   30  C11 UNL     1      16.360   1.908  17.394  1.00  0.00     0.019 C 
BRANCH  30  31
HETATM   31  C12 UNL     1      17.346   2.289  18.468  1.00  0.00     0.116 C 
BRANCH  31  32
HETATM   32  N1  UNL     1      18.176   1.220  18.898  1.00  0.00    -0.421 N 
HETATM   33  C13 UNL     1      17.804   0.572  20.105  1.00  0.00     0.142 C 
HETATM   34  C14 UNL     1      19.577   1.378  18.676  1.00  0.00     0.142 C 
ENDBRANCH  31  32
ENDBRANCH  30  31
ENDBRANCH  29  30
ENDBRANCH  28  29
ENDBRANCH  27  28
ENDBRANCH  26  27
ENDBRANCH  25  26
ENDBRANCH  24  25
ENDBRANCH  20  24
ENDBRANCH  18  20
ENDBRANCH  17  18
ENDBRANCH  15  17
ENDBRANCH   1  14
BRANCH   4  35
HETATM   35  N4  UNL     1      13.728   9.184  14.830  1.00  0.00    -0.226 N 
ATOM     36  H4  UNL     1      12.953   9.238  14.169  1.00  0.00     0.177 HD
BRANCH  35  37
HETATM   37  C20 UNL     1      13.739  10.141  15.872  1.00  0.00     0.138 C 
BRANCH  37  38
HETATM   38  C21 UNL     1      13.330  11.475  15.267  1.00  0.00     0.023 C 
BRANCH  38  39
HETATM   39  C22 UNL     1      12.538  11.266  14.024  1.00  0.00     0.043 C 
BRANCH  39  40
HETATM   40  C23 UNL     1      13.017  12.170  12.919  1.00  0.00     0.271 C 
BRANCH  40  41
HETATM   41  N5  UNL     1      11.855  12.657  12.184  1.00  0.00    -0.067 N 
ATOM     42  H53 UNL     1      11.345  11.908  11.718  1.00  0.00     0.275 HD
ATOM     43  H52 UNL     1      11.107  12.974  12.800  1.00  0.00     0.275 HD
ATOM     44  H51 UNL     1      12.162  13.382  11.536  1.00  0.00     0.275 HD
ENDBRANCH  40  41
BRANCH  40  45
HETATM   45  C24 UNL     1      13.861  11.321  12.011  1.00  0.00     0.261 C 
HETATM   46  N6  UNL     1      15.187  10.977  12.344  1.00  0.00    -0.060 NA
HETATM   47  O2  UNL     1      13.357  10.920  10.941  1.00  0.00    -0.275 OA
ENDBRANCH  40  45
ENDBRANCH  39  40
ENDBRANCH  38  39
ENDBRANCH  37  38
ENDBRANCH  35  37
ENDBRANCH   4  35
TORSDOF 21
ENDMDL
MODEL 3
REMARK VINA RESULT: -8.270621406      2.893      6.300
REMARK  21 active torsions:
REMARK  status: ('A' for Active; 'I' for Inactive)
REMARK    1  A    between atoms: C2_2  and  C3_3 
REMARK    2  A    between atoms: C3_3  and  C5_5 
REMARK    3  A    between atoms: C3_3  and  C15_16 
REMARK    4  A    between atoms: C5_5  and  C6_6 
REMARK    5  A    between atoms: C6_6  and  C7_7 
REMARK    6  A    between atoms: C7_7  and  C8_8 
REMARK    7  A    between atoms: C8_8  and  C9_9 
REMARK    8  A    between atoms: C9_9  and  C10_10 
REMARK    9  A    between atoms: C10_10  and  C11_11 
REMARK   10  A    between atoms: C11_11  and  C12_12 
REMARK   11  A    between atoms: C12_12  and  N1_13 
REMARK   12  A    between atoms: C15_16  and  C16_18 
REMARK   13  A    between atoms: C16_18  and  C17_19 
REMARK   14  A    between atoms: N2_20  and  C18_22 
REMARK   15  A    between atoms: C19_25  and  N4_26 
REMARK   16  A    between atoms: N4_26  and  C20_28 
REMARK   17  A    between atoms: C20_28  and  C21_29 
REMARK   18  A    between atoms: C21_29  and  C22_30 
REMARK   19  A    between atoms: C22_30  and  C23_31 
REMARK   20  A    between atoms: C23_31  and  N5_32 
REMARK   21  A    between atoms: C23_31  and  C24_36 
ROOT
HETATM    1  C18 UNL     1      15.749   5.913  18.621  1.00  0.00     0.131 C 
HETATM    2  N3  UNL     1      15.930   4.606  19.012  1.00  0.00    -0.176 N 
ATOM      3  H3  UNL     1      16.367   3.994  18.323  1.00  0.00     0.186 HD
HETATM    4  C19 UNL     1      15.607   4.025  20.188  1.00  0.00     0.682 C 
HETATM    5  N7  UNL     1      15.457   4.648  21.394  1.00  0.00    -0.155 N 
ATOM      6  H7  UNL     1      15.809   4.160  22.217  1.00  0.00     0.187 HD
HETATM    7  C25 UNL     1      14.878   5.863  21.590  1.00  0.00     0.270 C 
HETATM    8  O3  UNL     1      14.642   6.174  22.764  1.00  0.00    -0.267 OA
HETATM    9  C26 UNL     1      14.527   6.786  20.601  1.00  0.00     0.043 A 
HETATM   10  C27 UNL     1      14.909   6.813  19.283  1.00  0.00     0.021 A 
HETATM   11  C28 UNL     1      14.374   7.828  18.657  1.00  0.00    -0.007 A 
HETATM   12  C29 UNL     1      13.537   8.601  19.621  1.00  0.00     0.056 A 
HETATM   13  C30 UNL     1      13.714   7.815  20.857  1.00  0.00    -0.005 A 
ENDROOT
BRANCH   1  14
HETATM   14  N2  UNL     1      16.383   6.225  17.632  1.00  0.00    -0.354 N 
HETATM   15  C17 UNL     1      17.355   6.117  16.700  1.00  0.00     0.070 C 
ATOM     16  H2  UNL     1      15.890   7.062  17.323  1.00  0.00     0.166 HD
BRANCH  15  17
HETATM   17  C16 UNL     1      17.358   4.923  15.763  1.00  0.00     0.123 C 
BRANCH  17  18
HETATM   18  C15 UNL     1      15.981   4.481  15.424  1.00  0.00     0.139 C 
HETATM   19  O1  UNL     1      15.440   3.610  16.073  1.00  0.00    -0.297 OA
BRANCH  18  20
HETATM   20  C3  UNL     1      15.251   5.097  14.298  1.00  0.00     0.017 C 
HETATM   21  C4  UNL     1      16.263   5.786  13.388  1.00  0.00     0.023 C 
BRANCH  20  22
HETATM   22  C2  UNL     1      14.570   4.034  13.493  1.00  0.00     0.012 C 
HETATM   23  C1  UNL     1      15.490   3.353  12.517  1.00  0.00     0.006 C 
ENDBRANCH  20  22
BRANCH  20  24
HETATM   24  C5  UNL     1      14.278   6.159  14.770  1.00  0.00     0.017 C 
BRANCH  24  25
HETATM   25  C6  UNL     1      14.849   7.522  14.446  1.00  0.00     0.001 C 
BRANCH  25  26
HETATM   26  C7  UNL     1      14.151   8.604  15.283  1.00  0.00     0.000 C 
BRANCH  26  27
HETATM   27  C8  UNL     1      14.180   9.891  14.491  1.00  0.00     0.000 C 
BRANCH  27  28
HETATM   28  C9  UNL     1      13.448  10.995  15.187  1.00  0.00     0.000 C 
BRANCH  28  29
HETATM   29  C10 UNL     1      13.072  10.601  16.575  1.00  0.00     0.002 C 
BRANCH  29  30
HETATM   30  C11 UNL     1      12.879  11.722  17.537  1.00  0.00     0.019 C 
BRANCH  30  31
HETATM   31  C12 UNL     1      13.936  12.793  17.443  1.00  0.00     0.116 C 
BRANCH  31  32
HETATM   32  N1  UNL     1      14.713  12.944  18.621  1.00  0.00    -0.421 N 
HETATM   33  C13 UNL     1      14.000  13.141  19.834  1.00  0.00     0.142 C 
HETATM   34  C14 UNL     1      15.933  13.672  18.486  1.00  0.00     0.142 C 
ENDBRANCH  31  32
ENDBRANCH  30  31
ENDBRANCH  29  30
ENDBRANCH  28  29
ENDBRANCH  27  28
ENDBRANCH  26  27
ENDBRANCH  25  26
ENDBRANCH  24  25
ENDBRANCH  20  24
ENDBRANCH  18  20
ENDBRANCH  17  18
ENDBRANCH  15  17
ENDBRANCH   1  14
BRANCH   4  35
HETATM   35  N4  UNL     1      15.447   2.771  20.112  1.00  0.00    -0.226 N 
ATOM     36  H4  UNL     1      14.741   2.439  19.456  1.00  0.00     0.177 HD
BRANCH  35  37
HETATM   37  C20 UNL     1      16.145   1.782  20.844  1.00  0.00     0.138 C 
BRANCH  37  38
HETATM   38  C21 UNL     1      17.160   1.154  19.903  1.00  0.00     0.023 C 
BRANCH  38  39
HETATM   39  C22 UNL     1      16.556   0.007  19.169  1.00  0.00     0.043 C 
BRANCH  39  40
HETATM   40  C23 UNL     1      16.565   0.251  17.683  1.00  0.00     0.271 C 
BRANCH  40  41
HETATM   41  N5  UNL     1      17.198   1.540  17.430  1.00  0.00    -0.067 N 
ATOM     42  H53 UNL     1      17.694   1.900  18.245  1.00  0.00     0.275 HD
ATOM     43  H52 UNL     1      17.997   1.467  16.801  1.00  0.00     0.275 HD
ATOM     44  H51 UNL     1      16.488   2.187  17.087  1.00  0.00     0.275 HD
ENDBRANCH  40  41
BRANCH  40  45
HETATM   45  C24 UNL     1      15.126   0.310  17.254  1.00  0.00     0.261 C 
HETATM   46  N6  UNL     1      14.108   0.714  18.141  1.00  0.00    -0.060 NA
HETATM   47  O2  UNL     1      14.846  -0.010  16.080  1.00  0.00    -0.275 OA
ENDBRANCH  40  45
ENDBRANCH  39  40
ENDBRANCH  38  39
ENDBRANCH  37  38
ENDBRANCH  35  37
ENDBRANCH   4  35
TORSDOF 21
ENDMDL
MODEL 4
REMARK VINA RESULT: -8.235970844      3.275      8.006
REMARK  21 active torsions:
REMARK  status: ('A' for Active; 'I' for Inactive)
REMARK    1  A    between atoms: C2_2  and  C3_3 
REMARK    2  A    between atoms: C3_3  and  C5_5 
REMARK    3  A    between atoms: C3_3  and  C15_16 
REMARK    4  A    between atoms: C5_5  and  C6_6 
REMARK    5  A    between atoms: C6_6  and  C7_7 
REMARK    6  A    between atoms: C7_7  and  C8_8 
REMARK    7  A    between atoms: C8_8  and  C9_9 
REMARK    8  A    between atoms: C9_9  and  C10_10 
REMARK    9  A    between atoms: C10_10  and  C11_11 
REMARK   10  A    between atoms: C11_11  and  C12_12 
REMARK   11  A    between atoms: C12_12  and  N1_13 
REMARK   12  A    between atoms: C15_16  and  C16_18 
REMARK   13  A    between atoms: C16_18  and  C17_19 
REMARK   14  A    between atoms: N2_20  and  C18_22 
REMARK   15  A    between atoms: C19_25  and  N4_26 
REMARK   16  A    between atoms: N4_26  and  C20_28 
REMARK   17  A    between atoms: C20_28  and  C21_29 
REMARK   18  A    between atoms: C21_29  and  C22_30 
REMARK   19  A    between atoms: C22_30  and  C23_31 
REMARK   20  A    between atoms: C23_31  and  N5_32 
REMARK   21  A    between atoms: C23_31  and  C24_36 
ROOT
HETATM    1  C18 UNL     1      15.206  10.761  12.503  1.00  0.00     0.131 C 
HETATM    2  N3  UNL     1      15.709  11.059  11.256  1.00  0.00    -0.176 N 
ATOM      3  H3  UNL     1      15.231  11.806  10.754  1.00  0.00     0.186 HD
HETATM    4  C19 UNL     1      16.751  10.492  10.610  1.00  0.00     0.682 C 
HETATM    5  N7  UNL     1      17.808   9.840  11.177  1.00  0.00    -0.155 N 
ATOM      6  H7  UNL     1      18.727   9.994  10.763  1.00  0.00     0.187 HD
HETATM    7  C25 UNL     1      17.740   9.001  12.246  1.00  0.00     0.270 C 
HETATM    8  O3  UNL     1      18.757   8.341  12.491  1.00  0.00    -0.267 OA
HETATM    9  C26 UNL     1      16.639   8.816  13.087  1.00  0.00     0.043 A 
HETATM   10  C27 UNL     1      15.513   9.592  13.205  1.00  0.00     0.021 A 
HETATM   11  C28 UNL     1      14.692   9.101  14.096  1.00  0.00    -0.007 A 
HETATM   12  C29 UNL     1      15.292   7.861  14.671  1.00  0.00     0.056 A 
HETATM   13  C30 UNL     1      16.563   7.778  13.926  1.00  0.00    -0.005 A 
ENDROOT
BRANCH   1  14
HETATM   14  N2  UNL     1      14.456  11.608  12.947  1.00  0.00    -0.354 N 
HETATM   15  C17 UNL     1      13.278  12.123  13.360  1.00  0.00     0.070 C 
ATOM     16  H2  UNL     1      15.090  12.391  13.096  1.00  0.00     0.166 HD
BRANCH  15  17
HETATM   17  C16 UNL     1      12.596  11.535  14.583  1.00  0.00     0.123 C 
BRANCH  17  18
HETATM   18  C15 UNL     1      13.021  12.215  15.834  1.00  0.00     0.139 C 
HETATM   19  O1  UNL     1      13.529  13.316  15.791  1.00  0.00    -0.297 OA
BRANCH  18  20
HETATM   20  C3  UNL     1      12.828  11.563  17.145  1.00  0.00     0.017 C 
HETATM   21  C4  UNL     1      13.753  12.233  18.156  1.00  0.00     0.023 C 
BRANCH  20  22
HETATM   22  C2  UNL     1      11.421  11.770  17.613  1.00  0.00     0.012 C 
HETATM   23  C1  UNL     1      11.191  11.289  19.020  1.00  0.00     0.006 C 
ENDBRANCH  20  22
BRANCH  20  24
HETATM   24  C5  UNL     1      13.200  10.093  17.104  1.00  0.00     0.017 C 
BRANCH  24  25
HETATM   25  C6  UNL     1      13.981   9.753  18.354  1.00  0.00     0.001 C 
BRANCH  25  26
HETATM   26  C7  UNL     1      13.719   8.297  18.765  1.00  0.00     0.000 C 
BRANCH  26  27
HETATM   27  C8  UNL     1      14.798   7.892  19.743  1.00  0.00     0.000 C 
BRANCH  27  28
HETATM   28  C9  UNL     1      14.238   7.561  21.090  1.00  0.00     0.000 C 
BRANCH  28  29
HETATM   29  C10 UNL     1      14.975   6.425  21.715  1.00  0.00     0.002 C 
BRANCH  29  30
HETATM   30  C11 UNL     1      14.168   5.205  21.994  1.00  0.00     0.019 C 
BRANCH  30  31
HETATM   31  C12 UNL     1      13.951   4.329  20.786  1.00  0.00     0.116 C 
BRANCH  31  32
HETATM   32  N1  UNL     1      14.258   2.960  21.001  1.00  0.00    -0.421 N 
HETATM   33  C13 UNL     1      15.631   2.632  21.154  1.00  0.00     0.142 C 
HETATM   34  C14 UNL     1      13.463   2.014  20.287  1.00  0.00     0.142 C 
ENDBRANCH  31  32
ENDBRANCH  30  31
ENDBRANCH  29  30
ENDBRANCH  28  29
ENDBRANCH  27  28
ENDBRANCH  26  27
ENDBRANCH  25  26
ENDBRANCH  24  25
ENDBRANCH  20  24
ENDBRANCH  18  20
ENDBRANCH  17  18
ENDBRANCH  15  17
ENDBRANCH   1  14
BRANCH   4  35
HETATM   35  N4  UNL     1      16.700  10.615   9.350  1.00  0.00    -0.226 N 
ATOM     36  H4  UNL     1      15.818  10.944   8.959  1.00  0.00     0.177 HD
BRANCH  35  37
HETATM   37  C20 UNL     1      17.739  10.344   8.430  1.00  0.00     0.138 C 
BRANCH  37  38
HETATM   38  C21 UNL     1      17.299   9.159   7.585  1.00  0.00     0.023 C 
BRANCH  38  39
HETATM   39  C22 UNL     1      18.333   8.089   7.603  1.00  0.00     0.043 C 
BRANCH  39  40
HETATM   40  C23 UNL     1      17.719   6.749   7.910  1.00  0.00     0.271 C 
BRANCH  40  41
HETATM   41  N5  UNL     1      16.311   6.788   7.532  1.00  0.00    -0.067 N 
ATOM     42  H53 UNL     1      15.915   7.726   7.592  1.00  0.00     0.275 HD
ATOM     43  H52 UNL     1      16.170   6.641   6.533  1.00  0.00     0.275 HD
ATOM     44  H51 UNL     1      15.803   6.112   8.102  1.00  0.00     0.275 HD
ENDBRANCH  40  41
BRANCH  40  45
HETATM   45  C24 UNL     1      17.829   6.561   9.397  1.00  0.00     0.261 C 
HETATM   46  N6  UNL     1      19.020   6.100   9.996  1.00  0.00    -0.060 NA
HETATM   47  O2  UNL     1      16.833   6.826  10.101  1.00  0.00    -0.275 OA
ENDBRANCH  40  45
ENDBRANCH  39  40
ENDBRANCH  38  39
ENDBRANCH  37  38
ENDBRANCH  35  37
ENDBRANCH   4  35
TORSDOF 21
ENDMDL
MODEL 5
REMARK VINA RESULT: -8.121872434      2.588      8.299
REMARK  21 active torsions:
REMARK  status: ('A' for Active; 'I' for Inactive)
REMARK    1  A    between atoms: C2_2  and  C3_3 
REMARK    2  A    between atoms: C3_3  and  C5_5 
REMARK    3  A    between atoms: C3_3  and  C15_16 
REMARK    4  A    between atoms: C5_5  and  C6_6 
REMARK    5  A    between atoms: C6_6  and  C7_7 
REMARK    6  A    between atoms: C7_7  and  C8_8 
REMARK    7  A    between atoms: C8_8  and  C9_9 
REMARK    8  A    between atoms: C9_9  and  C10_10 
REMARK    9  A    between atoms: C10_10  and  C11_11 
REMARK   10  A    between atoms: C11_11  and  C12_12 
REMARK   11  A    between atoms: C12_12  and  N1_13 
REMARK   12  A    between atoms: C15_16  and  C16_18 
REMARK   13  A    between atoms: C16_18  and  C17_19 
REMARK   14  A    between atoms: N2_20  and  C18_22 
REMARK   15  A    between atoms: C19_25  and  N4_26 
REMARK   16  A    between atoms: N4_26  and  C20_28 
REMARK   17  A    between atoms: C20_28  and  C21_29 
REMARK   18  A    between atoms: C21_29  and  C22_30 
REMARK   19  A    between atoms: C22_30  and  C23_31 
REMARK   20  A    between atoms: C23_31  and  N5_32 
REMARK   21  A    between atoms: C23_31  and  C24_36 
ROOT
HETATM    1  C18 UNL     1      14.417   8.699  14.595  1.00  0.00     0.131 C 
HETATM    2  N3  UNL     1      15.218   8.902  13.494  1.00  0.00    -0.176 N 
ATOM      3  H3  UNL     1      15.787   8.105  13.208  1.00  0.00     0.186 HD
HETATM    4  C19 UNL     1      15.351  10.016  12.743  1.00  0.00     0.682 C 
HETATM    5  N7  UNL     1      14.437  11.019  12.597  1.00  0.00    -0.155 N 
ATOM      6  H7  UNL     1      14.334  11.425  11.666  1.00  0.00     0.187 HD
HETATM    7  C25 UNL     1      13.650  11.523  13.586  1.00  0.00     0.270 C 
HETATM    8  O3  UNL     1      13.035  12.563  13.321  1.00  0.00    -0.267 OA
HETATM    9  C26 UNL     1      13.473  10.983  14.862  1.00  0.00     0.043 A 
HETATM   10  C27 UNL     1      13.811   9.732  15.316  1.00  0.00     0.021 A 
HETATM   11  C28 UNL     1      13.496   9.586  16.576  1.00  0.00    -0.007 A 
HETATM   12  C29 UNL     1      12.870  10.848  17.065  1.00  0.00     0.056 A 
HETATM   13  C30 UNL     1      12.917  11.687  15.852  1.00  0.00    -0.005 A 
ENDROOT
BRANCH   1  14
HETATM   14  N2  UNL     1      14.282   7.530  14.898  1.00  0.00    -0.354 N 
HETATM   15  C17 UNL     1      14.258   6.194  14.699  1.00  0.00     0.070 C 
ATOM     16  H2  UNL     1      14.051   7.597  15.889  1.00  0.00     0.166 HD
BRANCH  15  17
HETATM   17  C16 UNL     1      15.542   5.474  14.328  1.00  0.00     0.123 C 
BRANCH  17  18
HETATM   18  C15 UNL     1      16.664   5.846  15.227  1.00  0.00     0.139 C 
HETATM   19  O1  UNL     1      17.232   6.910  15.091  1.00  0.00    -0.297 OA
BRANCH  18  20
HETATM   20  C3  UNL     1      17.103   4.929  16.298  1.00  0.00     0.017 C 
HETATM   21  C4  UNL     1      17.343   3.553  15.686  1.00  0.00     0.023 C 
BRANCH  20  22
HETATM   22  C2  UNL     1      18.405   5.402  16.869  1.00  0.00     0.012 C 
HETATM   23  C1  UNL     1      19.323   4.275  17.256  1.00  0.00     0.006 C 
ENDBRANCH  20  22
BRANCH  20  24
HETATM   24  C5  UNL     1      16.043   4.764  17.369  1.00  0.00     0.017 C 
BRANCH  24  25
HETATM   25  C6  UNL     1      16.059   5.983  18.265  1.00  0.00     0.001 C 
BRANCH  25  26
HETATM   26  C7  UNL     1      14.642   6.554  18.413  1.00  0.00     0.000 C 
BRANCH  26  27
HETATM   27  C8  UNL     1      14.678   7.605  19.498  1.00  0.00     0.000 C 
BRANCH  27  28
HETATM   28  C9  UNL     1      15.477   7.162  20.682  1.00  0.00     0.000 C 
BRANCH  28  29
HETATM   29  C10 UNL     1      14.597   6.600  21.746  1.00  0.00     0.002 C 
BRANCH  29  30
HETATM   30  C11 UNL     1      14.811   5.162  22.072  1.00  0.00     0.019 C 
BRANCH  30  31
HETATM   31  C12 UNL     1      13.917   4.224  21.301  1.00  0.00     0.116 C 
BRANCH  31  32
HETATM   32  N1  UNL     1      14.611   3.360  20.415  1.00  0.00    -0.421 N 
HETATM   33  C13 UNL     1      13.838   2.364  19.761  1.00  0.00     0.142 C 
HETATM   34  C14 UNL     1      15.927   2.973  20.809  1.00  0.00     0.142 C 
ENDBRANCH  31  32
ENDBRANCH  30  31
ENDBRANCH  29  30
ENDBRANCH  28  29
ENDBRANCH  27  28
ENDBRANCH  26  27
ENDBRANCH  25  26
ENDBRANCH  24  25
ENDBRANCH  20  24
ENDBRANCH  18  20
ENDBRANCH  17  18
ENDBRANCH  15  17
ENDBRANCH   1  14
BRANCH   4  35
HETATM   35  N4  UNL     1      16.453  10.085  12.121  1.00  0.00    -0.226 N 
ATOM     36  H4  UNL     1      17.218   9.517  12.483  1.00  0.00     0.177 HD
BRANCH  35  37
HETATM   37  C20 UNL     1      16.732  10.868  10.976  1.00  0.00     0.138 C 
BRANCH  37  38
HETATM   38  C21 UNL     1      16.436  10.011   9.756  1.00  0.00     0.023 C 
BRANCH  38  39
HETATM   39  C22 UNL     1      17.662   9.293   9.310  1.00  0.00     0.043 C 
BRANCH  39  40
HETATM   40  C23 UNL     1      17.444   7.803   9.303  1.00  0.00     0.271 C 
BRANCH  40  41
HETATM   41  N5  UNL     1      16.032   7.544   9.044  1.00  0.00    -0.067 N 
ATOM     42  H53 UNL     1      15.418   8.181   9.551  1.00  0.00     0.275 HD
ATOM     43  H52 UNL     1      15.753   7.803   8.098  1.00  0.00     0.275 HD
ATOM     44  H51 UNL     1      15.839   6.565   9.255  1.00  0.00     0.275 HD
ENDBRANCH  40  41
BRANCH  40  45
HETATM   45  C24 UNL     1      17.796   7.316  10.680  1.00  0.00     0.261 C 
HETATM   46  N6  UNL     1      19.137   7.156  11.085  1.00  0.00    -0.060 NA
HETATM   47  O2  UNL     1      16.865   7.053  11.469  1.00  0.00    -0.275 OA
ENDBRANCH  40  45
ENDBRANCH  39  40
ENDBRANCH  38  39
ENDBRANCH  37  38
ENDBRANCH  35  37
ENDBRANCH   4  35
TORSDOF 21
ENDMDL
