MODEL 1
REMARK VINA RESULT: -8.139862358      0.000      0.000
REMARK  20 active torsions:
REMARK  status: ('A' for Active; 'I' for Inactive)
REMARK    1  A    between atoms: C2_2  and  N1_3 
REMARK    2  A    between atoms: N1_3  and  C3_5 
REMARK    3  A    between atoms: C3_5  and  C4_6 
REMARK    4  A    between atoms: N2_10  and  C8_11 
REMARK    5  A    between atoms: C8_11  and  C9_12 
REMARK    6  A    between atoms: C8_11  and  C14_21 
REMARK    7  A    between atoms: C9_12  and  C10_13 
REMARK    8  A    between atoms: C10_13  and  C11_14 
REMARK    9  A    between atoms: C11_14  and  C12_15 
REMARK   10  A    between atoms: C12_15  and  N3_16 
REMARK       I    between atoms: C14_21  and  N6_23 
REMARK   11  A    between atoms: C18_27  and  C19_28 
REMARK       I    between atoms: C19_28  and  N7_30 
REMARK   12  A    between atoms: N7_30  and  C20_31 
REMARK   13  A    between atoms: C20_31  and  C21_32 
REMARK   14  A    between atoms: C20_31  and  C25_40 
REMARK   15  A    between atoms: C21_32  and  C22_33 
REMARK   16  A    between atoms: C22_33  and  C23_34 
REMARK   17  A    between atoms: C23_34  and  C24_35 
REMARK   18  A    between atoms: C24_35  and  N8_36 
REMARK   19  A    between atoms: C25_40  and  C26_41 
REMARK   20  A    between atoms: C26_41  and  C27_42 
ROOT
HETATM    1  C14 UNL     1      16.855   5.741  16.956  1.00  0.00     0.266 C 
HETATM    2  O1  UNL     1      17.989   5.886  17.444  1.00  0.00    -0.266 OA
HETATM    3  N6  UNL     1      16.696   6.169  15.580  1.00  0.00    -0.332 N 
HETATM    4  C15 UNL     1      17.782   6.686  14.739  1.00  0.00     0.127 C 
HETATM    5  C16 UNL     1      17.347   6.369  13.338  1.00  0.00     0.022 C 
HETATM    6  C17 UNL     1      16.029   5.666  13.461  1.00  0.00     0.038 C 
HETATM    7  C18 UNL     1      15.519   6.211  14.765  1.00  0.00     0.194 C 
ENDROOT
BRANCH   1   8
HETATM    8  C8  UNL     1      15.749   5.185  17.707  1.00  0.00     0.076 C 
BRANCH   8   9
HETATM    9  N2  UNL     1      15.293   5.973  18.781  1.00  0.00    -0.379 N 
HETATM   10  C7  UNL     1      15.561   5.516  20.101  1.00  0.00     0.123 C 
HETATM   11  C6  UNL     1      15.263   6.555  21.143  1.00  0.00     0.021 C 
HETATM   12  C5  UNL     1      14.151   7.504  20.830  1.00  0.00     0.013 C 
HETATM   13  C4  UNL     1      13.970   7.815  19.375  1.00  0.00     0.041 C 
HETATM   14  C28 UNL     1      15.302   7.377  18.704  1.00  0.00     0.132 C 
BRANCH  13  15
HETATM   15  C3  UNL     1      13.683   9.232  19.074  1.00  0.00     0.061 C 
BRANCH  15  16
HETATM   16  N1  UNL     1      13.238   9.602  17.808  1.00  0.00    -0.402 N 
ATOM     17  H1  UNL     1      12.980   8.872  17.144  1.00  0.00     0.158 HD
BRANCH  16  18
HETATM   18  C2  UNL     1      13.130  10.938  17.413  1.00  0.00     0.114 C 
HETATM   19  C1  UNL     1      11.722  11.475  17.787  1.00  0.00     0.026 C 
ENDBRANCH  16  18
ENDBRANCH  15  16
ENDBRANCH  13  15
ENDBRANCH   8   9
BRANCH   8  20
HETATM   20  C9  UNL     1      15.826   3.706  18.009  1.00  0.00     0.063 C 
BRANCH  20  21
HETATM   21  C10 UNL     1      16.022   2.819  16.805  1.00  0.00     0.008 C 
BRANCH  21  22
HETATM   22  C11 UNL     1      17.401   2.170  16.935  1.00  0.00     0.020 C 
BRANCH  22  23
HETATM   23  C12 UNL     1      17.255   0.719  17.248  1.00  0.00     0.122 C 
BRANCH  23  24
HETATM   24  N3  UNL     1      17.680   0.514  18.642  1.00  0.00    -0.367 N 
HETATM   25  C13 UNL     1      16.904   0.036  19.529  1.00  0.00     0.196 C 
HETATM   26  N4  UNL     1      17.387  -0.132  20.851  1.00  0.00    -0.067 NA
HETATM   27  N5  UNL     1      15.564  -0.323  19.179  1.00  0.00    -0.067 NA
ATOM     28  H3  UNL     1      18.633   0.764  18.907  1.00  0.00     0.161 HD
ENDBRANCH  23  24
ENDBRANCH  22  23
ENDBRANCH  21  22
ENDBRANCH  20  21
ENDBRANCH   8  20
ENDBRANCH   1   8
BRANCH   7  29
HETATM   29  C19 UNL     1      15.008   7.635  14.633  1.00  0.00     0.314 C 
HETATM   30  O2  UNL     1      14.529   8.147  15.675  1.00  0.00    -0.255 OA
HETATM   31  N7  UNL     1      15.037   8.340  13.499  1.00  0.00    -0.378 NA
BRANCH  31  32
HETATM   32  C20 UNL     1      15.401   9.077  12.625  1.00  0.00     0.066 C 
BRANCH  32  33
HETATM   33  C21 UNL     1      15.296  10.563  12.933  1.00  0.00     0.068 C 
BRANCH  33  34
HETATM   34  C22 UNL     1      14.100  10.840  13.752  1.00  0.00     0.008 C 
BRANCH  34  35
HETATM   35  C23 UNL     1      13.405  12.132  13.540  1.00  0.00     0.027 C 
BRANCH  35  36
HETATM   36  C24 UNL     1      13.149  12.340  12.042  1.00  0.00     0.229 C 
BRANCH  36  37
HETATM   37  N8  UNL     1      11.728  12.541  11.882  1.00  0.00    -0.079 N 
ATOM     38  H83 UNL     1      11.173  11.745  12.195  1.00  0.00     0.274 HD
ATOM     39  H82 UNL     1      11.344  13.230  12.529  1.00  0.00     0.274 HD
ATOM     40  H81 UNL     1      11.570  12.779  10.903  1.00  0.00     0.274 HD
ENDBRANCH  36  37
ENDBRANCH  35  36
ENDBRANCH  34  35
ENDBRANCH  33  34
ENDBRANCH  32  33
BRANCH  32  41
HETATM   41  C25 UNL     1      15.897   8.694  11.261  1.00  0.00     0.077 C 
BRANCH  41  42
HETATM   42  C26 UNL     1      15.589   9.684  10.193  1.00  0.00     0.106 C 
BRANCH  42  43
HETATM   43  C27 UNL     1      16.746   9.722   9.228  1.00  0.00     0.231 C 
HETATM   44  N9  UNL     1      17.911  10.435   9.601  1.00  0.00    -0.062 NA
HETATM   45  O3  UNL     1      16.720   9.155   8.124  1.00  0.00    -0.277 OA
ENDBRANCH  42  43
ENDBRANCH  41  42
ENDBRANCH  32  41
ENDBRANCH  31  32
ENDBRANCH   7  29
TORSDOF 20
ENDMDL
MODEL 2
REMARK VINA RESULT: -8.110801827      3.194      6.476
REMARK  20 active torsions:
REMARK  status: ('A' for Active; 'I' for Inactive)
REMARK    1  A    between atoms: C2_2  and  N1_3 
REMARK    2  A    between atoms: N1_3  and  C3_5 
REMARK    3  A    between atoms: C3_5  and  C4_6 
REMARK    4  A    between atoms: N2_10  and  C8_11 
REMARK    5  A    between atoms: C8_11  and  C9_12 
REMARK    6  A    between atoms: C8_11  and  C14_21 
REMARK    7  A    between atoms: C9_12  and  C10_13 
REMARK    8  A    between atoms: C10_13  and  C11_14 
REMARK    9  A    between atoms: C11_14  and  C12_15 
REMARK   10  A    between atoms: C12_15  and  N3_16 
REMARK       I    between atoms: C14_21  and  N6_23 
REMARK   11  A    between atoms: C18_27  and  C19_28 
REMARK       I    between atoms: C19_28  and  N7_30 
REMARK   12  A    between atoms: N7_30  and  C20_31 
REMARK   13  A    between atoms: C20_31  and  C21_32 
REMARK   14  A    between atoms: C20_31  and  C25_40 
REMARK   15  A    between atoms: C21_32  and  C22_33 
REMARK   16  A    between atoms: C22_33  and  C23_34 
REMARK   17  A    between atoms: C23_34  and  C24_35 
REMARK   18  A    between atoms: C24_35  and  N8_36 
REMARK   19  A    between atoms: C25_40  and  C26_41 
REMARK   20  A    between atoms: C26_41  and  C27_42 
ROOT
HETATM    1  C14 UNL     1      18.484   4.633  13.773  1.00  0.00     0.266 C 
HETATM    2  O1  UNL     1      19.214   4.286  12.829  1.00  0.00    -0.266 OA
HETATM    3  N6  UNL     1      17.059   4.462  13.569  1.00  0.00    -0.332 N 
HETATM    4  C15 UNL     1      16.456   3.862  12.374  1.00  0.00     0.127 C 
HETATM    5  C16 UNL     1      15.146   3.311  12.858  1.00  0.00     0.022 C 
HETATM    6  C17 UNL     1      15.082   3.618  14.324  1.00  0.00     0.038 C 
HETATM    7  C18 UNL     1      15.963   4.833  14.414  1.00  0.00     0.194 C 
ENDROOT
BRANCH   1   8
HETATM    8  C8  UNL     1      19.011   5.180  15.005  1.00  0.00     0.076 C 
BRANCH   8   9
HETATM    9  N2  UNL     1      18.899   4.343  16.133  1.00  0.00    -0.379 N 
HETATM   10  C7  UNL     1      20.075   3.697  16.600  1.00  0.00     0.123 C 
HETATM   11  C6  UNL     1      19.886   3.052  17.942  1.00  0.00     0.021 C 
HETATM   12  C5  UNL     1      18.514   2.540  18.241  1.00  0.00     0.013 C 
HETATM   13  C4  UNL     1      17.395   3.307  17.603  1.00  0.00     0.041 C 
HETATM   14  C28 UNL     1      18.028   4.665  17.189  1.00  0.00     0.132 C 
BRANCH  13  15
HETATM   15  C3  UNL     1      16.220   3.528  18.469  1.00  0.00     0.061 C 
BRANCH  15  16
HETATM   16  N1  UNL     1      15.040   2.825  18.242  1.00  0.00    -0.402 N 
ATOM     17  H1  UNL     1      14.252   3.313  17.816  1.00  0.00     0.158 HD
BRANCH  16  18
HETATM   18  C2  UNL     1      14.896   1.476  18.576  1.00  0.00     0.114 C 
HETATM   19  C1  UNL     1      14.752   0.636  17.279  1.00  0.00     0.026 C 
ENDBRANCH  16  18
ENDBRANCH  15  16
ENDBRANCH  13  15
ENDBRANCH   8   9
BRANCH   8  20
HETATM   20  C9  UNL     1      18.697   6.634  15.277  1.00  0.00     0.063 C 
BRANCH  20  21
HETATM   21  C10 UNL     1      19.833   7.590  15.014  1.00  0.00     0.008 C 
BRANCH  21  22
HETATM   22  C11 UNL     1      20.652   7.691  16.303  1.00  0.00     0.020 C 
BRANCH  22  23
HETATM   23  C12 UNL     1      22.102   7.820  15.976  1.00  0.00     0.122 C 
BRANCH  23  24
HETATM   24  N3  UNL     1      22.214   8.546  14.701  1.00  0.00    -0.367 N 
HETATM   25  C13 UNL     1      23.122   9.409  14.483  1.00  0.00     0.196 C 
HETATM   26  N4  UNL     1      23.164  10.066  13.228  1.00  0.00    -0.067 NA
HETATM   27  N5  UNL     1      24.083   9.699  15.504  1.00  0.00    -0.067 NA
ATOM     28  H3  UNL     1      21.537   8.349  13.963  1.00  0.00     0.161 HD
ENDBRANCH  23  24
ENDBRANCH  22  23
ENDBRANCH  21  22
ENDBRANCH  20  21
ENDBRANCH   8  20
ENDBRANCH   1   8
BRANCH   7  29
HETATM   29  C19 UNL     1      15.277   6.081  13.888  1.00  0.00     0.314 C 
HETATM   30  O2  UNL     1      14.146   6.333  14.372  1.00  0.00    -0.255 OA
HETATM   31  N7  UNL     1      15.800   6.892  12.964  1.00  0.00    -0.378 NA
BRANCH  31  32
HETATM   32  C20 UNL     1      16.404   7.789  12.446  1.00  0.00     0.066 C 
BRANCH  32  33
HETATM   33  C21 UNL     1      17.264   7.400  11.253  1.00  0.00     0.068 C 
BRANCH  33  34
HETATM   34  C22 UNL     1      16.426   7.194  10.055  1.00  0.00     0.008 C 
BRANCH  34  35
HETATM   35  C23 UNL     1      16.279   8.331   9.115  1.00  0.00     0.027 C 
BRANCH  35  36
HETATM   36  C24 UNL     1      17.602   9.102   9.026  1.00  0.00     0.229 C 
BRANCH  36  37
HETATM   37  N8  UNL     1      17.276  10.454   8.637  1.00  0.00    -0.079 N 
ATOM     38  H83 UNL     1      16.292  10.685   8.775  1.00  0.00     0.274 HD
ATOM     39  H82 UNL     1      17.663  11.158   9.267  1.00  0.00     0.274 HD
ATOM     40  H81 UNL     1      17.583  10.568   7.671  1.00  0.00     0.274 HD
ENDBRANCH  36  37
ENDBRANCH  35  36
ENDBRANCH  34  35
ENDBRANCH  33  34
ENDBRANCH  32  33
BRANCH  32  41
HETATM   41  C25 UNL     1      16.438   9.228  12.874  1.00  0.00     0.077 C 
BRANCH  41  42
HETATM   42  C26 UNL     1      15.110   9.901  12.875  1.00  0.00     0.106 C 
BRANCH  42  43
HETATM   43  C27 UNL     1      14.961  10.668  11.586  1.00  0.00     0.231 C 
HETATM   44  N9  UNL     1      13.718  10.617  10.912  1.00  0.00    -0.062 NA
HETATM   45  O3  UNL     1      15.882  11.341  11.094  1.00  0.00    -0.277 OA
ENDBRANCH  42  43
ENDBRANCH  41  42
ENDBRANCH  32  41
ENDBRANCH  31  32
ENDBRANCH   7  29
TORSDOF 20
ENDMDL
MODEL 3
REMARK VINA RESULT: -8.055315940      2.636      7.094
REMARK  20 active torsions:
REMARK  status: ('A' for Active; 'I' for Inactive)
REMARK    1  A    between atoms: C2_2  and  N1_3 
REMARK    2  A    between atoms: N1_3  and  C3_5 
REMARK    3  A    between atoms: C3_5  and  C4_6 
REMARK    4  A    between atoms: N2_10  and  C8_11 
REMARK    5  A    between atoms: C8_11  and  C9_12 
REMARK    6  A    between atoms: C8_11  and  C14_21 
REMARK    7  A    between atoms: C9_12  and  C10_13 
REMARK    8  A    between atoms: C10_13  and  C11_14 
REMARK    9  A    between atoms: C11_14  and  C12_15 
REMARK   10  A    between atoms: C12_15  and  N3_16 
REMARK       I    between atoms: C14_21  and  N6_23 
REMARK   11  A    between atoms: C18_27  and  C19_28 
REMARK       I    between atoms: C19_28  and  N7_30 
REMARK   12  A    between atoms: N7_30  and  C20_31 
REMARK   13  A    between atoms: C20_31  and  C21_32 
REMARK   14  A    between atoms: C20_31  and  C25_40 
REMARK   15  A    between atoms: C21_32  and  C22_33 
REMARK   16  A    between atoms: C22_33  and  C23_34 
REMARK   17  A    between atoms: C23_34  and  C24_35 
REMARK   18  A    between atoms: C24_35  and  N8_36 
REMARK   19  A    between atoms: C25_40  and  C26_41 
REMARK   20  A    between atoms: C26_41  and  C27_42 
ROOT
HETATM    1  C14 UNL     1      16.743   4.608  14.277  1.00  0.00     0.266 C 
HETATM    2  O1  UNL     1      17.914   4.292  14.545  1.00  0.00    -0.266 OA
HETATM    3  N6  UNL     1      16.481   6.028  14.150  1.00  0.00    -0.332 N 
HETATM    4  C15 UNL     1      17.504   7.075  14.254  1.00  0.00     0.127 C 
HETATM    5  C16 UNL     1      16.953   8.212  13.443  1.00  0.00     0.022 C 
HETATM    6  C17 UNL     1      15.637   7.737  12.903  1.00  0.00     0.038 C 
HETATM    7  C18 UNL     1      15.243   6.714  13.931  1.00  0.00     0.194 C 
ENDROOT
BRANCH   1   8
HETATM    8  C8  UNL     1      15.692   3.628  14.104  1.00  0.00     0.076 C 
BRANCH   8   9
HETATM    9  N2  UNL     1      15.798   2.481  14.915  1.00  0.00    -0.379 N 
HETATM   10  C7  UNL     1      16.533   1.375  14.409  1.00  0.00     0.123 C 
HETATM   11  C6  UNL     1      16.794   0.328  15.453  1.00  0.00     0.021 C 
HETATM   12  C5  UNL     1      15.755   0.184  16.518  1.00  0.00     0.013 C 
HETATM   13  C4  UNL     1      15.027   1.446  16.872  1.00  0.00     0.041 C 
HETATM   14  C28 UNL     1      15.918   2.591  16.312  1.00  0.00     0.132 C 
BRANCH  13  15
HETATM   15  C3  UNL     1      14.789   1.640  18.316  1.00  0.00     0.061 C 
BRANCH  15  16
HETATM   16  N1  UNL     1      14.769   2.923  18.857  1.00  0.00    -0.402 N 
ATOM     17  H1  UNL     1      14.195   3.636  18.408  1.00  0.00     0.158 HD
BRANCH  16  18
HETATM   18  C2  UNL     1      15.507   3.269  19.992  1.00  0.00     0.114 C 
HETATM   19  C1  UNL     1      15.788   1.995  20.832  1.00  0.00     0.026 C 
ENDBRANCH  16  18
ENDBRANCH  15  16
ENDBRANCH  13  15
ENDBRANCH   8   9
BRANCH   8  20
HETATM   20  C9  UNL     1      15.273   3.345  12.679  1.00  0.00     0.063 C 
BRANCH  20  21
HETATM   21  C10 UNL     1      16.378   3.447  11.658  1.00  0.00     0.008 C 
BRANCH  21  22
HETATM   22  C11 UNL     1      15.928   4.452  10.596  1.00  0.00     0.020 C 
BRANCH  22  23
HETATM   23  C12 UNL     1      17.013   5.442  10.339  1.00  0.00     0.122 C 
BRANCH  23  24
HETATM   24  N3  UNL     1      16.475   6.480   9.445  1.00  0.00    -0.367 N 
HETATM   25  C13 UNL     1      17.095   7.564   9.206  1.00  0.00     0.196 C 
HETATM   26  N4  UNL     1      16.510   8.516   8.334  1.00  0.00    -0.067 NA
HETATM   27  N5  UNL     1      18.366   7.804   9.818  1.00  0.00    -0.067 NA
ATOM     28  H3  UNL     1      15.570   6.324   9.000  1.00  0.00     0.161 HD
ENDBRANCH  23  24
ENDBRANCH  22  23
ENDBRANCH  21  22
ENDBRANCH  20  21
ENDBRANCH   8  20
ENDBRANCH   1   8
BRANCH   7  29
HETATM   29  C19 UNL     1      14.747   7.351  15.217  1.00  0.00     0.314 C 
HETATM   30  O2  UNL     1      15.007   6.728  16.276  1.00  0.00    -0.255 OA
HETATM   31  N7  UNL     1      14.065   8.499  15.271  1.00  0.00    -0.378 NA
BRANCH  31  32
HETATM   32  C20 UNL     1      13.807   9.668  15.353  1.00  0.00     0.066 C 
BRANCH  32  33
HETATM   33  C21 UNL     1      13.876  10.449  14.050  1.00  0.00     0.068 C 
BRANCH  33  34
HETATM   34  C22 UNL     1      13.053  11.671  14.133  1.00  0.00     0.008 C 
BRANCH  34  35
HETATM   35  C23 UNL     1      13.115  12.621  12.997  1.00  0.00     0.027 C 
BRANCH  35  36
HETATM   36  C24 UNL     1      13.137  11.844  11.675  1.00  0.00     0.229 C 
BRANCH  36  37
HETATM   37  N8  UNL     1      14.393  12.148  11.029  1.00  0.00    -0.079 N 
ATOM     38  H83 UNL     1      15.113  12.459  11.680  1.00  0.00     0.274 HD
ATOM     39  H82 UNL     1      14.878  11.318  10.686  1.00  0.00     0.274 HD
ATOM     40  H81 UNL     1      14.193  12.828  10.297  1.00  0.00     0.274 HD
ENDBRANCH  36  37
ENDBRANCH  35  36
ENDBRANCH  34  35
ENDBRANCH  33  34
ENDBRANCH  32  33
BRANCH  32  41
HETATM   41  C25 UNL     1      13.473  10.439  16.597  1.00  0.00     0.077 C 
BRANCH  41  42
HETATM   42  C26 UNL     1      13.279   9.598  17.811  1.00  0.00     0.106 C 
BRANCH  42  43
HETATM   43  C27 UNL     1      12.216  10.233  18.668  1.00  0.00     0.231 C 
HETATM   44  N9  UNL     1      11.555  11.384  18.178  1.00  0.00    -0.062 NA
HETATM   45  O3  UNL     1      11.897   9.789  19.783  1.00  0.00    -0.277 OA
ENDBRANCH  42  43
ENDBRANCH  41  42
ENDBRANCH  32  41
ENDBRANCH  31  32
ENDBRANCH   7  29
TORSDOF 20
ENDMDL
MODEL 4
REMARK VINA RESULT: -8.043639497      3.176      9.901
REMARK  20 active torsions:
REMARK  status: ('A' for Active; 'I' for Inactive)
REMARK    1  A    between atoms: C2_2  and  N1_3 
REMARK    2  A    between atoms: N1_3  and  C3_5 
REMARK    3  A    between atoms: C3_5  and  C4_6 
REMARK    4  A    between atoms: N2_10  and  C8_11 
REMARK    5  A    between atoms: C8_11  and  C9_12 
REMARK    6  A    between atoms: C8_11  and  C14_21 
REMARK    7  A    between atoms: C9_12  and  C10_13 
REMARK    8  A    between atoms: C10_13  and  C11_14 
REMARK    9  A    between atoms: C11_14  and  C12_15 
REMARK   10  A    between atoms: C12_15  and  N3_16 
REMARK       I    between atoms: C14_21  and  N6_23 
REMARK   11  A    between atoms: C18_27  and  C19_28 
REMARK       I    between atoms: C19_28  and  N7_30 
REMARK   12  A    between atoms: N7_30  and  C20_31 
REMARK   13  A    between atoms: C20_31  and  C21_32 
REMARK   14  A    between atoms: C20_31  and  C25_40 
REMARK   15  A    between atoms: C21_32  and  C22_33 
REMARK   16  A    between atoms: C22_33  and  C23_34 
REMARK   17  A    between atoms: C23_34  and  C24_35 
REMARK   18  A    between atoms: C24_35  and  N8_36 
REMARK   19  A    between atoms: C25_40  and  C26_41 
REMARK   20  A    between atoms: C26_41  and  C27_42 
ROOT
HETATM    1  C14 UNL     1      17.531   5.448  13.321  1.00  0.00     0.266 C 
HETATM    2  O1  UNL     1      18.742   5.532  13.054  1.00  0.00    -0.266 OA
HETATM    3  N6  UNL     1      17.193   4.672  14.497  1.00  0.00    -0.332 N 
HETATM    4  C15 UNL     1      18.174   4.054  15.397  1.00  0.00     0.127 C 
HETATM    5  C16 UNL     1      17.462   3.964  16.715  1.00  0.00     0.022 C 
HETATM    6  C17 UNL     1      16.102   4.557  16.494  1.00  0.00     0.038 C 
HETATM    7  C18 UNL     1      15.907   4.320  15.023  1.00  0.00     0.194 C 
ENDROOT
BRANCH   1   8
HETATM    8  C8  UNL     1      16.510   6.078  12.512  1.00  0.00     0.076 C 
BRANCH   8   9
HETATM    9  N2  UNL     1      16.602   5.836  11.128  1.00  0.00    -0.379 N 
HETATM   10  C7  UNL     1      16.149   4.579  10.642  1.00  0.00     0.123 C 
HETATM   11  C6  UNL     1      16.054   4.538   9.144  1.00  0.00     0.021 C 
HETATM   12  C5  UNL     1      17.034   5.384   8.397  1.00  0.00     0.013 C 
HETATM   13  C4  UNL     1      17.454   6.642   9.098  1.00  0.00     0.041 C 
HETATM   14  C28 UNL     1      16.377   6.865  10.196  1.00  0.00     0.132 C 
BRANCH  13  15
HETATM   15  C3  UNL     1      17.559   7.831   8.230  1.00  0.00     0.061 C 
BRANCH  15  16
HETATM   16  N1  UNL     1      16.804   8.967   8.505  1.00  0.00    -0.402 N 
ATOM     17  H1  UNL     1      15.798   8.867   8.645  1.00  0.00     0.158 HD
BRANCH  16  18
HETATM   18  C2  UNL     1      17.372  10.240   8.596  1.00  0.00     0.114 C 
HETATM   19  C1  UNL     1      17.993  10.428  10.006  1.00  0.00     0.026 C 
ENDBRANCH  16  18
ENDBRANCH  15  16
ENDBRANCH  13  15
ENDBRANCH   8   9
BRANCH   8  20
HETATM   20  C9  UNL     1      16.162   7.505  12.871  1.00  0.00     0.063 C 
BRANCH  20  21
HETATM   21  C10 UNL     1      15.186   7.655  14.011  1.00  0.00     0.008 C 
BRANCH  21  22
HETATM   22  C11 UNL     1      14.816   9.137  14.104  1.00  0.00     0.020 C 
BRANCH  22  23
HETATM   23  C12 UNL     1      15.373   9.876  12.935  1.00  0.00     0.122 C 
BRANCH  23  24
HETATM   24  N3  UNL     1      14.423  10.943  12.582  1.00  0.00    -0.367 N 
HETATM   25  C13 UNL     1      13.911  11.046  11.422  1.00  0.00     0.196 C 
HETATM   26  N4  UNL     1      13.004  12.103  11.160  1.00  0.00    -0.067 NA
HETATM   27  N5  UNL     1      14.257  10.098  10.408  1.00  0.00    -0.067 NA
ATOM     28  H3  UNL     1      14.166  11.626  13.295  1.00  0.00     0.161 HD
ENDBRANCH  23  24
ENDBRANCH  22  23
ENDBRANCH  21  22
ENDBRANCH  20  21
ENDBRANCH   8  20
ENDBRANCH   1   8
BRANCH   7  29
HETATM   29  C19 UNL     1      15.578   2.871  14.712  1.00  0.00     0.314 C 
HETATM   30  O2  UNL     1      15.517   2.569  13.495  1.00  0.00    -0.255 OA
HETATM   31  N7  UNL     1      15.352   1.937  15.641  1.00  0.00    -0.378 NA
BRANCH  31  32
HETATM   32  C20 UNL     1      15.525   1.053  16.433  1.00  0.00     0.066 C 
BRANCH  32  33
HETATM   33  C21 UNL     1      14.628   1.087  17.661  1.00  0.00     0.068 C 
BRANCH  33  34
HETATM   34  C22 UNL     1      15.326   0.518  18.830  1.00  0.00     0.008 C 
BRANCH  34  35
HETATM   35  C23 UNL     1      16.027   1.458  19.738  1.00  0.00     0.027 C 
BRANCH  35  36
HETATM   36  C24 UNL     1      17.404   0.891  20.105  1.00  0.00     0.229 C 
BRANCH  36  37
HETATM   37  N8  UNL     1      17.291  -0.549  20.066  1.00  0.00    -0.079 N 
ATOM     38  H83 UNL     1      18.128  -1.007  19.709  1.00  0.00     0.274 HD
ATOM     39  H82 UNL     1      17.293  -0.976  20.992  1.00  0.00     0.274 HD
ATOM     40  H81 UNL     1      16.453  -0.766  19.526  1.00  0.00     0.274 HD
ENDBRANCH  36  37
ENDBRANCH  35  36
ENDBRANCH  34  35
ENDBRANCH  33  34
ENDBRANCH  32  33
BRANCH  32  41
HETATM   41  C25 UNL     1      16.550  -0.041  16.364  1.00  0.00     0.077 C 
BRANCH  41  42
HETATM   42  C26 UNL     1      17.959   0.437  16.311  1.00  0.00     0.106 C 
BRANCH  42  43
HETATM   43  C27 UNL     1      18.477   0.244  14.909  1.00  0.00     0.231 C 
HETATM   44  N9  UNL     1      19.877   0.183  14.711  1.00  0.00    -0.062 NA
HETATM   45  O3  UNL     1      17.728   0.136  13.924  1.00  0.00    -0.277 OA
ENDBRANCH  42  43
ENDBRANCH  41  42
ENDBRANCH  32  41
ENDBRANCH  31  32
ENDBRANCH   7  29
TORSDOF 20
ENDMDL
MODEL 5
REMARK VINA RESULT: -8.042963927      2.527      8.461
REMARK  20 active torsions:
REMARK  status: ('A' for Active; 'I' for Inactive)
REMARK    1  A    between atoms: C2_2  and  N1_3 
REMARK    2  A    between atoms: N1_3  and  C3_5 
REMARK    3  A    between atoms: C3_5  and  C4_6 
REMARK    4  A    between atoms: N2_10  and  C8_11 
REMARK    5  A    between atoms: C8_11  and  C9_12 
REMARK    6  A    between atoms: C8_11  and  C14_21 
REMARK    7  A    between atoms: C9_12  and  C10_13 
REMARK    8  A    between atoms: C10_13  and  C11_14 
REMARK    9  A    between atoms: C11_14  and  C12_15 
REMARK   10  A    between atoms: C12_15  and  N3_16 
REMARK       I    between atoms: C14_21  and  N6_23 
REMARK   11  A    between atoms: C18_27  and  C19_28 
REMARK       I    between atoms: C19_28  and  N7_30 
REMARK   12  A    between atoms: N7_30  and  C20_31 
REMARK   13  A    between atoms: C20_31  and  C21_32 
REMARK   14  A    between atoms: C20_31  and  C25_40 
REMARK   15  A    between atoms: C21_32  and  C22_33 
REMARK   16  A    between atoms: C22_33  and  C23_34 
REMARK   17  A    between atoms: C23_34  and  C24_35 
REMARK   18  A    between atoms: C24_35  and  N8_36 
REMARK   19  A    between atoms: C25_40  and  C26_41 
REMARK   20  A    between atoms: C26_41  and  C27_42 
ROOT
HETATM    1  C14 UNL     1      15.055   8.386  19.580  1.00  0.00     0.266 C 
HETATM    2  O1  UNL     1      15.542   9.235  20.346  1.00  0.00    -0.266 OA
HETATM    3  N6  UNL     1      15.145   7.008  20.019  1.00  0.00    -0.332 N 
HETATM    4  C15 UNL     1      15.702   6.581  21.308  1.00  0.00     0.127 C 
HETATM    5  C16 UNL     1      15.016   5.277  21.593  1.00  0.00     0.022 C 
HETATM    6  C17 UNL     1      14.082   5.039  20.444  1.00  0.00     0.038 C 
HETATM    7  C18 UNL     1      14.759   5.806  19.343  1.00  0.00     0.194 C 
ENDROOT
BRANCH   1   8
HETATM    8  C8  UNL     1      14.437   8.739  18.319  1.00  0.00     0.076 C 
BRANCH   8   9
HETATM    9  N2  UNL     1      13.364   9.646  18.406  1.00  0.00    -0.379 N 
HETATM   10  C7  UNL     1      12.410   9.450  19.442  1.00  0.00     0.123 C 
HETATM   11  C6  UNL     1      11.474  10.614  19.593  1.00  0.00     0.021 C 
HETATM   12  C5  UNL     1      11.162  11.377  18.346  1.00  0.00     0.013 C 
HETATM   13  C4  UNL     1      12.265  11.416  17.331  1.00  0.00     0.041 C 
HETATM   14  C28 UNL     1      13.544  11.010  18.116  1.00  0.00     0.132 C 
BRANCH  13  15
HETATM   15  C3  UNL     1      12.456  12.724  16.674  1.00  0.00     0.061 C 
BRANCH  15  16
HETATM   16  N1  UNL     1      12.667  12.792  15.299  1.00  0.00    -0.402 N 
ATOM     17  H1  UNL     1      12.648  13.705  14.844  1.00  0.00     0.158 HD
BRANCH  16  18
HETATM   18  C2  UNL     1      12.905  11.657  14.520  1.00  0.00     0.114 C 
HETATM   19  C1  UNL     1      12.712  12.010  13.021  1.00  0.00     0.026 C 
ENDBRANCH  16  18
ENDBRANCH  15  16
ENDBRANCH  13  15
ENDBRANCH   8   9
BRANCH   8  20
HETATM   20  C9  UNL     1      14.213   7.603  17.346  1.00  0.00     0.063 C 
BRANCH  20  21
HETATM   21  C10 UNL     1      14.180   8.006  15.894  1.00  0.00     0.008 C 
BRANCH  21  22
HETATM   22  C11 UNL     1      14.848   6.887  15.093  1.00  0.00     0.020 C 
BRANCH  22  23
HETATM   23  C12 UNL     1      15.917   7.453  14.219  1.00  0.00     0.122 C 
BRANCH  23  24
HETATM   24  N3  UNL     1      15.278   8.369  13.262  1.00  0.00    -0.367 N 
HETATM   25  C13 UNL     1      15.942   9.195  12.559  1.00  0.00     0.196 C 
HETATM   26  N4  UNL     1      15.254  10.045  11.658  1.00  0.00    -0.067 NA
HETATM   27  N5  UNL     1      17.367   9.249  12.688  1.00  0.00    -0.067 NA
ATOM     28  H3  UNL     1      14.263   8.342  13.157  1.00  0.00     0.161 HD
ENDBRANCH  23  24
ENDBRANCH  22  23
ENDBRANCH  21  22
ENDBRANCH  20  21
ENDBRANCH   8  20
ENDBRANCH   1   8
BRANCH   7  29
HETATM   29  C19 UNL     1      15.978   5.079  18.802  1.00  0.00     0.314 C 
HETATM   30  O2  UNL     1      16.774   5.772  18.122  1.00  0.00    -0.255 OA
HETATM   31  N7  UNL     1      16.230   3.783  19.004  1.00  0.00    -0.378 NA
BRANCH  31  32
HETATM   32  C20 UNL     1      16.640   2.764  19.485  1.00  0.00     0.066 C 
BRANCH  32  33
HETATM   33  C21 UNL     1      17.935   2.231  18.891  1.00  0.00     0.068 C 
BRANCH  33  34
HETATM   34  C22 UNL     1      17.661   1.439  17.676  1.00  0.00     0.008 C 
BRANCH  34  35
HETATM   35  C23 UNL     1      17.639   2.155  16.378  1.00  0.00     0.027 C 
BRANCH  35  36
HETATM   36  C24 UNL     1      16.341   1.827  15.630  1.00  0.00     0.229 C 
BRANCH  36  37
HETATM   37  N8  UNL     1      15.348   2.778  16.073  1.00  0.00    -0.079 N 
ATOM     38  H83 UNL     1      14.511   2.336  16.452  1.00  0.00     0.274 HD
ATOM     39  H82 UNL     1      15.623   3.281  16.918  1.00  0.00     0.274 HD
ATOM     40  H81 UNL     1      15.154   3.394  15.284  1.00  0.00     0.274 HD
ENDBRANCH  36  37
ENDBRANCH  35  36
ENDBRANCH  34  35
ENDBRANCH  33  34
ENDBRANCH  32  33
BRANCH  32  41
HETATM   41  C25 UNL     1      15.994   1.945  20.565  1.00  0.00     0.077 C 
BRANCH  41  42
HETATM   42  C26 UNL     1      14.566   1.607  20.312  1.00  0.00     0.106 C 
BRANCH  42  43
HETATM   43  C27 UNL     1      14.497   0.682  19.125  1.00  0.00     0.231 C 
HETATM   44  N9  UNL     1      15.094  -0.597  19.233  1.00  0.00    -0.062 NA
HETATM   45  O3  UNL     1      13.938   0.993  18.061  1.00  0.00    -0.277 OA
ENDBRANCH  42  43
ENDBRANCH  41  42
ENDBRANCH  32  41
ENDBRANCH  31  32
ENDBRANCH   7  29
TORSDOF 20
ENDMDL
