MODEL 1
REMARK VINA RESULT: -9.371628859      0.000      0.000
REMARK  9 active torsions:
REMARK  status: ('A' for Active; 'I' for Inactive)
REMARK    1  A    between atoms: N1_2  and  N2_3 
REMARK    2  A    between atoms: N2_3  and  S1_5 
REMARK    3  A    between atoms: S1_5  and  C2_8 
REMARK    4  A    between atoms: C5_14  and  C6_15 
REMARK       I    between atoms: C6_15  and  N5_17 
REMARK    5  A    between atoms: N5_17  and  N6_19 
REMARK    6  A    between atoms: C7_21  and  C8_22 
REMARK    7  A    between atoms: C9_23  and  O4_24 
REMARK    8  A    between atoms: C11_29  and  O7_30 
REMARK    9  A    between atoms: C12_32  and  O8_33 
ROOT
HETATM    1  C2  UNL     1       6.201 -11.142 -17.538  1.00  0.00     0.169 A 
HETATM    2  C3  UNL     1       6.644  -9.876 -17.197  1.00  0.00     0.097 A 
HETATM    3  C4  UNL     1       7.891  -9.647 -17.767  1.00  0.00     0.147 A 
HETATM    4  N3  UNL     1       8.163 -10.792 -18.441  1.00  0.00    -0.215 N 
HETATM    5  N4  UNL     1       7.178 -11.657 -18.305  1.00  0.00    -0.278 N 
ATOM      6  H4  UNL     1       7.160 -12.587 -18.723  1.00  0.00     0.188 HD
HETATM    7  C5  UNL     1       9.398 -10.907 -19.163  1.00  0.00     0.215 A 
HETATM    8  N7  UNL     1      10.254  -9.933 -19.178  1.00  0.00    -0.265 N 
ATOM      9  H7  UNL     1      11.123 -10.045 -19.701  1.00  0.00     0.190 HD
HETATM   10  N8  UNL     1      10.014  -8.715 -18.487  1.00  0.00    -0.239 N 
ATOM     11  H8  UNL     1      10.696  -7.957 -18.508  1.00  0.00     0.208 HD
HETATM   12  N9  UNL     1       8.824  -8.584 -17.783  1.00  0.00    -0.269 N 
ATOM     13  H9  UNL     1       8.623  -7.722 -17.277  1.00  0.00     0.190 HD
ENDROOT
BRANCH   7  14
HETATM   14  C6  UNL     1       9.674 -12.139 -19.879  1.00  0.00     0.307 C 
HETATM   15  O3  UNL     1       8.882 -13.109 -19.834  1.00  0.00    -0.262 OA
HETATM   16  N5  UNL     1      10.858 -12.251 -20.644  1.00  0.00    -0.264 N 
ATOM     17  H5  UNL     1      11.497 -11.457 -20.677  1.00  0.00     0.190 HD
BRANCH  16  18
HETATM   18  N6  UNL     1      11.187 -13.410 -21.360  1.00  0.00    -0.308 N 
HETATM   19  C7  UNL     1      10.948 -13.431 -22.622  1.00  0.00     0.126 C 
ATOM     20  H6  UNL     1      11.605 -14.214 -20.891  1.00  0.00     0.186 HD
BRANCH  19  21
HETATM   21  C8  UNL     1      11.280 -14.616 -23.376  1.00  0.00     0.075 A 
HETATM   22  C9  UNL     1      10.298 -15.165 -24.213  1.00  0.00     0.201 A 
HETATM   23  O5  UNL     1      10.636 -16.239 -24.880  1.00  0.00    -0.249 OA
HETATM   24  C10 UNL     1      11.803 -16.818 -24.816  1.00  0.00     0.326 A 
HETATM   25  O6  UNL     1      12.094 -17.856 -25.477  1.00  0.00    -0.256 OA
HETATM   26  C11 UNL     1      12.800 -16.309 -24.004  1.00  0.00     0.176 A 
HETATM   27  C12 UNL     1      12.521 -15.178 -23.269  1.00  0.00     0.121 A 
BRANCH  22  28
HETATM   28  O4  UNL     1       9.036 -14.592 -24.322  1.00  0.00    -0.340 OA
ATOM     29  H4  UNL     1       8.311 -15.062 -24.715  1.00  0.00     0.220 HD
ENDBRANCH  22  28
BRANCH  26  30
HETATM   30  O7  UNL     1      14.041 -16.926 -23.937  1.00  0.00    -0.353 OA
ATOM     31  H7  UNL     1      14.812 -16.502 -24.294  1.00  0.00     0.218 HD
ENDBRANCH  26  30
BRANCH  27  32
HETATM   32  O8  UNL     1      13.506 -14.655 -22.448  1.00  0.00    -0.357 OA
ATOM     33  H8  UNL     1      13.520 -13.741 -22.187  1.00  0.00     0.218 HD
ENDBRANCH  27  32
ENDBRANCH  19  21
ENDBRANCH  16  18
ENDBRANCH   7  14
BRANCH   1  34
HETATM   34  S1  UNL     1       4.692 -11.894 -17.067  1.00  0.00     0.290 S 
HETATM   35  O1  UNL     1       4.610 -13.307 -17.615  1.00  0.00    -0.198 OA
HETATM   36  O2  UNL     1       3.547 -11.064 -17.565  1.00  0.00    -0.198 OA
BRANCH  34  37
HETATM   37  N2  UNL     1       4.594 -12.009 -15.350  1.00  0.00    -0.226 N 
ATOM     38  H2  UNL     1       4.011 -11.436 -14.740  1.00  0.00     0.195 HD
BRANCH  37  39
HETATM   39  N1  UNL     1       5.461 -13.031 -14.944  1.00  0.00    -0.136 NA
HETATM   40  C1  UNL     1       4.751 -14.052 -14.236  1.00  0.00     0.159 C 
ENDBRANCH  37  39
ENDBRANCH  34  37
ENDBRANCH   1  34
TORSDOF 9
ENDMDL
MODEL 2
REMARK VINA RESULT: -9.324681113      1.686      1.900
REMARK  9 active torsions:
REMARK  status: ('A' for Active; 'I' for Inactive)
REMARK    1  A    between atoms: N1_2  and  N2_3 
REMARK    2  A    between atoms: N2_3  and  S1_5 
REMARK    3  A    between atoms: S1_5  and  C2_8 
REMARK    4  A    between atoms: C5_14  and  C6_15 
REMARK       I    between atoms: C6_15  and  N5_17 
REMARK    5  A    between atoms: N5_17  and  N6_19 
REMARK    6  A    between atoms: C7_21  and  C8_22 
REMARK    7  A    between atoms: C9_23  and  O4_24 
REMARK    8  A    between atoms: C11_29  and  O7_30 
REMARK    9  A    between atoms: C12_32  and  O8_33 
ROOT
HETATM    1  C2  UNL     1       7.413 -10.643 -17.800  1.00  0.00     0.169 A 
HETATM    2  C3  UNL     1       7.833  -9.330 -17.680  1.00  0.00     0.097 A 
HETATM    3  C4  UNL     1       9.064  -9.172 -18.304  1.00  0.00     0.147 A 
HETATM    4  N3  UNL     1       9.352 -10.406 -18.787  1.00  0.00    -0.215 N 
HETATM    5  N4  UNL     1       8.389 -11.257 -18.492  1.00  0.00    -0.278 N 
ATOM      6  H4  UNL     1       8.386 -12.243 -18.752  1.00  0.00     0.188 HD
HETATM    7  C5  UNL     1      10.577 -10.613 -19.505  1.00  0.00     0.215 A 
HETATM    8  N7  UNL     1      11.410  -9.638 -19.697  1.00  0.00    -0.265 N 
ATOM      9  H7  UNL     1      12.272  -9.817 -20.212  1.00  0.00     0.190 HD
HETATM   10  N8  UNL     1      11.153  -8.328 -19.210  1.00  0.00    -0.239 N 
ATOM     11  H8  UNL     1      11.817  -7.570 -19.368  1.00  0.00     0.208 HD
HETATM   12  N9  UNL     1       9.972  -8.108 -18.512  1.00  0.00    -0.269 N 
ATOM     13  H9  UNL     1       9.759  -7.178 -18.150  1.00  0.00     0.190 HD
ENDROOT
BRANCH   7  14
HETATM   14  C6  UNL     1      10.870 -11.941 -20.016  1.00  0.00     0.307 C 
HETATM   15  O3  UNL     1      11.053 -12.909 -19.242  1.00  0.00    -0.262 OA
HETATM   16  N5  UNL     1      10.950 -12.149 -21.412  1.00  0.00    -0.264 N 
ATOM     17  H5  UNL     1      10.799 -11.356 -22.036  1.00  0.00     0.190 HD
BRANCH  16  18
HETATM   18  N6  UNL     1      11.229 -13.403 -21.973  1.00  0.00    -0.308 N 
HETATM   19  C7  UNL     1      10.803 -13.644 -23.160  1.00  0.00     0.126 C 
ATOM     20  H6  UNL     1      11.756 -14.104 -21.452  1.00  0.00     0.186 HD
BRANCH  19  21
HETATM   21  C8  UNL     1      11.080 -14.929 -23.755  1.00  0.00     0.075 A 
HETATM   22  C9  UNL     1      10.024 -15.617 -24.368  1.00  0.00     0.201 A 
HETATM   23  O5  UNL     1      10.314 -16.779 -24.896  1.00  0.00    -0.249 OA
HETATM   24  C10 UNL     1      11.498 -17.325 -24.887  1.00  0.00     0.326 A 
HETATM   25  O6  UNL     1      11.741 -18.451 -25.408  1.00  0.00    -0.256 OA
HETATM   26  C11 UNL     1      12.568 -16.680 -24.293  1.00  0.00     0.176 A 
HETATM   27  C12 UNL     1      12.343 -15.451 -23.716  1.00  0.00     0.121 A 
BRANCH  22  28
HETATM   28  O4  UNL     1       8.740 -15.084 -24.409  1.00  0.00    -0.340 OA
ATOM     29  H4  UNL     1       8.084 -15.420 -25.008  1.00  0.00     0.220 HD
ENDBRANCH  22  28
BRANCH  26  30
HETATM   30  O7  UNL     1      13.827 -17.263 -24.285  1.00  0.00    -0.353 OA
ATOM     31  H7  UNL     1      14.302 -17.377 -23.470  1.00  0.00     0.218 HD
ENDBRANCH  26  30
BRANCH  27  32
HETATM   32  O8  UNL     1      13.402 -14.790 -23.115  1.00  0.00    -0.357 OA
ATOM     33  H8  UNL     1      13.987 -14.219 -23.599  1.00  0.00     0.218 HD
ENDBRANCH  27  32
ENDBRANCH  19  21
ENDBRANCH  16  18
ENDBRANCH   7  14
BRANCH   1  34
HETATM   34  S1  UNL     1       5.931 -11.338 -17.183  1.00  0.00     0.290 S 
HETATM   35  O1  UNL     1       6.064 -11.642 -15.701  1.00  0.00    -0.198 OA
HETATM   36  O2  UNL     1       5.606 -12.583 -17.953  1.00  0.00    -0.198 OA
BRANCH  34  37
HETATM   37  N2  UNL     1       4.630 -10.218 -17.356  1.00  0.00    -0.226 N 
ATOM     38  H2  UNL     1       4.015 -10.131 -18.165  1.00  0.00     0.195 HD
BRANCH  37  39
HETATM   39  N1  UNL     1       4.573  -9.452 -16.186  1.00  0.00    -0.136 NA
HETATM   40  C1  UNL     1       4.561  -8.055 -16.490  1.00  0.00     0.159 C 
ENDBRANCH  37  39
ENDBRANCH  34  37
ENDBRANCH   1  34
TORSDOF 9
ENDMDL
MODEL 3
REMARK VINA RESULT: -9.315678595      1.761      2.604
REMARK  9 active torsions:
REMARK  status: ('A' for Active; 'I' for Inactive)
REMARK    1  A    between atoms: N1_2  and  N2_3 
REMARK    2  A    between atoms: N2_3  and  S1_5 
REMARK    3  A    between atoms: S1_5  and  C2_8 
REMARK    4  A    between atoms: C5_14  and  C6_15 
REMARK       I    between atoms: C6_15  and  N5_17 
REMARK    5  A    between atoms: N5_17  and  N6_19 
REMARK    6  A    between atoms: C7_21  and  C8_22 
REMARK    7  A    between atoms: C9_23  and  O4_24 
REMARK    8  A    between atoms: C11_29  and  O7_30 
REMARK    9  A    between atoms: C12_32  and  O8_33 
ROOT
HETATM    1  C2  UNL     1       7.461 -10.592 -17.790  1.00  0.00     0.169 A 
HETATM    2  C3  UNL     1       7.879  -9.276 -17.695  1.00  0.00     0.097 A 
HETATM    3  C4  UNL     1       9.116  -9.132 -18.311  1.00  0.00     0.147 A 
HETATM    4  N3  UNL     1       9.408 -10.376 -18.763  1.00  0.00    -0.215 N 
HETATM    5  N4  UNL     1       8.443 -11.221 -18.458  1.00  0.00    -0.278 N 
ATOM      6  H4  UNL     1       8.443 -12.212 -18.696  1.00  0.00     0.188 HD
HETATM    7  C5  UNL     1      10.640 -10.599 -19.465  1.00  0.00     0.215 A 
HETATM    8  N7  UNL     1      11.475  -9.628 -19.671  1.00  0.00    -0.265 N 
ATOM      9  H7  UNL     1      12.342  -9.817 -20.173  1.00  0.00     0.190 HD
HETATM   10  N8  UNL     1      11.214  -8.307 -19.215  1.00  0.00    -0.239 N 
ATOM     11  H8  UNL     1      11.879  -7.553 -19.384  1.00  0.00     0.208 HD
HETATM   12  N9  UNL     1      10.026  -8.072 -18.534  1.00  0.00    -0.269 N 
ATOM     13  H9  UNL     1       9.810  -7.134 -18.195  1.00  0.00     0.190 HD
ENDROOT
BRANCH   7  14
HETATM   14  C6  UNL     1      10.938 -11.937 -19.943  1.00  0.00     0.307 C 
HETATM   15  O3  UNL     1      11.215 -12.865 -19.147  1.00  0.00    -0.262 OA
HETATM   16  N5  UNL     1      10.917 -12.203 -21.331  1.00  0.00    -0.264 N 
ATOM     17  H5  UNL     1      10.690 -11.443 -21.973  1.00  0.00     0.190 HD
BRANCH  16  18
HETATM   18  N6  UNL     1      11.195 -13.470 -21.861  1.00  0.00    -0.308 N 
HETATM   19  C7  UNL     1      10.911 -13.686 -23.095  1.00  0.00     0.126 C 
ATOM     20  H6  UNL     1      11.611 -14.201 -21.283  1.00  0.00     0.186 HD
BRANCH  19  21
HETATM   21  C8  UNL     1      11.190 -14.985 -23.659  1.00  0.00     0.075 A 
HETATM   22  C9  UNL     1      12.481 -15.510 -23.504  1.00  0.00     0.201 A 
HETATM   23  O5  UNL     1      12.696 -16.690 -24.029  1.00  0.00    -0.249 OA
HETATM   24  C10 UNL     1      11.805 -17.392 -24.673  1.00  0.00     0.326 A 
HETATM   25  O6  UNL     1      12.050 -18.529 -25.166  1.00  0.00    -0.256 OA
HETATM   26  C11 UNL     1      10.520 -16.911 -24.847  1.00  0.00     0.176 A 
HETATM   27  C12 UNL     1      10.215 -15.675 -24.322  1.00  0.00     0.121 A 
BRANCH  22  28
HETATM   28  O4  UNL     1      13.472 -14.808 -22.828  1.00  0.00    -0.340 OA
ATOM     29  H4  UNL     1      14.226 -15.251 -22.456  1.00  0.00     0.220 HD
ENDBRANCH  22  28
BRANCH  26  30
HETATM   30  O7  UNL     1       9.573 -17.659 -25.532  1.00  0.00    -0.353 OA
ATOM     31  H7  UNL     1       8.795 -17.246 -25.888  1.00  0.00     0.218 HD
ENDBRANCH  26  30
BRANCH  27  32
HETATM   32  O8  UNL     1       8.933 -15.176 -24.488  1.00  0.00    -0.357 OA
ATOM     33  H8  UNL     1       8.474 -15.217 -25.319  1.00  0.00     0.218 HD
ENDBRANCH  27  32
ENDBRANCH  19  21
ENDBRANCH  16  18
ENDBRANCH   7  14
BRANCH   1  34
HETATM   34  S1  UNL     1       5.973 -11.272 -17.171  1.00  0.00     0.290 S 
HETATM   35  O1  UNL     1       6.101 -11.568 -15.687  1.00  0.00    -0.198 OA
HETATM   36  O2  UNL     1       5.641 -12.520 -17.934  1.00  0.00    -0.198 OA
BRANCH  34  37
HETATM   37  N2  UNL     1       4.680 -10.146 -17.354  1.00  0.00    -0.226 N 
ATOM     38  H2  UNL     1       4.085 -10.040 -18.176  1.00  0.00     0.195 HD
BRANCH  37  39
HETATM   39  N1  UNL     1       4.595  -9.403 -16.170  1.00  0.00    -0.136 NA
HETATM   40  C1  UNL     1       4.652  -8.000 -16.441  1.00  0.00     0.159 C 
ENDBRANCH  37  39
ENDBRANCH  34  37
ENDBRANCH   1  34
TORSDOF 9
ENDMDL
MODEL 4
REMARK VINA RESULT: -9.238785233      0.496      1.725
REMARK  9 active torsions:
REMARK  status: ('A' for Active; 'I' for Inactive)
REMARK    1  A    between atoms: N1_2  and  N2_3 
REMARK    2  A    between atoms: N2_3  and  S1_5 
REMARK    3  A    between atoms: S1_5  and  C2_8 
REMARK    4  A    between atoms: C5_14  and  C6_15 
REMARK       I    between atoms: C6_15  and  N5_17 
REMARK    5  A    between atoms: N5_17  and  N6_19 
REMARK    6  A    between atoms: C7_21  and  C8_22 
REMARK    7  A    between atoms: C9_23  and  O4_24 
REMARK    8  A    between atoms: C11_29  and  O7_30 
REMARK    9  A    between atoms: C12_32  and  O8_33 
ROOT
HETATM    1  C2  UNL     1       6.175 -11.119 -17.590  1.00  0.00     0.169 A 
HETATM    2  C3  UNL     1       6.601  -9.830 -17.324  1.00  0.00     0.097 A 
HETATM    3  C4  UNL     1       7.848  -9.620 -17.900  1.00  0.00     0.147 A 
HETATM    4  N3  UNL     1       8.137 -10.799 -18.503  1.00  0.00    -0.215 N 
HETATM    5  N4  UNL     1       7.162 -11.667 -18.320  1.00  0.00    -0.278 N 
ATOM      6  H4  UNL     1       7.158 -12.620 -18.682  1.00  0.00     0.188 HD
HETATM    7  C5  UNL     1       9.377 -10.942 -19.212  1.00  0.00     0.215 A 
HETATM    8  N7  UNL     1      10.221  -9.960 -19.282  1.00  0.00    -0.265 N 
ATOM      9  H7  UNL     1      11.094 -10.092 -19.794  1.00  0.00     0.190 HD
HETATM   10  N8  UNL     1       9.963  -8.705 -18.666  1.00  0.00    -0.239 N 
ATOM     11  H8  UNL     1      10.636  -7.941 -18.730  1.00  0.00     0.208 HD
HETATM   12  N9  UNL     1       8.767  -8.548 -17.976  1.00  0.00    -0.269 N 
ATOM     13  H9  UNL     1       8.553  -7.659 -17.524  1.00  0.00     0.190 HD
ENDROOT
BRANCH   7  14
HETATM   14  C6  UNL     1       9.673 -12.211 -19.852  1.00  0.00     0.307 C 
HETATM   15  O3  UNL     1       8.850 -13.157 -19.828  1.00  0.00    -0.262 OA
HETATM   16  N5  UNL     1      10.908 -12.388 -20.515  1.00  0.00    -0.264 N 
ATOM     17  H5  UNL     1      11.571 -11.613 -20.530  1.00  0.00     0.190 HD
BRANCH  16  18
HETATM   18  N6  UNL     1      11.258 -13.585 -21.153  1.00  0.00    -0.308 N 
HETATM   19  C7  UNL     1      11.270 -13.606 -22.437  1.00  0.00     0.126 C 
ATOM     20  H6  UNL     1      11.496 -14.417 -20.612  1.00  0.00     0.186 HD
BRANCH  19  21
HETATM   21  C8  UNL     1      11.628 -14.831 -23.112  1.00  0.00     0.075 A 
HETATM   22  C9  UNL     1      12.821 -15.467 -22.740  1.00  0.00     0.201 A 
HETATM   23  O5  UNL     1      13.112 -16.575 -23.374  1.00  0.00    -0.249 OA
HETATM   24  C10 UNL     1      12.379 -17.111 -24.310  1.00  0.00     0.326 A 
HETATM   25  O6  UNL     1      12.693 -18.183 -24.901  1.00  0.00    -0.256 OA
HETATM   26  C11 UNL     1      11.195 -16.516 -24.707  1.00  0.00     0.176 A 
HETATM   27  C12 UNL     1      10.819 -15.346 -24.085  1.00  0.00     0.121 A 
BRANCH  22  28
HETATM   28  O4  UNL     1      13.643 -14.943 -21.749  1.00  0.00    -0.340 OA
ATOM     29  H4  UNL     1      14.468 -14.524 -21.961  1.00  0.00     0.220 HD
ENDBRANCH  22  28
BRANCH  26  30
HETATM   30  O7  UNL     1      10.417 -17.087 -25.703  1.00  0.00    -0.353 OA
ATOM     31  H7  UNL     1       9.629 -16.654 -26.010  1.00  0.00     0.218 HD
ENDBRANCH  26  30
BRANCH  27  32
HETATM   32  O8  UNL     1       9.637 -14.735 -24.470  1.00  0.00    -0.357 OA
ATOM     33  H8  UNL     1       9.146 -15.011 -25.235  1.00  0.00     0.218 HD
ENDBRANCH  27  32
ENDBRANCH  19  21
ENDBRANCH  16  18
ENDBRANCH   7  14
BRANCH   1  34
HETATM   34  S1  UNL     1       4.674 -11.860 -17.081  1.00  0.00     0.290 S 
HETATM   35  O1  UNL     1       4.571 -13.275 -17.621  1.00  0.00    -0.198 OA
HETATM   36  O2  UNL     1       3.522 -11.026 -17.556  1.00  0.00    -0.198 OA
BRANCH  34  37
HETATM   37  N2  UNL     1       4.614 -11.967 -15.361  1.00  0.00    -0.226 N 
ATOM     38  H2  UNL     1       4.063 -11.375 -14.740  1.00  0.00     0.195 HD
BRANCH  37  39
HETATM   39  N1  UNL     1       5.459 -13.014 -14.973  1.00  0.00    -0.136 NA
HETATM   40  C1  UNL     1       4.736 -14.012 -14.248  1.00  0.00     0.159 C 
ENDBRANCH  37  39
ENDBRANCH  34  37
ENDBRANCH   1  34
TORSDOF 9
ENDMDL
MODEL 5
REMARK VINA RESULT: -8.950095526      1.291      2.246
REMARK  9 active torsions:
REMARK  status: ('A' for Active; 'I' for Inactive)
REMARK    1  A    between atoms: N1_2  and  N2_3 
REMARK    2  A    between atoms: N2_3  and  S1_5 
REMARK    3  A    between atoms: S1_5  and  C2_8 
REMARK    4  A    between atoms: C5_14  and  C6_15 
REMARK       I    between atoms: C6_15  and  N5_17 
REMARK    5  A    between atoms: N5_17  and  N6_19 
REMARK    6  A    between atoms: C7_21  and  C8_22 
REMARK    7  A    between atoms: C9_23  and  O4_24 
REMARK    8  A    between atoms: C11_29  and  O7_30 
REMARK    9  A    between atoms: C12_32  and  O8_33 
ROOT
HETATM    1  C2  UNL     1       7.180 -10.556 -17.488  1.00  0.00     0.169 A 
HETATM    2  C3  UNL     1       7.725  -9.285 -17.427  1.00  0.00     0.097 A 
HETATM    3  C4  UNL     1       8.866  -9.225 -18.217  1.00  0.00     0.147 A 
HETATM    4  N3  UNL     1       8.975 -10.472 -18.737  1.00  0.00    -0.215 N 
HETATM    5  N4  UNL     1       7.993 -11.242 -18.310  1.00  0.00    -0.278 N 
ATOM      6  H4  UNL     1       7.869 -12.221 -18.568  1.00  0.00     0.188 HD
HETATM    7  C5  UNL     1      10.065 -10.774 -19.620  1.00  0.00     0.215 A 
HETATM    8  N7  UNL     1      10.944  -9.872 -19.926  1.00  0.00    -0.265 N 
ATOM      9  H7  UNL     1      11.708 -10.116 -20.557  1.00  0.00     0.190 HD
HETATM   10  N8  UNL     1      10.873  -8.551 -19.406  1.00  0.00    -0.239 N 
ATOM     11  H8  UNL     1      11.571  -7.850 -19.655  1.00  0.00     0.208 HD
HETATM   12  N9  UNL     1       9.824  -8.239 -18.550  1.00  0.00    -0.269 N 
ATOM     13  H9  UNL     1       9.745  -7.300 -18.161  1.00  0.00     0.190 HD
ENDROOT
BRANCH   7  14
HETATM   14  C6  UNL     1      10.168 -12.115 -20.168  1.00  0.00     0.307 C 
HETATM   15  O3  UNL     1       9.389 -13.027 -19.805  1.00  0.00    -0.262 OA
HETATM   16  N5  UNL     1      11.164 -12.401 -21.130  1.00  0.00    -0.264 N 
ATOM     17  H5  UNL     1      11.794 -11.653 -21.420  1.00  0.00     0.190 HD
BRANCH  16  18
HETATM   18  N6  UNL     1      11.320 -13.672 -21.699  1.00  0.00    -0.308 N 
HETATM   19  C7  UNL     1      11.255 -13.775 -22.978  1.00  0.00     0.126 C 
ATOM     20  H6  UNL     1      11.481 -14.492 -21.115  1.00  0.00     0.186 HD
BRANCH  19  21
HETATM   21  C8  UNL     1      11.413 -15.075 -23.583  1.00  0.00     0.075 A 
HETATM   22  C9  UNL     1      12.656 -15.713 -23.465  1.00  0.00     0.201 A 
HETATM   23  O5  UNL     1      12.762 -16.891 -24.027  1.00  0.00    -0.249 OA
HETATM   24  C10 UNL     1      11.804 -17.494 -24.676  1.00  0.00     0.326 A 
HETATM   25  O6  UNL     1      11.944 -18.633 -25.206  1.00  0.00    -0.256 OA
HETATM   26  C11 UNL     1      10.563 -16.900 -24.815  1.00  0.00     0.176 A 
HETATM   27  C12 UNL     1      10.373 -15.659 -24.250  1.00  0.00     0.121 A 
BRANCH  22  28
HETATM   28  O4  UNL     1      13.714 -15.119 -22.786  1.00  0.00    -0.340 OA
ATOM     29  H4  UNL     1      13.567 -14.433 -22.145  1.00  0.00     0.220 HD
ENDBRANCH  22  28
BRANCH  26  30
HETATM   30  O7  UNL     1       9.546 -17.544 -25.505  1.00  0.00    -0.353 OA
ATOM     31  H7  UNL     1       9.727 -18.324 -26.016  1.00  0.00     0.218 HD
ENDBRANCH  26  30
BRANCH  27  32
HETATM   32  O8  UNL     1       9.137 -15.048 -24.380  1.00  0.00    -0.357 OA
ATOM     33  H8  UNL     1       8.886 -14.290 -23.865  1.00  0.00     0.218 HD
ENDBRANCH  27  32
ENDBRANCH  19  21
ENDBRANCH  16  18
ENDBRANCH   7  14
BRANCH   1  34
HETATM   34  S1  UNL     1       5.744 -11.129 -16.669  1.00  0.00     0.290 S 
HETATM   35  O1  UNL     1       4.765  -9.989 -16.455  1.00  0.00    -0.198 OA
HETATM   36  O2  UNL     1       6.132 -11.749 -15.360  1.00  0.00    -0.198 OA
BRANCH  34  37
HETATM   37  N2  UNL     1       4.942 -12.314 -17.632  1.00  0.00    -0.226 N 
ATOM     38  H2  UNL     1       4.682 -12.217 -18.613  1.00  0.00     0.195 HD
BRANCH  37  39
HETATM   39  N1  UNL     1       4.713 -13.433 -16.822  1.00  0.00    -0.136 NA
HETATM   40  C1  UNL     1       3.339 -13.509 -16.431  1.00  0.00     0.159 C 
ENDBRANCH  37  39
ENDBRANCH  34  37
ENDBRANCH   1  34
TORSDOF 9
ENDMDL
