MODEL 1
REMARK VINA RESULT: -8.874058701      0.000      0.000
REMARK  13 active torsions:
REMARK  status: ('A' for Active; 'I' for Inactive)
REMARK    1  A    between atoms: O1_2  and  N1_3 
REMARK    2  A    between atoms: N1_3  and  N2_5 
REMARK    3  A    between atoms: C2_6  and  N3_7 
REMARK    4  A    between atoms: N3_7  and  C3_9 
REMARK    5  A    between atoms: C3_9  and  O2_10 
REMARK    6  A    between atoms: C3_9  and  C4_12 
REMARK    7  A    between atoms: C6_20  and  O5_21 
REMARK    8  A    between atoms: C8_25  and  O7_26 
REMARK    9  A    between atoms: C9_28  and  C10_29 
REMARK   10  A    between atoms: C10_29  and  O9_37 
REMARK   11  A    between atoms: N6_30  and  N7_32 
REMARK       I    between atoms: N7_32  and  C11_34 
REMARK   12  A    between atoms: O9_37  and  N8_38 
REMARK   13  A    between atoms: N9_40  and  N10_42 
ROOT
HETATM    1  N2  UNL     1       8.575 -11.688 -19.279  1.00  0.00    -0.210 N 
HETATM    2  C2  UNL     1       7.776 -10.779 -18.601  1.00  0.00     0.169 A 
HETATM    3  C6  UNL     1       8.299  -9.586 -18.236  1.00  0.00     0.165 A 
HETATM    4  C7  UNL     1       9.648  -9.279 -18.535  1.00  0.00     0.244 A 
HETATM    5  O6  UNL     1      10.102  -8.162 -18.176  1.00  0.00    -0.282 OA
HETATM    6  C8  UNL     1      10.432 -10.187 -19.202  1.00  0.00     0.152 A 
HETATM    7  C9  UNL     1       9.860 -11.386 -19.561  1.00  0.00     0.152 A 
ENDROOT
BRANCH   7   8
HETATM    8  C10 UNL     1      10.672 -12.372 -20.242  1.00  0.00     0.218 C 
HETATM    9  N6  UNL     1      10.725 -12.368 -21.527  1.00  0.00    -0.274 N 
ATOM     10  H6  UNL     1      10.181 -11.655 -22.010  1.00  0.00     0.189 HD
BRANCH   9  11
HETATM   11  N7  UNL     1      11.452 -13.242 -22.311  1.00  0.00    -0.268 N 
HETATM   12  C11 UNL     1      10.881 -13.831 -23.468  1.00  0.00     0.232 C 
HETATM   13  C12 UNL     1      11.648 -14.773 -24.322  1.00  0.00     0.119 C 
HETATM   14  O8  UNL     1       9.700 -13.557 -23.790  1.00  0.00    -0.272 OA
ATOM     15  H7  UNL     1      12.413 -13.468 -22.053  1.00  0.00     0.190 HD
ENDBRANCH   9  11
BRANCH   8  16
HETATM   16  O9  UNL     1      11.391 -13.318 -19.565  1.00  0.00    -0.199 OA
BRANCH  16  17
HETATM   17  N8  UNL     1      12.542 -13.036 -18.872  1.00  0.00    -0.186 N 
HETATM   18  N9  UNL     1      13.305 -13.961 -18.477  1.00  0.00    -0.229 N 
ATOM     19  H9  UNL     1      14.149 -13.703 -17.966  1.00  0.00     0.209 HD
ATOM     20  H8  UNL     1      12.784 -12.065 -18.673  1.00  0.00     0.218 HD
BRANCH  18  21
HETATM   21  N10 UNL     1      13.060 -15.310 -18.698  1.00  0.00    -0.329 N 
ATOM     22 2H10 UNL     1      12.388 -15.766 -18.082  1.00  0.00     0.178 HD
ATOM     23 1H10 UNL     1      13.513 -15.855 -19.432  1.00  0.00     0.178 HD
ENDBRANCH  18  21
ENDBRANCH  16  17
ENDBRANCH   8  16
ENDBRANCH   7   8
BRANCH   1  24
HETATM   24  N1  UNL     1       7.984 -12.902 -19.636  1.00  0.00    -0.199 N 
ATOM     25  H1  UNL     1       7.558 -13.478 -18.909  1.00  0.00     0.216 HD
BRANCH  24  26
HETATM   26  O1  UNL     1       7.960 -13.333 -20.906  1.00  0.00    -0.269 OA
HETATM   27  C1  UNL     1       7.930 -14.734 -20.998  1.00  0.00     0.239 C 
ENDBRANCH  24  26
ENDBRANCH   1  24
BRANCH   6  28
HETATM   28  O7  UNL     1      11.715  -9.792 -19.441  1.00  0.00    -0.355 OA
ATOM     29  H7  UNL     1      12.333 -10.493 -19.614  1.00  0.00     0.218 HD
ENDBRANCH   6  28
BRANCH   2  30
HETATM   30  N3  UNL     1       6.428 -11.163 -18.442  1.00  0.00    -0.317 N 
ATOM     31  H3  UNL     1       6.008 -11.426 -19.335  1.00  0.00     0.169 HD
BRANCH  30  32
HETATM   32  C3  UNL     1       5.531 -11.278 -17.415  1.00  0.00     0.176 C 
BRANCH  32  33
HETATM   33  O2  UNL     1       5.858 -12.111 -16.466  1.00  0.00    -0.344 OA
ATOM     34  H2  UNL     1       5.183 -12.727 -16.206  1.00  0.00     0.219 HD
ENDBRANCH  32  33
BRANCH  32  35
HETATM   35  C4  UNL     1       4.262 -10.624 -17.162  1.00  0.00     0.177 A 
HETATM   36  N4  UNL     1       3.986  -9.325 -16.938  1.00  0.00    -0.232 N 
HETATM   37  O3  UNL     1       2.720  -9.178 -16.765  1.00  0.00    -0.153 OA
ATOM     38  H4  UNL     1       4.675  -8.574 -16.910  1.00  0.00     0.197 HD
HETATM   39  N5  UNL     1       2.098 -10.305 -16.858  1.00  0.00    -0.204 N 
HETATM   40  C5  UNL     1       3.019 -11.245 -17.106  1.00  0.00     0.299 A 
ATOM     41  H5  UNL     1       1.094 -10.452 -16.759  1.00  0.00     0.200 HD
HETATM   42  O4  UNL     1       2.765 -12.461 -17.256  1.00  0.00    -0.264 OA
ENDBRANCH  32  35
ENDBRANCH  30  32
ENDBRANCH   2  30
BRANCH   3  43
HETATM   43  O5  UNL     1       7.585  -8.616 -17.594  1.00  0.00    -0.354 OA
ATOM     44  H5  UNL     1       7.769  -8.331 -16.706  1.00  0.00     0.218 HD
ENDBRANCH   3  43
TORSDOF 13
ENDMDL
MODEL 2
REMARK VINA RESULT: -8.828914443      1.377      1.606
REMARK  13 active torsions:
REMARK  status: ('A' for Active; 'I' for Inactive)
REMARK    1  A    between atoms: O1_2  and  N1_3 
REMARK    2  A    between atoms: N1_3  and  N2_5 
REMARK    3  A    between atoms: C2_6  and  N3_7 
REMARK    4  A    between atoms: N3_7  and  C3_9 
REMARK    5  A    between atoms: C3_9  and  O2_10 
REMARK    6  A    between atoms: C3_9  and  C4_12 
REMARK    7  A    between atoms: C6_20  and  O5_21 
REMARK    8  A    between atoms: C8_25  and  O7_26 
REMARK    9  A    between atoms: C9_28  and  C10_29 
REMARK   10  A    between atoms: C10_29  and  O9_37 
REMARK   11  A    between atoms: N6_30  and  N7_32 
REMARK       I    between atoms: N7_32  and  C11_34 
REMARK   12  A    between atoms: O9_37  and  N8_38 
REMARK   13  A    between atoms: N9_40  and  N10_42 
ROOT
HETATM    1  N2  UNL     1       8.559 -11.468 -19.117  1.00  0.00    -0.210 N 
HETATM    2  C2  UNL     1       7.827 -10.513 -18.428  1.00  0.00     0.169 A 
HETATM    3  C6  UNL     1       8.410  -9.333 -18.117  1.00  0.00     0.165 A 
HETATM    4  C7  UNL     1       9.754  -9.086 -18.485  1.00  0.00     0.244 A 
HETATM    5  O6  UNL     1      10.266  -7.978 -18.176  1.00  0.00    -0.282 OA
HETATM    6  C8  UNL     1      10.472 -10.039 -19.164  1.00  0.00     0.152 A 
HETATM    7  C9  UNL     1       9.840 -11.223 -19.466  1.00  0.00     0.152 A 
ENDROOT
BRANCH   7   8
HETATM    8  C10 UNL     1      10.582 -12.255 -20.157  1.00  0.00     0.218 C 
HETATM    9  N6  UNL     1      10.582 -12.279 -21.443  1.00  0.00    -0.274 N 
ATOM     10  H6  UNL     1      10.047 -11.553 -21.919  1.00  0.00     0.189 HD
BRANCH   9  11
HETATM   11  N7  UNL     1      11.240 -13.198 -22.236  1.00  0.00    -0.268 N 
HETATM   12  C11 UNL     1      10.608 -13.764 -23.374  1.00  0.00     0.232 C 
HETATM   13  C12 UNL     1      11.299 -14.754 -24.238  1.00  0.00     0.119 C 
HETATM   14  O8  UNL     1       9.436 -13.428 -23.669  1.00  0.00    -0.272 OA
ATOM     15  H7  UNL     1      12.193 -13.474 -22.001  1.00  0.00     0.190 HD
ENDBRANCH   9  11
BRANCH   8  16
HETATM   16  O9  UNL     1      11.289 -13.217 -19.490  1.00  0.00    -0.199 OA
BRANCH  16  17
HETATM   17  N8  UNL     1      12.479 -12.970 -18.851  1.00  0.00    -0.186 N 
HETATM   18  N9  UNL     1      13.255 -13.914 -18.536  1.00  0.00    -0.229 N 
ATOM     19  H9  UNL     1      14.128 -13.682 -18.064  1.00  0.00     0.209 HD
ATOM     20  H8  UNL     1      12.740 -12.009 -18.627  1.00  0.00     0.218 HD
BRANCH  18  21
HETATM   21  N10 UNL     1      12.988 -15.251 -18.797  1.00  0.00    -0.329 N 
ATOM     22 2H10 UNL     1      12.407 -15.458 -19.610  1.00  0.00     0.178 HD
ATOM     23 1H10 UNL     1      13.337 -16.021 -18.226  1.00  0.00     0.178 HD
ENDBRANCH  18  21
ENDBRANCH  16  17
ENDBRANCH   8  16
ENDBRANCH   7   8
BRANCH   1  24
HETATM   24  N1  UNL     1       7.907 -12.667 -19.416  1.00  0.00    -0.199 N 
ATOM     25  H1  UNL     1       6.975 -12.832 -19.035  1.00  0.00     0.216 HD
BRANCH  24  26
HETATM   26  O1  UNL     1       8.470 -13.607 -20.189  1.00  0.00    -0.269 OA
HETATM   27  C1  UNL     1       7.520 -14.373 -20.884  1.00  0.00     0.239 C 
ENDBRANCH  24  26
ENDBRANCH   1  24
BRANCH   6  28
HETATM   28  O7  UNL     1      11.757  -9.699 -19.470  1.00  0.00    -0.355 OA
ATOM     29  H7  UNL     1      12.424 -10.074 -18.908  1.00  0.00     0.218 HD
ENDBRANCH   6  28
BRANCH   2  30
HETATM   30  N3  UNL     1       6.474 -10.841 -18.198  1.00  0.00    -0.317 N 
ATOM     31  H3  UNL     1       5.988 -11.049 -19.071  1.00  0.00     0.169 HD
BRANCH  30  32
HETATM   32  C3  UNL     1       5.637 -10.955 -17.121  1.00  0.00     0.176 C 
BRANCH  32  33
HETATM   33  O2  UNL     1       5.321  -9.839 -16.525  1.00  0.00    -0.344 OA
ATOM     34  H2  UNL     1       5.214  -9.889 -15.583  1.00  0.00     0.219 HD
ENDBRANCH  32  33
BRANCH  32  35
HETATM   35  C4  UNL     1       5.003 -12.106 -16.508  1.00  0.00     0.177 A 
HETATM   36  N4  UNL     1       4.517 -12.267 -15.262  1.00  0.00    -0.232 N 
HETATM   37  O3  UNL     1       4.031 -13.451 -15.139  1.00  0.00    -0.153 OA
ATOM     38  H4  UNL     1       4.531 -11.558 -14.530  1.00  0.00     0.197 HD
HETATM   39  N5  UNL     1       4.152 -14.125 -16.233  1.00  0.00    -0.204 N 
HETATM   40  C5  UNL     1       4.756 -13.327 -17.124  1.00  0.00     0.299 A 
ATOM     41  H5  UNL     1       3.847 -15.085 -16.389  1.00  0.00     0.200 HD
HETATM   42  O4  UNL     1       5.031 -13.661 -18.298  1.00  0.00    -0.264 OA
ENDBRANCH  32  35
ENDBRANCH  30  32
ENDBRANCH   2  30
BRANCH   3  43
HETATM   43  O5  UNL     1       7.764  -8.321 -17.468  1.00  0.00    -0.354 OA
ATOM     44  H5  UNL     1       7.989  -7.403 -17.571  1.00  0.00     0.218 HD
ENDBRANCH   3  43
TORSDOF 13
ENDMDL
MODEL 3
REMARK VINA RESULT: -8.703814969      1.068      1.514
REMARK  13 active torsions:
REMARK  status: ('A' for Active; 'I' for Inactive)
REMARK    1  A    between atoms: O1_2  and  N1_3 
REMARK    2  A    between atoms: N1_3  and  N2_5 
REMARK    3  A    between atoms: C2_6  and  N3_7 
REMARK    4  A    between atoms: N3_7  and  C3_9 
REMARK    5  A    between atoms: C3_9  and  O2_10 
REMARK    6  A    between atoms: C3_9  and  C4_12 
REMARK    7  A    between atoms: C6_20  and  O5_21 
REMARK    8  A    between atoms: C8_25  and  O7_26 
REMARK    9  A    between atoms: C9_28  and  C10_29 
REMARK   10  A    between atoms: C10_29  and  O9_37 
REMARK   11  A    between atoms: N6_30  and  N7_32 
REMARK       I    between atoms: N7_32  and  C11_34 
REMARK   12  A    between atoms: O9_37  and  N8_38 
REMARK   13  A    between atoms: N9_40  and  N10_42 
ROOT
HETATM    1  N2  UNL     1       8.538 -11.489 -19.163  1.00  0.00    -0.210 N 
HETATM    2  C2  UNL     1       7.788 -10.508 -18.529  1.00  0.00     0.169 A 
HETATM    3  C6  UNL     1       8.347  -9.299 -18.298  1.00  0.00     0.165 A 
HETATM    4  C7  UNL     1       9.683  -9.046 -18.690  1.00  0.00     0.244 A 
HETATM    5  O6  UNL     1      10.173  -7.910 -18.454  1.00  0.00    -0.282 OA
HETATM    6  C8  UNL     1      10.418 -10.024 -19.312  1.00  0.00     0.152 A 
HETATM    7  C9  UNL     1       9.811 -11.238 -19.535  1.00  0.00     0.152 A 
ENDROOT
BRANCH   7   8
HETATM    8  C10 UNL     1      10.571 -12.295 -20.166  1.00  0.00     0.218 C 
HETATM    9  N6  UNL     1      10.596 -12.376 -21.449  1.00  0.00    -0.274 N 
ATOM     10  H6  UNL     1      10.068 -11.675 -21.967  1.00  0.00     0.189 HD
BRANCH   9  11
HETATM   11  N7  UNL     1      11.275 -13.325 -22.188  1.00  0.00    -0.268 N 
HETATM   12  C11 UNL     1      10.688 -13.906 -23.342  1.00  0.00     0.232 C 
HETATM   13  C12 UNL     1      11.402 -14.928 -24.148  1.00  0.00     0.119 C 
HETATM   14  O8  UNL     1       9.538 -13.556 -23.701  1.00  0.00    -0.272 OA
ATOM     15  H7  UNL     1      12.210 -13.613 -21.900  1.00  0.00     0.190 HD
ENDBRANCH   9  11
BRANCH   8  16
HETATM   16  O9  UNL     1      11.271 -13.222 -19.443  1.00  0.00    -0.199 OA
BRANCH  16  17
HETATM   17  N8  UNL     1      12.458 -12.945 -18.812  1.00  0.00    -0.186 N 
HETATM   18  N9  UNL     1      13.267 -13.868 -18.517  1.00  0.00    -0.229 N 
ATOM     19  H9  UNL     1      14.137 -13.615 -18.050  1.00  0.00     0.209 HD
ATOM     20  H8  UNL     1      12.691 -11.980 -18.578  1.00  0.00     0.218 HD
BRANCH  18  21
HETATM   21  N10 UNL     1      13.039 -15.210 -18.793  1.00  0.00    -0.329 N 
ATOM     22 2H10 UNL     1      13.452 -15.584 -19.647  1.00  0.00     0.178 HD
ATOM     23 1H10 UNL     1      12.490 -15.827 -18.194  1.00  0.00     0.178 HD
ENDBRANCH  18  21
ENDBRANCH  16  17
ENDBRANCH   8  16
ENDBRANCH   7   8
BRANCH   1  24
HETATM   24  N1  UNL     1       7.911 -12.718 -19.381  1.00  0.00    -0.199 N 
ATOM     25  H1  UNL     1       8.314 -13.559 -18.969  1.00  0.00     0.216 HD
BRANCH  24  26
HETATM   26  O1  UNL     1       6.794 -12.824 -20.117  1.00  0.00    -0.269 OA
HETATM   27  C1  UNL     1       6.587 -14.127 -20.596  1.00  0.00     0.239 C 
ENDBRANCH  24  26
ENDBRANCH   1  24
BRANCH   6  28
HETATM   28  O7  UNL     1      11.694  -9.676 -19.649  1.00  0.00    -0.355 OA
ATOM     29  H7  UNL     1      12.375 -10.248 -19.315  1.00  0.00     0.218 HD
ENDBRANCH   6  28
BRANCH   2  30
HETATM   30  N3  UNL     1       6.445 -10.850 -18.270  1.00  0.00    -0.317 N 
ATOM     31  H3  UNL     1       5.866 -10.743 -19.103  1.00  0.00     0.169 HD
BRANCH  30  32
HETATM   32  C3  UNL     1       5.708 -11.288 -17.203  1.00  0.00     0.176 C 
BRANCH  32  33
HETATM   33  O2  UNL     1       5.631 -12.582 -17.057  1.00  0.00    -0.344 OA
ATOM     34  H2  UNL     1       4.837 -12.988 -17.384  1.00  0.00     0.219 HD
ENDBRANCH  32  33
BRANCH  32  35
HETATM   35  C4  UNL     1       4.991 -10.573 -16.164  1.00  0.00     0.177 A 
HETATM   36  N4  UNL     1       3.689 -10.617 -15.823  1.00  0.00    -0.232 N 
HETATM   37  O3  UNL     1       3.476  -9.822 -14.835  1.00  0.00    -0.153 OA
ATOM     38  H4  UNL     1       2.981 -11.193 -16.277  1.00  0.00     0.197 HD
HETATM   39  N5  UNL     1       4.561  -9.225 -14.469  1.00  0.00    -0.204 N 
HETATM   40  C5  UNL     1       5.542  -9.662 -15.271  1.00  0.00     0.299 A 
ATOM     41  H5  UNL     1       4.654  -8.549 -13.712  1.00  0.00     0.200 HD
HETATM   42  O4  UNL     1       6.733  -9.290 -15.196  1.00  0.00    -0.264 OA
ENDBRANCH  32  35
ENDBRANCH  30  32
ENDBRANCH   2  30
BRANCH   3  43
HETATM   43  O5  UNL     1       7.683  -8.262 -17.708  1.00  0.00    -0.354 OA
ATOM     44  H5  UNL     1       7.631  -8.140 -16.767  1.00  0.00     0.218 HD
ENDBRANCH   3  43
TORSDOF 13
ENDMDL
MODEL 4
REMARK VINA RESULT: -8.662947395      0.671      1.064
REMARK  13 active torsions:
REMARK  status: ('A' for Active; 'I' for Inactive)
REMARK    1  A    between atoms: O1_2  and  N1_3 
REMARK    2  A    between atoms: N1_3  and  N2_5 
REMARK    3  A    between atoms: C2_6  and  N3_7 
REMARK    4  A    between atoms: N3_7  and  C3_9 
REMARK    5  A    between atoms: C3_9  and  O2_10 
REMARK    6  A    between atoms: C3_9  and  C4_12 
REMARK    7  A    between atoms: C6_20  and  O5_21 
REMARK    8  A    between atoms: C8_25  and  O7_26 
REMARK    9  A    between atoms: C9_28  and  C10_29 
REMARK   10  A    between atoms: C10_29  and  O9_37 
REMARK   11  A    between atoms: N6_30  and  N7_32 
REMARK       I    between atoms: N7_32  and  C11_34 
REMARK   12  A    between atoms: O9_37  and  N8_38 
REMARK   13  A    between atoms: N9_40  and  N10_42 
ROOT
HETATM    1  N2  UNL     1       8.590 -11.594 -19.182  1.00  0.00    -0.210 N 
HETATM    2  C2  UNL     1       7.801 -10.646 -18.547  1.00  0.00     0.169 A 
HETATM    3  C6  UNL     1       8.311  -9.416 -18.311  1.00  0.00     0.165 A 
HETATM    4  C7  UNL     1       9.636  -9.108 -18.700  1.00  0.00     0.244 A 
HETATM    5  O6  UNL     1      10.079  -7.954 -18.460  1.00  0.00    -0.282 OA
HETATM    6  C8  UNL     1      10.410 -10.054 -19.325  1.00  0.00     0.152 A 
HETATM    7  C9  UNL     1       9.853 -11.291 -19.552  1.00  0.00     0.152 A 
ENDROOT
BRANCH   7   8
HETATM    8  C10 UNL     1      10.656 -12.315 -20.185  1.00  0.00     0.218 C 
HETATM    9  N6  UNL     1      10.658 -12.413 -21.467  1.00  0.00    -0.274 N 
ATOM     10  H6  UNL     1      10.081 -11.750 -21.983  1.00  0.00     0.189 HD
BRANCH   9  11
HETATM   11  N7  UNL     1      11.371 -13.335 -22.208  1.00  0.00    -0.268 N 
HETATM   12  C11 UNL     1      10.819 -13.910 -23.382  1.00  0.00     0.232 C 
HETATM   13  C12 UNL     1      11.571 -14.903 -24.190  1.00  0.00     0.119 C 
HETATM   14  O8  UNL     1       9.669 -13.580 -23.758  1.00  0.00    -0.272 OA
ATOM     15  H7  UNL     1      12.307 -13.607 -21.907  1.00  0.00     0.190 HD
ENDBRANCH   9  11
BRANCH   8  16
HETATM   16  O9  UNL     1      11.421 -13.191 -19.465  1.00  0.00    -0.199 OA
BRANCH  16  17
HETATM   17  N8  UNL     1      12.489 -12.803 -18.695  1.00  0.00    -0.186 N 
HETATM   18  N9  UNL     1      13.221 -13.658 -18.124  1.00  0.00    -0.229 N 
ATOM     19  H9  UNL     1      14.005 -13.322 -17.564  1.00  0.00     0.209 HD
ATOM     20  H8  UNL     1      12.694 -11.810 -18.584  1.00  0.00     0.218 HD
BRANCH  18  21
HETATM   21  N10 UNL     1      13.022 -15.029 -18.216  1.00  0.00    -0.329 N 
ATOM     22 2H10 UNL     1      12.267 -15.426 -17.658  1.00  0.00     0.178 HD
ATOM     23 1H10 UNL     1      13.585 -15.645 -18.802  1.00  0.00     0.178 HD
ENDBRANCH  18  21
ENDBRANCH  16  17
ENDBRANCH   8  16
ENDBRANCH   7   8
BRANCH   1  24
HETATM   24  N1  UNL     1       8.014 -12.847 -19.405  1.00  0.00    -0.199 N 
ATOM     25  H1  UNL     1       7.982 -13.520 -18.640  1.00  0.00     0.216 HD
BRANCH  24  26
HETATM   26  O1  UNL     1       7.500 -13.189 -20.596  1.00  0.00    -0.269 OA
HETATM   27  C1  UNL     1       7.776 -14.523 -20.938  1.00  0.00     0.239 C 
ENDBRANCH  24  26
ENDBRANCH   1  24
BRANCH   6  28
HETATM   28  O7  UNL     1      11.671  -9.654 -19.658  1.00  0.00    -0.355 OA
ATOM     29  H7  UNL     1      12.314  -9.704 -18.960  1.00  0.00     0.218 HD
ENDBRANCH   6  28
BRANCH   2  30
HETATM   30  N3  UNL     1       6.472 -11.043 -18.290  1.00  0.00    -0.317 N 
ATOM     31  H3  UNL     1       6.012 -11.373 -19.139  1.00  0.00     0.169 HD
BRANCH  30  32
HETATM   32  C3  UNL     1       5.633 -11.106 -17.210  1.00  0.00     0.176 C 
BRANCH  32  33
HETATM   33  O2  UNL     1       6.133 -11.646 -16.133  1.00  0.00    -0.344 OA
ATOM     34  H2  UNL     1       5.532 -12.170 -15.617  1.00  0.00     0.219 HD
ENDBRANCH  32  33
BRANCH  32  35
HETATM   35  C4  UNL     1       4.266 -10.661 -17.022  1.00  0.00     0.177 A 
HETATM   36  N4  UNL     1       3.145 -11.374 -16.800  1.00  0.00    -0.232 N 
HETATM   37  O3  UNL     1       2.143 -10.577 -16.685  1.00  0.00    -0.153 OA
ATOM     38  H4  UNL     1       3.099 -12.391 -16.734  1.00  0.00     0.197 HD
HETATM   39  N5  UNL     1       2.506  -9.345 -16.814  1.00  0.00    -0.204 N 
HETATM   40  C5  UNL     1       3.829  -9.342 -17.026  1.00  0.00     0.299 A 
ATOM     41  H5  UNL     1       1.899  -8.527 -16.764  1.00  0.00     0.200 HD
HETATM   42  O4  UNL     1       4.515  -8.310 -17.195  1.00  0.00    -0.264 OA
ENDBRANCH  32  35
ENDBRANCH  30  32
ENDBRANCH   2  30
BRANCH   3  43
HETATM   43  O5  UNL     1       7.604  -8.409 -17.719  1.00  0.00    -0.354 OA
ATOM     44  H5  UNL     1       6.928  -7.911 -18.164  1.00  0.00     0.218 HD
ENDBRANCH   3  43
TORSDOF 13
ENDMDL
MODEL 5
REMARK VINA RESULT: -8.463238821      1.341      2.197
REMARK  13 active torsions:
REMARK  status: ('A' for Active; 'I' for Inactive)
REMARK    1  A    between atoms: O1_2  and  N1_3 
REMARK    2  A    between atoms: N1_3  and  N2_5 
REMARK    3  A    between atoms: C2_6  and  N3_7 
REMARK    4  A    between atoms: N3_7  and  C3_9 
REMARK    5  A    between atoms: C3_9  and  O2_10 
REMARK    6  A    between atoms: C3_9  and  C4_12 
REMARK    7  A    between atoms: C6_20  and  O5_21 
REMARK    8  A    between atoms: C8_25  and  O7_26 
REMARK    9  A    between atoms: C9_28  and  C10_29 
REMARK   10  A    between atoms: C10_29  and  O9_37 
REMARK   11  A    between atoms: N6_30  and  N7_32 
REMARK       I    between atoms: N7_32  and  C11_34 
REMARK   12  A    between atoms: O9_37  and  N8_38 
REMARK   13  A    between atoms: N9_40  and  N10_42 
ROOT
HETATM    1  N2  UNL     1       8.576 -11.792 -19.278  1.00  0.00    -0.210 N 
HETATM    2  C2  UNL     1       7.753 -10.835 -18.703  1.00  0.00     0.169 A 
HETATM    3  C6  UNL     1       8.254  -9.606 -18.442  1.00  0.00     0.165 A 
HETATM    4  C7  UNL     1       9.605  -9.309 -18.745  1.00  0.00     0.244 A 
HETATM    5  O6  UNL     1      10.038  -8.156 -18.485  1.00  0.00    -0.282 OA
HETATM    6  C8  UNL     1      10.412 -10.264 -19.311  1.00  0.00     0.152 A 
HETATM    7  C9  UNL     1       9.862 -11.499 -19.566  1.00  0.00     0.152 A 
ENDROOT
BRANCH   7   8
HETATM    8  C10 UNL     1      10.698 -12.533 -20.138  1.00  0.00     0.218 C 
HETATM    9  N6  UNL     1      11.636 -13.051 -19.427  1.00  0.00    -0.274 N 
ATOM     10  H6  UNL     1      11.744 -12.700 -18.476  1.00  0.00     0.189 HD
BRANCH   9  11
HETATM   11  N7  UNL     1      12.509 -14.041 -19.834  1.00  0.00    -0.268 N 
HETATM   12  C11 UNL     1      12.101 -15.399 -19.882  1.00  0.00     0.232 C 
HETATM   13  C12 UNL     1      13.026 -16.476 -20.316  1.00  0.00     0.119 C 
HETATM   14  O8  UNL     1      10.932 -15.711 -19.551  1.00  0.00    -0.272 OA
ATOM     15  H7  UNL     1      13.460 -13.792 -20.104  1.00  0.00     0.190 HD
ENDBRANCH   9  11
BRANCH   8  16
HETATM   16  O9  UNL     1      10.528 -12.984 -21.418  1.00  0.00    -0.199 OA
BRANCH  16  17
HETATM   17  N8  UNL     1      10.952 -12.291 -22.524  1.00  0.00    -0.186 N 
HETATM   18  N9  UNL     1      11.712 -12.830 -23.375  1.00  0.00    -0.229 N 
ATOM     19  H9  UNL     1      12.000 -12.276 -24.182  1.00  0.00     0.209 HD
ATOM     20  H8  UNL     1      10.648 -11.327 -22.660  1.00  0.00     0.218 HD
BRANCH  18  21
HETATM   21  N10 UNL     1      12.179 -14.134 -23.277  1.00  0.00    -0.329 N 
ATOM     22 2H10 UNL     1      12.037 -14.739 -24.085  1.00  0.00     0.178 HD
ATOM     23 1H10 UNL     1      12.647 -14.508 -22.452  1.00  0.00     0.178 HD
ENDBRANCH  18  21
ENDBRANCH  16  17
ENDBRANCH   8  16
ENDBRANCH   7   8
BRANCH   1  24
HETATM   24  N1  UNL     1       8.007 -13.042 -19.531  1.00  0.00    -0.199 N 
ATOM     25  H1  UNL     1       8.358 -13.857 -19.026  1.00  0.00     0.216 HD
BRANCH  24  26
HETATM   26  O1  UNL     1       7.012 -13.204 -20.416  1.00  0.00    -0.269 OA
HETATM   27  C1  UNL     1       7.009 -14.484 -20.994  1.00  0.00     0.239 C 
ENDBRANCH  24  26
ENDBRANCH   1  24
BRANCH   6  28
HETATM   28  O7  UNL     1      11.695  -9.875 -19.564  1.00  0.00    -0.355 OA
ATOM     29  H7  UNL     1      11.864  -8.944 -19.474  1.00  0.00     0.218 HD
ENDBRANCH   6  28
BRANCH   2  30
HETATM   30  N3  UNL     1       6.408 -11.222 -18.531  1.00  0.00    -0.317 N 
ATOM     31  H3  UNL     1       5.990 -11.517 -19.414  1.00  0.00     0.169 HD
BRANCH  30  32
HETATM   32  C3  UNL     1       5.511 -11.308 -17.501  1.00  0.00     0.176 C 
BRANCH  32  33
HETATM   33  O2  UNL     1       5.824 -12.136 -16.543  1.00  0.00    -0.344 OA
ATOM     34  H2  UNL     1       5.095 -12.490 -16.047  1.00  0.00     0.219 HD
ENDBRANCH  32  33
BRANCH  32  35
HETATM   35  C4  UNL     1       4.255 -10.627 -17.253  1.00  0.00     0.177 A 
HETATM   36  N4  UNL     1       3.997  -9.315 -17.095  1.00  0.00    -0.232 N 
HETATM   37  O3  UNL     1       2.738  -9.144 -16.899  1.00  0.00    -0.153 OA
ATOM     38  H4  UNL     1       4.694  -8.571 -17.126  1.00  0.00     0.197 HD
HETATM   39  N5  UNL     1       2.103 -10.268 -16.912  1.00  0.00    -0.204 N 
HETATM   40  C5  UNL     1       3.008 -11.231 -17.132  1.00  0.00     0.299 A 
ATOM     41  H5  UNL     1       1.100 -10.399 -16.781  1.00  0.00     0.200 HD
HETATM   42  O4  UNL     1       2.739 -12.450 -17.207  1.00  0.00    -0.264 OA
ENDBRANCH  32  35
ENDBRANCH  30  32
ENDBRANCH   2  30
BRANCH   3  43
HETATM   43  O5  UNL     1       7.517  -8.590 -17.905  1.00  0.00    -0.354 OA
ATOM     44  H5  UNL     1       7.396  -7.749 -18.329  1.00  0.00     0.218 HD
ENDBRANCH   3  43
TORSDOF 13
ENDMDL
