MODEL 1
REMARK VINA RESULT: -4.444297569      0.000      0.000
REMARK  4 active torsions:
REMARK  status: ('A' for Active; 'I' for Inactive)
REMARK    1  A    between atoms: N1_1  and  C1_4 
REMARK    2  A    between atoms: C5_14  and  N5_15 
REMARK    3  A    between atoms: N5_15  and  N6_17 
REMARK    4  A    between atoms: N6_17  and  N7_18 
ROOT
HETATM    1  C1  UNL     1     -21.590  11.794   5.682  1.00  0.00     0.679 A 
HETATM    2  N2  UNL     1     -22.895  12.119   5.602  1.00  0.00    -0.174 N 
ATOM      3  H2  UNL     1     -23.584  11.405   5.368  1.00  0.00     0.186 HD
HETATM    4  C2  UNL     1     -23.292  13.384   5.831  1.00  0.00     0.152 A 
HETATM    5  N3  UNL     1     -24.470  14.006   5.834  1.00  0.00    -0.336 N 
ATOM      6  H3  UNL     1     -25.376  13.579   5.638  1.00  0.00     0.168 HD
HETATM    7  C3  UNL     1     -24.252  15.298   6.142  1.00  0.00     0.182 A 
HETATM    8  N4  UNL     1     -22.952  15.541   6.342  1.00  0.00    -0.346 N 
ATOM      9  H4  UNL     1     -22.539  16.441   6.585  1.00  0.00     0.167 HD
HETATM   10  C4  UNL     1     -22.286  14.386   6.164  1.00  0.00     0.124 A 
HETATM   11  C5  UNL     1     -20.968  13.996   6.231  1.00  0.00     0.164 A 
HETATM   12  N8  UNL     1     -20.662  12.710   5.988  1.00  0.00    -0.173 N 
ATOM     13  H8  UNL     1     -19.685  12.421   6.037  1.00  0.00     0.186 HD
ENDROOT
BRANCH  11  14
HETATM   14  N5  UNL     1     -20.034  15.008   6.560  1.00  0.00    -0.267 N 
ATOM     15  H5  UNL     1     -19.199  15.148   5.993  1.00  0.00     0.186 HD
BRANCH  14  16
HETATM   16  N6  UNL     1     -20.280  15.814   7.680  1.00  0.00    -0.028 NA
BRANCH  16  17
HETATM   17  N7  UNL     1     -19.546  15.377   8.770  1.00  0.00    -0.329 N 
ATOM     18  H72 UNL     1     -19.006  14.512   8.781  1.00  0.00     0.174 HD
ATOM     19  H71 UNL     1     -19.623  16.036   9.546  1.00  0.00     0.174 HD
ENDBRANCH  16  17
ENDBRANCH  14  16
ENDBRANCH  11  14
BRANCH   1  20
HETATM   20  N1  UNL     1     -21.254  10.578   5.461  1.00  0.00    -0.234 N 
ATOM     21  H12 UNL     1     -21.113  10.247   4.507  1.00  0.00     0.174 HD
ATOM     22  H11 UNL     1     -21.130   9.958   6.261  1.00  0.00     0.174 HD
ENDBRANCH   1  20
TORSDOF 4
ENDMDL
MODEL 2
REMARK VINA RESULT: -4.441239562     11.025     12.113
REMARK  4 active torsions:
REMARK  status: ('A' for Active; 'I' for Inactive)
REMARK    1  A    between atoms: N1_1  and  C1_4 
REMARK    2  A    between atoms: C5_14  and  N5_15 
REMARK    3  A    between atoms: N5_15  and  N6_17 
REMARK    4  A    between atoms: N6_17  and  N7_18 
ROOT
HETATM    1  C1  UNL     1     -28.278  12.209  14.283  1.00  0.00     0.679 A 
HETATM    2  N2  UNL     1     -29.491  12.458  13.749  1.00  0.00    -0.174 N 
ATOM      3  H2  UNL     1     -29.648  13.317  13.223  1.00  0.00     0.186 HD
HETATM    4  C2  UNL     1     -30.494  11.576  13.909  1.00  0.00     0.152 A 
HETATM    5  N3  UNL     1     -31.766  11.529  13.516  1.00  0.00    -0.336 N 
ATOM      6  H3  UNL     1     -32.252  12.237  12.965  1.00  0.00     0.168 HD
HETATM    7  C3  UNL     1     -32.296  10.380  13.976  1.00  0.00     0.182 A 
HETATM    8  N4  UNL     1     -31.397   9.669  14.667  1.00  0.00    -0.346 N 
ATOM      9  H4  UNL     1     -31.561   8.766  15.113  1.00  0.00     0.167 HD
HETATM   10  C4  UNL     1     -30.241  10.356  14.668  1.00  0.00     0.124 A 
HETATM   11  C5  UNL     1     -28.984  10.155  15.189  1.00  0.00     0.164 A 
HETATM   12  N8  UNL     1     -28.041  11.090  14.980  1.00  0.00    -0.173 N 
ATOM     13  H8  UNL     1     -27.109  10.941  15.367  1.00  0.00     0.186 HD
ENDROOT
BRANCH  11  14
HETATM   14  N5  UNL     1     -28.794   8.954  15.914  1.00  0.00    -0.267 N 
ATOM     15  H5  UNL     1     -29.578   8.501  16.383  1.00  0.00     0.186 HD
BRANCH  14  16
HETATM   16  N6  UNL     1     -27.510   8.397  15.973  1.00  0.00    -0.028 NA
BRANCH  16  17
HETATM   17  N7  UNL     1     -27.442   7.237  15.220  1.00  0.00    -0.329 N 
ATOM     18  H72 UNL     1     -28.197   6.905  14.620  1.00  0.00     0.174 HD
ATOM     19  H71 UNL     1     -26.543   6.772  15.351  1.00  0.00     0.174 HD
ENDBRANCH  16  17
ENDBRANCH  14  16
ENDBRANCH  11  14
BRANCH   1  20
HETATM   20  N1  UNL     1     -27.349  13.071  14.104  1.00  0.00    -0.234 N 
ATOM     21  H12 UNL     1     -26.372  12.781  14.087  1.00  0.00     0.174 HD
ATOM     22  H11 UNL     1     -27.615  14.048  13.978  1.00  0.00     0.174 HD
ENDBRANCH   1  20
TORSDOF 4
ENDMDL
MODEL 3
REMARK VINA RESULT: -4.408852880     10.999     12.091
REMARK  4 active torsions:
REMARK  status: ('A' for Active; 'I' for Inactive)
REMARK    1  A    between atoms: N1_1  and  C1_4 
REMARK    2  A    between atoms: C5_14  and  N5_15 
REMARK    3  A    between atoms: N5_15  and  N6_17 
REMARK    4  A    between atoms: N6_17  and  N7_18 
ROOT
HETATM    1  C1  UNL     1     -28.671  12.834  14.052  1.00  0.00     0.679 A 
HETATM    2  N2  UNL     1     -29.955  12.764  14.454  1.00  0.00    -0.174 N 
ATOM      3  H2  UNL     1     -30.541  13.598  14.432  1.00  0.00     0.186 HD
HETATM    4  C2  UNL     1     -30.467  11.596  14.884  1.00  0.00     0.152 A 
HETATM    5  N3  UNL     1     -31.660  11.209  15.330  1.00  0.00    -0.336 N 
ATOM      6  H3  UNL     1     -32.484  11.802  15.436  1.00  0.00     0.168 HD
HETATM    7  C3  UNL     1     -31.585   9.896  15.617  1.00  0.00     0.182 A 
HETATM    8  N4  UNL     1     -30.364   9.410  15.369  1.00  0.00    -0.346 N 
ATOM      9  H4  UNL     1     -30.062   8.445  15.507  1.00  0.00     0.167 HD
HETATM   10  C4  UNL     1     -29.606  10.419  14.905  1.00  0.00     0.124 A 
HETATM   11  C5  UNL     1     -28.302  10.550  14.483  1.00  0.00     0.164 A 
HETATM   12  N8  UNL     1     -27.876  11.755  14.069  1.00  0.00    -0.173 N 
ATOM     13  H8  UNL     1     -26.910  11.853  13.757  1.00  0.00     0.186 HD
ENDROOT
BRANCH  11  14
HETATM   14  N5  UNL     1     -27.513   9.376  14.523  1.00  0.00    -0.267 N 
ATOM     15  H5  UNL     1     -27.014   9.057  13.693  1.00  0.00     0.186 HD
BRANCH  14  16
HETATM   16  N6  UNL     1     -27.431   8.659  15.724  1.00  0.00    -0.028 NA
BRANCH  16  17
HETATM   17  N7  UNL     1     -27.558   7.299  15.494  1.00  0.00    -0.329 N 
ATOM     18  H72 UNL     1     -26.866   6.741  14.994  1.00  0.00     0.174 HD
ATOM     19  H71 UNL     1     -28.429   6.945  15.890  1.00  0.00     0.174 HD
ENDBRANCH  16  17
ENDBRANCH  14  16
ENDBRANCH  11  14
BRANCH   1  20
HETATM   20  N1  UNL     1     -28.224  13.963  13.646  1.00  0.00    -0.234 N 
ATOM     21  H12 UNL     1     -28.756  14.519  12.977  1.00  0.00     0.174 HD
ATOM     22  H11 UNL     1     -27.328  14.287  14.011  1.00  0.00     0.174 HD
ENDBRANCH   1  20
TORSDOF 4
ENDMDL
MODEL 4
REMARK VINA RESULT: -4.393816791      1.416      3.521
REMARK  4 active torsions:
REMARK  status: ('A' for Active; 'I' for Inactive)
REMARK    1  A    between atoms: N1_1  and  C1_4 
REMARK    2  A    between atoms: C5_14  and  N5_15 
REMARK    3  A    between atoms: N5_15  and  N6_17 
REMARK    4  A    between atoms: N6_17  and  N7_18 
ROOT
HETATM    1  C1  UNL     1     -20.848  15.156   8.147  1.00  0.00     0.679 A 
HETATM    2  N2  UNL     1     -21.993  15.624   7.611  1.00  0.00    -0.174 N 
ATOM      3  H2  UNL     1     -22.267  16.594   7.763  1.00  0.00     0.186 HD
HETATM    4  C2  UNL     1     -22.776  14.813   6.877  1.00  0.00     0.152 A 
HETATM    5  N3  UNL     1     -23.931  14.967   6.230  1.00  0.00    -0.336 N 
ATOM      6  H3  UNL     1     -24.481  15.824   6.177  1.00  0.00     0.168 HD
HETATM    7  C3  UNL     1     -24.240  13.788   5.657  1.00  0.00     0.182 A 
HETATM    8  N4  UNL     1     -23.313  12.860   5.915  1.00  0.00    -0.346 N 
ATOM      9  H4  UNL     1     -23.325  11.892   5.592  1.00  0.00     0.167 HD
HETATM   10  C4  UNL     1     -22.361  13.429   6.676  1.00  0.00     0.124 A 
HETATM   11  C5  UNL     1     -21.182  13.008   7.247  1.00  0.00     0.164 A 
HETATM   12  N8  UNL     1     -20.462  13.886   7.965  1.00  0.00    -0.173 N 
ATOM     13  H8  UNL     1     -19.588  13.574   8.388  1.00  0.00     0.186 HD
ENDROOT
BRANCH  11  14
HETATM   14  N5  UNL     1     -20.827  11.657   7.017  1.00  0.00    -0.267 N 
ATOM     15  H5  UNL     1     -20.858  10.976   7.776  1.00  0.00     0.186 HD
BRANCH  14  16
HETATM   16  N6  UNL     1     -20.432  11.272   5.729  1.00  0.00    -0.028 NA
BRANCH  16  17
HETATM   17  N7  UNL     1     -19.144  11.706   5.461  1.00  0.00    -0.329 N 
ATOM     18  H72 UNL     1     -18.497  12.039   6.175  1.00  0.00     0.174 HD
ATOM     19  H71 UNL     1     -18.942  11.643   4.462  1.00  0.00     0.174 HD
ENDBRANCH  16  17
ENDBRANCH  14  16
ENDBRANCH  11  14
BRANCH   1  20
HETATM   20  N1  UNL     1     -20.129  15.961   8.836  1.00  0.00    -0.234 N 
ATOM     21  H12 UNL     1     -19.664  16.750   8.389  1.00  0.00     0.174 HD
ATOM     22  H11 UNL     1     -20.040  15.791   9.838  1.00  0.00     0.174 HD
ENDBRANCH   1  20
TORSDOF 4
ENDMDL
MODEL 5
REMARK VINA RESULT: -4.385346359      1.591      4.069
REMARK  4 active torsions:
REMARK  status: ('A' for Active; 'I' for Inactive)
REMARK    1  A    between atoms: N1_1  and  C1_4 
REMARK    2  A    between atoms: C5_14  and  N5_15 
REMARK    3  A    between atoms: N5_15  and  N6_17 
REMARK    4  A    between atoms: N6_17  and  N7_18 
ROOT
HETATM    1  C1  UNL     1     -20.565  14.668   8.057  1.00  0.00     0.679 A 
HETATM    2  N2  UNL     1     -20.089  13.519   7.538  1.00  0.00    -0.174 N 
ATOM      3  H2  UNL     1     -19.116  13.255   7.692  1.00  0.00     0.186 HD
HETATM    4  C2  UNL     1     -20.895  12.719   6.816  1.00  0.00     0.152 A 
HETATM    5  N3  UNL     1     -20.735  11.554   6.191  1.00  0.00    -0.336 N 
ATOM      6  H3  UNL     1     -19.874  11.009   6.146  1.00  0.00     0.168 HD
HETATM    7  C3  UNL     1     -21.913  11.225   5.628  1.00  0.00     0.182 A 
HETATM    8  N4  UNL     1     -22.847  12.152   5.869  1.00  0.00    -0.346 N 
ATOM      9  H4  UNL     1     -23.815  12.127   5.548  1.00  0.00     0.167 HD
HETATM   10  C4  UNL     1     -22.282  13.122   6.610  1.00  0.00     0.124 A 
HETATM   11  C5  UNL     1     -22.712  14.306   7.165  1.00  0.00     0.164 A 
HETATM   12  N8  UNL     1     -21.838  15.042   7.872  1.00  0.00    -0.173 N 
ATOM     13  H8  UNL     1     -22.156  15.920   8.282  1.00  0.00     0.186 HD
ENDROOT
BRANCH  11  14
HETATM   14  N5  UNL     1     -24.066  14.646   6.936  1.00  0.00    -0.267 N 
ATOM     15  H5  UNL     1     -24.646  14.079   6.317  1.00  0.00     0.186 HD
BRANCH  14  16
HETATM   16  N6  UNL     1     -24.596  15.775   7.575  1.00  0.00    -0.028 NA
BRANCH  16  17
HETATM   17  N7  UNL     1     -25.686  15.429   8.357  1.00  0.00    -0.329 N 
ATOM     18  H72 UNL     1     -25.823  14.504   8.764  1.00  0.00     0.174 HD
ATOM     19  H71 UNL     1     -26.320  16.221   8.465  1.00  0.00     0.174 HD
ENDBRANCH  16  17
ENDBRANCH  14  16
ENDBRANCH  11  14
BRANCH   1  20
HETATM   20  N1  UNL     1     -19.767  15.399   8.741  1.00  0.00    -0.234 N 
ATOM     21  H12 UNL     1     -19.023  15.923   8.280  1.00  0.00     0.174 HD
ATOM     22  H11 UNL     1     -19.899  15.444   9.752  1.00  0.00     0.174 HD
ENDBRANCH   1  20
TORSDOF 4
ENDMDL
