MODEL 1
REMARK VINA RESULT: -4.625817180      0.000      0.000
REMARK  5 active torsions:
REMARK  status: ('A' for Active; 'I' for Inactive)
REMARK    1  A    between atoms: C3_5  and  N2_6 
REMARK    2  A    between atoms: C4_11  and  C5_12 
REMARK    3  A    between atoms: C5_12  and  C6_16 
REMARK    4  A    between atoms: C6_16  and  N5_17 
REMARK    5  A    between atoms: C6_16  and  N6_21 
ROOT
HETATM    1  C1  UNL     1     -24.646   8.265  12.102  1.00  0.00     0.089 C 
HETATM    2  C2  UNL     1     -25.195   9.448  12.785  1.00  0.00     0.095 A 
HETATM    3  N1  UNL     1     -24.444  10.519  13.085  1.00  0.00    -0.181 N 
ATOM      4  H1  UNL     1     -23.455  10.523  12.834  1.00  0.00     0.185 HD
HETATM    5  C3  UNL     1     -24.972  11.588  13.709  1.00  0.00     0.678 A 
HETATM    6  N3  UNL     1     -26.270  11.561  14.029  1.00  0.00    -0.175 N 
ATOM      7  H3  UNL     1     -26.677  12.367  14.504  1.00  0.00     0.186 HD
HETATM    8  C4  UNL     1     -27.058  10.506  13.746  1.00  0.00     0.148 A 
HETATM    9  N7  UNL     1     -26.493   9.464  13.123  1.00  0.00    -0.330 N 
ATOM     10  H7  UNL     1     -27.070   8.654  12.898  1.00  0.00     0.168 HD
ENDROOT
BRANCH   8  11
HETATM   11  C5  UNL     1     -28.473  10.498  14.095  1.00  0.00     0.106 C 
HETATM   12  N4  UNL     1     -29.303  11.078  13.305  1.00  0.00    -0.396 N 
ATOM     13  H42 UNL     1     -28.984  11.526  12.446  1.00  0.00     0.156 HD
ATOM     14  H41 UNL     1     -30.293  11.073  13.550  1.00  0.00     0.156 HD
BRANCH  11  15
HETATM   15  C6  UNL     1     -28.933   9.851  15.338  1.00  0.00     0.430 C 
BRANCH  15  16
HETATM   16  N5  UNL     1     -30.341   9.543  15.345  1.00  0.00    -0.045 N 
ATOM     17  H53 UNL     1     -30.893  10.380  15.161  1.00  0.00     0.277 HD
ATOM     18  H52 UNL     1     -30.592   8.989  14.527  1.00  0.00     0.277 HD
ATOM     19  H51 UNL     1     -30.657   9.085  16.200  1.00  0.00     0.277 HD
ENDBRANCH  15  16
BRANCH  15  20
HETATM   20  N6  UNL     1     -28.136   8.631  15.543  1.00  0.00    -0.045 N 
ATOM     21  H63 UNL     1     -28.648   7.905  16.044  1.00  0.00     0.277 HD
ATOM     22  H62 UNL     1     -27.977   8.115  14.678  1.00  0.00     0.277 HD
ATOM     23  H61 UNL     1     -27.268   8.893  16.010  1.00  0.00     0.277 HD
ENDBRANCH  15  20
ENDBRANCH  11  15
ENDBRANCH   8  11
BRANCH   5  24
HETATM   24  N2  UNL     1     -24.199  12.612  13.981  1.00  0.00    -0.234 N 
ATOM     25  H22 UNL     1     -23.185  12.529  14.060  1.00  0.00     0.174 HD
ATOM     26  H21 UNL     1     -24.623  13.529  14.118  1.00  0.00     0.174 HD
ENDBRANCH   5  24
TORSDOF 5
ENDMDL
MODEL 2
REMARK VINA RESULT: -4.552688821      0.754      2.267
REMARK  5 active torsions:
REMARK  status: ('A' for Active; 'I' for Inactive)
REMARK    1  A    between atoms: C3_5  and  N2_6 
REMARK    2  A    between atoms: C4_11  and  C5_12 
REMARK    3  A    between atoms: C5_12  and  C6_16 
REMARK    4  A    between atoms: C6_16  and  N5_17 
REMARK    5  A    between atoms: C6_16  and  N6_21 
ROOT
HETATM    1  C1  UNL     1     -24.193  12.781  14.042  1.00  0.00     0.089 C 
HETATM    2  C2  UNL     1     -24.982  11.586  13.699  1.00  0.00     0.095 A 
HETATM    3  N1  UNL     1     -24.446  10.523  13.081  1.00  0.00    -0.181 N 
ATOM      4  H1  UNL     1     -23.456  10.533  12.835  1.00  0.00     0.185 HD
HETATM    5  C3  UNL     1     -25.191   9.443  12.779  1.00  0.00     0.678 A 
HETATM    6  N3  UNL     1     -26.487   9.452  13.109  1.00  0.00    -0.175 N 
ATOM      7  H3  UNL     1     -27.059   8.638  12.883  1.00  0.00     0.186 HD
HETATM    8  C4  UNL     1     -27.063  10.499  13.730  1.00  0.00     0.148 A 
HETATM    9  N7  UNL     1     -26.286  11.552  14.013  1.00  0.00    -0.330 N 
ATOM     10  H7  UNL     1     -26.700  12.357  14.484  1.00  0.00     0.168 HD
ENDROOT
BRANCH   8  11
HETATM   11  C5  UNL     1     -28.475  10.487  14.090  1.00  0.00     0.106 C 
HETATM   12  N4  UNL     1     -29.313  11.064  13.307  1.00  0.00    -0.396 N 
ATOM     13  H42 UNL     1     -29.003  11.512  12.445  1.00  0.00     0.156 HD
ATOM     14  H41 UNL     1     -30.302  11.056  13.559  1.00  0.00     0.156 HD
BRANCH  11  15
HETATM   15  C6  UNL     1     -28.923   9.838  15.337  1.00  0.00     0.430 C 
BRANCH  15  16
HETATM   16  N5  UNL     1     -30.336   9.555  15.369  1.00  0.00    -0.045 N 
ATOM     17  H53 UNL     1     -30.704   9.453  14.423  1.00  0.00     0.277 HD
ATOM     18  H52 UNL     1     -30.506   8.613  15.721  1.00  0.00     0.277 HD
ATOM     19  H51 UNL     1     -30.880  10.239  15.895  1.00  0.00     0.277 HD
ENDBRANCH  15  16
BRANCH  15  20
HETATM   20  N6  UNL     1     -28.144   8.603  15.518  1.00  0.00    -0.045 N 
ATOM     21  H63 UNL     1     -28.465   7.844  14.917  1.00  0.00     0.277 HD
ATOM     22  H62 UNL     1     -27.196   8.679  15.149  1.00  0.00     0.277 HD
ATOM     23  H61 UNL     1     -28.163   8.357  16.507  1.00  0.00     0.277 HD
ENDBRANCH  15  20
ENDBRANCH  11  15
ENDBRANCH   8  11
BRANCH   5  24
HETATM   24  N2  UNL     1     -24.623   8.427  12.174  1.00  0.00    -0.234 N 
ATOM     25  H22 UNL     1     -23.851   7.905  12.587  1.00  0.00     0.174 HD
ATOM     26  H21 UNL     1     -24.966   8.143  11.257  1.00  0.00     0.174 HD
ENDBRANCH   5  24
TORSDOF 5
ENDMDL
MODEL 3
REMARK VINA RESULT: -4.539858970      1.849      3.297
REMARK  5 active torsions:
REMARK  status: ('A' for Active; 'I' for Inactive)
REMARK    1  A    between atoms: C3_5  and  N2_6 
REMARK    2  A    between atoms: C4_11  and  C5_12 
REMARK    3  A    between atoms: C5_12  and  C6_16 
REMARK    4  A    between atoms: C6_16  and  N5_17 
REMARK    5  A    between atoms: C6_16  and  N6_21 
ROOT
HETATM    1  C1  UNL     1     -25.056   8.742  12.215  1.00  0.00     0.089 C 
HETATM    2  C2  UNL     1     -26.119   9.053  13.186  1.00  0.00     0.095 A 
HETATM    3  N1  UNL     1     -26.495   8.190  14.143  1.00  0.00    -0.181 N 
ATOM      4  H1  UNL     1     -26.033   7.283  14.209  1.00  0.00     0.185 HD
HETATM    5  C3  UNL     1     -27.469   8.500  15.017  1.00  0.00     0.678 A 
HETATM    6  N3  UNL     1     -28.063   9.694  14.911  1.00  0.00    -0.175 N 
ATOM      7  H3  UNL     1     -28.804   9.936  15.569  1.00  0.00     0.186 HD
HETATM    8  C4  UNL     1     -27.716  10.587  13.965  1.00  0.00     0.148 A 
HETATM    9  N7  UNL     1     -26.740  10.240  13.116  1.00  0.00    -0.330 N 
ATOM     10  H7  UNL     1     -26.459  10.900  12.392  1.00  0.00     0.168 HD
ENDROOT
BRANCH   8  11
HETATM   11  C5  UNL     1     -28.368  11.888  13.871  1.00  0.00     0.106 C 
HETATM   12  N4  UNL     1     -27.960  12.835  14.636  1.00  0.00    -0.396 N 
ATOM     13  H42 UNL     1     -27.190  12.689  15.288  1.00  0.00     0.156 HD
ATOM     14  H41 UNL     1     -28.417  13.745  14.570  1.00  0.00     0.156 HD
BRANCH  11  15
HETATM   15  C6  UNL     1     -29.481  12.099  12.927  1.00  0.00     0.430 C 
BRANCH  15  16
HETATM   16  N5  UNL     1     -30.641  11.291  13.207  1.00  0.00    -0.045 N 
ATOM     17  H53 UNL     1     -30.695  11.072  14.201  1.00  0.00     0.277 HD
ATOM     18  H52 UNL     1     -31.495  11.841  13.107  1.00  0.00     0.277 HD
ATOM     19  H51 UNL     1     -30.694  10.440  12.647  1.00  0.00     0.277 HD
ENDBRANCH  15  16
BRANCH  15  20
HETATM   20  N6  UNL     1     -29.830  13.529  12.941  1.00  0.00    -0.045 N 
ATOM     21  H63 UNL     1     -30.838  13.688  12.958  1.00  0.00     0.277 HD
ATOM     22  H62 UNL     1     -29.605  13.980  13.828  1.00  0.00     0.277 HD
ATOM     23  H61 UNL     1     -29.375  13.976  12.146  1.00  0.00     0.277 HD
ENDBRANCH  15  20
ENDBRANCH  11  15
ENDBRANCH   8  11
BRANCH   5  24
HETATM   24  N2  UNL     1     -27.802   7.626  15.935  1.00  0.00    -0.234 N 
ATOM     25  H22 UNL     1     -27.216   7.431  16.747  1.00  0.00     0.174 HD
ATOM     26  H21 UNL     1     -28.683   7.119  15.840  1.00  0.00     0.174 HD
ENDBRANCH   5  24
TORSDOF 5
ENDMDL
MODEL 4
REMARK VINA RESULT: -4.539344933      0.778      1.017
REMARK  5 active torsions:
REMARK  status: ('A' for Active; 'I' for Inactive)
REMARK    1  A    between atoms: C3_5  and  N2_6 
REMARK    2  A    between atoms: C4_11  and  C5_12 
REMARK    3  A    between atoms: C5_12  and  C6_16 
REMARK    4  A    between atoms: C6_16  and  N5_17 
REMARK    5  A    between atoms: C6_16  and  N6_21 
ROOT
HETATM    1  C1  UNL     1     -24.726   8.566  12.367  1.00  0.00     0.089 C 
HETATM    2  C2  UNL     1     -25.331   9.762  12.976  1.00  0.00     0.095 A 
HETATM    3  N1  UNL     1     -24.607  10.836  13.328  1.00  0.00    -0.181 N 
ATOM      4  H1  UNL     1     -23.599  10.833  13.172  1.00  0.00     0.185 HD
HETATM    5  C3  UNL     1     -25.186  11.916  13.883  1.00  0.00     0.678 A 
HETATM    6  N3  UNL     1     -26.509  11.898  14.080  1.00  0.00    -0.175 N 
ATOM      7  H3  UNL     1     -26.955  12.713  14.502  1.00  0.00     0.186 HD
HETATM    8  C4  UNL     1     -27.271  10.841  13.742  1.00  0.00     0.148 A 
HETATM    9  N7  UNL     1     -26.655   9.787  13.191  1.00  0.00    -0.330 N 
ATOM     10  H7  UNL     1     -27.212   8.975  12.926  1.00  0.00     0.168 HD
ENDROOT
BRANCH   8  11
HETATM   11  C5  UNL     1     -28.713  10.843  13.957  1.00  0.00     0.106 C 
HETATM   12  N4  UNL     1     -29.467  11.361  13.055  1.00  0.00    -0.396 N 
ATOM     13  H42 UNL     1     -29.071  11.752  12.201  1.00  0.00     0.156 HD
ATOM     14  H41 UNL     1     -30.476  11.362  13.206  1.00  0.00     0.156 HD
BRANCH  11  15
HETATM   15  C6  UNL     1     -29.286  10.276  15.192  1.00  0.00     0.430 C 
BRANCH  15  16
HETATM   16  N5  UNL     1     -28.716   9.007  15.567  1.00  0.00    -0.045 N 
ATOM     17  H53 UNL     1     -29.400   8.259  15.457  1.00  0.00     0.277 HD
ATOM     18  H52 UNL     1     -28.024   8.707  14.880  1.00  0.00     0.277 HD
ATOM     19  H51 UNL     1     -28.319   8.996  16.506  1.00  0.00     0.277 HD
ENDBRANCH  15  16
BRANCH  15  20
HETATM   20  N6  UNL     1     -29.113  11.260  16.272  1.00  0.00    -0.045 N 
ATOM     21  H63 UNL     1     -29.046  12.217  15.925  1.00  0.00     0.277 HD
ATOM     22  H62 UNL     1     -29.955  11.377  16.836  1.00  0.00     0.277 HD
ATOM     23  H61 UNL     1     -28.303  10.985  16.827  1.00  0.00     0.277 HD
ENDBRANCH  15  20
ENDBRANCH  11  15
ENDBRANCH   8  11
BRANCH   5  24
HETATM   24  N2  UNL     1     -24.438  12.942  14.210  1.00  0.00    -0.234 N 
ATOM     25  H22 UNL     1     -24.342  13.267  15.172  1.00  0.00     0.174 HD
ATOM     26  H21 UNL     1     -23.929  13.437  13.477  1.00  0.00     0.174 HD
ENDBRANCH   5  24
TORSDOF 5
ENDMDL
MODEL 5
REMARK VINA RESULT: -4.505039608      7.978      9.474
REMARK  5 active torsions:
REMARK  status: ('A' for Active; 'I' for Inactive)
REMARK    1  A    between atoms: C3_5  and  N2_6 
REMARK    2  A    between atoms: C4_11  and  C5_12 
REMARK    3  A    between atoms: C5_12  and  C6_16 
REMARK    4  A    between atoms: C6_16  and  N5_17 
REMARK    5  A    between atoms: C6_16  and  N6_21 
ROOT
HETATM    1  C1  UNL     1     -24.158  15.392   9.653  1.00  0.00     0.089 C 
HETATM    2  C2  UNL     1     -22.941  14.948   8.952  1.00  0.00     0.095 A 
HETATM    3  N1  UNL     1     -21.742  15.513   9.163  1.00  0.00    -0.181 N 
ATOM      4  H1  UNL     1     -21.660  16.280   9.832  1.00  0.00     0.185 HD
HETATM    5  C3  UNL     1     -20.646  15.088   8.509  1.00  0.00     0.678 A 
HETATM    6  N3  UNL     1     -20.776  14.083   7.636  1.00  0.00    -0.175 N 
ATOM      7  H3  UNL     1     -19.950  13.755   7.135  1.00  0.00     0.186 HD
HETATM    8  C4  UNL     1     -21.960  13.489   7.396  1.00  0.00     0.148 A 
HETATM    9  N7  UNL     1     -23.026  13.943   8.069  1.00  0.00    -0.330 N 
ATOM     10  H7  UNL     1     -23.934  13.508   7.904  1.00  0.00     0.168 HD
ENDROOT
BRANCH   8  11
HETATM   11  C5  UNL     1     -22.081  12.389   6.447  1.00  0.00     0.106 C 
HETATM   12  N4  UNL     1     -23.162  12.287   5.760  1.00  0.00    -0.396 N 
ATOM     13  H42 UNL     1     -23.916  12.965   5.865  1.00  0.00     0.156 HD
ATOM     14  H41 UNL     1     -23.246  11.517   5.096  1.00  0.00     0.156 HD
BRANCH  11  15
HETATM   15  C6  UNL     1     -20.990  11.409   6.296  1.00  0.00     0.430 C 
BRANCH  15  16
HETATM   16  N5  UNL     1     -19.909  11.868   5.461  1.00  0.00    -0.045 N 
ATOM     17  H53 UNL     1     -19.073  11.303   5.611  1.00  0.00     0.277 HD
ATOM     18  H52 UNL     1     -20.091  11.645   4.482  1.00  0.00     0.277 HD
ATOM     19  H51 UNL     1     -19.697  12.859   5.571  1.00  0.00     0.277 HD
ENDBRANCH  15  16
BRANCH  15  20
HETATM   20  N6  UNL     1     -20.496  11.061   7.638  1.00  0.00    -0.045 N 
ATOM     21  H63 UNL     1     -20.028  11.841   8.099  1.00  0.00     0.277 HD
ATOM     22  H62 UNL     1     -21.249  10.933   8.313  1.00  0.00     0.277 HD
ATOM     23  H61 UNL     1     -19.898  10.238   7.554  1.00  0.00     0.277 HD
ENDBRANCH  15  20
ENDBRANCH  11  15
ENDBRANCH   8  11
BRANCH   5  24
HETATM   24  N2  UNL     1     -19.496  15.670   8.748  1.00  0.00    -0.234 N 
ATOM     25  H22 UNL     1     -19.356  16.675   8.639  1.00  0.00     0.174 HD
ATOM     26  H21 UNL     1     -18.708  15.102   9.058  1.00  0.00     0.174 HD
ENDBRANCH   5  24
TORSDOF 5
ENDMDL
