MODEL 1
REMARK VINA RESULT: -4.731531294      0.000      0.000
REMARK  5 active torsions:
REMARK  status: ('A' for Active; 'I' for Inactive)
REMARK    1  A    between atoms: N1_1  and  C1_4 
REMARK    2  A    between atoms: C3_10  and  N4_11 
REMARK    3  A    between atoms: N4_11  and  N5_13 
REMARK    4  A    between atoms: C4_15  and  C5_16 
REMARK    5  A    between atoms: C5_16  and  N6_17 
ROOT
HETATM    1  C1  UNL     1     -28.427  10.666  14.602  1.00  0.00     0.131 A 
HETATM    2  C2  UNL     1     -28.772   9.626  15.427  1.00  0.00     0.156 A 
HETATM    3  N2  UNL     1     -28.060   8.488  15.357  1.00  0.00    -0.294 N 
ATOM      4  H2  UNL     1     -28.311   7.709  15.967  1.00  0.00     0.186 HD
HETATM    5  N3  UNL     1     -27.054   8.346  14.530  1.00  0.00    -0.131 N 
ATOM      6  H3  UNL     1     -26.530   7.472  14.495  1.00  0.00     0.205 HD
HETATM    7  C3  UNL     1     -26.721   9.391  13.713  1.00  0.00     0.713 A 
HETATM    8  N7  UNL     1     -27.398  10.543  13.745  1.00  0.00    -0.173 N 
ATOM      9  H7  UNL     1     -27.139  11.315  13.131  1.00  0.00     0.186 HD
ENDROOT
BRANCH   7  10
HETATM   10  N4  UNL     1     -25.737   9.273  12.893  1.00  0.00    -0.131 N 
ATOM     11  H4  UNL     1     -25.352  10.096  12.430  1.00  0.00     0.205 HD
BRANCH  10  12
HETATM   12  N5  UNL     1     -25.203   8.018  12.643  1.00  0.00    -0.300 N 
HETATM   13  C4  UNL     1     -23.989   7.944  12.227  1.00  0.00     0.107 C 
ATOM     14  H5  UNL     1     -25.760   7.175  12.786  1.00  0.00     0.186 HD
BRANCH  13  15
HETATM   15  C5  UNL     1     -23.391   6.615  11.951  1.00  0.00     0.275 C 
BRANCH  15  16
HETATM   16  N6  UNL     1     -22.497   6.280  13.033  1.00  0.00    -0.075 N 
ATOM     17  H63 UNL     1     -22.326   5.276  13.101  1.00  0.00     0.274 HD
ATOM     18  H62 UNL     1     -21.537   6.573  12.852  1.00  0.00     0.274 HD
ATOM     19  H61 UNL     1     -22.870   6.673  13.897  1.00  0.00     0.274 HD
ENDBRANCH  15  16
ENDBRANCH  13  15
ENDBRANCH  10  12
ENDBRANCH   7  10
BRANCH   1  20
HETATM   20  N1  UNL     1     -29.081  11.781  14.632  1.00  0.00    -0.384 N 
ATOM     21  H12 UNL     1     -30.027  11.784  15.012  1.00  0.00     0.157 HD
ATOM     22  H11 UNL     1     -28.661  12.643  14.284  1.00  0.00     0.157 HD
ENDBRANCH   1  20
TORSDOF 5
ENDMDL
MODEL 2
REMARK VINA RESULT: -4.659456558      0.798      1.970
REMARK  5 active torsions:
REMARK  status: ('A' for Active; 'I' for Inactive)
REMARK    1  A    between atoms: N1_1  and  C1_4 
REMARK    2  A    between atoms: C3_10  and  N4_11 
REMARK    3  A    between atoms: N4_11  and  N5_13 
REMARK    4  A    between atoms: C4_15  and  C5_16 
REMARK    5  A    between atoms: C5_16  and  N6_17 
ROOT
HETATM    1  C1  UNL     1     -27.549   8.528  15.043  1.00  0.00     0.131 A 
HETATM    2  C2  UNL     1     -28.339   9.647  15.107  1.00  0.00     0.156 A 
HETATM    3  N2  UNL     1     -28.071  10.670  14.277  1.00  0.00    -0.294 N 
ATOM      4  H2  UNL     1     -28.654  11.507  14.320  1.00  0.00     0.186 HD
HETATM    5  N3  UNL     1     -27.085  10.628  13.416  1.00  0.00    -0.131 N 
ATOM      6  H3  UNL     1     -26.901  11.418  12.798  1.00  0.00     0.205 HD
HETATM    7  C3  UNL     1     -26.305   9.505  13.363  1.00  0.00     0.713 A 
HETATM    8  N7  UNL     1     -26.532   8.461  14.167  1.00  0.00    -0.173 N 
ATOM      9  H7  UNL     1     -25.943   7.630  14.117  1.00  0.00     0.186 HD
ENDROOT
BRANCH   7  10
HETATM   10  N4  UNL     1     -25.331   9.442  12.525  1.00  0.00    -0.131 N 
ATOM     11  H4  UNL     1     -24.841  10.291  12.242  1.00  0.00     0.205 HD
BRANCH  10  12
HETATM   12  N5  UNL     1     -24.952   8.212  12.010  1.00  0.00    -0.300 N 
HETATM   13  C4  UNL     1     -23.714   7.874  12.092  1.00  0.00     0.107 C 
ATOM     14  H5  UNL     1     -25.637   7.592  11.577  1.00  0.00     0.186 HD
BRANCH  13  15
HETATM   15  C5  UNL     1     -23.277   6.564  11.549  1.00  0.00     0.275 C 
BRANCH  15  16
HETATM   16  N6  UNL     1     -22.443   5.914  12.531  1.00  0.00    -0.075 N 
ATOM     17  H63 UNL     1     -22.937   5.733  13.405  1.00  0.00     0.274 HD
ATOM     18  H62 UNL     1     -22.233   4.947  12.286  1.00  0.00     0.274 HD
ATOM     19  H61 UNL     1     -21.602   6.475  12.666  1.00  0.00     0.274 HD
ENDBRANCH  15  16
ENDBRANCH  13  15
ENDBRANCH  10  12
ENDBRANCH   7  10
BRANCH   1  20
HETATM   20  N1  UNL     1     -27.768   7.517  15.820  1.00  0.00    -0.384 N 
ATOM     21  H12 UNL     1     -27.060   6.785  15.882  1.00  0.00     0.157 HD
ATOM     22  H11 UNL     1     -28.630   7.451  16.361  1.00  0.00     0.157 HD
ENDBRANCH   1  20
TORSDOF 5
ENDMDL
MODEL 3
REMARK VINA RESULT: -4.588665622      1.577      2.379
REMARK  5 active torsions:
REMARK  status: ('A' for Active; 'I' for Inactive)
REMARK    1  A    between atoms: N1_1  and  C1_4 
REMARK    2  A    between atoms: C3_10  and  N4_11 
REMARK    3  A    between atoms: N4_11  and  N5_13 
REMARK    4  A    between atoms: C4_15  and  C5_16 
REMARK    5  A    between atoms: C5_16  and  N6_17 
ROOT
HETATM    1  C1  UNL     1     -29.794  10.068  15.095  1.00  0.00     0.131 A 
HETATM    2  C2  UNL     1     -30.593  10.760  14.220  1.00  0.00     0.156 A 
HETATM    3  N2  UNL     1     -30.025  11.325  13.141  1.00  0.00    -0.294 N 
ATOM      4  H2  UNL     1     -30.613  11.842  12.486  1.00  0.00     0.186 HD
HETATM    5  N3  UNL     1     -28.740  11.234  12.903  1.00  0.00    -0.131 N 
ATOM      6  H3  UNL     1     -28.333  11.672  12.077  1.00  0.00     0.205 HD
HETATM    7  C3  UNL     1     -27.955  10.540  13.783  1.00  0.00     0.713 A 
HETATM    8  N7  UNL     1     -28.473   9.961  14.871  1.00  0.00    -0.173 N 
ATOM      9  H7  UNL     1     -27.877   9.448  15.519  1.00  0.00     0.186 HD
ENDROOT
BRANCH   7  10
HETATM   10  N4  UNL     1     -26.691  10.439  13.568  1.00  0.00    -0.131 N 
ATOM     11  H4  UNL     1     -26.102  11.271  13.561  1.00  0.00     0.205 HD
BRANCH  10  12
HETATM   12  N5  UNL     1     -26.134   9.188  13.348  1.00  0.00    -0.300 N 
HETATM   13  C4  UNL     1     -25.137   9.099  12.541  1.00  0.00     0.107 C 
ATOM     14  H5  UNL     1     -26.507   8.360  13.814  1.00  0.00     0.186 HD
BRANCH  13  15
HETATM   15  C5  UNL     1     -24.521   7.775  12.285  1.00  0.00     0.275 C 
BRANCH  15  16
HETATM   16  N6  UNL     1     -23.097   7.882  12.493  1.00  0.00    -0.075 N 
ATOM     17  H63 UNL     1     -22.566   7.245  11.899  1.00  0.00     0.274 HD
ATOM     18  H62 UNL     1     -22.715   8.757  12.136  1.00  0.00     0.274 HD
ATOM     19  H61 UNL     1     -22.902   7.746  13.485  1.00  0.00     0.274 HD
ENDBRANCH  15  16
ENDBRANCH  13  15
ENDBRANCH  10  12
ENDBRANCH   7  10
BRANCH   1  20
HETATM   20  N1  UNL     1     -30.294   9.507  16.147  1.00  0.00    -0.384 N 
ATOM     21  H12 UNL     1     -31.076   8.862  16.033  1.00  0.00     0.157 HD
ATOM     22  H11 UNL     1     -29.917   9.704  17.074  1.00  0.00     0.157 HD
ENDBRANCH   1  20
TORSDOF 5
ENDMDL
MODEL 4
REMARK VINA RESULT: -4.578843443      1.672      6.108
REMARK  5 active torsions:
REMARK  status: ('A' for Active; 'I' for Inactive)
REMARK    1  A    between atoms: N1_1  and  C1_4 
REMARK    2  A    between atoms: C3_10  and  N4_11 
REMARK    3  A    between atoms: N4_11  and  N5_13 
REMARK    4  A    between atoms: C4_15  and  C5_16 
REMARK    5  A    between atoms: C5_16  and  N6_17 
ROOT
HETATM    1  C1  UNL     1     -22.420   5.573  11.812  1.00  0.00     0.131 A 
HETATM    2  C2  UNL     1     -21.468   6.031  12.687  1.00  0.00     0.156 A 
HETATM    3  N2  UNL     1     -21.638   7.244  13.242  1.00  0.00    -0.294 N 
ATOM      4  H2  UNL     1     -20.934   7.592  13.893  1.00  0.00     0.186 HD
HETATM    5  N3  UNL     1     -22.678   7.993  12.973  1.00  0.00    -0.131 N 
ATOM      6  H3  UNL     1     -22.784   8.910  13.406  1.00  0.00     0.205 HD
HETATM    7  C3  UNL     1     -23.620   7.523  12.098  1.00  0.00     0.713 A 
HETATM    8  N7  UNL     1     -23.496   6.324  11.521  1.00  0.00    -0.173 N 
ATOM      9  H7  UNL     1     -24.205   5.985  10.871  1.00  0.00     0.186 HD
ENDROOT
BRANCH   7  10
HETATM   10  N4  UNL     1     -24.649   8.243  11.820  1.00  0.00    -0.131 N 
ATOM     11  H4  UNL     1     -24.702   8.742  10.932  1.00  0.00     0.205 HD
BRANCH  10  12
HETATM   12  N5  UNL     1     -25.685   8.335  12.736  1.00  0.00    -0.300 N 
HETATM   13  C4  UNL     1     -26.032   9.503  13.147  1.00  0.00     0.107 C 
ATOM     14  H5  UNL     1     -26.161   7.498  13.074  1.00  0.00     0.186 HD
BRANCH  13  15
HETATM   15  C5  UNL     1     -27.138   9.634  14.127  1.00  0.00     0.275 C 
BRANCH  15  16
HETATM   16  N6  UNL     1     -27.342   8.356  14.764  1.00  0.00    -0.075 N 
ATOM     17  H63 UNL     1     -27.897   7.719  14.192  1.00  0.00     0.274 HD
ATOM     18  H62 UNL     1     -26.488   7.799  14.806  1.00  0.00     0.274 HD
ATOM     19  H61 UNL     1     -27.752   8.513  15.685  1.00  0.00     0.274 HD
ENDBRANCH  15  16
ENDBRANCH  13  15
ENDBRANCH  10  12
ENDBRANCH   7  10
BRANCH   1  20
HETATM   20  N1  UNL     1     -22.302   4.413  11.253  1.00  0.00    -0.384 N 
ATOM     21  H12 UNL     1     -23.138   3.843  11.125  1.00  0.00     0.157 HD
ATOM     22  H11 UNL     1     -21.391   4.071  10.946  1.00  0.00     0.157 HD
ENDBRANCH   1  20
TORSDOF 5
ENDMDL
MODEL 5
REMARK VINA RESULT: -4.573015173      1.595      5.966
REMARK  5 active torsions:
REMARK  status: ('A' for Active; 'I' for Inactive)
REMARK    1  A    between atoms: N1_1  and  C1_4 
REMARK    2  A    between atoms: C3_10  and  N4_11 
REMARK    3  A    between atoms: N4_11  and  N5_13 
REMARK    4  A    between atoms: C4_15  and  C5_16 
REMARK    5  A    between atoms: C5_16  and  N6_17 
ROOT
HETATM    1  C1  UNL     1     -22.057   6.474  12.805  1.00  0.00     0.131 A 
HETATM    2  C2  UNL     1     -22.181   5.746  11.649  1.00  0.00     0.156 A 
HETATM    3  N2  UNL     1     -23.096   6.132  10.743  1.00  0.00    -0.294 N 
ATOM      4  H2  UNL     1     -23.194   5.595   9.881  1.00  0.00     0.186 HD
HETATM    5  N3  UNL     1     -23.866   7.174  10.932  1.00  0.00    -0.131 N 
ATOM      6  H3  UNL     1     -24.554   7.446  10.229  1.00  0.00     0.205 HD
HETATM    7  C3  UNL     1     -23.732   7.891  12.090  1.00  0.00     0.713 A 
HETATM    8  N7  UNL     1     -22.836   7.548  13.021  1.00  0.00    -0.173 N 
ATOM      9  H7  UNL     1     -22.747   8.091  13.879  1.00  0.00     0.186 HD
ENDROOT
BRANCH   7  10
HETATM   10  N4  UNL     1     -24.479   8.918  12.295  1.00  0.00    -0.131 N 
ATOM     11  H4  UNL     1     -24.202   9.834  11.942  1.00  0.00     0.205 HD
BRANCH  10  12
HETATM   12  N5  UNL     1     -25.662   8.770  13.002  1.00  0.00    -0.300 N 
HETATM   13  C4  UNL     1     -26.246   9.829  13.439  1.00  0.00     0.107 C 
ATOM     14  H5  UNL     1     -26.060   7.846  13.170  1.00  0.00     0.186 HD
BRANCH  13  15
HETATM   15  C5  UNL     1     -27.514   9.704  14.198  1.00  0.00     0.275 C 
BRANCH  15  16
HETATM   16  N6  UNL     1     -27.494   8.458  14.925  1.00  0.00    -0.075 N 
ATOM     17  H63 UNL     1     -26.751   7.834  14.611  1.00  0.00     0.274 HD
ATOM     18  H62 UNL     1     -27.181   8.573  15.889  1.00  0.00     0.274 HD
ATOM     19  H61 UNL     1     -28.418   8.029  14.863  1.00  0.00     0.274 HD
ENDBRANCH  15  16
ENDBRANCH  13  15
ENDBRANCH  10  12
ENDBRANCH   7  10
BRANCH   1  20
HETATM   20  N1  UNL     1     -21.191   6.144  13.707  1.00  0.00    -0.384 N 
ATOM     21  H12 UNL     1     -20.216   6.027  13.431  1.00  0.00     0.157 HD
ATOM     22  H11 UNL     1     -21.474   6.002  14.676  1.00  0.00     0.157 HD
ENDBRANCH   1  20
TORSDOF 5
ENDMDL
