MODEL 1
REMARK VINA RESULT: -4.986478205      0.000      0.000
REMARK  12 active torsions:
REMARK  status: ('A' for Active; 'I' for Inactive)
REMARK    1  A    between atoms: N1_1  and  C1_4 
REMARK    2  A    between atoms: N3_9  and  C3_10 
REMARK    3  A    between atoms: C3_10  and  C4_11 
REMARK    4  A    between atoms: C4_11  and  C5_12 
REMARK    5  A    between atoms: C5_12  and  C6_13 
REMARK    6  A    between atoms: C6_13  and  N4_14 
REMARK    7  A    between atoms: C6_13  and  C7_18 
REMARK    8  A    between atoms: C7_18  and  C8_20 
REMARK    9  A    between atoms: C8_20  and  N5_21 
REMARK       I    between atoms: N6_25  and  C9_27 
REMARK   10  A    between atoms: C9_27  and  C10_29 
REMARK   11  A    between atoms: C10_29  and  N7_30 
REMARK   12  A    between atoms: C10_29  and  C11_34 
ROOT
HETATM    1  C3  UNL     1     -31.655  42.480  25.128  1.00  0.00     0.111 C 
HETATM    2  N6  UNL     1     -30.929  41.991  24.198  1.00  0.00    -0.313 N 
ATOM      3  H6  UNL     1     -29.947  41.817  24.415  1.00  0.00     0.170 HD
HETATM    4  C9  UNL     1     -31.367  41.670  22.892  1.00  0.00     0.254 C 
HETATM    5  O3  UNL     1     -31.686  42.597  22.109  1.00  0.00    -0.271 OA
ENDROOT
BRANCH   1   6
HETATM    6  N3  UNL     1     -31.056  42.753  26.413  1.00  0.00    -0.178 N 
HETATM    7  C2  UNL     1     -31.003  43.962  27.014  1.00  0.00     0.361 A 
HETATM    8  N2  UNL     1     -30.361  43.757  28.183  1.00  0.00    -0.139 N 
HETATM    9  O1  UNL     1     -31.460  45.055  26.570  1.00  0.00    -0.244 OA
HETATM   10  C1  UNL     1     -30.021  42.464  28.318  1.00  0.00     0.695 A 
ATOM     11  H2  UNL     1     -30.162  44.484  28.870  1.00  0.00     0.189 HD
HETATM   12  N8  UNL     1     -30.466  41.865  27.200  1.00  0.00    -0.120 N 
ATOM     13  H8  UNL     1     -30.366  40.872  26.989  1.00  0.00     0.206 HD
BRANCH  10  14
HETATM   14  N1  UNL     1     -29.389  41.927  29.331  1.00  0.00    -0.233 N 
ATOM     15  H12 UNL     1     -29.072  42.377  30.190  1.00  0.00     0.174 HD
ATOM     16  H11 UNL     1     -29.109  40.950  29.422  1.00  0.00     0.174 HD
ENDBRANCH  10  14
ENDBRANCH   1   6
BRANCH   1  17
HETATM   17  C4  UNL     1     -33.098  42.779  24.935  1.00  0.00     0.081 C 
BRANCH  17  18
HETATM   18  C5  UNL     1     -33.872  42.299  26.117  1.00  0.00     0.048 C 
BRANCH  18  19
HETATM   19  C6  UNL     1     -34.862  43.290  26.677  1.00  0.00     0.254 C 
BRANCH  19  20
HETATM   20  N4  UNL     1     -34.514  44.565  26.011  1.00  0.00    -0.068 N 
ATOM     21  H43 UNL     1     -33.532  44.828  26.099  1.00  0.00     0.275 HD
ATOM     22  H42 UNL     1     -34.526  44.521  24.992  1.00  0.00     0.275 HD
ATOM     23  H41 UNL     1     -35.166  45.240  26.410  1.00  0.00     0.275 HD
ENDBRANCH  19  20
BRANCH  19  24
HETATM   24  C7  UNL     1     -34.802  43.441  28.138  1.00  0.00     0.182 C 
HETATM   25  O2  UNL     1     -35.174  42.556  28.881  1.00  0.00    -0.294 OA
BRANCH  24  26
HETATM   26  C8  UNL     1     -34.282  44.686  28.747  1.00  0.00     0.309 C 
BRANCH  26  27
HETATM   27  N5  UNL     1     -33.409  44.392  29.868  1.00  0.00    -0.073 N 
ATOM     28  H53 UNL     1     -33.209  43.394  29.936  1.00  0.00     0.274 HD
ATOM     29  H52 UNL     1     -32.461  44.730  29.705  1.00  0.00     0.274 HD
ATOM     30  H51 UNL     1     -33.796  44.758  30.738  1.00  0.00     0.274 HD
ENDBRANCH  26  27
ENDBRANCH  24  26
ENDBRANCH  19  24
ENDBRANCH  18  19
ENDBRANCH  17  18
ENDBRANCH   1  17
BRANCH   4  31
HETATM   31  C10 UNL     1     -31.460  40.272  22.419  1.00  0.00     0.285 C 
BRANCH  31  32
HETATM   32  N7  UNL     1     -32.415  39.553  23.235  1.00  0.00    -0.066 N 
ATOM     33  H73 UNL     1     -33.371  39.663  22.897  1.00  0.00     0.275 HD
ATOM     34  H72 UNL     1     -32.336  38.543  23.123  1.00  0.00     0.275 HD
ATOM     35  H71 UNL     1     -32.313  39.842  24.208  1.00  0.00     0.275 HD
ENDBRANCH  31  32
BRANCH  31  36
HETATM   36  C11 UNL     1     -30.085  39.592  22.463  1.00  0.00     0.129 C 
HETATM   37  S1  UNL     1     -29.036  40.275  21.160  1.00  0.00    -0.095 SA
ENDBRANCH  31  36
ENDBRANCH   4  31
TORSDOF 12
ENDMDL
MODEL 2
REMARK VINA RESULT: -4.982743746      2.807      5.513
REMARK  12 active torsions:
REMARK  status: ('A' for Active; 'I' for Inactive)
REMARK    1  A    between atoms: N1_1  and  C1_4 
REMARK    2  A    between atoms: N3_9  and  C3_10 
REMARK    3  A    between atoms: C3_10  and  C4_11 
REMARK    4  A    between atoms: C4_11  and  C5_12 
REMARK    5  A    between atoms: C5_12  and  C6_13 
REMARK    6  A    between atoms: C6_13  and  N4_14 
REMARK    7  A    between atoms: C6_13  and  C7_18 
REMARK    8  A    between atoms: C7_18  and  C8_20 
REMARK    9  A    between atoms: C8_20  and  N5_21 
REMARK       I    between atoms: N6_25  and  C9_27 
REMARK   10  A    between atoms: C9_27  and  C10_29 
REMARK   11  A    between atoms: C10_29  and  N7_30 
REMARK   12  A    between atoms: C10_29  and  C11_34 
ROOT
HETATM    1  C3  UNL     1     -31.731  42.566  25.142  1.00  0.00     0.111 C 
HETATM    2  N6  UNL     1     -32.946  42.171  25.148  1.00  0.00    -0.313 N 
ATOM      3  H6  UNL     1     -33.392  42.047  26.057  1.00  0.00     0.170 HD
HETATM    4  C9  UNL     1     -33.728  41.889  24.003  1.00  0.00     0.254 C 
HETATM    5  O3  UNL     1     -33.442  40.891  23.299  1.00  0.00    -0.271 OA
ENDROOT
BRANCH   1   6
HETATM    6  N3  UNL     1     -31.070  42.811  26.401  1.00  0.00    -0.178 N 
HETATM    7  C2  UNL     1     -30.897  44.023  26.975  1.00  0.00     0.361 A 
HETATM    8  N2  UNL     1     -30.237  43.786  28.127  1.00  0.00    -0.139 N 
HETATM    9  O1  UNL     1     -31.276  45.142  26.522  1.00  0.00    -0.244 OA
HETATM   10  C1  UNL     1     -30.000  42.472  28.279  1.00  0.00     0.695 A 
ATOM     11  H2  UNL     1     -29.955  44.507  28.792  1.00  0.00     0.189 HD
HETATM   12  N8  UNL     1     -30.530  41.891  27.188  1.00  0.00    -0.120 N 
ATOM     13  H8  UNL     1     -30.520  40.890  26.995  1.00  0.00     0.206 HD
BRANCH  10  14
HETATM   14  N1  UNL     1     -29.382  41.902  29.283  1.00  0.00    -0.233 N 
ATOM     15  H12 UNL     1     -29.662  41.875  30.264  1.00  0.00     0.174 HD
ATOM     16  H11 UNL     1     -28.504  41.385  29.240  1.00  0.00     0.174 HD
ENDBRANCH  10  14
ENDBRANCH   1   6
BRANCH   1  17
HETATM   17  C4  UNL     1     -30.973  42.782  23.882  1.00  0.00     0.081 C 
BRANCH  17  18
HETATM   18  C5  UNL     1     -29.958  41.700  23.717  1.00  0.00     0.048 C 
BRANCH  18  19
HETATM   19  C6  UNL     1     -30.169  40.804  22.523  1.00  0.00     0.254 C 
BRANCH  19  20
HETATM   20  N4  UNL     1     -30.940  39.661  23.059  1.00  0.00    -0.068 N 
ATOM     21  H43 UNL     1     -30.872  39.548  24.071  1.00  0.00     0.275 HD
ATOM     22  H42 UNL     1     -31.952  39.788  23.029  1.00  0.00     0.275 HD
ATOM     23  H41 UNL     1     -30.602  38.860  22.525  1.00  0.00     0.275 HD
ENDBRANCH  19  20
BRANCH  19  24
HETATM   24  C7  UNL     1     -28.925  40.334  21.894  1.00  0.00     0.182 C 
HETATM   25  O2  UNL     1     -28.924  39.404  21.114  1.00  0.00    -0.294 OA
BRANCH  24  26
HETATM   26  C8  UNL     1     -27.633  40.988  22.199  1.00  0.00     0.309 C 
BRANCH  26  27
HETATM   27  N5  UNL     1     -26.520  40.174  21.750  1.00  0.00    -0.073 N 
ATOM     28  H53 UNL     1     -26.720  39.178  21.845  1.00  0.00     0.274 HD
ATOM     29  H52 UNL     1     -26.409  40.213  20.737  1.00  0.00     0.274 HD
ATOM     30  H51 UNL     1     -25.659  40.432  22.233  1.00  0.00     0.274 HD
ENDBRANCH  26  27
ENDBRANCH  24  26
ENDBRANCH  19  24
ENDBRANCH  18  19
ENDBRANCH  17  18
ENDBRANCH   1  17
BRANCH   4  31
HETATM   31  C10 UNL     1     -34.875  42.737  23.611  1.00  0.00     0.285 C 
BRANCH  31  32
HETATM   32  N7  UNL     1     -35.769  41.973  22.767  1.00  0.00    -0.066 N 
ATOM     33  H73 UNL     1     -35.746  42.287  21.796  1.00  0.00     0.275 HD
ATOM     34  H72 UNL     1     -35.440  41.019  22.619  1.00  0.00     0.275 HD
ATOM     35  H71 UNL     1     -36.710  42.000  23.160  1.00  0.00     0.275 HD
ENDBRANCH  31  32
BRANCH  31  36
HETATM   36  C11 UNL     1     -34.393  44.002  22.890  1.00  0.00     0.129 C 
HETATM   37  S1  UNL     1     -34.338  45.377  24.062  1.00  0.00    -0.095 SA
ENDBRANCH  31  36
ENDBRANCH   4  31
TORSDOF 12
ENDMDL
MODEL 3
REMARK VINA RESULT: -4.926573507      2.598      5.179
REMARK  12 active torsions:
REMARK  status: ('A' for Active; 'I' for Inactive)
REMARK    1  A    between atoms: N1_1  and  C1_4 
REMARK    2  A    between atoms: N3_9  and  C3_10 
REMARK    3  A    between atoms: C3_10  and  C4_11 
REMARK    4  A    between atoms: C4_11  and  C5_12 
REMARK    5  A    between atoms: C5_12  and  C6_13 
REMARK    6  A    between atoms: C6_13  and  N4_14 
REMARK    7  A    between atoms: C6_13  and  C7_18 
REMARK    8  A    between atoms: C7_18  and  C8_20 
REMARK    9  A    between atoms: C8_20  and  N5_21 
REMARK       I    between atoms: N6_25  and  C9_27 
REMARK   10  A    between atoms: C9_27  and  C10_29 
REMARK   11  A    between atoms: C10_29  and  N7_30 
REMARK   12  A    between atoms: C10_29  and  C11_34 
ROOT
HETATM    1  C3  UNL     1     -31.522  42.635  25.090  1.00  0.00     0.111 C 
HETATM    2  N6  UNL     1     -32.532  41.879  24.889  1.00  0.00    -0.313 N 
ATOM      3  H6  UNL     1     -32.959  41.445  25.708  1.00  0.00     0.170 HD
HETATM    4  C9  UNL     1     -33.110  41.590  23.630  1.00  0.00     0.254 C 
HETATM    5  O3  UNL     1     -32.467  40.893  22.809  1.00  0.00    -0.271 OA
ENDROOT
BRANCH   1   6
HETATM    6  N3  UNL     1     -31.051  42.830  26.440  1.00  0.00    -0.178 N 
HETATM    7  C2  UNL     1     -31.283  43.920  27.204  1.00  0.00     0.361 A 
HETATM    8  N2  UNL     1     -30.664  43.678  28.378  1.00  0.00    -0.139 N 
HETATM    9  O1  UNL     1     -31.943  44.950  26.880  1.00  0.00    -0.244 OA
HETATM   10  C1  UNL     1     -30.062  42.477  28.359  1.00  0.00     0.695 A 
ATOM     11  H2  UNL     1     -30.654  44.320  29.171  1.00  0.00     0.189 HD
HETATM   12  N8  UNL     1     -30.321  41.973  27.140  1.00  0.00    -0.120 N 
ATOM     13  H8  UNL     1     -30.002  41.064  26.803  1.00  0.00     0.206 HD
BRANCH  10  14
HETATM   14  N1  UNL     1     -29.375  41.935  29.333  1.00  0.00    -0.233 N 
ATOM     15  H12 UNL     1     -29.651  41.808  30.307  1.00  0.00     0.174 HD
ATOM     16  H11 UNL     1     -28.434  41.545  29.268  1.00  0.00     0.174 HD
ENDBRANCH  10  14
ENDBRANCH   1   6
BRANCH   1  17
HETATM   17  C4  UNL     1     -30.812  43.322  23.979  1.00  0.00     0.081 C 
BRANCH  17  18
HETATM   18  C5  UNL     1     -29.466  42.707  23.787  1.00  0.00     0.048 C 
BRANCH  18  19
HETATM   19  C6  UNL     1     -29.039  42.541  22.351  1.00  0.00     0.254 C 
BRANCH  19  20
HETATM   20  N4  UNL     1     -30.294  42.686  21.580  1.00  0.00    -0.068 N 
ATOM     21  H43 UNL     1     -30.956  43.352  21.980  1.00  0.00     0.275 HD
ATOM     22  H42 UNL     1     -30.183  43.163  20.685  1.00  0.00     0.275 HD
ATOM     23  H41 UNL     1     -30.653  41.733  21.506  1.00  0.00     0.275 HD
ENDBRANCH  19  20
BRANCH  19  24
HETATM   24  C7  UNL     1     -28.402  41.249  22.056  1.00  0.00     0.182 C 
HETATM   25  O2  UNL     1     -27.250  41.027  22.367  1.00  0.00    -0.294 OA
BRANCH  24  26
HETATM   26  C8  UNL     1     -29.155  40.177  21.368  1.00  0.00     0.309 C 
BRANCH  26  27
HETATM   27  N5  UNL     1     -29.890  39.365  22.320  1.00  0.00    -0.073 N 
ATOM     28  H53 UNL     1     -29.293  38.663  22.756  1.00  0.00     0.274 HD
ATOM     29  H52 UNL     1     -30.138  39.896  23.154  1.00  0.00     0.274 HD
ATOM     30  H51 UNL     1     -30.710  38.943  21.884  1.00  0.00     0.274 HD
ENDBRANCH  26  27
ENDBRANCH  24  26
ENDBRANCH  19  24
ENDBRANCH  18  19
ENDBRANCH  17  18
ENDBRANCH   1  17
BRANCH   4  31
HETATM   31  C10 UNL     1     -34.451  42.086  23.254  1.00  0.00     0.285 C 
BRANCH  31  32
HETATM   32  N7  UNL     1     -35.078  41.137  22.358  1.00  0.00    -0.066 N 
ATOM     33  H73 UNL     1     -36.095  41.226  22.351  1.00  0.00     0.275 HD
ATOM     34  H72 UNL     1     -34.906  41.359  21.378  1.00  0.00     0.275 HD
ATOM     35  H71 UNL     1     -34.775  40.193  22.600  1.00  0.00     0.275 HD
ENDBRANCH  31  32
BRANCH  31  36
HETATM   36  C11 UNL     1     -34.355  43.470  22.600  1.00  0.00     0.129 C 
HETATM   37  S1  UNL     1     -34.353  43.285  20.801  1.00  0.00    -0.095 SA
ENDBRANCH  31  36
ENDBRANCH   4  31
TORSDOF 12
ENDMDL
MODEL 4
REMARK VINA RESULT: -4.901998490      1.865      1.999
REMARK  12 active torsions:
REMARK  status: ('A' for Active; 'I' for Inactive)
REMARK    1  A    between atoms: N1_1  and  C1_4 
REMARK    2  A    between atoms: N3_9  and  C3_10 
REMARK    3  A    between atoms: C3_10  and  C4_11 
REMARK    4  A    between atoms: C4_11  and  C5_12 
REMARK    5  A    between atoms: C5_12  and  C6_13 
REMARK    6  A    between atoms: C6_13  and  N4_14 
REMARK    7  A    between atoms: C6_13  and  C7_18 
REMARK    8  A    between atoms: C7_18  and  C8_20 
REMARK    9  A    between atoms: C8_20  and  N5_21 
REMARK       I    between atoms: N6_25  and  C9_27 
REMARK   10  A    between atoms: C9_27  and  C10_29 
REMARK   11  A    between atoms: C10_29  and  N7_30 
REMARK   12  A    between atoms: C10_29  and  C11_34 
ROOT
HETATM    1  C3  UNL     1     -30.974  42.200  24.329  1.00  0.00     0.111 C 
HETATM    2  N6  UNL     1     -30.595  41.187  23.649  1.00  0.00    -0.313 N 
ATOM      3  H6  UNL     1     -29.812  40.647  24.015  1.00  0.00     0.170 HD
HETATM    4  C9  UNL     1     -31.168  40.749  22.432  1.00  0.00     0.254 C 
HETATM    5  O3  UNL     1     -31.024  41.451  21.402  1.00  0.00    -0.271 OA
ENDROOT
BRANCH   1   6
HETATM    6  N3  UNL     1     -30.283  42.517  25.556  1.00  0.00    -0.178 N 
HETATM    7  C2  UNL     1     -29.253  43.383  25.678  1.00  0.00     0.361 A 
HETATM    8  N2  UNL     1     -28.921  43.369  26.985  1.00  0.00    -0.139 N 
HETATM    9  O1  UNL     1     -28.716  44.062  24.755  1.00  0.00    -0.244 OA
HETATM   10  C1  UNL     1     -29.712  42.524  27.668  1.00  0.00     0.695 A 
ATOM     11  H2  UNL     1     -28.171  43.923  27.399  1.00  0.00     0.189 HD
HETATM   12  N8  UNL     1     -30.550  42.009  26.751  1.00  0.00    -0.120 N 
ATOM     13  H8  UNL     1     -31.284  41.328  26.947  1.00  0.00     0.206 HD
BRANCH  10  14
HETATM   14  N1  UNL     1     -29.660  42.274  28.952  1.00  0.00    -0.233 N 
ATOM     15  H12 UNL     1     -30.434  42.164  29.607  1.00  0.00     0.174 HD
ATOM     16  H11 UNL     1     -28.816  42.146  29.511  1.00  0.00     0.174 HD
ENDBRANCH  10  14
ENDBRANCH   1   6
BRANCH   1  17
HETATM   17  C4  UNL     1     -32.102  43.068  23.899  1.00  0.00     0.081 C 
BRANCH  17  18
HETATM   18  C5  UNL     1     -33.344  42.669  24.625  1.00  0.00     0.048 C 
BRANCH  18  19
HETATM   19  C6  UNL     1     -33.836  43.667  25.643  1.00  0.00     0.254 C 
BRANCH  19  20
HETATM   20  N4  UNL     1     -32.994  44.862  25.415  1.00  0.00    -0.068 N 
ATOM     21  H43 UNL     1     -33.115  45.598  26.112  1.00  0.00     0.275 HD
ATOM     22  H42 UNL     1     -32.000  44.712  25.583  1.00  0.00     0.275 HD
ATOM     23  H41 UNL     1     -33.219  45.148  24.462  1.00  0.00     0.275 HD
ENDBRANCH  19  20
BRANCH  19  24
HETATM   24  C7  UNL     1     -33.718  43.214  27.037  1.00  0.00     0.182 C 
HETATM   25  O2  UNL     1     -33.505  42.050  27.307  1.00  0.00    -0.294 OA
BRANCH  24  26
HETATM   26  C8  UNL     1     -33.857  44.174  28.155  1.00  0.00     0.309 C 
BRANCH  26  27
HETATM   27  N5  UNL     1     -32.618  44.283  28.903  1.00  0.00    -0.073 N 
ATOM     28  H53 UNL     1     -32.598  43.639  29.693  1.00  0.00     0.274 HD
ATOM     29  H52 UNL     1     -31.828  43.909  28.377  1.00  0.00     0.274 HD
ATOM     30  H51 UNL     1     -32.453  45.245  29.197  1.00  0.00     0.274 HD
ENDBRANCH  26  27
ENDBRANCH  24  26
ENDBRANCH  19  24
ENDBRANCH  18  19
ENDBRANCH  17  18
ENDBRANCH   1  17
BRANCH   4  31
HETATM   31  C10 UNL     1     -31.932  39.486  22.336  1.00  0.00     0.285 C 
BRANCH  31  32
HETATM   32  N7  UNL     1     -31.436  38.711  21.219  1.00  0.00    -0.066 N 
ATOM     33  H73 UNL     1     -31.678  39.129  20.321  1.00  0.00     0.275 HD
ATOM     34  H72 UNL     1     -30.422  38.761  21.134  1.00  0.00     0.275 HD
ATOM     35  H71 UNL     1     -31.770  37.750  21.301  1.00  0.00     0.275 HD
ENDBRANCH  31  32
BRANCH  31  36
HETATM   36  C11 UNL     1     -33.431  39.769  22.181  1.00  0.00     0.129 C 
HETATM   37  S1  UNL     1     -33.933  39.426  20.478  1.00  0.00    -0.095 SA
ENDBRANCH  31  36
ENDBRANCH   4  31
TORSDOF 12
ENDMDL
MODEL 5
REMARK VINA RESULT: -4.880122442      3.475      6.456
REMARK  12 active torsions:
REMARK  status: ('A' for Active; 'I' for Inactive)
REMARK    1  A    between atoms: N1_1  and  C1_4 
REMARK    2  A    between atoms: N3_9  and  C3_10 
REMARK    3  A    between atoms: C3_10  and  C4_11 
REMARK    4  A    between atoms: C4_11  and  C5_12 
REMARK    5  A    between atoms: C5_12  and  C6_13 
REMARK    6  A    between atoms: C6_13  and  N4_14 
REMARK    7  A    between atoms: C6_13  and  C7_18 
REMARK    8  A    between atoms: C7_18  and  C8_20 
REMARK    9  A    between atoms: C8_20  and  N5_21 
REMARK       I    between atoms: N6_25  and  C9_27 
REMARK   10  A    between atoms: C9_27  and  C10_29 
REMARK   11  A    between atoms: C10_29  and  N7_30 
REMARK   12  A    between atoms: C10_29  and  C11_34 
ROOT
HETATM    1  C3  UNL     1     -30.424  42.442  23.818  1.00  0.00     0.111 C 
HETATM    2  N6  UNL     1     -31.302  43.182  23.259  1.00  0.00    -0.313 N 
ATOM      3  H6  UNL     1     -31.661  43.969  23.800  1.00  0.00     0.170 HD
HETATM    4  C9  UNL     1     -31.821  43.006  21.954  1.00  0.00     0.254 C 
HETATM    5  O3  UNL     1     -32.554  42.016  21.718  1.00  0.00    -0.271 OA
ENDROOT
BRANCH   1   6
HETATM    6  N3  UNL     1     -29.997  42.756  25.160  1.00  0.00    -0.178 N 
HETATM    7  C2  UNL     1     -29.168  43.766  25.505  1.00  0.00     0.361 A 
HETATM    8  N2  UNL     1     -29.042  43.689  26.846  1.00  0.00    -0.139 N 
HETATM    9  O1  UNL     1     -28.626  44.606  24.728  1.00  0.00    -0.244 OA
HETATM   10  C1  UNL     1     -29.765  42.667  27.334  1.00  0.00     0.695 A 
ATOM     11  H2  UNL     1     -28.475  44.321  27.412  1.00  0.00     0.189 HD
HETATM   12  N8  UNL     1     -30.348  42.105  26.260  1.00  0.00    -0.120 N 
ATOM     13  H8  UNL     1     -30.970  41.297  26.289  1.00  0.00     0.206 HD
BRANCH  10  14
HETATM   14  N1  UNL     1     -29.866  42.314  28.590  1.00  0.00    -0.233 N 
ATOM     15  H12 UNL     1     -30.030  41.383  28.975  1.00  0.00     0.174 HD
ATOM     16  H11 UNL     1     -29.793  42.929  29.401  1.00  0.00     0.174 HD
ENDBRANCH  10  14
ENDBRANCH   1   6
BRANCH   1  17
HETATM   17  C4  UNL     1     -29.826  41.265  23.134  1.00  0.00     0.081 C 
BRANCH  17  18
HETATM   18  C5  UNL     1     -28.494  41.636  22.572  1.00  0.00     0.048 C 
BRANCH  18  19
HETATM   19  C6  UNL     1     -28.198  41.070  21.206  1.00  0.00     0.254 C 
BRANCH  19  20
HETATM   20  N4  UNL     1     -29.205  40.000  21.031  1.00  0.00    -0.068 N 
ATOM     21  H43 UNL     1     -29.125  39.491  20.151  1.00  0.00     0.275 HD
ATOM     22  H42 UNL     1     -29.066  39.192  21.639  1.00  0.00     0.275 HD
ATOM     23  H41 UNL     1     -30.099  40.474  21.162  1.00  0.00     0.275 HD
ENDBRANCH  19  20
BRANCH  19  24
HETATM   24  C7  UNL     1     -26.840  40.526  21.060  1.00  0.00     0.182 C 
HETATM   25  O2  UNL     1     -26.273  39.986  21.988  1.00  0.00    -0.294 OA
BRANCH  24  26
HETATM   26  C8  UNL     1     -26.123  40.624  19.769  1.00  0.00     0.309 C 
BRANCH  26  27
HETATM   27  N5  UNL     1     -24.741  40.207  19.910  1.00  0.00    -0.073 N 
ATOM     28  H53 UNL     1     -24.601  39.642  20.747  1.00  0.00     0.274 HD
ATOM     29  H52 UNL     1     -24.485  39.510  19.210  1.00  0.00     0.274 HD
ATOM     30  H51 UNL     1     -24.113  41.010  19.888  1.00  0.00     0.274 HD
ENDBRANCH  26  27
ENDBRANCH  24  26
ENDBRANCH  19  24
ENDBRANCH  18  19
ENDBRANCH  17  18
ENDBRANCH   1  17
BRANCH   4  31
HETATM   31  C10 UNL     1     -31.525  43.955  20.860  1.00  0.00     0.285 C 
BRANCH  31  32
HETATM   32  N7  UNL     1     -30.740  43.287  19.845  1.00  0.00    -0.066 N 
ATOM     33  H73 UNL     1     -29.988  42.725  20.246  1.00  0.00     0.275 HD
ATOM     34  H72 UNL     1     -31.256  42.535  19.390  1.00  0.00     0.275 HD
ATOM     35  H71 UNL     1     -30.394  43.976  19.177  1.00  0.00     0.275 HD
ENDBRANCH  31  32
BRANCH  31  36
HETATM   36  C11 UNL     1     -30.787  45.188  21.396  1.00  0.00     0.129 C 
HETATM   37  S1  UNL     1     -29.034  45.070  20.970  1.00  0.00    -0.095 SA
ENDBRANCH  31  36
ENDBRANCH   4  31
TORSDOF 12
ENDMDL
