MODEL 1
REMARK VINA RESULT: -4.860493380      0.000      0.000
REMARK  11 active torsions:
REMARK  status: ('A' for Active; 'I' for Inactive)
REMARK    1  A    between atoms: O1_2  and  C2_3 
REMARK    2  A    between atoms: C2_3  and  C3_4 
REMARK    3  A    between atoms: C2_3  and  N7_28 
REMARK    4  A    between atoms: C3_4  and  O2_5 
REMARK    5  A    between atoms: C3_4  and  C4_7 
REMARK    6  A    between atoms: C4_7  and  N1_8 
REMARK    7  A    between atoms: N1_8  and  C5_10 
REMARK    8  A    between atoms: C6_13  and  N3_14 
REMARK    9  A    between atoms: N7_28  and  C12_30 
REMARK   10  A    between atoms: C12_30  and  C13_31 
REMARK   11  A    between atoms: C13_31  and  N8_32 
ROOT
HETATM    1  C5  UNL     1     -31.547  41.282  23.518  1.00  0.00     0.136 A 
HETATM    2  N2  UNL     1     -32.557  40.477  23.175  1.00  0.00    -0.176 N 
ATOM      3  H2  UNL     1     -33.466  40.622  23.615  1.00  0.00     0.186 HD
HETATM    4  C6  UNL     1     -32.427  39.485  22.276  1.00  0.00     0.679 A 
HETATM    5  N4  UNL     1     -31.239  39.287  21.693  1.00  0.00    -0.176 N 
ATOM      6  H4  UNL     1     -31.132  38.537  21.011  1.00  0.00     0.186 HD
HETATM    7  C7  UNL     1     -30.182  40.063  21.995  1.00  0.00     0.141 A 
HETATM    8  N5  UNL     1     -29.020  39.822  21.387  1.00  0.00    -0.337 N 
ATOM      9  H5  UNL     1     -28.935  39.067  20.706  1.00  0.00     0.168 HD
HETATM   10  C8  UNL     1     -27.970  40.592  21.688  1.00  0.00     0.184 A 
HETATM   11  N6  UNL     1     -28.070  41.595  22.586  1.00  0.00    -0.319 N 
ATOM     12  H6  UNL     1     -27.250  42.165  22.795  1.00  0.00     0.169 HD
HETATM   13  C9  UNL     1     -29.219  41.852  23.204  1.00  0.00     0.264 A 
HETATM   14  O3  UNL     1     -29.381  42.769  24.049  1.00  0.00    -0.267 OA
HETATM   15  C10 UNL     1     -30.321  41.074  22.913  1.00  0.00     0.121 A 
ENDROOT
BRANCH   1  16
HETATM   16  N1  UNL     1     -31.625  42.240  24.363  1.00  0.00    -0.372 N 
ATOM     17  H1  UNL     1     -30.759  42.568  24.791  1.00  0.00     0.161 HD
BRANCH  16  18
HETATM   18  C4  UNL     1     -32.859  42.892  24.754  1.00  0.00     0.157 C 
BRANCH  18  19
HETATM   19  C3  UNL     1     -32.919  42.939  26.265  1.00  0.00     0.184 C 
BRANCH  19  20
HETATM   20  C2  UNL     1     -31.538  43.285  26.871  1.00  0.00     0.252 C 
BRANCH  20  21
HETATM   21  O1  UNL     1     -31.240  42.217  27.687  1.00  0.00    -0.369 OA
HETATM   22  C1  UNL     1     -29.949  42.236  28.213  1.00  0.00     0.204 C 
ENDBRANCH  20  21
BRANCH  20  23
HETATM   23  N7  UNL     1     -31.555  44.500  27.524  1.00  0.00    -0.368 N 
HETATM   24  C11 UNL     1     -32.663  44.733  28.423  1.00  0.00     0.151 C 
BRANCH  23  25
HETATM   25  C12 UNL     1     -30.698  45.567  27.332  1.00  0.00     0.087 C 
BRANCH  25  26
HETATM   26  C13 UNL     1     -30.148  45.636  25.937  1.00  0.00     0.274 C 
BRANCH  26  27
HETATM   27  N8  UNL     1     -28.750  45.212  25.920  1.00  0.00    -0.075 N 
ATOM     28  H83 UNL     1     -28.258  45.493  26.768  1.00  0.00     0.274 HD
ATOM     29  H82 UNL     1     -28.658  44.202  26.021  1.00  0.00     0.274 HD
ATOM     30  H81 UNL     1     -28.286  45.555  25.079  1.00  0.00     0.274 HD
ENDBRANCH  26  27
ENDBRANCH  25  26
ENDBRANCH  23  25
ENDBRANCH  20  23
ENDBRANCH  19  20
BRANCH  19  31
HETATM   31  O2  UNL     1     -33.286  41.653  26.666  1.00  0.00    -0.390 OA
ATOM     32  H2  UNL     1     -33.300  41.614  27.614  1.00  0.00     0.210 HD
ENDBRANCH  19  31
ENDBRANCH  18  19
ENDBRANCH  16  18
ENDBRANCH   1  16
BRANCH   4  33
HETATM   33  N3  UNL     1     -33.449  38.732  21.978  1.00  0.00    -0.234 N 
ATOM     34  H32 UNL     1     -34.132  38.475  22.690  1.00  0.00     0.174 HD
ATOM     35  H31 UNL     1     -33.574  38.389  21.026  1.00  0.00     0.174 HD
ENDBRANCH   4  33
TORSDOF 11
ENDMDL
MODEL 2
REMARK VINA RESULT: -4.859865371      0.772      1.669
REMARK  11 active torsions:
REMARK  status: ('A' for Active; 'I' for Inactive)
REMARK    1  A    between atoms: O1_2  and  C2_3 
REMARK    2  A    between atoms: C2_3  and  C3_4 
REMARK    3  A    between atoms: C2_3  and  N7_28 
REMARK    4  A    between atoms: C3_4  and  O2_5 
REMARK    5  A    between atoms: C3_4  and  C4_7 
REMARK    6  A    between atoms: C4_7  and  N1_8 
REMARK    7  A    between atoms: N1_8  and  C5_10 
REMARK    8  A    between atoms: C6_13  and  N3_14 
REMARK    9  A    between atoms: N7_28  and  C12_30 
REMARK   10  A    between atoms: C12_30  and  C13_31 
REMARK   11  A    between atoms: C13_31  and  N8_32 
ROOT
HETATM    1  C5  UNL     1     -31.530  41.183  23.478  1.00  0.00     0.136 A 
HETATM    2  N2  UNL     1     -32.544  40.386  23.131  1.00  0.00    -0.176 N 
ATOM      3  H2  UNL     1     -33.440  40.502  23.605  1.00  0.00     0.186 HD
HETATM    4  C6  UNL     1     -32.435  39.436  22.183  1.00  0.00     0.679 A 
HETATM    5  N4  UNL     1     -31.265  39.275  21.555  1.00  0.00    -0.176 N 
ATOM      6  H4  UNL     1     -31.174  38.558  20.836  1.00  0.00     0.186 HD
HETATM    7  C7  UNL     1     -30.204  40.046  21.860  1.00  0.00     0.141 A 
HETATM    8  N5  UNL     1     -29.061  39.843  21.206  1.00  0.00    -0.337 N 
ATOM      9  H5  UNL     1     -28.991  39.121  20.489  1.00  0.00     0.168 HD
HETATM   10  C8  UNL     1     -28.007  40.607  21.510  1.00  0.00     0.184 A 
HETATM   11  N6  UNL     1     -28.086  41.567  22.455  1.00  0.00    -0.319 N 
ATOM     12  H6  UNL     1     -27.264  42.134  22.664  1.00  0.00     0.169 HD
HETATM   13  C9  UNL     1     -29.217  41.786  23.119  1.00  0.00     0.264 A 
HETATM   14  O3  UNL     1     -29.359  42.662  24.010  1.00  0.00    -0.267 OA
HETATM   15  C10 UNL     1     -30.322  41.013  22.827  1.00  0.00     0.121 A 
ENDROOT
BRANCH   1  16
HETATM   16  N1  UNL     1     -31.588  42.100  24.369  1.00  0.00    -0.372 N 
ATOM     17  H1  UNL     1     -30.742  42.296  24.905  1.00  0.00     0.161 HD
BRANCH  16  18
HETATM   18  C4  UNL     1     -32.773  42.879  24.669  1.00  0.00     0.157 C 
BRANCH  18  19
HETATM   19  C3  UNL     1     -32.934  42.948  26.172  1.00  0.00     0.184 C 
BRANCH  19  20
HETATM   20  C2  UNL     1     -31.649  43.481  26.850  1.00  0.00     0.252 C 
BRANCH  20  21
HETATM   21  O1  UNL     1     -31.461  42.653  27.934  1.00  0.00    -0.369 OA
HETATM   22  C1  UNL     1     -30.132  42.307  28.170  1.00  0.00     0.204 C 
ENDBRANCH  20  21
BRANCH  20  23
HETATM   23  N7  UNL     1     -31.760  44.817  27.178  1.00  0.00    -0.368 N 
HETATM   24  C11 UNL     1     -30.561  45.613  27.055  1.00  0.00     0.151 C 
BRANCH  23  25
HETATM   25  C12 UNL     1     -32.858  45.458  27.722  1.00  0.00     0.087 C 
BRANCH  25  26
HETATM   26  C13 UNL     1     -32.740  45.672  29.203  1.00  0.00     0.274 C 
BRANCH  26  27
HETATM   27  N8  UNL     1     -33.234  44.502  29.926  1.00  0.00    -0.075 N 
ATOM     28  H83 UNL     1     -32.916  43.631  29.501  1.00  0.00     0.274 HD
ATOM     29  H82 UNL     1     -32.785  44.399  30.836  1.00  0.00     0.274 HD
ATOM     30  H81 UNL     1     -34.250  44.538  30.004  1.00  0.00     0.274 HD
ENDBRANCH  26  27
ENDBRANCH  25  26
ENDBRANCH  23  25
ENDBRANCH  20  23
ENDBRANCH  19  20
BRANCH  19  31
HETATM   31  O2  UNL     1     -33.159  41.634  26.585  1.00  0.00    -0.390 OA
ATOM     32  H2  UNL     1     -34.084  41.436  26.504  1.00  0.00     0.210 HD
ENDBRANCH  19  31
ENDBRANCH  18  19
ENDBRANCH  16  18
ENDBRANCH   1  16
BRANCH   4  33
HETATM   33  N3  UNL     1     -33.461  38.689  21.882  1.00  0.00    -0.234 N 
ATOM     34  H32 UNL     1     -34.263  39.079  21.388  1.00  0.00     0.174 HD
ATOM     35  H31 UNL     1     -33.471  37.703  22.143  1.00  0.00     0.174 HD
ENDBRANCH   4  33
TORSDOF 11
ENDMDL
MODEL 3
REMARK VINA RESULT: -4.846369695      3.112      7.250
REMARK  11 active torsions:
REMARK  status: ('A' for Active; 'I' for Inactive)
REMARK    1  A    between atoms: O1_2  and  C2_3 
REMARK    2  A    between atoms: C2_3  and  C3_4 
REMARK    3  A    between atoms: C2_3  and  N7_28 
REMARK    4  A    between atoms: C3_4  and  O2_5 
REMARK    5  A    between atoms: C3_4  and  C4_7 
REMARK    6  A    between atoms: C4_7  and  N1_8 
REMARK    7  A    between atoms: N1_8  and  C5_10 
REMARK    8  A    between atoms: C6_13  and  N3_14 
REMARK    9  A    between atoms: N7_28  and  C12_30 
REMARK   10  A    between atoms: C12_30  and  C13_31 
REMARK   11  A    between atoms: C13_31  and  N8_32 
ROOT
HETATM    1  C5  UNL     1     -30.246  40.950  22.450  1.00  0.00     0.136 A 
HETATM    2  N2  UNL     1     -31.106  40.029  22.007  1.00  0.00    -0.176 N 
ATOM      3  H2  UNL     1     -30.823  39.430  21.232  1.00  0.00     0.186 HD
HETATM    4  C6  UNL     1     -32.330  39.858  22.540  1.00  0.00     0.679 A 
HETATM    5  N4  UNL     1     -32.712  40.639  23.557  1.00  0.00    -0.176 N 
ATOM      6  H4  UNL     1     -33.638  40.516  23.966  1.00  0.00     0.186 HD
HETATM    7  C7  UNL     1     -31.891  41.586  24.048  1.00  0.00     0.141 A 
HETATM    8  N5  UNL     1     -32.322  42.338  25.062  1.00  0.00    -0.337 N 
ATOM      9  H5  UNL     1     -33.251  42.198  25.457  1.00  0.00     0.168 HD
HETATM   10  C8  UNL     1     -31.507  43.279  25.548  1.00  0.00     0.184 A 
HETATM   11  N6  UNL     1     -30.274  43.474  25.035  1.00  0.00    -0.319 N 
ATOM     12  H6  UNL     1     -29.676  44.201  25.429  1.00  0.00     0.169 HD
HETATM   13  C9  UNL     1     -29.825  42.735  24.025  1.00  0.00     0.264 A 
HETATM   14  O3  UNL     1     -28.690  42.863  23.500  1.00  0.00    -0.267 OA
HETATM   15  C10 UNL     1     -30.644  41.755  23.501  1.00  0.00     0.121 A 
ENDROOT
BRANCH   1  16
HETATM   16  N1  UNL     1     -29.072  41.146  21.978  1.00  0.00    -0.372 N 
ATOM     17  H1  UNL     1     -28.697  42.094  22.015  1.00  0.00     0.161 HD
BRANCH  16  18
HETATM   18  C4  UNL     1     -28.238  40.113  21.396  1.00  0.00     0.157 C 
BRANCH  18  19
HETATM   19  C3  UNL     1     -27.080  40.776  20.683  1.00  0.00     0.184 C 
BRANCH  19  20
HETATM   20  C2  UNL     1     -27.194  40.606  19.149  1.00  0.00     0.252 C 
BRANCH  20  21
HETATM   21  O1  UNL     1     -27.291  39.246  18.958  1.00  0.00    -0.369 OA
HETATM   22  C1  UNL     1     -28.259  38.863  18.032  1.00  0.00     0.204 C 
ENDBRANCH  20  21
BRANCH  20  23
HETATM   23  N7  UNL     1     -26.132  41.190  18.490  1.00  0.00    -0.368 N 
HETATM   24  C11 UNL     1     -26.025  42.628  18.585  1.00  0.00     0.151 C 
BRANCH  23  25
HETATM   25  C12 UNL     1     -25.223  40.571  17.652  1.00  0.00     0.087 C 
BRANCH  25  26
HETATM   26  C13 UNL     1     -23.808  40.669  18.146  1.00  0.00     0.274 C 
BRANCH  26  27
HETATM   27  N8  UNL     1     -23.634  39.859  19.350  1.00  0.00    -0.075 N 
ATOM     28  H83 UNL     1     -24.112  40.266  20.154  1.00  0.00     0.274 HD
ATOM     29  H82 UNL     1     -24.150  38.981  19.296  1.00  0.00     0.274 HD
ATOM     30  H81 UNL     1     -22.642  39.708  19.534  1.00  0.00     0.274 HD
ENDBRANCH  26  27
ENDBRANCH  25  26
ENDBRANCH  23  25
ENDBRANCH  20  23
ENDBRANCH  19  20
BRANCH  19  31
HETATM   31  O2  UNL     1     -25.936  40.115  21.134  1.00  0.00    -0.390 OA
ATOM     32  H2  UNL     1     -25.888  40.184  22.080  1.00  0.00     0.210 HD
ENDBRANCH  19  31
ENDBRANCH  18  19
ENDBRANCH  16  18
ENDBRANCH   1  16
BRANCH   4  33
HETATM   33  N3  UNL     1     -33.128  38.940  22.069  1.00  0.00    -0.234 N 
ATOM     34  H32 UNL     1     -32.772  38.018  21.820  1.00  0.00     0.174 HD
ATOM     35  H31 UNL     1     -34.120  39.139  21.942  1.00  0.00     0.174 HD
ENDBRANCH   4  33
TORSDOF 11
ENDMDL
MODEL 4
REMARK VINA RESULT: -4.814911085      3.585      6.140
REMARK  11 active torsions:
REMARK  status: ('A' for Active; 'I' for Inactive)
REMARK    1  A    between atoms: O1_2  and  C2_3 
REMARK    2  A    between atoms: C2_3  and  C3_4 
REMARK    3  A    between atoms: C2_3  and  N7_28 
REMARK    4  A    between atoms: C3_4  and  O2_5 
REMARK    5  A    between atoms: C3_4  and  C4_7 
REMARK    6  A    between atoms: C4_7  and  N1_8 
REMARK    7  A    between atoms: N1_8  and  C5_10 
REMARK    8  A    between atoms: C6_13  and  N3_14 
REMARK    9  A    between atoms: N7_28  and  C12_30 
REMARK   10  A    between atoms: C12_30  and  C13_31 
REMARK   11  A    between atoms: C13_31  and  N8_32 
ROOT
HETATM    1  C5  UNL     1     -31.219  44.516  27.678  1.00  0.00     0.136 A 
HETATM    2  N2  UNL     1     -30.564  43.785  28.585  1.00  0.00    -0.176 N 
ATOM      3  H2  UNL     1     -30.410  44.182  29.512  1.00  0.00     0.186 HD
HETATM    4  C6  UNL     1     -30.100  42.548  28.328  1.00  0.00     0.679 A 
HETATM    5  N4  UNL     1     -30.297  42.018  27.115  1.00  0.00    -0.176 N 
ATOM      6  H4  UNL     1     -29.948  41.082  26.913  1.00  0.00     0.186 HD
HETATM    7  C7  UNL     1     -30.948  42.704  26.158  1.00  0.00     0.141 A 
HETATM    8  N5  UNL     1     -31.116  42.131  24.966  1.00  0.00    -0.337 N 
ATOM      9  H5  UNL     1     -30.761  41.192  24.784  1.00  0.00     0.168 HD
HETATM   10  C8  UNL     1     -31.762  42.813  24.015  1.00  0.00     0.184 A 
HETATM   11  N6  UNL     1     -32.239  44.055  24.243  1.00  0.00    -0.319 N 
ATOM     12  H6  UNL     1     -32.728  44.549  23.497  1.00  0.00     0.169 HD
HETATM   13  C9  UNL     1     -32.083  44.645  25.424  1.00  0.00     0.264 A 
HETATM   14  O3  UNL     1     -32.501  45.797  25.704  1.00  0.00    -0.267 OA
HETATM   15  C10 UNL     1     -31.420  43.965  26.427  1.00  0.00     0.121 A 
ENDROOT
BRANCH   1  16
HETATM   16  N1  UNL     1     -31.681  45.693  27.879  1.00  0.00    -0.372 N 
ATOM     17  H1  UNL     1     -31.882  46.270  27.061  1.00  0.00     0.161 HD
BRANCH  16  18
HETATM   18  C4  UNL     1     -31.939  46.262  29.186  1.00  0.00     0.157 C 
BRANCH  18  19
HETATM   19  C3  UNL     1     -33.360  45.926  29.585  1.00  0.00     0.184 C 
BRANCH  19  20
HETATM   20  C2  UNL     1     -34.023  47.102  30.341  1.00  0.00     0.252 C 
BRANCH  20  21
HETATM   21  O1  UNL     1     -33.511  47.026  31.616  1.00  0.00    -0.369 OA
HETATM   22  C1  UNL     1     -32.972  48.220  32.092  1.00  0.00     0.204 C 
ENDBRANCH  20  21
BRANCH  20  23
HETATM   23  N7  UNL     1     -35.400  47.034  30.286  1.00  0.00    -0.368 N 
HETATM   24  C11 UNL     1     -35.987  46.896  28.973  1.00  0.00     0.151 C 
BRANCH  23  25
HETATM   25  C12 UNL     1     -36.290  47.197  31.331  1.00  0.00     0.087 C 
BRANCH  25  26
HETATM   26  C13 UNL     1     -36.857  45.899  31.829  1.00  0.00     0.274 C 
BRANCH  26  27
HETATM   27  N8  UNL     1     -35.787  45.034  32.322  1.00  0.00    -0.075 N 
ATOM     28  H83 UNL     1     -34.986  45.022  31.690  1.00  0.00     0.274 HD
ATOM     29  H82 UNL     1     -35.325  45.429  33.141  1.00  0.00     0.274 HD
ATOM     30  H81 UNL     1     -36.145  44.096  32.501  1.00  0.00     0.274 HD
ENDBRANCH  26  27
ENDBRANCH  25  26
ENDBRANCH  23  25
ENDBRANCH  20  23
ENDBRANCH  19  20
BRANCH  19  31
HETATM   31  O2  UNL     1     -33.258  44.829  30.441  1.00  0.00    -0.390 OA
ATOM     32  H2  UNL     1     -33.073  44.051  29.930  1.00  0.00     0.210 HD
ENDBRANCH  19  31
ENDBRANCH  18  19
ENDBRANCH  16  18
ENDBRANCH   1  16
BRANCH   4  33
HETATM   33  N3  UNL     1     -29.470  41.879  29.253  1.00  0.00    -0.234 N 
ATOM     34  H32 UNL     1     -29.535  42.156  30.232  1.00  0.00     0.174 HD
ATOM     35  H31 UNL     1     -28.903  41.069  29.004  1.00  0.00     0.174 HD
ENDBRANCH   4  33
TORSDOF 11
ENDMDL
MODEL 5
REMARK VINA RESULT: -4.762637738      3.562      5.992
REMARK  11 active torsions:
REMARK  status: ('A' for Active; 'I' for Inactive)
REMARK    1  A    between atoms: O1_2  and  C2_3 
REMARK    2  A    between atoms: C2_3  and  C3_4 
REMARK    3  A    between atoms: C2_3  and  N7_28 
REMARK    4  A    between atoms: C3_4  and  O2_5 
REMARK    5  A    between atoms: C3_4  and  C4_7 
REMARK    6  A    between atoms: C4_7  and  N1_8 
REMARK    7  A    between atoms: N1_8  and  C5_10 
REMARK    8  A    between atoms: C6_13  and  N3_14 
REMARK    9  A    between atoms: N7_28  and  C12_30 
REMARK   10  A    between atoms: C12_30  and  C13_31 
REMARK   11  A    between atoms: C13_31  and  N8_32 
ROOT
HETATM    1  C5  UNL     1     -30.408  44.645  27.563  1.00  0.00     0.136 A 
HETATM    2  N2  UNL     1     -29.990  43.830  28.536  1.00  0.00    -0.176 N 
ATOM      3  H2  UNL     1     -29.726  44.238  29.433  1.00  0.00     0.186 HD
HETATM    4  C6  UNL     1     -29.902  42.496  28.384  1.00  0.00     0.679 A 
HETATM    5  N4  UNL     1     -30.246  41.952  27.211  1.00  0.00    -0.176 N 
ATOM      6  H4  UNL     1     -30.182  40.942  27.087  1.00  0.00     0.186 HD
HETATM    7  C7  UNL     1     -30.675  42.718  26.191  1.00  0.00     0.141 A 
HETATM    8  N5  UNL     1     -31.003  42.125  25.043  1.00  0.00    -0.337 N 
ATOM      9  H5  UNL     1     -30.933  41.113  24.940  1.00  0.00     0.168 HD
HETATM   10  C8  UNL     1     -31.428  42.887  24.030  1.00  0.00     0.184 A 
HETATM   11  N6  UNL     1     -31.526  44.228  24.153  1.00  0.00    -0.319 N 
ATOM     12  H6  UNL     1     -31.853  44.781  23.362  1.00  0.00     0.169 HD
HETATM   13  C9  UNL     1     -31.204  44.839  25.289  1.00  0.00     0.264 A 
HETATM   14  O3  UNL     1     -31.272  46.081  25.472  1.00  0.00    -0.267 OA
HETATM   15  C10 UNL     1     -30.763  44.079  26.353  1.00  0.00     0.121 A 
ENDROOT
BRANCH   1  16
HETATM   16  N1  UNL     1     -30.512  45.917  27.664  1.00  0.00    -0.372 N 
ATOM     17  H1  UNL     1     -30.569  46.459  26.802  1.00  0.00     0.161 HD
BRANCH  16  18
HETATM   18  C4  UNL     1     -30.553  46.641  28.919  1.00  0.00     0.157 C 
BRANCH  18  19
HETATM   19  C3  UNL     1     -32.001  46.868  29.295  1.00  0.00     0.184 C 
BRANCH  19  20
HETATM   20  C2  UNL     1     -32.143  48.036  30.301  1.00  0.00     0.252 C 
BRANCH  20  21
HETATM   21  O1  UNL     1     -31.384  47.653  31.384  1.00  0.00    -0.369 OA
HETATM   22  C1  UNL     1     -30.622  48.677  31.943  1.00  0.00     0.204 C 
ENDBRANCH  20  21
BRANCH  20  23
HETATM   23  N7  UNL     1     -33.464  48.292  30.605  1.00  0.00    -0.368 N 
HETATM   24  C11 UNL     1     -34.208  49.072  29.643  1.00  0.00     0.151 C 
BRANCH  23  25
HETATM   25  C12 UNL     1     -34.128  47.986  31.778  1.00  0.00     0.087 C 
BRANCH  25  26
HETATM   26  C13 UNL     1     -35.257  47.016  31.579  1.00  0.00     0.274 C 
BRANCH  26  27
HETATM   27  N8  UNL     1     -34.815  45.656  31.878  1.00  0.00    -0.075 N 
ATOM     28  H83 UNL     1     -34.250  45.617  32.727  1.00  0.00     0.274 HD
ATOM     29  H82 UNL     1     -35.587  45.064  32.185  1.00  0.00     0.274 HD
ATOM     30  H81 UNL     1     -34.326  45.259  31.077  1.00  0.00     0.274 HD
ENDBRANCH  26  27
ENDBRANCH  25  26
ENDBRANCH  23  25
ENDBRANCH  20  23
ENDBRANCH  19  20
BRANCH  19  31
HETATM   31  O2  UNL     1     -32.420  45.685  29.905  1.00  0.00    -0.390 OA
ATOM     32  H2  UNL     1     -32.811  45.119  29.250  1.00  0.00     0.210 HD
ENDBRANCH  19  31
ENDBRANCH  18  19
ENDBRANCH  16  18
ENDBRANCH   1  16
BRANCH   4  33
HETATM   33  N3  UNL     1     -29.490  41.749  29.370  1.00  0.00    -0.234 N 
ATOM     34  H32 UNL     1     -28.494  41.608  29.535  1.00  0.00     0.174 HD
ATOM     35  H31 UNL     1     -30.164  41.295  29.986  1.00  0.00     0.174 HD
ENDBRANCH   4  33
TORSDOF 11
ENDMDL
