MODEL 1
REMARK VINA RESULT: -6.380368401      0.000      0.000
REMARK  11 active torsions:
REMARK  status: ('A' for Active; 'I' for Inactive)
REMARK    1  A    between atoms: C3_4  and  N2_5 
REMARK    2  A    between atoms: N2_5  and  C4_7 
REMARK    3  A    between atoms: C4_7  and  C5_8 
REMARK    4  A    between atoms: C5_8  and  N3_9 
REMARK    5  A    between atoms: N3_9  and  C6_11 
REMARK    6  A    between atoms: C7_14  and  N5_15 
REMARK    7  A    between atoms: N5_15  and  C8_17 
REMARK    8  A    between atoms: C8_17  and  C9_18 
REMARK    9  A    between atoms: C9_18  and  C10_19 
REMARK   10  A    between atoms: C10_19  and  N6_20 
REMARK   11  A    between atoms: C10_19  and  N7_24 
ROOT
HETATM    1  C6  UNL     1     -29.703  40.300  22.302  1.00  0.00     0.187 A 
HETATM    2  N4  UNL     1     -29.702  41.439  23.005  1.00  0.00    -0.170 N 
ATOM      3  H4  UNL     1     -28.875  42.035  22.971  1.00  0.00     0.186 HD
HETATM    4  C7  UNL     1     -30.766  41.833  23.768  1.00  0.00     0.694 A 
HETATM    5  N8  UNL     1     -31.822  41.001  23.769  1.00  0.00    -0.129 N 
ATOM      6  H8  UNL     1     -32.639  41.255  24.325  1.00  0.00     0.205 HD
HETATM    7  N9  UNL     1     -31.854  39.871  23.086  1.00  0.00    -0.249 N 
ATOM      8  H9  UNL     1     -32.685  39.281  23.126  1.00  0.00     0.191 HD
HETATM    9  C11 UNL     1     -30.812  39.492  22.344  1.00  0.00     0.304 A 
HETATM   10  O1  UNL     1     -30.819  38.404  21.675  1.00  0.00    -0.263 OA
ENDROOT
BRANCH   1  11
HETATM   11  N3  UNL     1     -28.702  39.919  21.579  1.00  0.00    -0.370 N 
ATOM     12  H3  UNL     1     -28.841  39.183  20.886  1.00  0.00     0.161 HD
BRANCH  11  13
HETATM   13  C5  UNL     1     -27.379  40.515  21.729  1.00  0.00     0.141 C 
BRANCH  13  14
HETATM   14  C4  UNL     1     -26.862  40.712  20.303  1.00  0.00     0.141 C 
BRANCH  14  15
HETATM   15  N2  UNL     1     -25.497  40.281  20.275  1.00  0.00    -0.375 N 
ATOM     16  H2  UNL     1     -25.049  39.996  21.146  1.00  0.00     0.161 HD
BRANCH  15  17
HETATM   17  C3  UNL     1     -24.824  40.242  19.186  1.00  0.00     0.104 A 
HETATM   18  C2  UNL     1     -25.286  40.566  17.932  1.00  0.00     0.093 A 
HETATM   19  C1  UNL     1     -24.499  40.501  16.787  1.00  0.00     0.120 A 
HETATM   20  N1  UNL     1     -25.006  40.841  15.519  1.00  0.00    -0.083 NA
HETATM   21  N11 UNL     1     -23.224  40.105  16.894  1.00  0.00    -0.341 N 
HETATM   22  C12 UNL     1     -22.762  39.783  18.131  1.00  0.00     0.183 A 
ATOM     23  H11 UNL     1     -22.619  40.046  16.074  1.00  0.00     0.167 HD
HETATM   24  N10 UNL     1     -23.511  39.843  19.236  1.00  0.00    -0.339 N 
ATOM     25  H10 UNL     1     -23.099  39.587  20.134  1.00  0.00     0.168 HD
ENDBRANCH  15  17
ENDBRANCH  14  15
ENDBRANCH  13  14
ENDBRANCH  11  13
ENDBRANCH   1  11
BRANCH   4  26
HETATM   26  N5  UNL     1     -30.720  42.937  24.426  1.00  0.00    -0.225 N 
ATOM     27  H5  UNL     1     -31.358  43.684  24.152  1.00  0.00     0.177 HD
BRANCH  26  28
HETATM   28  C8  UNL     1     -29.825  43.186  25.522  1.00  0.00     0.142 C 
BRANCH  28  29
HETATM   29  C9  UNL     1     -30.210  42.416  26.766  1.00  0.00     0.082 C 
BRANCH  29  30
HETATM   30  C10 UNL     1     -29.836  43.144  28.022  1.00  0.00     0.379 C 
BRANCH  30  31
HETATM   31  N6  UNL     1     -30.994  43.887  28.483  1.00  0.00    -0.050 N 
ATOM     32  H63 UNL     1     -30.739  44.739  28.982  1.00  0.00     0.276 HD
ATOM     33  H62 UNL     1     -31.509  44.324  27.718  1.00  0.00     0.276 HD
ATOM     34  H61 UNL     1     -31.576  43.264  29.042  1.00  0.00     0.276 HD
ENDBRANCH  30  31
BRANCH  30  35
HETATM   35  N7  UNL     1     -29.476  42.226  29.085  1.00  0.00    -0.050 N 
ATOM     36  H73 UNL     1     -30.030  42.394  29.924  1.00  0.00     0.276 HD
ATOM     37  H72 UNL     1     -29.784  41.277  28.878  1.00  0.00     0.276 HD
ATOM     38  H71 UNL     1     -28.477  42.258  29.287  1.00  0.00     0.276 HD
ENDBRANCH  30  35
ENDBRANCH  29  30
ENDBRANCH  28  29
ENDBRANCH  26  28
ENDBRANCH   4  26
TORSDOF 11
ENDMDL
MODEL 2
REMARK VINA RESULT: -6.252241453      0.917      1.241
REMARK  11 active torsions:
REMARK  status: ('A' for Active; 'I' for Inactive)
REMARK    1  A    between atoms: C3_4  and  N2_5 
REMARK    2  A    between atoms: N2_5  and  C4_7 
REMARK    3  A    between atoms: C4_7  and  C5_8 
REMARK    4  A    between atoms: C5_8  and  N3_9 
REMARK    5  A    between atoms: N3_9  and  C6_11 
REMARK    6  A    between atoms: C7_14  and  N5_15 
REMARK    7  A    between atoms: N5_15  and  C8_17 
REMARK    8  A    between atoms: C8_17  and  C9_18 
REMARK    9  A    between atoms: C9_18  and  C10_19 
REMARK   10  A    between atoms: C10_19  and  N6_20 
REMARK   11  A    between atoms: C10_19  and  N7_24 
ROOT
HETATM    1  C6  UNL     1     -29.810  40.282  22.285  1.00  0.00     0.187 A 
HETATM    2  N4  UNL     1     -29.810  41.415  22.998  1.00  0.00    -0.170 N 
ATOM      3  H4  UNL     1     -28.982  42.010  22.972  1.00  0.00     0.186 HD
HETATM    4  C7  UNL     1     -30.876  41.804  23.760  1.00  0.00     0.694 A 
HETATM    5  N8  UNL     1     -31.933  40.973  23.751  1.00  0.00    -0.129 N 
ATOM      6  H8  UNL     1     -32.752  41.223  24.306  1.00  0.00     0.205 HD
HETATM    7  N9  UNL     1     -31.964  39.849  23.058  1.00  0.00    -0.249 N 
ATOM      8  H9  UNL     1     -32.796  39.259  23.091  1.00  0.00     0.191 HD
HETATM    9  C11 UNL     1     -30.920  39.475  22.316  1.00  0.00     0.304 A 
HETATM   10  O1  UNL     1     -30.926  38.393  21.639  1.00  0.00    -0.263 OA
ENDROOT
BRANCH   1  11
HETATM   11  N3  UNL     1     -28.807  39.906  21.562  1.00  0.00    -0.370 N 
ATOM     12  H3  UNL     1     -28.934  39.147  20.892  1.00  0.00     0.161 HD
BRANCH  11  13
HETATM   13  C5  UNL     1     -27.498  40.539  21.681  1.00  0.00     0.141 C 
BRANCH  13  14
HETATM   14  C4  UNL     1     -26.966  40.635  20.250  1.00  0.00     0.141 C 
BRANCH  14  15
HETATM   15  N2  UNL     1     -25.584  40.265  20.277  1.00  0.00    -0.375 N 
ATOM     16  H2  UNL     1     -25.223  39.753  21.082  1.00  0.00     0.161 HD
BRANCH  15  17
HETATM   17  C3  UNL     1     -24.787  40.558  19.317  1.00  0.00     0.104 A 
HETATM   18  C2  UNL     1     -23.815  39.742  18.789  1.00  0.00     0.093 A 
HETATM   19  C1  UNL     1     -22.982  40.125  17.743  1.00  0.00     0.120 A 
HETATM   20  N1  UNL     1     -21.997  39.262  17.226  1.00  0.00    -0.083 NA
HETATM   21  N11 UNL     1     -23.120  41.347  17.213  1.00  0.00    -0.341 N 
HETATM   22  C12 UNL     1     -24.079  42.158  17.732  1.00  0.00     0.183 A 
ATOM     23  H11 UNL     1     -22.525  41.660  16.445  1.00  0.00     0.167 HD
HETATM   24  N10 UNL     1     -24.884  41.798  18.736  1.00  0.00    -0.339 N 
ATOM     25  H10 UNL     1     -25.584  42.458  19.077  1.00  0.00     0.168 HD
ENDBRANCH  15  17
ENDBRANCH  14  15
ENDBRANCH  13  14
ENDBRANCH  11  13
ENDBRANCH   1  11
BRANCH   4  26
HETATM   26  N5  UNL     1     -30.830  42.903  24.428  1.00  0.00    -0.225 N 
ATOM     27  H5  UNL     1     -31.489  43.641  24.178  1.00  0.00     0.177 HD
BRANCH  26  28
HETATM   28  C8  UNL     1     -29.911  43.156  25.502  1.00  0.00     0.142 C 
BRANCH  28  29
HETATM   29  C9  UNL     1     -30.317  42.463  26.784  1.00  0.00     0.082 C 
BRANCH  29  30
HETATM   30  C10 UNL     1     -29.744  43.132  27.997  1.00  0.00     0.379 C 
BRANCH  30  31
HETATM   31  N6  UNL     1     -30.719  44.082  28.499  1.00  0.00    -0.050 N 
ATOM     32  H63 UNL     1     -31.485  44.240  27.845  1.00  0.00     0.276 HD
ATOM     33  H62 UNL     1     -31.271  43.707  29.271  1.00  0.00     0.276 HD
ATOM     34  H61 UNL     1     -30.232  44.943  28.748  1.00  0.00     0.276 HD
ENDBRANCH  30  31
BRANCH  30  35
HETATM   35  N7  UNL     1     -29.495  42.183  29.064  1.00  0.00    -0.050 N 
ATOM     36  H73 UNL     1     -29.544  41.222  28.726  1.00  0.00     0.276 HD
ATOM     37  H72 UNL     1     -28.518  42.199  29.354  1.00  0.00     0.276 HD
ATOM     38  H71 UNL     1     -30.121  42.333  29.854  1.00  0.00     0.276 HD
ENDBRANCH  30  35
ENDBRANCH  29  30
ENDBRANCH  28  29
ENDBRANCH  26  28
ENDBRANCH   4  26
TORSDOF 11
ENDMDL
MODEL 3
REMARK VINA RESULT: -5.727418975      2.952      9.973
REMARK  11 active torsions:
REMARK  status: ('A' for Active; 'I' for Inactive)
REMARK    1  A    between atoms: C3_4  and  N2_5 
REMARK    2  A    between atoms: N2_5  and  C4_7 
REMARK    3  A    between atoms: C4_7  and  C5_8 
REMARK    4  A    between atoms: C5_8  and  N3_9 
REMARK    5  A    between atoms: N3_9  and  C6_11 
REMARK    6  A    between atoms: C7_14  and  N5_15 
REMARK    7  A    between atoms: N5_15  and  C8_17 
REMARK    8  A    between atoms: C8_17  and  C9_18 
REMARK    9  A    between atoms: C9_18  and  C10_19 
REMARK   10  A    between atoms: C10_19  and  N6_20 
REMARK   11  A    between atoms: C10_19  and  N7_24 
ROOT
HETATM    1  C6  UNL     1     -25.286  41.166  18.552  1.00  0.00     0.187 A 
HETATM    2  N4  UNL     1     -24.436  41.557  17.596  1.00  0.00    -0.170 N 
ATOM      3  H4  UNL     1     -24.767  42.202  16.879  1.00  0.00     0.186 HD
HETATM    4  C7  UNL     1     -23.140  41.122  17.542  1.00  0.00     0.694 A 
HETATM    5  N8  UNL     1     -22.769  40.272  18.515  1.00  0.00    -0.129 N 
ATOM      6  H8  UNL     1     -21.811  39.922  18.514  1.00  0.00     0.205 HD
HETATM    7  N9  UNL     1     -23.585  39.869  19.473  1.00  0.00    -0.249 N 
ATOM      8  H9  UNL     1     -23.245  39.222  20.185  1.00  0.00     0.191 HD
HETATM    9  C11 UNL     1     -24.848  40.296  19.519  1.00  0.00     0.304 A 
HETATM   10  O1  UNL     1     -25.655  39.920  20.435  1.00  0.00    -0.263 OA
ENDROOT
BRANCH   1  11
HETATM   11  N3  UNL     1     -26.512  41.570  18.611  1.00  0.00    -0.370 N 
ATOM     12  H3  UNL     1     -27.263  40.913  18.400  1.00  0.00     0.161 HD
BRANCH  11  13
HETATM   13  C5  UNL     1     -26.849  42.944  18.973  1.00  0.00     0.141 C 
BRANCH  13  14
HETATM   14  C4  UNL     1     -27.993  42.825  19.981  1.00  0.00     0.141 C 
BRANCH  14  15
HETATM   15  N2  UNL     1     -28.049  41.462  20.413  1.00  0.00    -0.375 N 
ATOM     16  H2  UNL     1     -27.345  40.805  20.076  1.00  0.00     0.161 HD
BRANCH  15  17
HETATM   17  C3  UNL     1     -28.959  41.043  21.212  1.00  0.00     0.104 A 
HETATM   18  C2  UNL     1     -29.715  39.905  21.058  1.00  0.00     0.093 A 
HETATM   19  C1  UNL     1     -30.691  39.508  21.967  1.00  0.00     0.120 A 
HETATM   20  N1  UNL     1     -31.447  38.336  21.778  1.00  0.00    -0.083 NA
HETATM   21  N11 UNL     1     -30.917  40.261  23.052  1.00  0.00    -0.341 N 
HETATM   22  C12 UNL     1     -30.171  41.387  23.208  1.00  0.00     0.183 A 
ATOM     23  H11 UNL     1     -31.625  39.999  23.738  1.00  0.00     0.167 HD
HETATM   24  N10 UNL     1     -29.233  41.776  22.341  1.00  0.00    -0.339 N 
ATOM     25  H10 UNL     1     -28.709  42.633  22.521  1.00  0.00     0.168 HD
ENDBRANCH  15  17
ENDBRANCH  14  15
ENDBRANCH  13  14
ENDBRANCH  11  13
ENDBRANCH   1  11
BRANCH   4  26
HETATM   26  N5  UNL     1     -22.359  41.527  16.603  1.00  0.00    -0.225 N 
ATOM     27  H5  UNL     1     -21.802  42.364  16.773  1.00  0.00     0.177 HD
BRANCH  26  28
HETATM   28  C8  UNL     1     -22.221  40.873  15.331  1.00  0.00     0.142 C 
BRANCH  28  29
HETATM   29  C9  UNL     1     -21.074  39.886  15.311  1.00  0.00     0.082 C 
BRANCH  29  30
HETATM   30  C10 UNL     1     -21.059  39.061  14.061  1.00  0.00     0.379 C 
BRANCH  30  31
HETATM   31  N6  UNL     1     -20.843  37.674  14.430  1.00  0.00    -0.050 N 
ATOM     32  H63 UNL     1     -20.096  37.563  15.115  1.00  0.00     0.276 HD
ATOM     33  H62 UNL     1     -21.604  37.295  14.992  1.00  0.00     0.276 HD
ATOM     34  H61 UNL     1     -20.678  37.136  13.579  1.00  0.00     0.276 HD
ENDBRANCH  30  31
BRANCH  30  35
HETATM   35  N7  UNL     1     -22.330  39.117  13.366  1.00  0.00    -0.050 N 
ATOM     36  H73 UNL     1     -22.963  38.386  13.690  1.00  0.00     0.276 HD
ATOM     37  H72 UNL     1     -22.872  39.933  13.648  1.00  0.00     0.276 HD
ATOM     38  H71 UNL     1     -22.208  39.082  12.354  1.00  0.00     0.276 HD
ENDBRANCH  30  35
ENDBRANCH  29  30
ENDBRANCH  28  29
ENDBRANCH  26  28
ENDBRANCH   4  26
TORSDOF 11
ENDMDL
MODEL 4
REMARK VINA RESULT: -5.654810469      0.826      1.403
REMARK  11 active torsions:
REMARK  status: ('A' for Active; 'I' for Inactive)
REMARK    1  A    between atoms: C3_4  and  N2_5 
REMARK    2  A    between atoms: N2_5  and  C4_7 
REMARK    3  A    between atoms: C4_7  and  C5_8 
REMARK    4  A    between atoms: C5_8  and  N3_9 
REMARK    5  A    between atoms: N3_9  and  C6_11 
REMARK    6  A    between atoms: C7_14  and  N5_15 
REMARK    7  A    between atoms: N5_15  and  C8_17 
REMARK    8  A    between atoms: C8_17  and  C9_18 
REMARK    9  A    between atoms: C9_18  and  C10_19 
REMARK   10  A    between atoms: C10_19  and  N6_20 
REMARK   11  A    between atoms: C10_19  and  N7_24 
ROOT
HETATM    1  C6  UNL     1     -29.802  40.278  22.316  1.00  0.00     0.187 A 
HETATM    2  N4  UNL     1     -29.808  41.413  23.024  1.00  0.00    -0.170 N 
ATOM      3  H4  UNL     1     -28.982  42.010  23.001  1.00  0.00     0.186 HD
HETATM    4  C7  UNL     1     -30.880  41.803  23.778  1.00  0.00     0.694 A 
HETATM    5  N8  UNL     1     -31.936  40.970  23.766  1.00  0.00    -0.129 N 
ATOM      6  H8  UNL     1     -32.758  41.221  24.315  1.00  0.00     0.205 HD
HETATM    7  N9  UNL     1     -31.960  39.843  23.077  1.00  0.00    -0.249 N 
ATOM      8  H9  UNL     1     -32.791  39.253  23.106  1.00  0.00     0.191 HD
HETATM    9  C11 UNL     1     -30.911  39.469  22.343  1.00  0.00     0.304 A 
HETATM   10  O1  UNL     1     -30.911  38.384  21.669  1.00  0.00    -0.263 OA
ENDROOT
BRANCH   1  11
HETATM   11  N3  UNL     1     -28.794  39.901  21.601  1.00  0.00    -0.370 N 
ATOM     12  H3  UNL     1     -28.900  39.102  20.974  1.00  0.00     0.161 HD
BRANCH  11  13
HETATM   13  C5  UNL     1     -27.509  40.589  21.666  1.00  0.00     0.141 C 
BRANCH  13  14
HETATM   14  C4  UNL     1     -27.323  41.225  20.287  1.00  0.00     0.141 C 
BRANCH  14  15
HETATM   15  N2  UNL     1     -27.020  40.174  19.364  1.00  0.00    -0.375 N 
ATOM     16  H2  UNL     1     -27.574  39.318  19.387  1.00  0.00     0.161 HD
BRANCH  15  17
HETATM   17  C3  UNL     1     -26.072  40.279  18.509  1.00  0.00     0.104 A 
HETATM   18  C2  UNL     1     -24.730  40.386  18.791  1.00  0.00     0.093 A 
HETATM   19  C1  UNL     1     -23.750  40.497  17.811  1.00  0.00     0.120 A 
HETATM   20  N1  UNL     1     -22.385  40.606  18.137  1.00  0.00    -0.083 NA
HETATM   21  N11 UNL     1     -24.114  40.502  16.522  1.00  0.00    -0.341 N 
HETATM   22  C12 UNL     1     -25.439  40.396  16.237  1.00  0.00     0.183 A 
ATOM     23  H11 UNL     1     -23.420  40.582  15.778  1.00  0.00     0.167 HD
HETATM   24  N10 UNL     1     -26.387  40.288  17.172  1.00  0.00    -0.339 N 
ATOM     25  H10 UNL     1     -27.364  40.212  16.888  1.00  0.00     0.168 HD
ENDBRANCH  15  17
ENDBRANCH  14  15
ENDBRANCH  13  14
ENDBRANCH  11  13
ENDBRANCH   1  11
BRANCH   4  26
HETATM   26  N5  UNL     1     -30.841  42.904  24.443  1.00  0.00    -0.225 N 
ATOM     27  H5  UNL     1     -31.497  43.641  24.184  1.00  0.00     0.177 HD
BRANCH  26  28
HETATM   28  C8  UNL     1     -29.931  43.161  25.524  1.00  0.00     0.142 C 
BRANCH  28  29
HETATM   29  C9  UNL     1     -30.331  42.445  26.796  1.00  0.00     0.082 C 
BRANCH  29  30
HETATM   30  C10 UNL     1     -29.831  43.146  28.023  1.00  0.00     0.379 C 
BRANCH  30  31
HETATM   31  N6  UNL     1     -30.900  43.979  28.541  1.00  0.00    -0.050 N 
ATOM     32  H63 UNL     1     -30.886  44.047  29.559  1.00  0.00     0.276 HD
ATOM     33  H62 UNL     1     -30.763  44.968  28.334  1.00  0.00     0.276 HD
ATOM     34  H61 UNL     1     -31.788  43.624  28.185  1.00  0.00     0.276 HD
ENDBRANCH  30  31
BRANCH  30  35
HETATM   35  N7  UNL     1     -29.484  42.208  29.071  1.00  0.00    -0.050 N 
ATOM     36  H73 UNL     1     -29.888  42.484  29.966  1.00  0.00     0.276 HD
ATOM     37  H72 UNL     1     -29.965  41.318  28.948  1.00  0.00     0.276 HD
ATOM     38  H71 UNL     1     -28.475  42.080  29.142  1.00  0.00     0.276 HD
ENDBRANCH  30  35
ENDBRANCH  29  30
ENDBRANCH  28  29
ENDBRANCH  26  28
ENDBRANCH   4  26
TORSDOF 11
ENDMDL
MODEL 5
REMARK VINA RESULT: -5.650220820      4.178      7.173
REMARK  11 active torsions:
REMARK  status: ('A' for Active; 'I' for Inactive)
REMARK    1  A    between atoms: C3_4  and  N2_5 
REMARK    2  A    between atoms: N2_5  and  C4_7 
REMARK    3  A    between atoms: C4_7  and  C5_8 
REMARK    4  A    between atoms: C5_8  and  N3_9 
REMARK    5  A    between atoms: N3_9  and  C6_11 
REMARK    6  A    between atoms: C7_14  and  N5_15 
REMARK    7  A    between atoms: N5_15  and  C8_17 
REMARK    8  A    between atoms: C8_17  and  C9_18 
REMARK    9  A    between atoms: C9_18  and  C10_19 
REMARK   10  A    between atoms: C10_19  and  N6_20 
REMARK   11  A    between atoms: C10_19  and  N7_24 
ROOT
HETATM    1  C6  UNL     1     -33.108  42.538  26.966  1.00  0.00     0.187 A 
HETATM    2  N4  UNL     1     -34.126  42.913  27.749  1.00  0.00    -0.170 N 
ATOM      3  H4  UNL     1     -35.061  42.567  27.537  1.00  0.00     0.186 HD
HETATM    4  C7  UNL     1     -33.959  43.744  28.822  1.00  0.00     0.694 A 
HETATM    5  N8  UNL     1     -32.702  44.165  29.045  1.00  0.00    -0.129 N 
ATOM      6  H8  UNL     1     -32.531  44.786  29.835  1.00  0.00     0.205 HD
HETATM    7  N9  UNL     1     -31.676  43.811  28.290  1.00  0.00    -0.249 N 
ATOM      8  H9  UNL     1     -30.745  44.163  28.510  1.00  0.00     0.191 HD
HETATM    9  C11 UNL     1     -31.846  43.000  27.244  1.00  0.00     0.304 A 
HETATM   10  O1  UNL     1     -30.871  42.645  26.500  1.00  0.00    -0.263 OA
ENDROOT
BRANCH   1  11
HETATM   11  N3  UNL     1     -33.255  41.753  25.949  1.00  0.00    -0.370 N 
ATOM     12  H3  UNL     1     -32.813  40.834  25.962  1.00  0.00     0.161 HD
BRANCH  11  13
HETATM   13  C5  UNL     1     -34.039  42.150  24.784  1.00  0.00     0.141 C 
BRANCH  13  14
HETATM   14  C4  UNL     1     -33.045  42.178  23.621  1.00  0.00     0.141 C 
BRANCH  14  15
HETATM   15  N2  UNL     1     -32.063  41.166  23.868  1.00  0.00    -0.375 N 
ATOM     16  H2  UNL     1     -32.297  40.387  24.483  1.00  0.00     0.161 HD
BRANCH  15  17
HETATM   17  C3  UNL     1     -30.898  41.213  23.337  1.00  0.00     0.104 A 
HETATM   18  C2  UNL     1     -30.412  40.367  22.368  1.00  0.00     0.093 A 
HETATM   19  C1  UNL     1     -29.132  40.474  21.833  1.00  0.00     0.120 A 
HETATM   20  N1  UNL     1     -28.667  39.590  20.841  1.00  0.00    -0.083 NA
HETATM   21  N11 UNL     1     -28.320  41.444  22.273  1.00  0.00    -0.341 N 
HETATM   22  C12 UNL     1     -28.796  42.282  23.231  1.00  0.00     0.183 A 
ATOM     23  H11 UNL     1     -27.376  41.550  21.902  1.00  0.00     0.167 HD
HETATM   24  N10 UNL     1     -30.023  42.187  23.750  1.00  0.00    -0.339 N 
ATOM     25  H10 UNL     1     -30.316  42.851  24.467  1.00  0.00     0.168 HD
ENDBRANCH  15  17
ENDBRANCH  14  15
ENDBRANCH  13  14
ENDBRANCH  11  13
ENDBRANCH   1  11
BRANCH   4  26
HETATM   26  N5  UNL     1     -34.968  44.077  29.548  1.00  0.00    -0.225 N 
ATOM     27  H5  UNL     1     -34.856  44.862  30.190  1.00  0.00     0.177 HD
BRANCH  26  28
HETATM   28  C8  UNL     1     -36.242  43.414  29.511  1.00  0.00     0.142 C 
BRANCH  28  29
HETATM   29  C9  UNL     1     -37.112  43.770  30.696  1.00  0.00     0.082 C 
BRANCH  29  30
HETATM   30  C10 UNL     1     -37.523  42.561  31.481  1.00  0.00     0.379 C 
BRANCH  30  31
HETATM   31  N6  UNL     1     -36.704  41.441  31.059  1.00  0.00    -0.050 N 
ATOM     32  H63 UNL     1     -36.468  41.479  30.068  1.00  0.00     0.276 HD
ATOM     33  H62 UNL     1     -35.755  41.487  31.430  1.00  0.00     0.276 HD
ATOM     34  H61 UNL     1     -37.182  40.577  31.316  1.00  0.00     0.276 HD
ENDBRANCH  30  31
BRANCH  30  35
HETATM   35  N7  UNL     1     -37.291  42.740  32.901  1.00  0.00    -0.050 N 
ATOM     36  H73 UNL     1     -37.368  43.721  33.169  1.00  0.00     0.276 HD
ATOM     37  H72 UNL     1     -38.060  42.363  33.454  1.00  0.00     0.276 HD
ATOM     38  H71 UNL     1     -36.396  42.344  33.188  1.00  0.00     0.276 HD
ENDBRANCH  30  35
ENDBRANCH  29  30
ENDBRANCH  28  29
ENDBRANCH  26  28
ENDBRANCH   4  26
TORSDOF 11
ENDMDL
