MODEL 1
REMARK VINA RESULT: -5.352333941      0.000      0.000
REMARK  5 active torsions:
REMARK  status: ('A' for Active; 'I' for Inactive)
REMARK    1  A    between atoms: N2_4  and  N3_6 
REMARK    2  A    between atoms: C4_14  and  C5_15 
REMARK    3  A    between atoms: C5_15  and  C6_16 
REMARK    4  A    between atoms: C6_16  and  N5_17 
REMARK    5  A    between atoms: N5_17  and  C7_19 
ROOT
HETATM    1  N3  UNL     1      19.978   1.318  27.055  1.00  0.00    -0.285 N 
ATOM      2  H3  UNL     1      20.280   0.387  26.772  1.00  0.00     0.188 HD
HETATM    3  C1  UNL     1      20.176   1.678  28.275  1.00  0.00     0.104 A 
HETATM    4  C2  UNL     1      20.802   0.854  29.297  1.00  0.00     0.269 A 
HETATM    5  O1  UNL     1      21.232  -0.322  29.084  1.00  0.00    -0.266 OA
HETATM    6  N4  UNL     1      20.816   1.610  30.479  1.00  0.00    -0.335 N 
ATOM      7  H4  UNL     1      21.200   1.271  31.361  1.00  0.00     0.168 HD
HETATM    8  C3  UNL     1      20.299   2.763  30.335  1.00  0.00     0.075 A 
HETATM    9  C4  UNL     1      19.844   2.943  28.945  1.00  0.00     0.083 A 
ENDROOT
BRANCH   9  10
HETATM   10  C5  UNL     1      20.702   4.049  28.360  1.00  0.00     0.036 C 
BRANCH  10  11
HETATM   11  C6  UNL     1      21.630   4.538  29.436  1.00  0.00     0.121 C 
BRANCH  11  12
HETATM   12  N5  UNL     1      22.832   5.033  28.815  1.00  0.00    -0.386 N 
ATOM     13  H5  UNL     1      23.696   4.490  28.825  1.00  0.00     0.160 HD
BRANCH  12  14
HETATM   14  C7  UNL     1      22.769   6.311  28.186  1.00  0.00     0.168 C 
HETATM   15  N6  UNL     1      22.900   6.398  26.928  1.00  0.00    -0.396 N 
ATOM     16  H62 UNL     1      23.049   5.548  26.383  1.00  0.00     0.156 HD
ATOM     17  H61 UNL     1      22.855   7.312  26.479  1.00  0.00     0.156 HD
ENDBRANCH  12  14
ENDBRANCH  11  12
ENDBRANCH  10  11
ENDBRANCH   9  10
BRANCH   1  18
HETATM   18  N2  UNL     1      19.375   2.133  26.102  1.00  0.00    -0.249 N 
HETATM   19  N1  UNL     1      19.920   2.384  24.969  1.00  0.00    -0.331 N 
ATOM     20  H12 UNL     1      20.829   1.962  24.776  1.00  0.00     0.178 HD
ATOM     21  H11 UNL     1      19.478   2.981  24.270  1.00  0.00     0.178 HD
ATOM     22  H2  UNL     1      18.466   2.546  26.312  1.00  0.00     0.207 HD
ENDBRANCH   1  18
TORSDOF 5
ENDMDL
MODEL 2
REMARK VINA RESULT: -5.290576018      1.993      3.847
REMARK  5 active torsions:
REMARK  status: ('A' for Active; 'I' for Inactive)
REMARK    1  A    between atoms: N2_4  and  N3_6 
REMARK    2  A    between atoms: C4_14  and  C5_15 
REMARK    3  A    between atoms: C5_15  and  C6_16 
REMARK    4  A    between atoms: C6_16  and  N5_17 
REMARK    5  A    between atoms: N5_17  and  C7_19 
ROOT
HETATM    1  N3  UNL     1      22.148   4.150  29.086  1.00  0.00    -0.285 N 
ATOM      2  H3  UNL     1      22.799   4.637  29.702  1.00  0.00     0.188 HD
HETATM    3  C1  UNL     1      21.909   2.906  29.315  1.00  0.00     0.104 A 
HETATM    4  C2  UNL     1      22.497   2.128  30.394  1.00  0.00     0.269 A 
HETATM    5  O1  UNL     1      23.315   2.606  31.239  1.00  0.00    -0.266 OA
HETATM    6  N4  UNL     1      21.983   0.826  30.285  1.00  0.00    -0.335 N 
ATOM      7  H4  UNL     1      22.231   0.067  30.920  1.00  0.00     0.168 HD
HETATM    8  C3  UNL     1      21.176   0.693  29.312  1.00  0.00     0.075 A 
HETATM    9  C4  UNL     1      21.030   1.973  28.596  1.00  0.00     0.083 A 
ENDROOT
BRANCH   9  10
HETATM   10  C5  UNL     1      19.589   2.405  28.793  1.00  0.00     0.036 C 
BRANCH  10  11
HETATM   11  C6  UNL     1      18.845   2.141  27.514  1.00  0.00     0.121 C 
BRANCH  11  12
HETATM   12  N5  UNL     1      18.574   3.404  26.872  1.00  0.00    -0.386 N 
ATOM     13  H5  UNL     1      18.446   4.257  27.416  1.00  0.00     0.160 HD
BRANCH  12  14
HETATM   14  C7  UNL     1      18.492   3.413  25.450  1.00  0.00     0.168 C 
HETATM   15  N6  UNL     1      19.304   2.716  24.770  1.00  0.00    -0.396 N 
ATOM     16  H62 UNL     1      20.006   2.156  25.254  1.00  0.00     0.156 HD
ATOM     17  H61 UNL     1      19.245   2.723  23.752  1.00  0.00     0.156 HD
ENDBRANCH  12  14
ENDBRANCH  11  12
ENDBRANCH  10  11
ENDBRANCH   9  10
BRANCH   1  18
HETATM   18  N2  UNL     1      21.567   4.865  28.043  1.00  0.00    -0.249 N 
HETATM   19  N1  UNL     1      22.133   5.885  27.512  1.00  0.00    -0.331 N 
ATOM     20  H12 UNL     1      23.041   6.170  27.880  1.00  0.00     0.178 HD
ATOM     21  H11 UNL     1      21.707   6.410  26.748  1.00  0.00     0.178 HD
ATOM     22  H2  UNL     1      20.659   4.566  27.688  1.00  0.00     0.207 HD
ENDBRANCH   1  18
TORSDOF 5
ENDMDL
MODEL 3
REMARK VINA RESULT: -5.254030832      1.272      1.744
REMARK  5 active torsions:
REMARK  status: ('A' for Active; 'I' for Inactive)
REMARK    1  A    between atoms: N2_4  and  N3_6 
REMARK    2  A    between atoms: C4_14  and  C5_15 
REMARK    3  A    between atoms: C5_15  and  C6_16 
REMARK    4  A    between atoms: C6_16  and  N5_17 
REMARK    5  A    between atoms: N5_17  and  C7_19 
ROOT
HETATM    1  N3  UNL     1      20.168   1.794  26.797  1.00  0.00    -0.285 N 
ATOM      2  H3  UNL     1      20.337   0.801  26.641  1.00  0.00     0.188 HD
HETATM    3  C1  UNL     1      20.182   2.232  28.007  1.00  0.00     0.104 A 
HETATM    4  C2  UNL     1      20.421   1.417  29.187  1.00  0.00     0.269 A 
HETATM    5  O1  UNL     1      20.654   0.169  29.142  1.00  0.00    -0.266 OA
HETATM    6  N4  UNL     1      20.342   2.272  30.297  1.00  0.00    -0.335 N 
ATOM      7  H4  UNL     1      20.470   1.960  31.260  1.00  0.00     0.168 HD
HETATM    8  C3  UNL     1      20.093   3.477  29.976  1.00  0.00     0.075 A 
HETATM    9  C4  UNL     1      19.969   3.595  28.512  1.00  0.00     0.083 A 
ENDROOT
BRANCH   9  10
HETATM   10  C5  UNL     1      21.121   4.473  28.061  1.00  0.00     0.036 C 
BRANCH  10  11
HETATM   11  C6  UNL     1      21.945   4.820  29.269  1.00  0.00     0.121 C 
BRANCH  11  12
HETATM   12  N5  UNL     1      23.320   4.482  28.999  1.00  0.00    -0.386 N 
ATOM     13  H5  UNL     1      23.888   5.042  28.363  1.00  0.00     0.160 HD
BRANCH  12  14
HETATM   14  C7  UNL     1      23.856   3.336  29.654  1.00  0.00     0.168 C 
HETATM   15  N6  UNL     1      23.834   2.211  29.069  1.00  0.00    -0.396 N 
ATOM     16  H62 UNL     1      23.430   2.144  28.134  1.00  0.00     0.156 HD
ATOM     17  H61 UNL     1      24.217   1.391  29.538  1.00  0.00     0.156 HD
ENDBRANCH  12  14
ENDBRANCH  11  12
ENDBRANCH  10  11
ENDBRANCH   9  10
BRANCH   1  18
HETATM   18  N2  UNL     1      19.934   2.604  25.689  1.00  0.00    -0.249 N 
HETATM   19  N1  UNL     1      18.752   2.873  25.273  1.00  0.00    -0.331 N 
ATOM     20  H12 UNL     1      17.966   2.472  25.784  1.00  0.00     0.178 HD
ATOM     21  H11 UNL     1      18.581   3.467  24.461  1.00  0.00     0.178 HD
ATOM     22  H2  UNL     1      20.732   2.997  25.190  1.00  0.00     0.207 HD
ENDBRANCH   1  18
TORSDOF 5
ENDMDL
MODEL 4
REMARK VINA RESULT: -5.249119421      2.532      4.629
REMARK  5 active torsions:
REMARK  status: ('A' for Active; 'I' for Inactive)
REMARK    1  A    between atoms: N2_4  and  N3_6 
REMARK    2  A    between atoms: C4_14  and  C5_15 
REMARK    3  A    between atoms: C5_15  and  C6_16 
REMARK    4  A    between atoms: C6_16  and  N5_17 
REMARK    5  A    between atoms: N5_17  and  C7_19 
ROOT
HETATM    1  N3  UNL     1      20.489   4.804  26.918  1.00  0.00    -0.285 N 
ATOM      2  H3  UNL     1      20.351   5.301  26.038  1.00  0.00     0.188 HD
HETATM    3  C1  UNL     1      19.786   3.748  27.136  1.00  0.00     0.104 A 
HETATM    4  C2  UNL     1      18.799   3.198  26.221  1.00  0.00     0.269 A 
HETATM    5  O1  UNL     1      18.530   3.708  25.089  1.00  0.00    -0.266 OA
HETATM    6  N4  UNL     1      18.259   2.059  26.838  1.00  0.00    -0.335 N 
ATOM      7  H4  UNL     1      17.538   1.476  26.413  1.00  0.00     0.168 HD
HETATM    8  C3  UNL     1      18.764   1.831  27.982  1.00  0.00     0.075 A 
HETATM    9  C4  UNL     1      19.778   2.852  28.301  1.00  0.00     0.083 A 
ENDROOT
BRANCH   9  10
HETATM   10  C5  UNL     1      21.106   2.122  28.369  1.00  0.00     0.036 C 
BRANCH  10  11
HETATM   11  C6  UNL     1      20.836   0.700  28.776  1.00  0.00     0.121 C 
BRANCH  11  12
HETATM   12  N5  UNL     1      21.691   0.371  29.889  1.00  0.00    -0.386 N 
ATOM     13  H5  UNL     1      22.615  -0.034  29.745  1.00  0.00     0.160 HD
BRANCH  12  14
HETATM   14  C7  UNL     1      21.195   0.634  31.199  1.00  0.00     0.168 C 
HETATM   15  N6  UNL     1      19.957   0.500  31.440  1.00  0.00    -0.396 N 
ATOM     16  H62 UNL     1      19.333   0.205  30.689  1.00  0.00     0.156 HD
ATOM     17  H61 UNL     1      19.603   0.688  32.377  1.00  0.00     0.156 HD
ENDBRANCH  12  14
ENDBRANCH  11  12
ENDBRANCH  10  11
ENDBRANCH   9  10
BRANCH   1  18
HETATM   18  N2  UNL     1      21.426   5.303  27.817  1.00  0.00    -0.249 N 
HETATM   19  N1  UNL     1      22.434   6.000  27.442  1.00  0.00    -0.331 N 
ATOM     20  H12 UNL     1      22.538   6.186  26.444  1.00  0.00     0.178 HD
ATOM     21  H11 UNL     1      23.121   6.366  28.102  1.00  0.00     0.178 HD
ATOM     22  H2  UNL     1      21.307   5.107  28.811  1.00  0.00     0.207 HD
ENDBRANCH   1  18
TORSDOF 5
ENDMDL
MODEL 5
REMARK VINA RESULT: -5.188743268      2.365      4.196
REMARK  5 active torsions:
REMARK  status: ('A' for Active; 'I' for Inactive)
REMARK    1  A    between atoms: N2_4  and  N3_6 
REMARK    2  A    between atoms: C4_14  and  C5_15 
REMARK    3  A    between atoms: C5_15  and  C6_16 
REMARK    4  A    between atoms: C6_16  and  N5_17 
REMARK    5  A    between atoms: N5_17  and  C7_19 
ROOT
HETATM    1  N3  UNL     1      21.872   5.279  29.625  1.00  0.00    -0.285 N 
ATOM      2  H3  UNL     1      21.996   6.214  30.011  1.00  0.00     0.188 HD
HETATM    3  C1  UNL     1      21.334   4.379  30.373  1.00  0.00     0.104 A 
HETATM    4  C2  UNL     1      20.884   4.588  31.739  1.00  0.00     0.269 A 
HETATM    5  O1  UNL     1      20.969   5.702  32.343  1.00  0.00    -0.266 OA
HETATM    6  N4  UNL     1      20.373   3.362  32.193  1.00  0.00    -0.335 N 
ATOM      7  H4  UNL     1      19.988   3.224  33.128  1.00  0.00     0.168 HD
HETATM    8  C3  UNL     1      20.442   2.443  31.318  1.00  0.00     0.075 A 
HETATM    9  C4  UNL     1      21.043   2.969  30.079  1.00  0.00     0.083 A 
ENDROOT
BRANCH   9  10
HETATM   10  C5  UNL     1      19.958   2.900  29.021  1.00  0.00     0.036 C 
BRANCH  10  11
HETATM   11  C6  UNL     1      20.373   1.886  27.992  1.00  0.00     0.121 C 
BRANCH  11  12
HETATM   12  N5  UNL     1      20.321   2.505  26.691  1.00  0.00    -0.386 N 
ATOM     13  H5  UNL     1      21.142   2.538  26.087  1.00  0.00     0.160 HD
BRANCH  12  14
HETATM   14  C7  UNL     1      19.078   3.070  26.281  1.00  0.00     0.168 C 
HETATM   15  N6  UNL     1      18.773   3.088  25.051  1.00  0.00    -0.396 N 
ATOM     16  H62 UNL     1      19.425   2.697  24.370  1.00  0.00     0.156 HD
ATOM     17  H61 UNL     1      17.884   3.492  24.758  1.00  0.00     0.156 HD
ENDBRANCH  12  14
ENDBRANCH  11  12
ENDBRANCH  10  11
ENDBRANCH   9  10
BRANCH   1  18
HETATM   18  N2  UNL     1      22.292   5.043  28.320  1.00  0.00    -0.249 N 
HETATM   19  N1  UNL     1      21.754   5.622  27.311  1.00  0.00    -0.331 N 
ATOM     20  H12 UNL     1      20.991   6.275  27.489  1.00  0.00     0.178 HD
ATOM     21  H11 UNL     1      22.062   5.449  26.353  1.00  0.00     0.178 HD
ATOM     22  H2  UNL     1      23.056   4.386  28.160  1.00  0.00     0.207 HD
ENDBRANCH   1  18
TORSDOF 5
ENDMDL
