MODEL 1
REMARK VINA RESULT: -5.160920211      0.000      0.000
REMARK  5 active torsions:
REMARK  status: ('A' for Active; 'I' for Inactive)
REMARK    1  A    between atoms: N2_4  and  N3_6 
REMARK    2  A    between atoms: C1_8  and  N4_9 
REMARK    3  A    between atoms: C2_11  and  C3_12 
REMARK    4  A    between atoms: C3_12  and  N5_13 
REMARK    5  A    between atoms: N5_13  and  N6_15 
REMARK       I    between atoms: C4_17  and  N8_19 
ROOT
HETATM    1  N4  UNL     1      20.779   1.797  27.895  1.00  0.00    -0.363 N 
ATOM      2  H4  UNL     1      21.790   1.895  27.803  1.00  0.00     0.165 HD
HETATM    3  C2  UNL     1      20.301   1.059  28.851  1.00  0.00     0.082 C 
ENDROOT
BRANCH   3   4
HETATM    4  C3  UNL     1      21.166   0.355  29.811  1.00  0.00     0.183 C 
BRANCH   4   5
HETATM    5  N5  UNL     1      22.171   1.234  30.366  1.00  0.00    -0.329 N 
ATOM      6  H5  UNL     1      21.913   1.929  31.065  1.00  0.00     0.180 HD
BRANCH   5   7
HETATM    7  N6  UNL     1      23.494   1.127  29.945  1.00  0.00    -0.278 N 
HETATM    8  C4  UNL     1      24.061   2.117  29.372  1.00  0.00     0.205 C 
HETATM    9  N7  UNL     1      23.346   3.316  29.166  1.00  0.00    -0.062 NA
HETATM   10  N8  UNL     1      25.405   1.978  28.955  1.00  0.00    -0.351 N 
HETATM   11  C5  UNL     1      26.587   1.244  28.490  1.00  0.00     0.145 A 
HETATM   12  C6  UNL     1      26.721   2.680  28.682  1.00  0.00     0.145 A 
ATOM     13  H6  UNL     1      24.010   0.260  30.094  1.00  0.00     0.189 HD
ENDBRANCH   5   7
ENDBRANCH   4   5
ENDBRANCH   3   4
BRANCH   1  14
HETATM   14  C1  UNL     1      19.935   2.471  26.974  1.00  0.00     0.198 C 
HETATM   15  N3  UNL     1      20.014   2.244  25.700  1.00  0.00    -0.282 N 
ATOM     16  H3  UNL     1      20.688   1.572  25.332  1.00  0.00     0.189 HD
BRANCH  15  17
HETATM   17  N2  UNL     1      19.169   2.929  24.849  1.00  0.00    -0.248 N 
HETATM   18  N1  UNL     1      18.177   3.631  25.256  1.00  0.00    -0.331 N 
ATOM     19  H12 UNL     1      18.018   3.675  26.263  1.00  0.00     0.178 HD
ATOM     20  H11 UNL     1      17.553   4.137  24.628  1.00  0.00     0.178 HD
ATOM     21  H2  UNL     1      19.343   2.873  23.846  1.00  0.00     0.207 HD
ENDBRANCH  15  17
ENDBRANCH   1  14
TORSDOF 5
ENDMDL
MODEL 2
REMARK VINA RESULT: -5.158068774      3.536      4.168
REMARK  5 active torsions:
REMARK  status: ('A' for Active; 'I' for Inactive)
REMARK    1  A    between atoms: N2_4  and  N3_6 
REMARK    2  A    between atoms: C1_8  and  N4_9 
REMARK    3  A    between atoms: C2_11  and  C3_12 
REMARK    4  A    between atoms: C3_12  and  N5_13 
REMARK    5  A    between atoms: N5_13  and  N6_15 
REMARK       I    between atoms: C4_17  and  N8_19 
ROOT
HETATM    1  N4  UNL     1      20.749   3.506  28.440  1.00  0.00    -0.363 N 
ATOM      2  H4  UNL     1      21.762   3.401  28.407  1.00  0.00     0.165 HD
HETATM    3  C2  UNL     1      20.176   3.743  29.582  1.00  0.00     0.082 C 
ENDROOT
BRANCH   3   4
HETATM    4  C3  UNL     1      20.936   3.865  30.835  1.00  0.00     0.183 C 
BRANCH   4   5
HETATM    5  N5  UNL     1      22.250   4.422  30.609  1.00  0.00    -0.329 N 
ATOM      6  H5  UNL     1      23.067   3.813  30.588  1.00  0.00     0.180 HD
BRANCH   5   7
HETATM    7  N6  UNL     1      22.400   5.794  30.420  1.00  0.00    -0.278 N 
HETATM    8  C4  UNL     1      22.961   6.233  29.360  1.00  0.00     0.205 C 
HETATM    9  N7  UNL     1      23.430   5.328  28.384  1.00  0.00    -0.062 NA
HETATM   10  N8  UNL     1      23.098   7.631  29.198  1.00  0.00    -0.351 N 
HETATM   11  C5  UNL     1      23.248   9.017  29.653  1.00  0.00     0.145 A 
HETATM   12  C6  UNL     1      23.193   8.784  28.218  1.00  0.00     0.145 A 
ATOM     13  H6  UNL     1      22.061   6.447  31.126  1.00  0.00     0.189 HD
ENDBRANCH   5   7
ENDBRANCH   4   5
ENDBRANCH   3   4
BRANCH   1  14
HETATM   14  C1  UNL     1      20.005   3.389  27.237  1.00  0.00     0.198 C 
HETATM   15  N3  UNL     1      20.382   2.589  26.289  1.00  0.00    -0.282 N 
ATOM     16  H3  UNL     1      21.225   2.024  26.390  1.00  0.00     0.189 HD
BRANCH  15  17
HETATM   17  N2  UNL     1      19.620   2.516  25.139  1.00  0.00    -0.248 N 
HETATM   18  N1  UNL     1      18.552   3.200  24.957  1.00  0.00    -0.331 N 
ATOM     19  H12 UNL     1      18.263   3.825  25.710  1.00  0.00     0.178 HD
ATOM     20  H11 UNL     1      17.990   3.146  24.108  1.00  0.00     0.178 HD
ATOM     21  H2  UNL     1      19.924   1.885  24.397  1.00  0.00     0.207 HD
ENDBRANCH  15  17
ENDBRANCH   1  14
TORSDOF 5
ENDMDL
MODEL 3
REMARK VINA RESULT: -5.145369895      4.519      5.351
REMARK  5 active torsions:
REMARK  status: ('A' for Active; 'I' for Inactive)
REMARK    1  A    between atoms: N2_4  and  N3_6 
REMARK    2  A    between atoms: C1_8  and  N4_9 
REMARK    3  A    between atoms: C2_11  and  C3_12 
REMARK    4  A    between atoms: C3_12  and  N5_13 
REMARK    5  A    between atoms: N5_13  and  N6_15 
REMARK       I    between atoms: C4_17  and  N8_19 
ROOT
HETATM    1  N4  UNL     1      20.927   3.611  28.348  1.00  0.00    -0.363 N 
ATOM      2  H4  UNL     1      21.248   2.755  28.800  1.00  0.00     0.165 HD
HETATM    3  C2  UNL     1      21.427   4.749  28.726  1.00  0.00     0.082 C 
ENDROOT
BRANCH   3   4
HETATM    4  C3  UNL     1      22.443   4.851  29.785  1.00  0.00     0.183 C 
BRANCH   4   5
HETATM    5  N5  UNL     1      23.362   5.939  29.538  1.00  0.00    -0.329 N 
ATOM      6  H5  UNL     1      24.368   5.780  29.593  1.00  0.00     0.180 HD
BRANCH   5   7
HETATM    7  N6  UNL     1      22.873   7.204  29.225  1.00  0.00    -0.278 N 
HETATM    8  C4  UNL     1      23.556   7.984  28.479  1.00  0.00     0.205 C 
HETATM    9  N7  UNL     1      24.804   7.562  27.976  1.00  0.00    -0.062 NA
HETATM   10  N8  UNL     1      23.031   9.262  28.180  1.00  0.00    -0.351 N 
HETATM   11  C5  UNL     1      22.235  10.468  28.429  1.00  0.00     0.145 A 
HETATM   12  C6  UNL     1      22.979  10.403  27.181  1.00  0.00     0.145 A 
ATOM     13  H6  UNL     1      21.970   7.507  29.589  1.00  0.00     0.189 HD
ENDBRANCH   5   7
ENDBRANCH   4   5
ENDBRANCH   3   4
BRANCH   1  14
HETATM   14  C1  UNL     1      19.947   3.524  27.326  1.00  0.00     0.198 C 
HETATM   15  N3  UNL     1      20.132   2.782  26.279  1.00  0.00    -0.282 N 
ATOM     16  H3  UNL     1      20.990   2.242  26.170  1.00  0.00     0.189 HD
BRANCH  15  17
HETATM   17  N2  UNL     1      19.144   2.736  25.315  1.00  0.00    -0.248 N 
HETATM   18  N1  UNL     1      18.369   3.722  25.052  1.00  0.00    -0.331 N 
ATOM     19  H12 UNL     1      18.501   4.577  25.592  1.00  0.00     0.178 HD
ATOM     20  H11 UNL     1      17.640   3.688  24.340  1.00  0.00     0.178 HD
ATOM     21  H2  UNL     1      19.026   1.873  24.784  1.00  0.00     0.207 HD
ENDBRANCH  15  17
ENDBRANCH   1  14
TORSDOF 5
ENDMDL
MODEL 4
REMARK VINA RESULT: -5.124615241      3.131      3.596
REMARK  5 active torsions:
REMARK  status: ('A' for Active; 'I' for Inactive)
REMARK    1  A    between atoms: N2_4  and  N3_6 
REMARK    2  A    between atoms: C1_8  and  N4_9 
REMARK    3  A    between atoms: C2_11  and  C3_12 
REMARK    4  A    between atoms: C3_12  and  N5_13 
REMARK    5  A    between atoms: N5_13  and  N6_15 
REMARK       I    between atoms: C4_17  and  N8_19 
ROOT
HETATM    1  N4  UNL     1      19.200   1.862  28.765  1.00  0.00    -0.363 N 
ATOM      2  H4  UNL     1      18.344   1.894  29.319  1.00  0.00     0.165 HD
HETATM    3  C2  UNL     1      20.309   1.506  29.338  1.00  0.00     0.082 C 
ENDROOT
BRANCH   3   4
HETATM    4  C3  UNL     1      20.381   1.146  30.763  1.00  0.00     0.183 C 
BRANCH   4   5
HETATM    5  N5  UNL     1      20.590   2.309  31.597  1.00  0.00    -0.329 N 
ATOM      6  H5  UNL     1      20.146   2.367  32.513  1.00  0.00     0.180 HD
BRANCH   5   7
HETATM    7  N6  UNL     1      21.399   3.348  31.146  1.00  0.00    -0.278 N 
HETATM    8  C4  UNL     1      21.080   4.558  31.399  1.00  0.00     0.205 C 
HETATM    9  N7  UNL     1      19.909   4.840  32.133  1.00  0.00    -0.062 NA
HETATM   10  N8  UNL     1      21.923   5.592  30.927  1.00  0.00    -0.351 N 
HETATM   11  C5  UNL     1      22.890   6.211  30.015  1.00  0.00     0.145 A 
HETATM   12  C6  UNL     1      22.437   7.001  31.149  1.00  0.00     0.145 A 
ATOM     13  H6  UNL     1      22.246   3.144  30.616  1.00  0.00     0.189 HD
ENDBRANCH   5   7
ENDBRANCH   4   5
ENDBRANCH   3   4
BRANCH   1  14
HETATM   14  C1  UNL     1      19.143   2.208  27.390  1.00  0.00     0.198 C 
HETATM   15  N3  UNL     1      20.128   1.942  26.589  1.00  0.00    -0.282 N 
ATOM     16  H3  UNL     1      20.968   1.477  26.934  1.00  0.00     0.189 HD
BRANCH  15  17
HETATM   17  N2  UNL     1      20.019   2.302  25.260  1.00  0.00    -0.248 N 
HETATM   18  N1  UNL     1      18.994   2.897  24.773  1.00  0.00    -0.331 N 
ATOM     19  H12 UNL     1      18.228   3.108  25.413  1.00  0.00     0.178 HD
ATOM     20  H11 UNL     1      18.914   3.163  23.792  1.00  0.00     0.178 HD
ATOM     21  H2  UNL     1      20.794   2.084  24.635  1.00  0.00     0.207 HD
ENDBRANCH  15  17
ENDBRANCH   1  14
TORSDOF 5
ENDMDL
MODEL 5
REMARK VINA RESULT: -5.115090112      2.613      3.196
REMARK  5 active torsions:
REMARK  status: ('A' for Active; 'I' for Inactive)
REMARK    1  A    between atoms: N2_4  and  N3_6 
REMARK    2  A    between atoms: C1_8  and  N4_9 
REMARK    3  A    between atoms: C2_11  and  C3_12 
REMARK    4  A    between atoms: C3_12  and  N5_13 
REMARK    5  A    between atoms: N5_13  and  N6_15 
REMARK       I    between atoms: C4_17  and  N8_19 
ROOT
HETATM    1  N4  UNL     1      20.914   1.815  27.868  1.00  0.00    -0.363 N 
ATOM      2  H4  UNL     1      21.492   1.030  27.567  1.00  0.00     0.165 HD
HETATM    3  C2  UNL     1      21.174   2.390  29.003  1.00  0.00     0.082 C 
ENDROOT
BRANCH   3   4
HETATM    4  C3  UNL     1      22.275   1.952  29.876  1.00  0.00     0.183 C 
BRANCH   4   5
HETATM    5  N5  UNL     1      23.364   2.903  29.878  1.00  0.00    -0.329 N 
ATOM      6  H5  UNL     1      24.174   2.750  30.479  1.00  0.00     0.180 HD
BRANCH   5   7
HETATM    7  N6  UNL     1      23.306   4.026  29.059  1.00  0.00    -0.278 N 
HETATM    8  C4  UNL     1      23.418   5.192  29.568  1.00  0.00     0.205 C 
HETATM    9  N7  UNL     1      23.600   5.338  30.959  1.00  0.00    -0.062 NA
HETATM   10  N8  UNL     1      23.353   6.314  28.709  1.00  0.00    -0.351 N 
HETATM   11  C5  UNL     1      22.935   7.056  27.515  1.00  0.00     0.145 A 
HETATM   12  C6  UNL     1      23.787   7.747  28.471  1.00  0.00     0.145 A 
ATOM     13  H6  UNL     1      23.174   3.919  28.053  1.00  0.00     0.189 HD
ENDBRANCH   5   7
ENDBRANCH   4   5
ENDBRANCH   3   4
BRANCH   1  14
HETATM   14  C1  UNL     1      19.849   2.245  27.035  1.00  0.00     0.198 C 
HETATM   15  N3  UNL     1      20.024   2.434  25.764  1.00  0.00    -0.282 N 
ATOM     16  H3  UNL     1      20.937   2.275  25.336  1.00  0.00     0.189 HD
BRANCH  15  17
HETATM   17  N2  UNL     1      18.953   2.855  25.001  1.00  0.00    -0.248 N 
HETATM   18  N1  UNL     1      18.142   3.775  25.372  1.00  0.00    -0.331 N 
ATOM     19  H12 UNL     1      18.311   4.209  26.280  1.00  0.00     0.178 HD
ATOM     20  H11 UNL     1      17.351   4.086  24.809  1.00  0.00     0.178 HD
ATOM     21  H2  UNL     1      18.800   2.411  24.096  1.00  0.00     0.207 HD
ENDBRANCH  15  17
ENDBRANCH   1  14
TORSDOF 5
ENDMDL
