MODEL 1
REMARK VINA RESULT: -6.030631940      0.000      0.000
REMARK  5 active torsions:
REMARK  status: ('A' for Active; 'I' for Inactive)
REMARK    1  A    between atoms: C1_4  and  N2_5 
REMARK    2  A    between atoms: N2_5  and  C2_7 
REMARK    3  A    between atoms: C2_7  and  C3_8 
REMARK    4  A    between atoms: C5_10  and  C6_11 
REMARK    5  A    between atoms: C6_11  and  N3_12 
ROOT
HETATM    1  C3  UNL     1      21.745   2.606  29.919  1.00  0.00     0.009 A 
HETATM    2  C4  UNL     1      21.388   1.227  30.199  1.00  0.00     0.013 A 
HETATM    3  C5  UNL     1      21.017   1.787  28.847  1.00  0.00     0.011 A 
ENDROOT
BRANCH   3   4
HETATM    4  C6  UNL     1      19.586   2.078  28.545  1.00  0.00     0.155 C 
BRANCH   4   5
HETATM    5  N3  UNL     1      19.328   2.465  27.177  1.00  0.00    -0.283 N 
HETATM    6  C7  UNL     1      18.369   3.287  26.767  1.00  0.00     0.187 A 
HETATM    7  C8  UNL     1      18.477   3.383  25.379  1.00  0.00     0.278 A 
HETATM    8  O1  UNL     1      17.752   4.066  24.607  1.00  0.00    -0.265 OA
HETATM    9  N4  UNL     1      19.507   2.600  25.041  1.00  0.00    -0.251 N 
HETATM   10  N5  UNL     1      20.003   2.058  26.137  1.00  0.00    -0.238 N 
ATOM     11  H4  UNL     1      19.852   2.448  24.093  1.00  0.00     0.192 HD
ATOM     12  H5  UNL     1      20.796   1.417  26.168  1.00  0.00     0.208 HD
ENDBRANCH   4   5
ENDBRANCH   3   4
BRANCH   1  13
HETATM   13  C2  UNL     1      23.098   3.080  29.504  1.00  0.00     0.125 C 
BRANCH  13  14
HETATM   14  N2  UNL     1      23.190   4.442  29.097  1.00  0.00    -0.386 N 
ATOM     15  H2  UNL     1      24.115   4.863  29.009  1.00  0.00     0.160 HD
BRANCH  14  16
HETATM   16  C1  UNL     1      22.054   5.242  28.810  1.00  0.00     0.168 C 
HETATM   17  N1  UNL     1      21.559   5.289  27.610  1.00  0.00    -0.396 N 
ATOM     18  H12 UNL     1      22.005   4.739  26.876  1.00  0.00     0.156 HD
ATOM     19  H11 UNL     1      20.742   5.865  27.403  1.00  0.00     0.156 HD
ENDBRANCH  14  16
ENDBRANCH  13  14
ENDBRANCH   1  13
TORSDOF 5
ENDMDL
MODEL 2
REMARK VINA RESULT: -5.684640756      2.315      2.522
REMARK  5 active torsions:
REMARK  status: ('A' for Active; 'I' for Inactive)
REMARK    1  A    between atoms: C1_4  and  N2_5 
REMARK    2  A    between atoms: N2_5  and  C2_7 
REMARK    3  A    between atoms: C2_7  and  C3_8 
REMARK    4  A    between atoms: C5_10  and  C6_11 
REMARK    5  A    between atoms: C6_11  and  N3_12 
ROOT
HETATM    1  C3  UNL     1      21.552   3.848  30.498  1.00  0.00     0.009 A 
HETATM    2  C4  UNL     1      22.361   3.079  29.571  1.00  0.00     0.013 A 
HETATM    3  C5  UNL     1      21.122   3.750  29.030  1.00  0.00     0.011 A 
ENDROOT
BRANCH   3   4
HETATM    4  C6  UNL     1      19.940   2.916  28.665  1.00  0.00     0.155 C 
BRANCH   4   5
HETATM    5  N3  UNL     1      19.588   2.956  27.264  1.00  0.00    -0.283 N 
HETATM    6  C7  UNL     1      18.624   3.692  26.723  1.00  0.00     0.187 A 
HETATM    7  C8  UNL     1      18.627   3.427  25.353  1.00  0.00     0.278 A 
HETATM    8  O1  UNL     1      17.863   3.927  24.483  1.00  0.00    -0.265 OA
HETATM    9  N4  UNL     1      19.604   2.537  25.158  1.00  0.00    -0.251 N 
HETATM   10  N5  UNL     1      20.168   2.267  26.320  1.00  0.00    -0.238 N 
ATOM     11  H4  UNL     1      19.870   2.133  24.259  1.00  0.00     0.192 HD
ATOM     12  H5  UNL     1      20.942   1.618  26.460  1.00  0.00     0.208 HD
ENDBRANCH   4   5
ENDBRANCH   3   4
BRANCH   1  13
HETATM   13  C2  UNL     1      21.846   5.241  30.951  1.00  0.00     0.125 C 
BRANCH  13  14
HETATM   14  N2  UNL     1      21.135   5.692  32.099  1.00  0.00    -0.386 N 
ATOM     15  H2  UNL     1      21.354   6.615  32.475  1.00  0.00     0.160 HD
BRANCH  14  16
HETATM   16  C1  UNL     1      20.138   4.918  32.745  1.00  0.00     0.168 C 
HETATM   17  N1  UNL     1      18.920   5.358  32.854  1.00  0.00    -0.396 N 
ATOM     18  H12 UNL     1      18.696   6.274  32.465  1.00  0.00     0.156 HD
ATOM     19  H11 UNL     1      18.202   4.802  33.319  1.00  0.00     0.156 HD
ENDBRANCH  14  16
ENDBRANCH  13  14
ENDBRANCH   1  13
TORSDOF 5
ENDMDL
MODEL 3
REMARK VINA RESULT: -5.587582105      1.342      1.511
REMARK  5 active torsions:
REMARK  status: ('A' for Active; 'I' for Inactive)
REMARK    1  A    between atoms: C1_4  and  N2_5 
REMARK    2  A    between atoms: N2_5  and  C2_7 
REMARK    3  A    between atoms: C2_7  and  C3_8 
REMARK    4  A    between atoms: C5_10  and  C6_11 
REMARK    5  A    between atoms: C6_11  and  N3_12 
ROOT
HETATM    1  C3  UNL     1      21.786   1.812  29.854  1.00  0.00     0.009 A 
HETATM    2  C4  UNL     1      21.092   0.538  29.916  1.00  0.00     0.013 A 
HETATM    3  C5  UNL     1      20.885   1.389  28.687  1.00  0.00     0.011 A 
ENDROOT
BRANCH   3   4
HETATM    4  C6  UNL     1      19.575   2.074  28.485  1.00  0.00     0.155 C 
BRANCH   4   5
HETATM    5  N3  UNL     1      19.309   2.469  27.120  1.00  0.00    -0.283 N 
HETATM    6  C7  UNL     1      18.342   3.287  26.721  1.00  0.00     0.187 A 
HETATM    7  C8  UNL     1      18.444   3.393  25.332  1.00  0.00     0.278 A 
HETATM    8  O1  UNL     1      17.711   4.077  24.569  1.00  0.00    -0.265 OA
HETATM    9  N4  UNL     1      19.479   2.622  24.985  1.00  0.00    -0.251 N 
HETATM   10  N5  UNL     1      19.984   2.075  26.075  1.00  0.00    -0.238 N 
ATOM     11  H4  UNL     1      19.822   2.480  24.034  1.00  0.00     0.192 HD
ATOM     12  H5  UNL     1      20.782   1.441  26.098  1.00  0.00     0.208 HD
ENDBRANCH   4   5
ENDBRANCH   3   4
BRANCH   1  13
HETATM   13  C2  UNL     1      23.219   1.996  29.477  1.00  0.00     0.125 C 
BRANCH  13  14
HETATM   14  N2  UNL     1      23.624   3.329  29.181  1.00  0.00    -0.386 N 
ATOM     15  H2  UNL     1      22.968   3.940  28.693  1.00  0.00     0.160 HD
BRANCH  14  16
HETATM   16  C1  UNL     1      24.896   3.848  29.533  1.00  0.00     0.168 C 
HETATM   17  N1  UNL     1      25.513   4.685  28.754  1.00  0.00    -0.396 N 
ATOM     18  H12 UNL     1      25.063   4.962  27.881  1.00  0.00     0.156 HD
ATOM     19  H11 UNL     1      26.428   5.058  29.007  1.00  0.00     0.156 HD
ENDBRANCH  14  16
ENDBRANCH  13  14
ENDBRANCH   1  13
TORSDOF 5
ENDMDL
MODEL 4
REMARK VINA RESULT: -5.573065478      1.568      1.765
REMARK  5 active torsions:
REMARK  status: ('A' for Active; 'I' for Inactive)
REMARK    1  A    between atoms: C1_4  and  N2_5 
REMARK    2  A    between atoms: N2_5  and  C2_7 
REMARK    3  A    between atoms: C2_7  and  C3_8 
REMARK    4  A    between atoms: C5_10  and  C6_11 
REMARK    5  A    between atoms: C6_11  and  N3_12 
ROOT
HETATM    1  C3  UNL     1      21.355   4.037  29.804  1.00  0.00     0.009 A 
HETATM    2  C4  UNL     1      21.553   2.742  30.430  1.00  0.00     0.013 A 
HETATM    3  C5  UNL     1      21.164   2.763  28.971  1.00  0.00     0.011 A 
ENDROOT
BRANCH   3   4
HETATM    4  C6  UNL     1      19.789   2.343  28.576  1.00  0.00     0.155 C 
BRANCH   4   5
HETATM    5  N3  UNL     1      19.449   2.621  27.199  1.00  0.00    -0.283 N 
HETATM    6  C7  UNL     1      18.452   3.395  26.784  1.00  0.00     0.187 A 
HETATM    7  C8  UNL     1      18.483   3.387  25.389  1.00  0.00     0.278 A 
HETATM    8  O1  UNL     1      17.702   3.999  24.611  1.00  0.00    -0.265 OA
HETATM    9  N4  UNL     1      19.508   2.599  25.053  1.00  0.00    -0.251 N 
HETATM   10  N5  UNL     1      20.074   2.148  26.157  1.00  0.00    -0.238 N 
ATOM     11  H4  UNL     1      19.804   2.381  24.101  1.00  0.00     0.192 HD
ATOM     12  H5  UNL     1      20.880   1.524  26.191  1.00  0.00     0.208 HD
ENDBRANCH   4   5
ENDBRANCH   3   4
BRANCH   1  13
HETATM   13  C2  UNL     1      22.444   4.929  29.304  1.00  0.00     0.125 C 
BRANCH  13  14
HETATM   14  N2  UNL     1      22.512   6.225  29.890  1.00  0.00    -0.386 N 
ATOM     15  H2  UNL     1      22.632   7.031  29.275  1.00  0.00     0.160 HD
BRANCH  14  16
HETATM   16  C1  UNL     1      22.422   6.448  31.287  1.00  0.00     0.168 C 
HETATM   17  N1  UNL     1      21.756   7.460  31.759  1.00  0.00    -0.396 N 
ATOM     18  H12 UNL     1      21.299   8.092  31.101  1.00  0.00     0.156 HD
ATOM     19  H11 UNL     1      21.691   7.620  32.764  1.00  0.00     0.156 HD
ENDBRANCH  14  16
ENDBRANCH  13  14
ENDBRANCH   1  13
TORSDOF 5
ENDMDL
MODEL 5
REMARK VINA RESULT: -5.498221077      2.485      3.279
REMARK  5 active torsions:
REMARK  status: ('A' for Active; 'I' for Inactive)
REMARK    1  A    between atoms: C1_4  and  N2_5 
REMARK    2  A    between atoms: N2_5  and  C2_7 
REMARK    3  A    between atoms: C2_7  and  C3_8 
REMARK    4  A    between atoms: C5_10  and  C6_11 
REMARK    5  A    between atoms: C6_11  and  N3_12 
ROOT
HETATM    1  C3  UNL     1      21.496   1.563  30.257  1.00  0.00     0.009 A 
HETATM    2  C4  UNL     1      20.359   0.790  29.788  1.00  0.00     0.013 A 
HETATM    3  C5  UNL     1      20.993   1.763  28.822  1.00  0.00     0.011 A 
ENDROOT
BRANCH   3   4
HETATM    4  C6  UNL     1      20.267   3.016  28.466  1.00  0.00     0.155 C 
BRANCH   4   5
HETATM    5  N3  UNL     1      19.741   3.044  27.121  1.00  0.00    -0.283 N 
HETATM    6  C7  UNL     1      18.717   3.778  26.699  1.00  0.00     0.187 A 
HETATM    7  C8  UNL     1      18.546   3.501  25.342  1.00  0.00     0.278 A 
HETATM    8  O1  UNL     1      17.680   3.994  24.571  1.00  0.00    -0.265 OA
HETATM    9  N4  UNL     1      19.490   2.606  25.033  1.00  0.00    -0.251 N 
HETATM   10  N5  UNL     1      20.196   2.346  26.118  1.00  0.00    -0.238 N 
ATOM     11  H4  UNL     1      19.641   2.194  24.112  1.00  0.00     0.192 HD
ATOM     12  H5  UNL     1      20.981   1.696  26.165  1.00  0.00     0.208 HD
ENDBRANCH   4   5
ENDBRANCH   3   4
BRANCH   1  13
HETATM   13  C2  UNL     1      22.901   1.065  30.341  1.00  0.00     0.125 C 
BRANCH  13  14
HETATM   14  N2  UNL     1      23.196   0.197  31.431  1.00  0.00    -0.386 N 
ATOM     15  H2  UNL     1      23.520   0.608  32.307  1.00  0.00     0.160 HD
BRANCH  14  16
HETATM   16  C1  UNL     1      23.060  -1.213  31.355  1.00  0.00     0.168 C 
HETATM   17  N1  UNL     1      21.991  -1.803  31.799  1.00  0.00    -0.396 N 
ATOM     18  H12 UNL     1      21.249  -1.231  32.204  1.00  0.00     0.156 HD
ATOM     19  H11 UNL     1      21.893  -2.817  31.745  1.00  0.00     0.156 HD
ENDBRANCH  14  16
ENDBRANCH  13  14
ENDBRANCH   1  13
TORSDOF 5
ENDMDL
