MODEL 1
REMARK VINA RESULT: -4.724069872      0.000      0.000
REMARK  6 active torsions:
REMARK  status: ('A' for Active; 'I' for Inactive)
REMARK    1  A    between atoms: N2_3  and  C2_5 
REMARK    2  A    between atoms: C2_5  and  C3_6 
REMARK    3  A    between atoms: C5_8  and  N3_9 
REMARK    4  A    between atoms: N3_9  and  C6_11 
REMARK    5  A    between atoms: C7_13  and  N4_14 
REMARK    6  A    between atoms: N4_14  and  C8_16 
ROOT
HETATM    1  C3  UNL     1      20.621   2.647  28.022  1.00  0.00     0.030 C 
HETATM    2  C4  UNL     1      19.653   1.710  28.688  1.00  0.00     0.035 C 
HETATM    3  C5  UNL     1      20.346   1.975  30.003  1.00  0.00     0.107 C 
HETATM    4  C7  UNL     1      21.527   2.567  29.228  1.00  0.00     0.112 C 
ENDROOT
BRANCH   1   5
HETATM    5  C2  UNL     1      19.958   3.998  27.825  1.00  0.00     0.126 C 
BRANCH   5   6
HETATM    6  N2  UNL     1      19.515   4.032  26.446  1.00  0.00    -0.388 N 
HETATM    7  C1  UNL     1      18.304   3.791  26.086  1.00  0.00     0.185 C 
HETATM    8  N1  UNL     1      17.969   3.849  24.712  1.00  0.00    -0.097 NA
ATOM      9  H2  UNL     1      20.198   4.259  25.723  1.00  0.00     0.159 HD
ENDBRANCH   5   6
ENDBRANCH   1   5
BRANCH   4  10
HETATM   10  N4  UNL     1      22.566   1.582  29.010  1.00  0.00    -0.361 N 
ATOM     11  H4  UNL     1      22.348   0.687  28.573  1.00  0.00     0.162 HD
BRANCH  10  12
HETATM   12  C8  UNL     1      23.887   1.882  29.412  1.00  0.00     0.348 C 
HETATM   13  O2  UNL     1      24.861   1.457  28.765  1.00  0.00    -0.284 OA
ENDBRANCH  10  12
ENDBRANCH   4  10
BRANCH   3  14
HETATM   14  N3  UNL     1      20.676   0.771  30.725  1.00  0.00    -0.362 N 
ATOM     15  H3  UNL     1      21.190   0.017  30.269  1.00  0.00     0.162 HD
BRANCH  14  16
HETATM   16  C6  UNL     1      20.273   0.655  32.074  1.00  0.00     0.348 C 
HETATM   17  O1  UNL     1      19.431  -0.155  32.486  1.00  0.00    -0.284 OA
ENDBRANCH  14  16
ENDBRANCH   3  14
TORSDOF 6
ENDMDL
MODEL 2
REMARK VINA RESULT: -4.597659707      2.601      2.813
REMARK  6 active torsions:
REMARK  status: ('A' for Active; 'I' for Inactive)
REMARK    1  A    between atoms: N2_3  and  C2_5 
REMARK    2  A    between atoms: C2_5  and  C3_6 
REMARK    3  A    between atoms: C5_8  and  N3_9 
REMARK    4  A    between atoms: N3_9  and  C6_11 
REMARK    5  A    between atoms: C7_13  and  N4_14 
REMARK    6  A    between atoms: N4_14  and  C8_16 
ROOT
HETATM    1  C3  UNL     1      20.325   2.293  28.252  1.00  0.00     0.030 C 
HETATM    2  C4  UNL     1      20.490   1.643  29.596  1.00  0.00     0.035 C 
HETATM    3  C5  UNL     1      20.230   2.982  30.243  1.00  0.00     0.107 C 
HETATM    4  C7  UNL     1      20.485   3.652  28.890  1.00  0.00     0.112 C 
ENDROOT
BRANCH   1   5
HETATM    5  C2  UNL     1      18.931   2.009  27.723  1.00  0.00     0.126 C 
BRANCH   5   6
HETATM    6  N2  UNL     1      18.900   2.528  26.370  1.00  0.00    -0.388 N 
HETATM    7  C1  UNL     1      18.148   3.504  26.004  1.00  0.00     0.185 C 
HETATM    8  N1  UNL     1      18.189   3.939  24.657  1.00  0.00    -0.097 NA
ATOM      9  H2  UNL     1      19.507   2.097  25.672  1.00  0.00     0.159 HD
ENDBRANCH   5   6
ENDBRANCH   1   5
BRANCH   4  10
HETATM   10  N4  UNL     1      21.856   4.105  28.771  1.00  0.00    -0.361 N 
ATOM     11  H4  UNL     1      22.627   3.439  28.819  1.00  0.00     0.162 HD
BRANCH  10  12
HETATM   12  C8  UNL     1      22.108   5.482  28.586  1.00  0.00     0.348 C 
HETATM   13  O2  UNL     1      22.622   5.900  27.532  1.00  0.00    -0.284 OA
ENDBRANCH  10  12
ENDBRANCH   4  10
BRANCH   3  14
HETATM   14  N3  UNL     1      21.205   3.326  31.249  1.00  0.00    -0.362 N 
ATOM     15  H3  UNL     1      22.151   2.946  31.207  1.00  0.00     0.162 HD
BRANCH  14  16
HETATM   16  C6  UNL     1      20.825   4.200  32.292  1.00  0.00     0.348 C 
HETATM   17  O1  UNL     1      19.949   5.070  32.192  1.00  0.00    -0.284 OA
ENDBRANCH  14  16
ENDBRANCH   3  14
TORSDOF 6
ENDMDL
MODEL 3
REMARK VINA RESULT: -4.525805383      2.153      2.247
REMARK  6 active torsions:
REMARK  status: ('A' for Active; 'I' for Inactive)
REMARK    1  A    between atoms: N2_3  and  C2_5 
REMARK    2  A    between atoms: C2_5  and  C3_6 
REMARK    3  A    between atoms: C5_8  and  N3_9 
REMARK    4  A    between atoms: N3_9  and  C6_11 
REMARK    5  A    between atoms: C7_13  and  N4_14 
REMARK    6  A    between atoms: N4_14  and  C8_16 
ROOT
HETATM    1  C3  UNL     1      20.278   2.201  28.163  1.00  0.00     0.030 C 
HETATM    2  C4  UNL     1      20.598   1.150  29.188  1.00  0.00     0.035 C 
HETATM    3  C5  UNL     1      20.440   2.196  30.266  1.00  0.00     0.107 C 
HETATM    4  C7  UNL     1      20.536   3.279  29.188  1.00  0.00     0.112 C 
ENDROOT
BRANCH   1   5
HETATM    5  C2  UNL     1      18.825   2.069  27.744  1.00  0.00     0.126 C 
BRANCH   5   6
HETATM    6  N2  UNL     1      18.764   2.500  26.362  1.00  0.00    -0.388 N 
HETATM    7  C1  UNL     1      18.196   3.591  25.986  1.00  0.00     0.185 C 
HETATM    8  N1  UNL     1      18.188   3.925  24.610  1.00  0.00    -0.097 NA
ATOM      9  H2  UNL     1      19.193   1.908  25.651  1.00  0.00     0.159 HD
ENDBRANCH   5   6
ENDBRANCH   1   5
BRANCH   4  10
HETATM   10  N4  UNL     1      21.887   3.782  29.059  1.00  0.00    -0.361 N 
ATOM     11  H4  UNL     1      22.680   3.141  29.045  1.00  0.00     0.162 HD
BRANCH  10  12
HETATM   12  C8  UNL     1      22.091   5.176  28.951  1.00  0.00     0.348 C 
HETATM   13  O2  UNL     1      22.166   5.725  27.836  1.00  0.00    -0.284 OA
ENDBRANCH  10  12
ENDBRANCH   4  10
BRANCH   3  14
HETATM   14  N3  UNL     1      21.537   2.217  31.203  1.00  0.00    -0.362 N 
ATOM     15  H3  UNL     1      22.502   2.204  30.873  1.00  0.00     0.162 HD
BRANCH  14  16
HETATM   16  C6  UNL     1      21.250   2.257  32.585  1.00  0.00     0.348 C 
HETATM   17  O1  UNL     1      20.107   2.217  33.063  1.00  0.00    -0.284 OA
ENDBRANCH  14  16
ENDBRANCH   3  14
TORSDOF 6
ENDMDL
MODEL 4
REMARK VINA RESULT: -4.400706077      3.138      6.031
REMARK  6 active torsions:
REMARK  status: ('A' for Active; 'I' for Inactive)
REMARK    1  A    between atoms: N2_3  and  C2_5 
REMARK    2  A    between atoms: C2_5  and  C3_6 
REMARK    3  A    between atoms: C5_8  and  N3_9 
REMARK    4  A    between atoms: N3_9  and  C6_11 
REMARK    5  A    between atoms: C7_13  and  N4_14 
REMARK    6  A    between atoms: N4_14  and  C8_16 
ROOT
HETATM    1  C3  UNL     1      20.649   2.905  28.853  1.00  0.00     0.030 C 
HETATM    2  C4  UNL     1      21.981   3.601  28.853  1.00  0.00     0.035 C 
HETATM    3  C5  UNL     1      21.271   4.894  28.528  1.00  0.00     0.107 C 
HETATM    4  C7  UNL     1      20.034   4.083  28.134  1.00  0.00     0.112 C 
ENDROOT
BRANCH   1   5
HETATM    5  C2  UNL     1      20.174   2.726  30.283  1.00  0.00     0.126 C 
BRANCH   5   6
HETATM    6  N2  UNL     1      20.463   1.350  30.634  1.00  0.00    -0.388 N 
HETATM    7  C1  UNL     1      20.460   0.913  31.844  1.00  0.00     0.185 C 
HETATM    8  N1  UNL     1      20.756  -0.450  32.085  1.00  0.00    -0.097 NA
ATOM      9  H2  UNL     1      20.679   0.694  29.884  1.00  0.00     0.159 HD
ENDBRANCH   5   6
ENDBRANCH   1   5
BRANCH   4  10
HETATM   10  N4  UNL     1      19.993   3.835  26.708  1.00  0.00    -0.361 N 
ATOM     11  H4  UNL     1      20.856   3.719  26.177  1.00  0.00     0.162 HD
BRANCH  10  12
HETATM   12  C8  UNL     1      18.738   3.754  26.064  1.00  0.00     0.348 C 
HETATM   13  O2  UNL     1      17.709   4.182  26.618  1.00  0.00    -0.284 OA
ENDBRANCH  10  12
ENDBRANCH   4  10
BRANCH   3  14
HETATM   14  N3  UNL     1      21.868   5.607  27.425  1.00  0.00    -0.362 N 
ATOM     15  H3  UNL     1      21.698   5.313  26.463  1.00  0.00     0.162 HD
BRANCH  14  16
HETATM   16  C6  UNL     1      22.691   6.722  27.702  1.00  0.00     0.348 C 
HETATM   17  O1  UNL     1      22.708   7.763  27.030  1.00  0.00    -0.284 OA
ENDBRANCH  14  16
ENDBRANCH   3  14
TORSDOF 6
ENDMDL
MODEL 5
REMARK VINA RESULT: -4.391653746      3.016      5.332
REMARK  6 active torsions:
REMARK  status: ('A' for Active; 'I' for Inactive)
REMARK    1  A    between atoms: N2_3  and  C2_5 
REMARK    2  A    between atoms: C2_5  and  C3_6 
REMARK    3  A    between atoms: C5_8  and  N3_9 
REMARK    4  A    between atoms: N3_9  and  C6_11 
REMARK    5  A    between atoms: C7_13  and  N4_14 
REMARK    6  A    between atoms: N4_14  and  C8_16 
ROOT
HETATM    1  C3  UNL     1      20.142   2.281  29.323  1.00  0.00     0.030 C 
HETATM    2  C4  UNL     1      19.060   2.189  28.284  1.00  0.00     0.035 C 
HETATM    3  C5  UNL     1      20.087   2.519  27.227  1.00  0.00     0.107 C 
HETATM    4  C7  UNL     1      21.029   3.001  28.334  1.00  0.00     0.112 C 
ENDROOT
BRANCH   1   5
HETATM    5  C2  UNL     1      20.613   0.884  29.684  1.00  0.00     0.126 C 
BRANCH   5   6
HETATM    6  N2  UNL     1      19.952   0.546  30.929  1.00  0.00    -0.388 N 
HETATM    7  C1  UNL     1      20.340   0.979  32.076  1.00  0.00     0.185 C 
HETATM    8  N1  UNL     1      19.627   0.591  33.236  1.00  0.00    -0.097 NA
ATOM      9  H2  UNL     1      19.138  -0.068  30.894  1.00  0.00     0.159 HD
ENDBRANCH   5   6
ENDBRANCH   1   5
BRANCH   4  10
HETATM   10  N4  UNL     1      20.934   4.433  28.526  1.00  0.00    -0.361 N 
ATOM     11  H4  UNL     1      20.026   4.896  28.531  1.00  0.00     0.162 HD
BRANCH  10  12
HETATM   12  C8  UNL     1      22.120   5.179  28.707  1.00  0.00     0.348 C 
HETATM   13  O2  UNL     1      22.638   5.793  27.756  1.00  0.00    -0.284 OA
ENDBRANCH  10  12
ENDBRANCH   4  10
BRANCH   3  14
HETATM   14  N3  UNL     1      19.664   3.568  26.333  1.00  0.00    -0.362 N 
ATOM     15  H3  UNL     1      20.055   4.507  26.412  1.00  0.00     0.162 HD
BRANCH  14  16
HETATM   16  C6  UNL     1      18.699   3.271  25.344  1.00  0.00     0.348 C 
HETATM   17  O1  UNL     1      17.641   3.897  25.190  1.00  0.00    -0.284 OA
ENDBRANCH  14  16
ENDBRANCH   3  14
TORSDOF 6
ENDMDL
