MODEL 1
REMARK VINA RESULT: -4.958644999      0.000      0.000
REMARK  6 active torsions:
REMARK  status: ('A' for Active; 'I' for Inactive)
REMARK    1  A    between atoms: C3_6  and  C4_7 
REMARK    2  A    between atoms: C4_7  and  C5_8 
REMARK    3  A    between atoms: C5_8  and  N3_9 
REMARK    4  A    between atoms: N3_9  and  C6_12 
REMARK    5  A    between atoms: C6_12  and  C7_13 
REMARK    6  A    between atoms: C7_13  and  N4_14 
ROOT
HETATM    1  C5  UNL     1      20.946   3.639  29.044  1.00  0.00     0.238 C 
ENDROOT
BRANCH   1   2
HETATM    2  C4  UNL     1      21.953   4.505  29.712  1.00  0.00     0.086 C 
BRANCH   2   3
HETATM    3  C3  UNL     1      22.372   5.668  28.920  1.00  0.00     0.027 A 
HETATM    4  N2  UNL     1      22.304   5.894  27.599  1.00  0.00    -0.354 N 
HETATM    5  C2  UNL     1      22.812   7.106  27.319  1.00  0.00     0.182 A 
ATOM      6  H2  UNL     1      21.924   5.244  26.912  1.00  0.00     0.166 HD
HETATM    7  N1  UNL     1      23.212   7.680  28.441  1.00  0.00    -0.355 N 
HETATM    8  C1  UNL     1      23.824   8.979  28.660  1.00  0.00     0.156 C 
HETATM    9  C9  UNL     1      22.949   6.805  29.442  1.00  0.00     0.116 A 
ENDBRANCH   2   3
ENDBRANCH   1   2
BRANCH   1  10
HETATM   10  N3  UNL     1      21.438   2.441  28.454  1.00  0.00    -0.073 N 
ATOM     11  H32 UNL     1      21.990   2.653  27.623  1.00  0.00     0.277 HD
ATOM     12  H31 UNL     1      22.160   2.024  29.041  1.00  0.00     0.277 HD
BRANCH  10  13
HETATM   13  C6  UNL     1      20.411   1.468  28.145  1.00  0.00     0.251 C 
BRANCH  13  14
HETATM   14  C7  UNL     1      19.083   2.192  27.948  1.00  0.00     0.147 C 
BRANCH  14  15
HETATM   15  N4  UNL     1      18.765   2.433  26.576  1.00  0.00    -0.386 N 
HETATM   16  C8  UNL     1      18.438   3.582  26.100  1.00  0.00     0.185 C 
HETATM   17  N5  UNL     1      18.127   3.788  24.731  1.00  0.00    -0.097 NA
ATOM     18  H4  UNL     1      18.799   1.642  25.933  1.00  0.00     0.159 HD
ENDBRANCH  14  15
ENDBRANCH  13  14
ENDBRANCH  10  13
ENDBRANCH   1  10
TORSDOF 6
ENDMDL
MODEL 2
REMARK VINA RESULT: -4.798073029      1.611      5.130
REMARK  6 active torsions:
REMARK  status: ('A' for Active; 'I' for Inactive)
REMARK    1  A    between atoms: C3_6  and  C4_7 
REMARK    2  A    between atoms: C4_7  and  C5_8 
REMARK    3  A    between atoms: C5_8  and  N3_9 
REMARK    4  A    between atoms: N3_9  and  C6_12 
REMARK    5  A    between atoms: C6_12  and  C7_13 
REMARK    6  A    between atoms: C7_13  and  N4_14 
ROOT
HETATM    1  C5  UNL     1      21.870   1.557  29.599  1.00  0.00     0.238 C 
ENDROOT
BRANCH   1   2
HETATM    2  C4  UNL     1      20.771   1.195  28.665  1.00  0.00     0.086 C 
BRANCH   2   3
HETATM    3  C3  UNL     1      20.216   2.329  27.917  1.00  0.00     0.027 A 
HETATM    4  N2  UNL     1      20.361   3.651  28.100  1.00  0.00    -0.354 N 
HETATM    5  C2  UNL     1      19.663   4.318  27.166  1.00  0.00     0.182 A 
ATOM      6  H2  UNL     1      20.919   4.083  28.837  1.00  0.00     0.166 HD
HETATM    7  N1  UNL     1      19.059   3.451  26.371  1.00  0.00    -0.355 N 
HETATM    8  C1  UNL     1      18.197   3.677  25.225  1.00  0.00     0.156 C 
HETATM    9  C9  UNL     1      19.389   2.215  26.821  1.00  0.00     0.116 A 
ENDBRANCH   2   3
ENDBRANCH   1   2
BRANCH   1  10
HETATM   10  N3  UNL     1      23.128   1.859  29.007  1.00  0.00    -0.073 N 
ATOM     11  H32 UNL     1      23.588   1.005  28.691  1.00  0.00     0.277 HD
ATOM     12  H31 UNL     1      22.997   2.328  28.110  1.00  0.00     0.277 HD
BRANCH  10  13
HETATM   13  C6  UNL     1      24.014   2.627  29.856  1.00  0.00     0.251 C 
BRANCH  13  14
HETATM   14  C7  UNL     1      23.527   4.071  29.906  1.00  0.00     0.147 C 
BRANCH  14  15
HETATM   15  N4  UNL     1      23.639   4.752  28.655  1.00  0.00    -0.386 N 
HETATM   16  C8  UNL     1      23.144   5.915  28.416  1.00  0.00     0.185 C 
HETATM   17  N5  UNL     1      23.273   6.565  27.160  1.00  0.00    -0.097 NA
ATOM     18  H4  UNL     1      24.145   4.286  27.902  1.00  0.00     0.159 HD
ENDBRANCH  14  15
ENDBRANCH  13  14
ENDBRANCH  10  13
ENDBRANCH   1  10
TORSDOF 6
ENDMDL
MODEL 3
REMARK VINA RESULT: -4.794485118      2.007      2.547
REMARK  6 active torsions:
REMARK  status: ('A' for Active; 'I' for Inactive)
REMARK    1  A    between atoms: C3_6  and  C4_7 
REMARK    2  A    between atoms: C4_7  and  C5_8 
REMARK    3  A    between atoms: C5_8  and  N3_9 
REMARK    4  A    between atoms: N3_9  and  C6_12 
REMARK    5  A    between atoms: C6_12  and  C7_13 
REMARK    6  A    between atoms: C7_13  and  N4_14 
ROOT
HETATM    1  C5  UNL     1      21.757   1.217  29.129  1.00  0.00     0.238 C 
ENDROOT
BRANCH   1   2
HETATM    2  C4  UNL     1      23.097   1.768  29.462  1.00  0.00     0.086 C 
BRANCH   2   3
HETATM    3  C3  UNL     1      23.110   3.213  29.719  1.00  0.00     0.027 A 
HETATM    4  N2  UNL     1      23.708   4.212  29.053  1.00  0.00    -0.354 N 
HETATM    5  C2  UNL     1      23.443   5.383  29.656  1.00  0.00     0.182 A 
ATOM      6  H2  UNL     1      24.278   4.100  28.214  1.00  0.00     0.166 HD
HETATM    7  N1  UNL     1      22.678   5.165  30.712  1.00  0.00    -0.355 N 
HETATM    8  C1  UNL     1      22.129   6.100  31.678  1.00  0.00     0.156 C 
HETATM    9  C9  UNL     1      22.461   3.828  30.767  1.00  0.00     0.116 A 
ENDBRANCH   2   3
ENDBRANCH   1   2
BRANCH   1  10
HETATM   10  N3  UNL     1      21.102   1.787  28.002  1.00  0.00    -0.073 N 
ATOM     11  H32 UNL     1      21.737   2.404  27.494  1.00  0.00     0.277 HD
ATOM     12  H31 UNL     1      20.940   1.078  27.287  1.00  0.00     0.277 HD
BRANCH  10  13
HETATM   13  C6  UNL     1      19.871   2.479  28.319  1.00  0.00     0.251 C 
BRANCH  13  14
HETATM   14  C7  UNL     1      19.996   3.938  27.891  1.00  0.00     0.147 C 
BRANCH  14  15
HETATM   15  N4  UNL     1      19.493   4.191  26.578  1.00  0.00    -0.386 N 
HETATM   16  C8  UNL     1      18.508   3.557  26.045  1.00  0.00     0.185 C 
HETATM   17  N5  UNL     1      18.033   3.832  24.736  1.00  0.00    -0.097 NA
ATOM     18  H4  UNL     1      19.944   4.921  26.027  1.00  0.00     0.159 HD
ENDBRANCH  14  15
ENDBRANCH  13  14
ENDBRANCH  10  13
ENDBRANCH   1  10
TORSDOF 6
ENDMDL
MODEL 4
REMARK VINA RESULT: -4.694623548      1.309      5.817
REMARK  6 active torsions:
REMARK  status: ('A' for Active; 'I' for Inactive)
REMARK    1  A    between atoms: C3_6  and  C4_7 
REMARK    2  A    between atoms: C4_7  and  C5_8 
REMARK    3  A    between atoms: C5_8  and  N3_9 
REMARK    4  A    between atoms: N3_9  and  C6_12 
REMARK    5  A    between atoms: C6_12  and  C7_13 
REMARK    6  A    between atoms: C7_13  and  N4_14 
ROOT
HETATM    1  C5  UNL     1      22.146   3.582  29.738  1.00  0.00     0.238 C 
ENDROOT
BRANCH   1   2
HETATM    2  C4  UNL     1      20.708   3.957  29.757  1.00  0.00     0.086 C 
BRANCH   2   3
HETATM    3  C3  UNL     1      19.915   3.369  28.671  1.00  0.00     0.027 A 
HETATM    4  N2  UNL     1      19.331   2.165  28.570  1.00  0.00    -0.354 N 
HETATM    5  C2  UNL     1      18.706   2.060  27.385  1.00  0.00     0.182 A 
ATOM      6  H2  UNL     1      19.358   1.438  29.285  1.00  0.00     0.166 HD
HETATM    7  N1  UNL     1      18.871   3.182  26.706  1.00  0.00    -0.355 N 
HETATM    8  C1  UNL     1      18.393   3.555  25.386  1.00  0.00     0.156 C 
HETATM    9  C9  UNL     1      19.617   4.004  27.485  1.00  0.00     0.116 A 
ENDBRANCH   2   3
ENDBRANCH   1   2
BRANCH   1  10
HETATM   10  N3  UNL     1      23.020   4.464  29.044  1.00  0.00    -0.073 N 
ATOM     11  H32 UNL     1      23.980   4.340  29.363  1.00  0.00     0.277 HD
ATOM     12  H31 UNL     1      23.121   4.175  28.071  1.00  0.00     0.277 HD
BRANCH  10  13
HETATM   13  C6  UNL     1      22.637   5.859  29.121  1.00  0.00     0.251 C 
BRANCH  13  14
HETATM   14  C7  UNL     1      22.685   6.465  27.722  1.00  0.00     0.147 C 
BRANCH  14  15
HETATM   15  N4  UNL     1      23.044   7.848  27.714  1.00  0.00    -0.386 N 
HETATM   16  C8  UNL     1      23.903   8.378  28.511  1.00  0.00     0.185 C 
HETATM   17  N5  UNL     1      24.237   9.757  28.478  1.00  0.00    -0.097 NA
ATOM     18  H4  UNL     1      22.589   8.454  27.032  1.00  0.00     0.159 HD
ENDBRANCH  14  15
ENDBRANCH  13  14
ENDBRANCH  10  13
ENDBRANCH   1  10
TORSDOF 6
ENDMDL
MODEL 5
REMARK VINA RESULT: -4.688422546      0.956      1.043
REMARK  6 active torsions:
REMARK  status: ('A' for Active; 'I' for Inactive)
REMARK    1  A    between atoms: C3_6  and  C4_7 
REMARK    2  A    between atoms: C4_7  and  C5_8 
REMARK    3  A    between atoms: C5_8  and  N3_9 
REMARK    4  A    between atoms: N3_9  and  C6_12 
REMARK    5  A    between atoms: C6_12  and  C7_13 
REMARK    6  A    between atoms: C7_13  and  N4_14 
ROOT
HETATM    1  C5  UNL     1      21.229   2.746  29.546  1.00  0.00     0.238 C 
ENDROOT
BRANCH   1   2
HETATM    2  C4  UNL     1      21.290   4.105  30.146  1.00  0.00     0.086 C 
BRANCH   2   3
HETATM    3  C3  UNL     1      21.934   5.113  29.296  1.00  0.00     0.027 A 
HETATM    4  N2  UNL     1      21.857   5.317  27.972  1.00  0.00    -0.354 N 
HETATM    5  C2  UNL     1      22.625   6.364  27.627  1.00  0.00     0.182 A 
ATOM      6  H2  UNL     1      21.298   4.760  27.325  1.00  0.00     0.166 HD
HETATM    7  N1  UNL     1      23.207   6.851  28.710  1.00  0.00    -0.355 N 
HETATM    8  C1  UNL     1      24.122   7.970  28.856  1.00  0.00     0.156 C 
HETATM    9  C9  UNL     1      22.792   6.090  29.752  1.00  0.00     0.116 A 
ENDBRANCH   2   3
ENDBRANCH   1   2
BRANCH   1  10
HETATM   10  N3  UNL     1      19.959   2.105  29.563  1.00  0.00    -0.073 N 
ATOM     11  H32 UNL     1      20.061   1.114  29.781  1.00  0.00     0.277 HD
ATOM     12  H31 UNL     1      19.417   2.407  30.373  1.00  0.00     0.277 HD
BRANCH  10  13
HETATM   13  C6  UNL     1      19.191   2.279  28.347  1.00  0.00     0.251 C 
BRANCH  13  14
HETATM   14  C7  UNL     1      20.086   1.982  27.148  1.00  0.00     0.147 C 
BRANCH  14  15
HETATM   15  N4  UNL     1      19.626   2.580  25.935  1.00  0.00    -0.386 N 
HETATM   16  C8  UNL     1      18.544   3.268  25.830  1.00  0.00     0.185 C 
HETATM   17  N5  UNL     1      18.114   3.848  24.609  1.00  0.00    -0.097 NA
ATOM     18  H4  UNL     1      20.192   2.453  25.096  1.00  0.00     0.159 HD
ENDBRANCH  14  15
ENDBRANCH  13  14
ENDBRANCH  10  13
ENDBRANCH   1  10
TORSDOF 6
ENDMDL
