MODEL 1
REMARK VINA RESULT: -4.827254498      0.000      0.000
REMARK  7 active torsions:
REMARK  status: ('A' for Active; 'I' for Inactive)
REMARK    1  A    between atoms: N1_1  and  C1_5 
REMARK    2  A    between atoms: C1_5  and  C2_6 
REMARK    3  A    between atoms: C2_6  and  N2_7 
REMARK    4  A    between atoms: N2_7  and  C3_9 
REMARK    5  A    between atoms: C3_9  and  N3_10 
REMARK    6  A    between atoms: C4_12  and  C5_13 
REMARK    7  A    between atoms: C5_13  and  C6_14 
ROOT
HETATM    1  N3  UNL     1      22.179   2.268  28.718  1.00  0.00    -0.365 N 
ATOM      2  H3  UNL     1      22.538   1.785  27.894  1.00  0.00     0.165 HD
HETATM    3  C4  UNL     1      20.935   2.304  28.959  1.00  0.00     0.068 C 
ENDROOT
BRANCH   1   4
HETATM    4  C3  UNL     1      23.080   2.930  29.642  1.00  0.00     0.179 C 
BRANCH   4   5
HETATM    5  N2  UNL     1      23.452   4.155  29.096  1.00  0.00    -0.364 N 
ATOM      6  H2  UNL     1      24.175   4.175  28.378  1.00  0.00     0.165 HD
BRANCH   5   7
HETATM    7  C2  UNL     1      22.864   5.368  29.502  1.00  0.00     0.088 C 
BRANCH   7   8
HETATM    8  C1  UNL     1      22.991   6.461  28.493  1.00  0.00     0.274 C 
BRANCH   8   9
HETATM    9  N1  UNL     1      22.459   6.034  27.229  1.00  0.00    -0.075 N 
ATOM     10  H13 UNL     1      22.099   5.081  27.270  1.00  0.00     0.274 HD
ATOM     11  H12 UNL     1      21.589   6.514  27.000  1.00  0.00     0.274 HD
ATOM     12  H11 UNL     1      23.160   6.145  26.496  1.00  0.00     0.274 HD
ENDBRANCH   8   9
ENDBRANCH   7   8
ENDBRANCH   5   7
ENDBRANCH   4   5
ENDBRANCH   1   4
BRANCH   3  13
HETATM   13  C5  UNL     1      19.983   1.630  28.022  1.00  0.00     0.103 C 
BRANCH  13  14
HETATM   14  C6  UNL     1      19.425   2.624  27.064  1.00  0.00     0.030 A 
HETATM   15  C7  UNL     1      19.455   3.983  27.163  1.00  0.00     0.114 A 
HETATM   16  N4  UNL     1      18.841   4.509  26.092  1.00  0.00    -0.360 N 
HETATM   17  C8  UNL     1      18.437   3.442  25.343  1.00  0.00     0.180 A 
ATOM     18  H4  UNL     1      18.704   5.497  25.883  1.00  0.00     0.166 HD
HETATM   19  N5  UNL     1      18.790   2.297  25.930  1.00  0.00    -0.354 N 
ATOM     20  H5  UNL     1      18.612   1.355  25.583  1.00  0.00     0.166 HD
ENDBRANCH  13  14
ENDBRANCH   3  13
TORSDOF 7
ENDMDL
MODEL 2
REMARK VINA RESULT: -4.600103230      2.485      5.170
REMARK  7 active torsions:
REMARK  status: ('A' for Active; 'I' for Inactive)
REMARK    1  A    between atoms: N1_1  and  C1_5 
REMARK    2  A    between atoms: C1_5  and  C2_6 
REMARK    3  A    between atoms: C2_6  and  N2_7 
REMARK    4  A    between atoms: N2_7  and  C3_9 
REMARK    5  A    between atoms: C3_9  and  N3_10 
REMARK    6  A    between atoms: C4_12  and  C5_13 
REMARK    7  A    between atoms: C5_13  and  C6_14 
ROOT
HETATM    1  N3  UNL     1      21.068   2.876  28.475  1.00  0.00    -0.365 N 
ATOM      2  H3  UNL     1      22.079   2.799  28.589  1.00  0.00     0.165 HD
HETATM    3  C4  UNL     1      20.327   1.848  28.538  1.00  0.00     0.068 C 
ENDROOT
BRANCH   1   4
HETATM    4  C3  UNL     1      20.442   4.163  28.239  1.00  0.00     0.179 C 
BRANCH   4   5
HETATM    5  N2  UNL     1      20.088   4.242  26.895  1.00  0.00    -0.364 N 
ATOM      6  H2  UNL     1      20.826   4.279  26.193  1.00  0.00     0.165 HD
BRANCH   5   7
HETATM    7  C2  UNL     1      18.745   4.274  26.472  1.00  0.00     0.088 C 
BRANCH   7   8
HETATM    8  C1  UNL     1      18.457   3.359  25.328  1.00  0.00     0.274 C 
BRANCH   8   9
HETATM    9  N1  UNL     1      19.591   2.517  25.069  1.00  0.00    -0.075 N 
ATOM     10  H13 UNL     1      19.647   1.739  25.727  1.00  0.00     0.274 HD
ATOM     11  H12 UNL     1      19.477   1.978  24.210  1.00  0.00     0.274 HD
ATOM     12  H11 UNL     1      20.447   3.071  25.060  1.00  0.00     0.274 HD
ENDBRANCH   8   9
ENDBRANCH   7   8
ENDBRANCH   5   7
ENDBRANCH   4   5
ENDBRANCH   1   4
BRANCH   3  13
HETATM   13  C5  UNL     1      20.946   0.508  28.780  1.00  0.00     0.103 C 
BRANCH  13  14
HETATM   14  C6  UNL     1      20.954   0.210  30.239  1.00  0.00     0.030 A 
HETATM   15  C7  UNL     1      21.846  -0.557  30.928  1.00  0.00     0.114 A 
HETATM   16  N4  UNL     1      21.496  -0.571  32.223  1.00  0.00    -0.360 N 
HETATM   17  C8  UNL     1      20.373   0.201  32.306  1.00  0.00     0.180 A 
ATOM     18  H4  UNL     1      21.969  -1.056  32.984  1.00  0.00     0.166 HD
HETATM   19  N5  UNL     1      20.042   0.675  31.103  1.00  0.00    -0.354 N 
ATOM     20  H5  UNL     1      19.248   1.277  30.884  1.00  0.00     0.166 HD
ENDBRANCH  13  14
ENDBRANCH   3  13
TORSDOF 7
ENDMDL
MODEL 3
REMARK VINA RESULT: -4.533827950      2.374      5.210
REMARK  7 active torsions:
REMARK  status: ('A' for Active; 'I' for Inactive)
REMARK    1  A    between atoms: N1_1  and  C1_5 
REMARK    2  A    between atoms: C1_5  and  C2_6 
REMARK    3  A    between atoms: C2_6  and  N2_7 
REMARK    4  A    between atoms: N2_7  and  C3_9 
REMARK    5  A    between atoms: C3_9  and  N3_10 
REMARK    6  A    between atoms: C4_12  and  C5_13 
REMARK    7  A    between atoms: C5_13  and  C6_14 
ROOT
HETATM    1  N3  UNL     1      21.028   2.802  28.393  1.00  0.00    -0.365 N 
ATOM      2  H3  UNL     1      22.038   2.676  28.318  1.00  0.00     0.165 HD
HETATM    3  C4  UNL     1      20.266   1.816  28.627  1.00  0.00     0.068 C 
ENDROOT
BRANCH   1   4
HETATM    4  C3  UNL     1      20.430   4.114  28.236  1.00  0.00     0.179 C 
BRANCH   4   5
HETATM    5  N2  UNL     1      20.064   4.276  26.903  1.00  0.00    -0.364 N 
ATOM      6  H2  UNL     1      20.794   4.409  26.204  1.00  0.00     0.165 HD
BRANCH   5   7
HETATM    7  C2  UNL     1      18.719   4.262  26.486  1.00  0.00     0.088 C 
BRANCH   7   8
HETATM    8  C1  UNL     1      18.452   3.320  25.359  1.00  0.00     0.274 C 
BRANCH   8   9
HETATM    9  N1  UNL     1      19.616   2.520  25.095  1.00  0.00    -0.075 N 
ATOM     10  H13 UNL     1      20.255   2.504  25.890  1.00  0.00     0.274 HD
ATOM     11  H12 UNL     1      19.394   1.525  25.060  1.00  0.00     0.274 HD
ATOM     12  H11 UNL     1      20.076   2.838  24.242  1.00  0.00     0.274 HD
ENDBRANCH   8   9
ENDBRANCH   7   8
ENDBRANCH   5   7
ENDBRANCH   4   5
ENDBRANCH   1   4
BRANCH   3  13
HETATM   13  C5  UNL     1      20.857   0.451  28.793  1.00  0.00     0.103 C 
BRANCH  13  14
HETATM   14  C6  UNL     1      21.220   0.227  30.220  1.00  0.00     0.030 A 
HETATM   15  C7  UNL     1      20.528   0.620  31.327  1.00  0.00     0.114 A 
HETATM   16  N4  UNL     1      21.196   0.221  32.420  1.00  0.00    -0.360 N 
HETATM   17  C8  UNL     1      22.307  -0.421  31.953  1.00  0.00     0.180 A 
ATOM     18  H4  UNL     1      20.930   0.367  33.393  1.00  0.00     0.166 HD
HETATM   19  N5  UNL     1      22.323  -0.419  30.619  1.00  0.00    -0.354 N 
ATOM     20  H5  UNL     1      23.038  -0.829  30.019  1.00  0.00     0.166 HD
ENDBRANCH  13  14
ENDBRANCH   3  13
TORSDOF 7
ENDMDL
MODEL 4
REMARK VINA RESULT: -4.488648784      1.115      1.313
REMARK  7 active torsions:
REMARK  status: ('A' for Active; 'I' for Inactive)
REMARK    1  A    between atoms: N1_1  and  C1_5 
REMARK    2  A    between atoms: C1_5  and  C2_6 
REMARK    3  A    between atoms: C2_6  and  N2_7 
REMARK    4  A    between atoms: N2_7  and  C3_9 
REMARK    5  A    between atoms: C3_9  and  N3_10 
REMARK    6  A    between atoms: C4_12  and  C5_13 
REMARK    7  A    between atoms: C5_13  and  C6_14 
ROOT
HETATM    1  N3  UNL     1      22.326   1.753  28.642  1.00  0.00    -0.365 N 
ATOM      2  H3  UNL     1      22.588   1.166  27.850  1.00  0.00     0.165 HD
HETATM    3  C4  UNL     1      21.109   2.014  28.883  1.00  0.00     0.068 C 
ENDROOT
BRANCH   1   4
HETATM    4  C3  UNL     1      23.337   2.308  29.522  1.00  0.00     0.179 C 
BRANCH   4   5
HETATM    5  N2  UNL     1      23.595   3.618  29.127  1.00  0.00    -0.364 N 
ATOM      6  H2  UNL     1      23.832   3.801  28.153  1.00  0.00     0.165 HD
BRANCH   5   7
HETATM    7  C2  UNL     1      23.541   4.699  30.028  1.00  0.00     0.088 C 
BRANCH   7   8
HETATM    8  C1  UNL     1      22.281   5.494  29.933  1.00  0.00     0.274 C 
BRANCH   8   9
HETATM    9  N1  UNL     1      21.422   5.197  31.046  1.00  0.00    -0.075 N 
ATOM     10  H13 UNL     1      20.965   4.291  30.943  1.00  0.00     0.274 HD
ATOM     11  H12 UNL     1      21.952   5.002  31.895  1.00  0.00     0.274 HD
ATOM     12  H11 UNL     1      20.749   5.951  31.181  1.00  0.00     0.274 HD
ENDBRANCH   8   9
ENDBRANCH   7   8
ENDBRANCH   5   7
ENDBRANCH   4   5
ENDBRANCH   1   4
BRANCH   3  13
HETATM   13  C5  UNL     1      20.046   1.454  27.992  1.00  0.00     0.103 C 
BRANCH  13  14
HETATM   14  C6  UNL     1      19.505   2.527  27.112  1.00  0.00     0.030 A 
HETATM   15  C7  UNL     1      19.629   3.876  27.271  1.00  0.00     0.114 A 
HETATM   16  N4  UNL     1      18.996   4.491  26.261  1.00  0.00    -0.360 N 
HETATM   17  C8  UNL     1      18.484   3.489  25.487  1.00  0.00     0.180 A 
ATOM     18  H4  UNL     1      18.914   5.494  26.104  1.00  0.00     0.166 HD
HETATM   19  N5  UNL     1      18.792   2.297  26.002  1.00  0.00    -0.354 N 
ATOM     20  H5  UNL     1      18.534   1.386  25.623  1.00  0.00     0.166 HD
ENDBRANCH  13  14
ENDBRANCH   3  13
TORSDOF 7
ENDMDL
MODEL 5
REMARK VINA RESULT: -4.440384810      0.967      1.291
REMARK  7 active torsions:
REMARK  status: ('A' for Active; 'I' for Inactive)
REMARK    1  A    between atoms: N1_1  and  C1_5 
REMARK    2  A    between atoms: C1_5  and  C2_6 
REMARK    3  A    between atoms: C2_6  and  N2_7 
REMARK    4  A    between atoms: N2_7  and  C3_9 
REMARK    5  A    between atoms: C3_9  and  N3_10 
REMARK    6  A    between atoms: C4_12  and  C5_13 
REMARK    7  A    between atoms: C5_13  and  C6_14 
ROOT
HETATM    1  N3  UNL     1      21.942   3.671  29.300  1.00  0.00    -0.365 N 
ATOM      2  H3  UNL     1      21.668   4.632  29.506  1.00  0.00     0.165 HD
HETATM    3  C4  UNL     1      21.088   2.824  28.899  1.00  0.00     0.068 C 
ENDROOT
BRANCH   1   4
HETATM    4  C3  UNL     1      23.318   3.242  29.458  1.00  0.00     0.179 C 
BRANCH   4   5
HETATM    5  N2  UNL     1      24.154   4.270  29.031  1.00  0.00    -0.364 N 
ATOM      6  H2  UNL     1      25.076   4.034  28.664  1.00  0.00     0.165 HD
BRANCH   5   7
HETATM    7  C2  UNL     1      23.771   5.623  29.088  1.00  0.00     0.088 C 
BRANCH   7   8
HETATM    8  C1  UNL     1      24.012   6.367  27.817  1.00  0.00     0.274 C 
BRANCH   8   9
HETATM    9  N1  UNL     1      22.844   6.317  26.983  1.00  0.00    -0.075 N 
ATOM     10  H13 UNL     1      22.151   5.659  27.338  1.00  0.00     0.274 HD
ATOM     11  H12 UNL     1      22.289   7.170  27.053  1.00  0.00     0.274 HD
ATOM     12  H11 UNL     1      23.107   6.111  26.020  1.00  0.00     0.274 HD
ENDBRANCH   8   9
ENDBRANCH   7   8
ENDBRANCH   5   7
ENDBRANCH   4   5
ENDBRANCH   1   4
BRANCH   3  13
HETATM   13  C5  UNL     1      19.662   3.241  28.726  1.00  0.00     0.103 C 
BRANCH  13  14
HETATM   14  C6  UNL     1      19.300   3.224  27.282  1.00  0.00     0.030 A 
HETATM   15  C7  UNL     1      19.731   2.353  26.325  1.00  0.00     0.114 A 
HETATM   16  N4  UNL     1      19.169   2.684  25.153  1.00  0.00    -0.360 N 
HETATM   17  C8  UNL     1      18.389   3.772  25.418  1.00  0.00     0.180 A 
ATOM     18  H4  UNL     1      19.297   2.220  24.255  1.00  0.00     0.166 HD
HETATM   19  N5  UNL     1      18.467   4.102  26.708  1.00  0.00    -0.354 N 
ATOM     20  H5  UNL     1      17.985   4.874  27.169  1.00  0.00     0.166 HD
ENDBRANCH  13  14
ENDBRANCH   3  13
TORSDOF 7
ENDMDL
