MODEL 1
REMARK VINA RESULT: -6.773241245      0.000      0.000
REMARK  7 active torsions:
REMARK  status: ('A' for Active; 'I' for Inactive)
REMARK    1  A    between atoms: C4_4  and  C5_5 
REMARK    2  A    between atoms: C6_6  and  C7_7 
REMARK    3  A    between atoms: C12_12  and  C13_13 
REMARK    4  A    between atoms: C16_18  and  C17_19 
REMARK    5  A    between atoms: C22_24  and  S1_25 
REMARK    6  A    between atoms: S1_25  and  N2_26 
REMARK    7  A    between atoms: C26_35  and  C27_36 
ROOT
HETATM    1  C7  UNL     1      30.657  54.872  43.378  1.00  0.00     0.029 A 
HETATM    2  C8  UNL     1      30.054  54.883  42.115  1.00  0.00     0.021 A 
HETATM    3  C9  UNL     1      28.733  54.554  41.932  1.00  0.00     0.002 A 
HETATM    4  C10 UNL     1      27.937  54.195  43.004  1.00  0.00     0.001 A 
HETATM    5  C11 UNL     1      28.511  54.180  44.249  1.00  0.00     0.014 A 
HETATM    6  C12 UNL     1      29.844  54.513  44.428  1.00  0.00    -0.006 A 
ENDROOT
BRANCH   6   7
HETATM    7  C13 UNL     1      30.381  54.486  45.795  1.00  0.00    -0.008 A 
HETATM    8  C14 UNL     1      31.068  53.402  46.271  1.00  0.00     0.100 A 
HETATM    9  N1  UNL     1      31.541  53.411  47.550  1.00  0.00    -0.374 N 
HETATM   10  C15 UNL     1      31.350  54.460  48.366  1.00  0.00     0.100 A 
ATOM     11  H1  UNL     1      32.052  52.599  47.897  1.00  0.00     0.164 HD
HETATM   12  C16 UNL     1      30.657  55.594  47.936  1.00  0.00    -0.008 A 
HETATM   13  C23 UNL     1      30.189  55.572  46.652  1.00  0.00     0.027 A 
BRANCH  12  14
HETATM   14  C17 UNL     1      30.458  56.676  48.849  1.00  0.00    -0.001 A 
HETATM   15  C18 UNL     1      29.224  56.740  49.487  1.00  0.00     0.014 A 
HETATM   16  C19 UNL     1      28.981  57.771  50.361  1.00  0.00     0.001 A 
HETATM   17  C20 UNL     1      29.936  58.715  50.595  1.00  0.00     0.002 A 
HETATM   18  C21 UNL     1      31.147  58.631  49.953  1.00  0.00     0.026 A 
HETATM   19  C22 UNL     1      31.450  57.607  49.057  1.00  0.00     0.090 A 
BRANCH  19  20
HETATM   20  S1  UNL     1      33.009  57.580  48.310  1.00  0.00     0.257 S 
HETATM   21  O1  UNL     1      33.964  56.624  48.919  1.00  0.00    -0.201 OA
HETATM   22  O2  UNL     1      32.981  57.301  46.834  1.00  0.00    -0.201 OA
BRANCH  20  23
HETATM   23  N2  UNL     1      33.713  59.178  48.447  1.00  0.00    -0.324 N 
ATOM     24  H22 UNL     1      33.308  59.954  48.971  1.00  0.00     0.169 HD
ATOM     25  H21 UNL     1      34.585  59.191  47.918  1.00  0.00     0.169 HD
ENDBRANCH  20  23
ENDBRANCH  19  20
ENDBRANCH  12  14
ENDBRANCH   6   7
BRANCH   1  26
HETATM   26  C6  UNL     1      32.045  55.211  43.523  1.00  0.00    -0.061 C 
HETATM   27  C5  UNL     1      33.213  55.470  43.658  1.00  0.00    -0.061 C 
BRANCH  27  28
HETATM   28  C4  UNL     1      34.638  55.750  43.814  1.00  0.00     0.020 A 
HETATM   29  C3  UNL     1      35.306  56.348  42.800  1.00  0.00     0.028 A 
HETATM   30  C2  UNL     1      36.665  56.603  42.982  1.00  0.00    -0.048 A 
HETATM   31  C1  UNL     1      37.448  57.257  41.906  1.00  0.00     0.049 C 
HETATM   32  C26 UNL     1      37.303  56.258  44.151  1.00  0.00     0.007 A 
HETATM   33  C25 UNL     1      36.623  55.652  45.178  1.00  0.00     0.059 A 
HETATM   34  C24 UNL     1      35.283  55.407  44.982  1.00  0.00     0.048 A 
HETATM   35  N3  UNL     1      37.211  55.277  46.399  1.00  0.00    -0.102 NA
BRANCH  32  36
HETATM   36  C27 UNL     1      38.723  56.524  44.328  1.00  0.00     0.010 A 
HETATM   37  C28 UNL     1      39.297  57.701  44.808  1.00  0.00     0.121 A 
HETATM   38  N4  UNL     1      40.623  57.509  44.815  1.00  0.00    -0.310 N 
HETATM   39  N5  UNL     1      40.899  56.289  44.369  1.00  0.00    -0.307 N 
ATOM     40  H4  UNL     1      41.314  58.195  45.116  1.00  0.00     0.186 HD
HETATM   41  C29 UNL     1      42.258  55.754  44.249  1.00  0.00     0.177 C 
HETATM   42  C30 UNL     1      39.770  55.670  44.066  1.00  0.00     0.123 A 
ENDBRANCH  32  36
ENDBRANCH  27  28
ENDBRANCH   1  26
TORSDOF 7
ENDMDL
MODEL 2
REMARK VINA RESULT: -6.664184558     12.529     14.635
REMARK  7 active torsions:
REMARK  status: ('A' for Active; 'I' for Inactive)
REMARK    1  A    between atoms: C4_4  and  C5_5 
REMARK    2  A    between atoms: C6_6  and  C7_7 
REMARK    3  A    between atoms: C12_12  and  C13_13 
REMARK    4  A    between atoms: C16_18  and  C17_19 
REMARK    5  A    between atoms: C22_24  and  S1_25 
REMARK    6  A    between atoms: S1_25  and  N2_26 
REMARK    7  A    between atoms: C26_35  and  C27_36 
ROOT
HETATM    1  C7  UNL     1      38.429  56.859  59.859  1.00  0.00     0.029 A 
HETATM    2  C8  UNL     1      39.555  56.622  60.656  1.00  0.00     0.021 A 
HETATM    3  C9  UNL     1      39.708  55.464  61.379  1.00  0.00     0.002 A 
HETATM    4  C10 UNL     1      38.742  54.475  61.346  1.00  0.00     0.001 A 
HETATM    5  C11 UNL     1      37.632  54.691  60.570  1.00  0.00     0.014 A 
HETATM    6  C12 UNL     1      37.484  55.861  59.842  1.00  0.00    -0.006 A 
ENDROOT
BRANCH   6   7
HETATM    7  C13 UNL     1      36.273  56.010  59.024  1.00  0.00    -0.008 A 
HETATM    8  C14 UNL     1      36.345  56.336  57.696  1.00  0.00     0.100 A 
HETATM    9  N1  UNL     1      35.198  56.478  56.972  1.00  0.00    -0.374 N 
HETATM   10  C15 UNL     1      33.987  56.304  57.527  1.00  0.00     0.100 A 
ATOM     11  H1  UNL     1      35.260  56.722  55.984  1.00  0.00     0.164 HD
HETATM   12  C16 UNL     1      33.851  55.969  58.877  1.00  0.00    -0.008 A 
HETATM   13  C23 UNL     1      35.009  55.832  59.590  1.00  0.00     0.027 A 
BRANCH  12  14
HETATM   14  C17 UNL     1      32.541  55.820  59.429  1.00  0.00    -0.001 A 
HETATM   15  C18 UNL     1      31.865  54.641  59.133  1.00  0.00     0.014 A 
HETATM   16  C19 UNL     1      30.598  54.460  59.630  1.00  0.00     0.001 A 
HETATM   17  C20 UNL     1      30.015  55.423  60.399  1.00  0.00     0.002 A 
HETATM   18  C21 UNL     1      30.702  56.579  60.677  1.00  0.00     0.026 A 
HETATM   19  C22 UNL     1      31.991  56.817  60.202  1.00  0.00     0.090 A 
BRANCH  19  20
HETATM   20  S1  UNL     1      32.779  58.298  60.620  1.00  0.00     0.257 S 
HETATM   21  O1  UNL     1      33.510  58.940  59.502  1.00  0.00    -0.201 OA
HETATM   22  O2  UNL     1      31.867  59.337  61.210  1.00  0.00    -0.201 OA
BRANCH  20  23
HETATM   23  N2  UNL     1      33.947  57.964  61.882  1.00  0.00    -0.324 N 
ATOM     24  H22 UNL     1      34.877  57.573  61.731  1.00  0.00     0.169 HD
ATOM     25  H21 UNL     1      33.535  58.226  62.778  1.00  0.00     0.169 HD
ENDBRANCH  20  23
ENDBRANCH  19  20
ENDBRANCH  12  14
ENDBRANCH   6   7
BRANCH   1  26
HETATM   26  C6  UNL     1      38.303  58.090  59.129  1.00  0.00    -0.061 C 
HETATM   27  C5  UNL     1      38.175  59.128  58.534  1.00  0.00    -0.061 C 
BRANCH  27  28
HETATM   28  C4  UNL     1      38.012  60.405  57.842  1.00  0.00     0.020 A 
HETATM   29  C3  UNL     1      39.111  61.129  57.530  1.00  0.00     0.028 A 
HETATM   30  C2  UNL     1      38.921  62.342  56.868  1.00  0.00    -0.048 A 
HETATM   31  C1  UNL     1      40.089  63.178  56.500  1.00  0.00     0.049 C 
HETATM   32  C26 UNL     1      37.660  62.785  56.544  1.00  0.00     0.007 A 
HETATM   33  C25 UNL     1      36.546  62.048  56.861  1.00  0.00     0.059 A 
HETATM   34  C24 UNL     1      36.751  60.854  57.514  1.00  0.00     0.048 A 
HETATM   35  N3  UNL     1      35.230  62.438  56.557  1.00  0.00    -0.102 NA
BRANCH  32  36
HETATM   36  C27 UNL     1      37.472  64.054  55.858  1.00  0.00     0.010 A 
HETATM   37  C28 UNL     1      37.441  64.260  54.479  1.00  0.00     0.121 A 
HETATM   38  N4  UNL     1      37.239  65.570  54.288  1.00  0.00    -0.310 N 
HETATM   39  N5  UNL     1      37.143  66.182  55.463  1.00  0.00    -0.307 N 
ATOM     40  H4  UNL     1      37.169  66.028  53.380  1.00  0.00     0.186 HD
HETATM   41  C29 UNL     1      36.919  67.622  55.615  1.00  0.00     0.177 C 
HETATM   42  C30 UNL     1      37.280  65.291  56.431  1.00  0.00     0.123 A 
ENDBRANCH  32  36
ENDBRANCH  27  28
ENDBRANCH   1  26
TORSDOF 7
ENDMDL
MODEL 3
REMARK VINA RESULT: -6.626653418     11.668     14.580
REMARK  7 active torsions:
REMARK  status: ('A' for Active; 'I' for Inactive)
REMARK    1  A    between atoms: C4_4  and  C5_5 
REMARK    2  A    between atoms: C6_6  and  C7_7 
REMARK    3  A    between atoms: C12_12  and  C13_13 
REMARK    4  A    between atoms: C16_18  and  C17_19 
REMARK    5  A    between atoms: C22_24  and  S1_25 
REMARK    6  A    between atoms: S1_25  and  N2_26 
REMARK    7  A    between atoms: C26_35  and  C27_36 
ROOT
HETATM    1  C7  UNL     1      36.257  63.464  54.411  1.00  0.00     0.029 A 
HETATM    2  C8  UNL     1      36.274  64.048  53.139  1.00  0.00     0.021 A 
HETATM    3  C9  UNL     1      35.200  63.975  52.287  1.00  0.00     0.002 A 
HETATM    4  C10 UNL     1      34.044  63.312  52.658  1.00  0.00     0.001 A 
HETATM    5  C11 UNL     1      34.010  62.733  53.900  1.00  0.00     0.014 A 
HETATM    6  C12 UNL     1      35.097  62.811  54.756  1.00  0.00    -0.006 A 
ENDROOT
BRANCH   6   7
HETATM    7  C13 UNL     1      34.976  62.178  56.076  1.00  0.00    -0.008 A 
HETATM    8  C14 UNL     1      34.126  62.670  57.029  1.00  0.00     0.100 A 
HETATM    9  N1  UNL     1      34.051  62.061  58.247  1.00  0.00    -0.374 N 
HETATM   10  C15 UNL     1      34.793  60.982  58.543  1.00  0.00     0.100 A 
ATOM     11  H1  UNL     1      33.415  62.435  58.952  1.00  0.00     0.164 HD
HETATM   12  C16 UNL     1      35.677  60.434  57.611  1.00  0.00    -0.008 A 
HETATM   13  C23 UNL     1      35.743  61.055  56.396  1.00  0.00     0.027 A 
BRANCH  12  14
HETATM   14  C17 UNL     1      36.465  59.300  57.981  1.00  0.00    -0.001 A 
HETATM   15  C18 UNL     1      37.750  59.552  58.448  1.00  0.00     0.014 A 
HETATM   16  C19 UNL     1      38.549  58.492  58.801  1.00  0.00     0.001 A 
HETATM   17  C20 UNL     1      38.086  57.215  58.693  1.00  0.00     0.002 A 
HETATM   18  C21 UNL     1      36.812  56.990  58.229  1.00  0.00     0.026 A 
HETATM   19  C22 UNL     1      35.957  58.026  57.858  1.00  0.00     0.090 A 
BRANCH  19  20
HETATM   20  S1  UNL     1      34.366  57.641  57.301  1.00  0.00     0.257 S 
HETATM   21  O1  UNL     1      33.299  57.838  58.310  1.00  0.00    -0.201 OA
HETATM   22  O2  UNL     1      33.950  58.384  56.063  1.00  0.00    -0.201 OA
BRANCH  20  23
HETATM   23  N2  UNL     1      34.339  55.952  56.836  1.00  0.00    -0.324 N 
ATOM     24  H22 UNL     1      35.155  55.341  56.798  1.00  0.00     0.169 HD
ATOM     25  H21 UNL     1      33.376  55.696  56.615  1.00  0.00     0.169 HD
ENDBRANCH  20  23
ENDBRANCH  19  20
ENDBRANCH  12  14
ENDBRANCH   6   7
BRANCH   1  26
HETATM   26  C6  UNL     1      37.408  63.553  55.266  1.00  0.00    -0.061 C 
HETATM   27  C5  UNL     1      38.375  63.599  55.981  1.00  0.00    -0.061 C 
BRANCH  27  28
HETATM   28  C4  UNL     1      39.566  63.633  56.826  1.00  0.00     0.020 A 
HETATM   29  C3  UNL     1      40.055  64.829  57.228  1.00  0.00     0.028 A 
HETATM   30  C2  UNL     1      41.192  64.825  58.036  1.00  0.00    -0.048 A 
HETATM   31  C1  UNL     1      41.772  66.106  58.507  1.00  0.00     0.049 C 
HETATM   32  C26 UNL     1      41.795  63.647  58.410  1.00  0.00     0.007 A 
HETATM   33  C25 UNL     1      41.297  62.434  58.001  1.00  0.00     0.059 A 
HETATM   34  C24 UNL     1      40.174  62.456  57.205  1.00  0.00     0.048 A 
HETATM   35  N3  UNL     1      41.859  61.194  58.349  1.00  0.00    -0.102 NA
BRANCH  32  36
HETATM   36  C27 UNL     1      42.984  63.654  59.248  1.00  0.00     0.010 A 
HETATM   37  C28 UNL     1      44.307  63.761  58.818  1.00  0.00     0.121 A 
HETATM   38  N4  UNL     1      45.073  63.734  59.916  1.00  0.00    -0.310 N 
HETATM   39  N5  UNL     1      44.305  63.617  60.993  1.00  0.00    -0.307 N 
ATOM     40  H4  UNL     1      46.091  63.794  59.923  1.00  0.00     0.186 HD
HETATM   41  C29 UNL     1      44.826  63.559  62.362  1.00  0.00     0.177 C 
HETATM   42  C30 UNL     1      43.037  63.566  60.621  1.00  0.00     0.123 A 
ENDBRANCH  32  36
ENDBRANCH  27  28
ENDBRANCH   1  26
TORSDOF 7
ENDMDL
MODEL 4
REMARK VINA RESULT: -6.480957536     12.891     14.750
REMARK  7 active torsions:
REMARK  status: ('A' for Active; 'I' for Inactive)
REMARK    1  A    between atoms: C4_4  and  C5_5 
REMARK    2  A    between atoms: C6_6  and  C7_7 
REMARK    3  A    between atoms: C12_12  and  C13_13 
REMARK    4  A    between atoms: C16_18  and  C17_19 
REMARK    5  A    between atoms: C22_24  and  S1_25 
REMARK    6  A    between atoms: S1_25  and  N2_26 
REMARK    7  A    between atoms: C26_35  and  C27_36 
ROOT
HETATM    1  C7  UNL     1      38.362  56.791  59.858  1.00  0.00     0.029 A 
HETATM    2  C8  UNL     1      39.556  56.422  60.489  1.00  0.00     0.021 A 
HETATM    3  C9  UNL     1      39.681  55.244  61.185  1.00  0.00     0.002 A 
HETATM    4  C10 UNL     1      38.618  54.366  61.290  1.00  0.00     0.001 A 
HETATM    5  C11 UNL     1      37.441  54.712  60.678  1.00  0.00     0.014 A 
HETATM    6  C12 UNL     1      37.321  55.901  59.976  1.00  0.00    -0.006 A 
ENDROOT
BRANCH   6   7
HETATM    7  C13 UNL     1      36.031  56.193  59.336  1.00  0.00    -0.008 A 
HETATM    8  C14 UNL     1      35.740  55.739  58.078  1.00  0.00     0.100 A 
HETATM    9  N1  UNL     1      34.536  56.040  57.513  1.00  0.00    -0.374 N 
HETATM   10  C15 UNL     1      33.617  56.775  58.159  1.00  0.00     0.100 A 
ATOM     11  H1  UNL     1      34.327  55.698  56.574  1.00  0.00     0.164 HD
HETATM   12  C16 UNL     1      33.857  57.265  59.446  1.00  0.00    -0.008 A 
HETATM   13  C23 UNL     1      35.068  56.957  59.999  1.00  0.00     0.027 A 
BRANCH  12  14
HETATM   14  C17 UNL     1      32.859  58.065  60.084  1.00  0.00    -0.001 A 
HETATM   15  C18 UNL     1      32.893  59.432  59.832  1.00  0.00     0.014 A 
HETATM   16  C19 UNL     1      31.963  60.242  60.436  1.00  0.00     0.001 A 
HETATM   17  C20 UNL     1      31.024  59.711  61.268  1.00  0.00     0.002 A 
HETATM   18  C21 UNL     1      31.009  58.358  61.501  1.00  0.00     0.026 A 
HETATM   19  C22 UNL     1      31.927  57.487  60.916  1.00  0.00     0.090 A 
BRANCH  19  20
HETATM   20  S1  UNL     1      31.817  55.796  61.260  1.00  0.00     0.257 S 
HETATM   21  O1  UNL     1      31.559  54.945  60.075  1.00  0.00    -0.201 OA
HETATM   22  O2  UNL     1      33.019  55.230  61.961  1.00  0.00    -0.201 OA
BRANCH  20  23
HETATM   23  N2  UNL     1      30.492  55.547  62.379  1.00  0.00    -0.324 N 
ATOM     24  H22 UNL     1      30.527  55.738  63.381  1.00  0.00     0.169 HD
ATOM     25  H21 UNL     1      29.695  55.184  61.857  1.00  0.00     0.169 HD
ENDBRANCH  20  23
ENDBRANCH  19  20
ENDBRANCH  12  14
ENDBRANCH   6   7
BRANCH   1  26
HETATM   26  C6  UNL     1      38.271  58.038  59.151  1.00  0.00    -0.061 C 
HETATM   27  C5  UNL     1      38.166  59.083  58.562  1.00  0.00    -0.061 C 
BRANCH  27  28
HETATM   28  C4  UNL     1      38.015  60.362  57.872  1.00  0.00     0.020 A 
HETATM   29  C3  UNL     1      39.122  61.061  57.533  1.00  0.00     0.028 A 
HETATM   30  C2  UNL     1      38.943  62.277  56.873  1.00  0.00    -0.048 A 
HETATM   31  C1  UNL     1      40.120  63.086  56.476  1.00  0.00     0.049 C 
HETATM   32  C26 UNL     1      37.684  62.747  56.579  1.00  0.00     0.007 A 
HETATM   33  C25 UNL     1      36.562  62.035  56.925  1.00  0.00     0.059 A 
HETATM   34  C24 UNL     1      36.757  60.838  57.575  1.00  0.00     0.048 A 
HETATM   35  N3  UNL     1      35.248  62.454  56.651  1.00  0.00    -0.102 NA
BRANCH  32  36
HETATM   36  C27 UNL     1      37.508  64.020  55.896  1.00  0.00     0.010 A 
HETATM   37  C28 UNL     1      37.429  65.280  56.488  1.00  0.00     0.121 A 
HETATM   38  N4  UNL     1      37.276  66.165  55.494  1.00  0.00    -0.310 N 
HETATM   39  N5  UNL     1      37.255  65.528  54.329  1.00  0.00    -0.307 N 
ATOM     40  H4  UNL     1      37.189  67.174  55.614  1.00  0.00     0.186 HD
HETATM   41  C29 UNL     1      37.103  66.200  53.036  1.00  0.00     0.177 C 
HETATM   42  C30 UNL     1      37.393  64.229  54.540  1.00  0.00     0.123 A 
ENDBRANCH  32  36
ENDBRANCH  27  28
ENDBRANCH   1  26
TORSDOF 7
ENDMDL
MODEL 5
REMARK VINA RESULT: -6.394683212     11.706     14.572
REMARK  7 active torsions:
REMARK  status: ('A' for Active; 'I' for Inactive)
REMARK    1  A    between atoms: C4_4  and  C5_5 
REMARK    2  A    between atoms: C6_6  and  C7_7 
REMARK    3  A    between atoms: C12_12  and  C13_13 
REMARK    4  A    between atoms: C16_18  and  C17_19 
REMARK    5  A    between atoms: C22_24  and  S1_25 
REMARK    6  A    between atoms: S1_25  and  N2_26 
REMARK    7  A    between atoms: C26_35  and  C27_36 
ROOT
HETATM    1  C7  UNL     1      36.523  63.512  54.221  1.00  0.00     0.029 A 
HETATM    2  C8  UNL     1      36.652  64.099  52.957  1.00  0.00     0.021 A 
HETATM    3  C9  UNL     1      35.633  64.084  52.036  1.00  0.00     0.002 A 
HETATM    4  C10 UNL     1      34.424  63.480  52.327  1.00  0.00     0.001 A 
HETATM    5  C11 UNL     1      34.280  62.900  53.560  1.00  0.00     0.014 A 
HETATM    6  C12 UNL     1      35.311  62.919  54.486  1.00  0.00    -0.006 A 
ENDROOT
BRANCH   6   7
HETATM    7  C13 UNL     1      35.073  62.288  55.792  1.00  0.00    -0.008 A 
HETATM    8  C14 UNL     1      34.727  63.029  56.889  1.00  0.00     0.100 A 
HETATM    9  N1  UNL     1      34.525  62.409  58.087  1.00  0.00    -0.374 N 
HETATM   10  C15 UNL     1      34.657  61.079  58.223  1.00  0.00     0.100 A 
ATOM     11  H1  UNL     1      34.268  62.968  58.900  1.00  0.00     0.164 HD
HETATM   12  C16 UNL     1      35.007  60.271  57.139  1.00  0.00    -0.008 A 
HETATM   13  C23 UNL     1      35.207  60.907  55.946  1.00  0.00     0.027 A 
BRANCH  12  14
HETATM   14  C17 UNL     1      35.160  58.864  57.339  1.00  0.00    -0.001 A 
HETATM   15  C18 UNL     1      34.126  58.049  56.890  1.00  0.00     0.014 A 
HETATM   16  C19 UNL     1      34.223  56.692  57.074  1.00  0.00     0.001 A 
HETATM   17  C20 UNL     1      35.315  56.157  57.688  1.00  0.00     0.002 A 
HETATM   18  C21 UNL     1      36.323  56.981  58.123  1.00  0.00     0.026 A 
HETATM   19  C22 UNL     1      36.280  58.365  57.962  1.00  0.00     0.090 A 
BRANCH  19  20
HETATM   20  S1  UNL     1      37.607  59.317  58.531  1.00  0.00     0.257 S 
HETATM   21  O1  UNL     1      38.164  60.254  57.527  1.00  0.00    -0.201 OA
HETATM   22  O2  UNL     1      37.308  60.116  59.768  1.00  0.00    -0.201 OA
BRANCH  20  23
HETATM   23  N2  UNL     1      38.899  58.233  59.005  1.00  0.00    -0.324 N 
ATOM     24  H22 UNL     1      39.311  57.515  58.408  1.00  0.00     0.169 HD
ATOM     25  H21 UNL     1      39.160  58.447  59.968  1.00  0.00     0.169 HD
ENDBRANCH  20  23
ENDBRANCH  19  20
ENDBRANCH  12  14
ENDBRANCH   6   7
BRANCH   1  26
HETATM   26  C6  UNL     1      37.618  63.540  55.149  1.00  0.00    -0.061 C 
HETATM   27  C5  UNL     1      38.555  63.557  55.906  1.00  0.00    -0.061 C 
BRANCH  27  28
HETATM   28  C4  UNL     1      39.710  63.597  56.799  1.00  0.00     0.020 A 
HETATM   29  C3  UNL     1      40.165  64.795  57.234  1.00  0.00     0.028 A 
HETATM   30  C2  UNL     1      41.268  64.797  58.088  1.00  0.00    -0.048 A 
HETATM   31  C1  UNL     1      41.810  66.081  58.597  1.00  0.00     0.049 C 
HETATM   32  C26 UNL     1      41.871  63.623  58.473  1.00  0.00     0.007 A 
HETATM   33  C25 UNL     1      41.408  62.409  58.031  1.00  0.00     0.059 A 
HETATM   34  C24 UNL     1      40.318  62.424  57.190  1.00  0.00     0.048 A 
HETATM   35  N3  UNL     1      41.973  61.172  58.388  1.00  0.00    -0.102 NA
BRANCH  32  36
HETATM   36  C27 UNL     1      43.025  63.637  59.360  1.00  0.00     0.010 A 
HETATM   37  C28 UNL     1      44.358  63.815  58.990  1.00  0.00     0.121 A 
HETATM   38  N4  UNL     1      45.081  63.766  60.116  1.00  0.00    -0.310 N 
HETATM   39  N5  UNL     1      44.277  63.570  61.154  1.00  0.00    -0.307 N 
ATOM     40  H4  UNL     1      46.095  63.864  60.169  1.00  0.00     0.186 HD
HETATM   41  C29 UNL     1      44.744  63.468  62.540  1.00  0.00     0.177 C 
HETATM   42  C30 UNL     1      43.027  63.488  60.728  1.00  0.00     0.123 A 
ENDBRANCH  32  36
ENDBRANCH  27  28
ENDBRANCH   1  26
TORSDOF 7
ENDMDL
