MODEL 1
REMARK VINA RESULT: -6.776844005      0.000      0.000
REMARK  6 active torsions:
REMARK  status: ('A' for Active; 'I' for Inactive)
REMARK    1  A    between atoms: N1_2  and  C2_3 
REMARK    2  A    between atoms: N1_2  and  C26_37 
REMARK    3  A    between atoms: C2_3  and  C3_4 
REMARK    4  A    between atoms: C12_15  and  C13_16 
REMARK    5  A    between atoms: C16_23  and  N6_24 
REMARK    6  A    between atoms: C26_37  and  C27_38 
ROOT
HETATM    1  C13 UNL     1      30.652  57.879  49.703  1.00  0.00     0.070 A 
HETATM    2  N3  UNL     1      30.854  58.515  50.866  1.00  0.00    -0.328 N 
ATOM      3  H3  UNL     1      31.802  58.576  51.237  1.00  0.00     0.168 HD
HETATM    4  C14 UNL     1      29.846  59.076  51.560  1.00  0.00     0.196 A 
HETATM    5  N4  UNL     1      30.111  59.744  52.794  1.00  0.00    -0.063 NA
HETATM    6  N5  UNL     1      28.571  59.047  51.150  1.00  0.00    -0.311 N 
HETATM    7  C15 UNL     1      27.518  59.668  51.931  1.00  0.00     0.160 C 
HETATM    8  C16 UNL     1      28.313  58.420  49.992  1.00  0.00     0.126 A 
HETATM    9  C17 UNL     1      29.358  57.827  49.256  1.00  0.00     0.116 A 
HETATM   10  C18 UNL     1      28.929  57.083  48.096  1.00  0.00     0.105 C 
HETATM   11  N7  UNL     1      28.582  56.459  47.178  1.00  0.00    -0.191 NA
ENDROOT
BRANCH   1  12
HETATM   12  C12 UNL     1      31.715  57.172  49.086  1.00  0.00     0.004 C 
HETATM   13  C10 UNL     1      32.681  57.954  48.321  1.00  0.00    -0.010 C 
HETATM   14  C9  UNL     1      33.482  57.563  47.169  1.00  0.00     0.010 C 
HETATM   15  C11 UNL     1      32.646  59.152  48.909  1.00  0.00     0.026 C 
HETATM   16  C6  UNL     1      33.988  58.424  46.081  1.00  0.00    -0.027 C 
HETATM   17  C8  UNL     1      33.906  56.315  46.884  1.00  0.00     0.051 C 
HETATM   18  C5  UNL     1      34.235  59.719  46.172  1.00  0.00     0.011 C 
HETATM   19  C7  UNL     1      34.173  57.522  44.909  1.00  0.00     0.159 C 
HETATM   20  C4  UNL     1      34.036  60.571  47.379  1.00  0.00     0.013 C 
HETATM   21  C3  UNL     1      33.406  60.363  48.513  1.00  0.00    -0.020 C 
HETATM   22  N2  UNL     1      34.639  56.311  45.675  1.00  0.00    -0.384 N 
ATOM     23  H2  UNL     1      35.339  55.629  45.382  1.00  0.00     0.160 HD
HETATM   24  C25 UNL     1      33.733  55.112  47.723  1.00  0.00     0.001 A 
HETATM   25  C20 UNL     1      32.849  54.935  48.794  1.00  0.00    -0.023 A 
HETATM   26  C24 UNL     1      34.606  54.113  47.374  1.00  0.00     0.014 A 
HETATM   27  C19 UNL     1      31.841  55.851  49.267  1.00  0.00     0.027 C 
HETATM   28  C21 UNL     1      32.843  53.743  49.524  1.00  0.00     0.012 A 
HETATM   29  C22 UNL     1      33.730  52.762  49.150  1.00  0.00     0.001 A 
HETATM   30  C23 UNL     1      34.600  52.933  48.094  1.00  0.00     0.001 A 
BRANCH  21  31
HETATM   31  C2  UNL     1      33.368  61.408  49.561  1.00  0.00     0.101 C 
BRANCH  31  32
HETATM   32  N1  UNL     1      32.201  62.128  49.746  1.00  0.00    -0.369 N 
HETATM   33  C1  UNL     1      31.703  62.379  51.027  1.00  0.00     0.154 C 
BRANCH  32  34
HETATM   34  C26 UNL     1      31.541  62.765  48.682  1.00  0.00     0.101 C 
BRANCH  34  35
HETATM   35  C27 UNL     1      30.356  62.075  48.142  1.00  0.00    -0.021 A 
HETATM   36  C28 UNL     1      29.124  62.248  48.750  1.00  0.00     0.013 A 
HETATM   37  C29 UNL     1      27.995  61.601  48.232  1.00  0.00     0.001 A 
HETATM   38  C30 UNL     1      28.101  60.797  47.126  1.00  0.00     0.000 A 
HETATM   39  C31 UNL     1      29.338  60.622  46.515  1.00  0.00     0.001 A 
HETATM   40  C32 UNL     1      30.454  61.269  47.035  1.00  0.00     0.013 A 
ENDBRANCH  34  35
ENDBRANCH  32  34
ENDBRANCH  31  32
ENDBRANCH  21  31
ENDBRANCH   1  12
BRANCH   8  41
HETATM   41  N6  UNL     1      27.099  58.379  49.577  1.00  0.00    -0.384 N 
ATOM     42  H62 UNL     1      26.314  58.423  50.228  1.00  0.00     0.157 HD
ATOM     43  H61 UNL     1      26.931  58.301  48.573  1.00  0.00     0.157 HD
ENDBRANCH   8  41
TORSDOF 6
ENDMDL
MODEL 2
REMARK VINA RESULT: -6.638302957     10.790     13.204
REMARK  6 active torsions:
REMARK  status: ('A' for Active; 'I' for Inactive)
REMARK    1  A    between atoms: N1_2  and  C2_3 
REMARK    2  A    between atoms: N1_2  and  C26_37 
REMARK    3  A    between atoms: C2_3  and  C3_4 
REMARK    4  A    between atoms: C12_15  and  C13_16 
REMARK    5  A    between atoms: C16_23  and  N6_24 
REMARK    6  A    between atoms: C26_37  and  C27_38 
ROOT
HETATM    1  C13 UNL     1      38.348  59.106  59.461  1.00  0.00     0.070 A 
HETATM    2  N3  UNL     1      39.009  59.358  58.321  1.00  0.00    -0.328 N 
ATOM      3  H3  UNL     1      39.295  58.575  57.734  1.00  0.00     0.168 HD
HETATM    4  C14 UNL     1      39.308  60.610  57.929  1.00  0.00     0.196 A 
HETATM    5  N4  UNL     1      40.014  60.828  56.706  1.00  0.00    -0.063 NA
HETATM    6  N5  UNL     1      38.973  61.698  58.635  1.00  0.00    -0.311 N 
HETATM    7  C15 UNL     1      39.316  63.029  58.170  1.00  0.00     0.160 C 
HETATM    8  C16 UNL     1      38.311  61.502  59.786  1.00  0.00     0.126 A 
HETATM    9  C17 UNL     1      37.992  60.197  60.210  1.00  0.00     0.116 A 
HETATM   10  C18 UNL     1      37.389  60.121  61.519  1.00  0.00     0.105 C 
HETATM   11  N7  UNL     1      36.930  60.056  62.586  1.00  0.00    -0.191 NA
ENDROOT
BRANCH   1  12
HETATM   12  C12 UNL     1      38.190  57.771  59.911  1.00  0.00     0.004 C 
HETATM   13  C10 UNL     1      36.900  57.134  59.670  1.00  0.00    -0.010 C 
HETATM   14  C9  UNL     1      36.224  56.094  60.436  1.00  0.00     0.010 C 
HETATM   15  C11 UNL     1      36.446  57.752  58.578  1.00  0.00     0.026 C 
HETATM   16  C6  UNL     1      34.772  55.858  60.562  1.00  0.00    -0.027 C 
HETATM   17  C8  UNL     1      36.822  55.147  61.187  1.00  0.00     0.051 C 
HETATM   18  C5  UNL     1      33.854  56.199  59.675  1.00  0.00     0.011 C 
HETATM   19  C7  UNL     1      34.592  55.152  61.862  1.00  0.00     0.159 C 
HETATM   20  C4  UNL     1      34.096  56.901  58.383  1.00  0.00     0.013 C 
HETATM   21  C3  UNL     1      35.145  57.531  57.902  1.00  0.00    -0.020 C 
HETATM   22  N2  UNL     1      35.850  54.325  61.802  1.00  0.00    -0.384 N 
ATOM     23  H2  UNL     1      35.975  53.369  62.137  1.00  0.00     0.160 HD
HETATM   24  C25 UNL     1      38.274  54.905  61.310  1.00  0.00     0.001 A 
HETATM   25  C20 UNL     1      39.318  55.768  60.954  1.00  0.00    -0.023 A 
HETATM   26  C24 UNL     1      38.546  53.653  61.799  1.00  0.00     0.014 A 
HETATM   27  C19 UNL     1      39.218  57.123  60.472  1.00  0.00     0.027 C 
HETATM   28  C21 UNL     1      40.650  55.367  61.089  1.00  0.00     0.012 A 
HETATM   29  C22 UNL     1      40.891  54.106  61.581  1.00  0.00     0.001 A 
HETATM   30  C23 UNL     1      39.863  53.256  61.933  1.00  0.00     0.001 A 
BRANCH  21  31
HETATM   31  C2  UNL     1      35.105  58.150  56.558  1.00  0.00     0.101 C 
BRANCH  31  32
HETATM   32  N1  UNL     1      34.775  59.490  56.447  1.00  0.00    -0.369 N 
HETATM   33  C1  UNL     1      33.474  59.889  56.134  1.00  0.00     0.154 C 
BRANCH  32  34
HETATM   34  C26 UNL     1      35.680  60.511  56.785  1.00  0.00     0.101 C 
BRANCH  34  35
HETATM   35  C27 UNL     1      35.259  61.426  57.861  1.00  0.00    -0.021 A 
HETATM   36  C28 UNL     1      35.413  62.793  57.700  1.00  0.00     0.013 A 
HETATM   37  C29 UNL     1      35.005  63.664  58.717  1.00  0.00     0.001 A 
HETATM   38  C30 UNL     1      34.453  63.174  59.872  1.00  0.00     0.000 A 
HETATM   39  C31 UNL     1      34.297  61.802  60.035  1.00  0.00     0.001 A 
HETATM   40  C32 UNL     1      34.705  60.943  59.020  1.00  0.00     0.013 A 
ENDBRANCH  34  35
ENDBRANCH  32  34
ENDBRANCH  31  32
ENDBRANCH  21  31
ENDBRANCH   1  12
BRANCH   8  41
HETATM   41  N6  UNL     1      37.977  62.529  60.481  1.00  0.00    -0.384 N 
ATOM     42  H62 UNL     1      37.015  62.668  60.792  1.00  0.00     0.157 HD
ATOM     43  H61 UNL     1      38.698  63.210  60.717  1.00  0.00     0.157 HD
ENDBRANCH   8  41
TORSDOF 6
ENDMDL
MODEL 3
REMARK VINA RESULT: -6.487962225      2.065      3.792
REMARK  6 active torsions:
REMARK  status: ('A' for Active; 'I' for Inactive)
REMARK    1  A    between atoms: N1_2  and  C2_3 
REMARK    2  A    between atoms: N1_2  and  C26_37 
REMARK    3  A    between atoms: C2_3  and  C3_4 
REMARK    4  A    between atoms: C12_15  and  C13_16 
REMARK    5  A    between atoms: C16_23  and  N6_24 
REMARK    6  A    between atoms: C26_37  and  C27_38 
ROOT
HETATM    1  C13 UNL     1      30.668  58.044  49.795  1.00  0.00     0.070 A 
HETATM    2  N3  UNL     1      30.854  58.648  50.978  1.00  0.00    -0.328 N 
ATOM      3  H3  UNL     1      31.798  58.704  51.361  1.00  0.00     0.168 HD
HETATM    4  C14 UNL     1      29.836  59.184  51.677  1.00  0.00     0.196 A 
HETATM    5  N4  UNL     1      30.083  59.818  52.932  1.00  0.00    -0.063 NA
HETATM    6  N5  UNL     1      28.565  59.159  51.253  1.00  0.00    -0.311 N 
HETATM    7  C15 UNL     1      27.500  59.752  52.039  1.00  0.00     0.160 C 
HETATM    8  C16 UNL     1      28.324  58.564  50.074  1.00  0.00     0.126 A 
HETATM    9  C17 UNL     1      29.379  57.997  49.333  1.00  0.00     0.116 A 
HETATM   10  C18 UNL     1      28.967  57.285  48.148  1.00  0.00     0.105 C 
HETATM   11  N7  UNL     1      28.634  56.685  47.209  1.00  0.00    -0.191 NA
ENDROOT
BRANCH   1  12
HETATM   12  C12 UNL     1      31.742  57.361  49.170  1.00  0.00     0.004 C 
HETATM   13  C10 UNL     1      32.727  58.172  48.463  1.00  0.00    -0.010 C 
HETATM   14  C9  UNL     1      33.552  57.830  47.311  1.00  0.00     0.010 C 
HETATM   15  C11 UNL     1      32.684  59.342  49.103  1.00  0.00     0.026 C 
HETATM   16  C6  UNL     1      34.085  58.737  46.275  1.00  0.00    -0.027 C 
HETATM   17  C8  UNL     1      33.977  56.594  46.979  1.00  0.00     0.051 C 
HETATM   18  C5  UNL     1      34.335  60.025  46.430  1.00  0.00     0.011 C 
HETATM   19  C7  UNL     1      34.292  57.888  45.067  1.00  0.00     0.159 C 
HETATM   20  C4  UNL     1      34.113  60.822  47.669  1.00  0.00     0.013 C 
HETATM   21  C3  UNL     1      33.457  60.566  48.779  1.00  0.00    -0.020 C 
HETATM   22  N2  UNL     1      34.737  56.641  45.787  1.00  0.00    -0.384 N 
ATOM     23  H2  UNL     1      35.440  55.970  45.479  1.00  0.00     0.160 HD
HETATM   24  C25 UNL     1      33.782  55.355  47.759  1.00  0.00     0.001 A 
HETATM   25  C20 UNL     1      32.873  55.134  48.801  1.00  0.00    -0.023 A 
HETATM   26  C24 UNL     1      34.658  54.369  47.384  1.00  0.00     0.014 A 
HETATM   27  C19 UNL     1      31.859  56.033  49.293  1.00  0.00     0.027 C 
HETATM   28  C21 UNL     1      32.847  53.910  49.476  1.00  0.00     0.012 A 
HETATM   29  C22 UNL     1      33.738  52.943  49.078  1.00  0.00     0.001 A 
HETATM   30  C23 UNL     1      34.632  53.158  48.050  1.00  0.00     0.001 A 
BRANCH  21  31
HETATM   31  C2  UNL     1      33.400  61.563  49.872  1.00  0.00     0.101 C 
BRANCH  31  32
HETATM   32  N1  UNL     1      34.427  62.484  49.992  1.00  0.00    -0.369 N 
HETATM   33  C1  UNL     1      34.241  63.822  49.641  1.00  0.00     0.154 C 
BRANCH  32  34
HETATM   34  C26 UNL     1      35.649  62.161  50.606  1.00  0.00     0.101 C 
BRANCH  34  35
HETATM   35  C27 UNL     1      35.846  62.670  51.975  1.00  0.00    -0.021 A 
HETATM   36  C28 UNL     1      36.958  63.443  52.267  1.00  0.00     0.013 A 
HETATM   37  C29 UNL     1      37.142  63.936  53.565  1.00  0.00     0.001 A 
HETATM   38  C30 UNL     1      36.229  63.659  54.549  1.00  0.00     0.000 A 
HETATM   39  C31 UNL     1      35.112  62.884  54.257  1.00  0.00     0.001 A 
HETATM   40  C32 UNL     1      34.937  62.398  52.966  1.00  0.00     0.013 A 
ENDBRANCH  34  35
ENDBRANCH  32  34
ENDBRANCH  31  32
ENDBRANCH  21  31
ENDBRANCH   1  12
BRANCH   8  41
HETATM   41  N6  UNL     1      27.114  58.528  49.645  1.00  0.00    -0.384 N 
ATOM     42  H62 UNL     1      26.374  59.065  50.099  1.00  0.00     0.157 HD
ATOM     43  H61 UNL     1      26.904  57.947  48.833  1.00  0.00     0.157 HD
ENDBRANCH   8  41
TORSDOF 6
ENDMDL
MODEL 4
REMARK VINA RESULT: -6.424540204      2.978      6.704
REMARK  6 active torsions:
REMARK  status: ('A' for Active; 'I' for Inactive)
REMARK    1  A    between atoms: N1_2  and  C2_3 
REMARK    2  A    between atoms: N1_2  and  C26_37 
REMARK    3  A    between atoms: C2_3  and  C3_4 
REMARK    4  A    between atoms: C12_15  and  C13_16 
REMARK    5  A    between atoms: C16_23  and  N6_24 
REMARK    6  A    between atoms: C26_37  and  C27_38 
ROOT
HETATM    1  C13 UNL     1      34.641  56.659  44.993  1.00  0.00     0.070 A 
HETATM    2  N3  UNL     1      34.852  57.970  44.808  1.00  0.00    -0.328 N 
ATOM      3  H3  UNL     1      34.049  58.584  44.670  1.00  0.00     0.168 HD
HETATM    4  C14 UNL     1      36.088  58.503  44.800  1.00  0.00     0.196 A 
HETATM    5  N4  UNL     1      36.262  59.906  44.601  1.00  0.00    -0.063 NA
HETATM    6  N5  UNL     1      37.199  57.774  44.974  1.00  0.00    -0.311 N 
HETATM    7  C15 UNL     1      38.511  58.394  44.959  1.00  0.00     0.160 C 
HETATM    8  C16 UNL     1      37.044  56.455  45.161  1.00  0.00     0.126 A 
HETATM    9  C17 UNL     1      35.757  55.883  45.170  1.00  0.00     0.116 A 
HETATM   10  C18 UNL     1      35.739  54.443  45.259  1.00  0.00     0.105 C 
HETATM   11  N7  UNL     1      35.724  53.281  45.300  1.00  0.00    -0.191 NA
ENDROOT
BRANCH   1  12
HETATM   12  C12 UNL     1      33.339  56.120  44.841  1.00  0.00     0.004 C 
HETATM   13  C10 UNL     1      32.607  55.788  46.059  1.00  0.00    -0.010 C 
HETATM   14  C9  UNL     1      31.592  54.766  46.279  1.00  0.00     0.010 C 
HETATM   15  C11 UNL     1      33.109  56.632  46.963  1.00  0.00     0.026 C 
HETATM   16  C6  UNL     1      31.280  54.052  47.534  1.00  0.00    -0.027 C 
HETATM   17  C8  UNL     1      30.745  54.276  45.351  1.00  0.00     0.051 C 
HETATM   18  C5  UNL     1      31.493  54.508  48.755  1.00  0.00     0.011 C 
HETATM   19  C7  UNL     1      30.669  52.758  47.117  1.00  0.00     0.159 C 
HETATM   20  C4  UNL     1      32.105  55.819  49.112  1.00  0.00     0.013 C 
HETATM   21  C3  UNL     1      32.758  56.712  48.401  1.00  0.00    -0.020 C 
HETATM   22  N2  UNL     1      29.917  53.282  45.921  1.00  0.00    -0.384 N 
ATOM     23  H2  UNL     1      29.000  52.981  45.590  1.00  0.00     0.160 HD
HETATM   24  C25 UNL     1      30.602  54.739  43.956  1.00  0.00     0.001 A 
HETATM   25  C20 UNL     1      31.495  55.527  43.220  1.00  0.00    -0.023 A 
HETATM   26  C24 UNL     1      29.411  54.343  43.403  1.00  0.00     0.014 A 
HETATM   27  C19 UNL     1      32.800  55.992  43.622  1.00  0.00     0.027 C 
HETATM   28  C21 UNL     1      31.187  55.924  41.916  1.00  0.00     0.012 A 
HETATM   29  C22 UNL     1      29.986  55.511  41.390  1.00  0.00     0.001 A 
HETATM   30  C23 UNL     1      29.106  54.733  42.113  1.00  0.00     0.001 A 
BRANCH  21  31
HETATM   31  C2  UNL     1      33.266  57.954  49.028  1.00  0.00     0.101 C 
BRANCH  31  32
HETATM   32  N1  UNL     1      32.667  59.160  48.706  1.00  0.00    -0.369 N 
HETATM   33  C1  UNL     1      33.180  59.971  47.692  1.00  0.00     0.154 C 
BRANCH  32  34
HETATM   34  C26 UNL     1      31.444  59.558  49.270  1.00  0.00     0.101 C 
BRANCH  34  35
HETATM   35  C27 UNL     1      30.299  58.656  49.050  1.00  0.00    -0.021 A 
HETATM   36  C28 UNL     1      29.658  58.082  50.135  1.00  0.00     0.013 A 
HETATM   37  C29 UNL     1      28.564  57.233  49.928  1.00  0.00     0.001 A 
HETATM   38  C30 UNL     1      28.122  56.965  48.657  1.00  0.00     0.000 A 
HETATM   39  C31 UNL     1      28.765  57.542  47.567  1.00  0.00     0.001 A 
HETATM   40  C32 UNL     1      29.851  58.384  47.781  1.00  0.00     0.013 A 
ENDBRANCH  34  35
ENDBRANCH  32  34
ENDBRANCH  31  32
ENDBRANCH  21  31
ENDBRANCH   1  12
BRANCH   8  41
HETATM   41  N6  UNL     1      38.094  55.735  45.332  1.00  0.00    -0.384 N 
ATOM     42  H62 UNL     1      39.015  56.160  45.443  1.00  0.00     0.157 HD
ATOM     43  H61 UNL     1      37.989  54.720  45.354  1.00  0.00     0.157 HD
ENDBRANCH   8  41
TORSDOF 6
ENDMDL
MODEL 5
REMARK VINA RESULT: -6.393591108      1.767      3.518
REMARK  6 active torsions:
REMARK  status: ('A' for Active; 'I' for Inactive)
REMARK    1  A    between atoms: N1_2  and  C2_3 
REMARK    2  A    between atoms: N1_2  and  C26_37 
REMARK    3  A    between atoms: C2_3  and  C3_4 
REMARK    4  A    between atoms: C12_15  and  C13_16 
REMARK    5  A    between atoms: C16_23  and  N6_24 
REMARK    6  A    between atoms: C26_37  and  C27_38 
ROOT
HETATM    1  C13 UNL     1      30.340  57.729  49.428  1.00  0.00     0.070 A 
HETATM    2  N3  UNL     1      30.772  58.342  50.540  1.00  0.00    -0.328 N 
ATOM      3  H3  UNL     1      31.768  58.325  50.758  1.00  0.00     0.168 HD
HETATM    4  C14 UNL     1      29.932  58.981  51.377  1.00  0.00     0.196 A 
HETATM    5  N4  UNL     1      30.439  59.620  52.548  1.00  0.00    -0.063 NA
HETATM    6  N5  UNL     1      28.610  59.056  51.171  1.00  0.00    -0.311 N 
HETATM    7  C15 UNL     1      27.746  59.757  52.101  1.00  0.00     0.160 C 
HETATM    8  C16 UNL     1      28.126  58.456  50.072  1.00  0.00     0.126 A 
HETATM    9  C17 UNL     1      28.992  57.783  49.188  1.00  0.00     0.116 A 
HETATM   10  C18 UNL     1      28.329  57.080  48.116  1.00  0.00     0.105 C 
HETATM   11  N7  UNL     1      27.795  56.490  47.269  1.00  0.00    -0.191 NA
ENDROOT
BRANCH   1  12
HETATM   12  C12 UNL     1      31.234  56.941  48.660  1.00  0.00     0.004 C 
HETATM   13  C10 UNL     1      31.768  57.535  47.439  1.00  0.00    -0.010 C 
HETATM   14  C9  UNL     1      32.194  56.889  46.205  1.00  0.00     0.010 C 
HETATM   15  C11 UNL     1      31.751  58.844  47.698  1.00  0.00     0.026 C 
HETATM   16  C6  UNL     1      32.181  57.446  44.837  1.00  0.00    -0.027 C 
HETATM   17  C8  UNL     1      32.681  55.636  46.093  1.00  0.00     0.051 C 
HETATM   18  C5  UNL     1      32.249  58.727  44.524  1.00  0.00     0.011 C 
HETATM   19  C7  UNL     1      32.101  56.269  43.926  1.00  0.00     0.159 C 
HETATM   20  C4  UNL     1      32.334  59.865  45.483  1.00  0.00     0.013 C 
HETATM   21  C3  UNL     1      32.150  59.941  46.783  1.00  0.00    -0.020 C 
HETATM   22  N2  UNL     1      32.968  55.342  44.739  1.00  0.00    -0.384 N 
ATOM     23  H2  UNL     1      33.625  54.646  44.387  1.00  0.00     0.160 HD
HETATM   24  C25 UNL     1      32.974  54.702  47.198  1.00  0.00     0.001 A 
HETATM   25  C20 UNL     1      32.527  54.776  48.523  1.00  0.00    -0.023 A 
HETATM   26  C24 UNL     1      33.820  53.696  46.808  1.00  0.00     0.014 A 
HETATM   27  C19 UNL     1      31.606  55.729  49.091  1.00  0.00     0.027 C 
HETATM   28  C21 UNL     1      32.938  53.831  49.467  1.00  0.00     0.012 A 
HETATM   29  C22 UNL     1      33.788  52.836  49.047  1.00  0.00     0.001 A 
HETATM   30  C23 UNL     1      34.227  52.760  47.742  1.00  0.00     0.001 A 
BRANCH  21  31
HETATM   31  C2  UNL     1      32.304  61.230  47.495  1.00  0.00     0.101 C 
BRANCH  31  32
HETATM   32  N1  UNL     1      33.528  61.875  47.454  1.00  0.00    -0.369 N 
HETATM   33  C1  UNL     1      33.640  63.180  46.971  1.00  0.00     0.154 C 
BRANCH  32  34
HETATM   34  C26 UNL     1      34.684  61.317  48.026  1.00  0.00     0.101 C 
BRANCH  34  35
HETATM   35  C27 UNL     1      35.785  61.005  47.098  1.00  0.00    -0.021 A 
HETATM   36  C28 UNL     1      36.991  61.677  47.211  1.00  0.00     0.013 A 
HETATM   37  C29 UNL     1      38.042  61.374  46.337  1.00  0.00     0.001 A 
HETATM   38  C30 UNL     1      37.886  60.415  45.368  1.00  0.00     0.000 A 
HETATM   39  C31 UNL     1      36.676  59.739  45.254  1.00  0.00     0.001 A 
HETATM   40  C32 UNL     1      35.638  60.046  46.127  1.00  0.00     0.013 A 
ENDBRANCH  34  35
ENDBRANCH  32  34
ENDBRANCH  31  32
ENDBRANCH  21  31
ENDBRANCH   1  12
BRANCH   8  41
HETATM   41  N6  UNL     1      26.862  58.515  49.852  1.00  0.00    -0.384 N 
ATOM     42  H62 UNL     1      26.203  58.720  50.602  1.00  0.00     0.157 HD
ATOM     43  H61 UNL     1      26.527  58.350  48.902  1.00  0.00     0.157 HD
ENDBRANCH   8  41
TORSDOF 6
ENDMDL
