MODEL 1
REMARK VINA RESULT: -7.668970897      0.000      0.000
REMARK  6 active torsions:
REMARK  status: ('A' for Active; 'I' for Inactive)
REMARK    1  A    between atoms: C5_5  and  N1_6 
REMARK    2  A    between atoms: N1_6  and  C6_8 
REMARK    3  A    between atoms: C7_9  and  C8_10 
REMARK    4  A    between atoms: C19_23  and  S1_24 
REMARK    5  A    between atoms: S1_24  and  N2_27 
REMARK    6  A    between atoms: N2_27  and  C20_29 
ROOT
HETATM    1  C6  UNL     1      36.540  57.413  58.455  1.00  0.00     0.056 A 
HETATM    2  C7  UNL     1      37.526  57.533  59.400  1.00  0.00     0.002 A 
HETATM    3  C15 UNL     1      38.106  58.782  59.624  1.00  0.00     0.015 A 
HETATM    4  C16 UNL     1      37.719  59.892  58.923  1.00  0.00     0.013 A 
HETATM    5  C17 UNL     1      36.740  59.777  57.984  1.00  0.00    -0.022 A 
HETATM    6  C18 UNL     1      36.338  60.896  57.266  1.00  0.00     0.037 A 
HETATM    7  C19 UNL     1      35.347  60.773  56.315  1.00  0.00     0.080 A 
HETATM    8  C23 UNL     1      34.783  59.542  56.105  1.00  0.00     0.026 A 
HETATM    9  C24 UNL     1      35.162  58.418  56.800  1.00  0.00     0.016 A 
HETATM   10  C25 UNL     1      36.153  58.527  57.754  1.00  0.00     0.002 A 
ENDROOT
BRANCH   1  11
HETATM   11  N1  UNL     1      35.943  56.180  58.206  1.00  0.00    -0.341 N 
ATOM     12  H1  UNL     1      36.489  55.505  57.671  1.00  0.00     0.167 HD
BRANCH  11  13
HETATM   13  C5  UNL     1      34.775  55.810  58.583  1.00  0.00     0.105 A 
HETATM   14  C4  UNL     1      34.206  54.605  58.254  1.00  0.00     0.049 A 
HETATM   15  C3  UNL     1      32.940  54.287  58.704  1.00  0.00     0.012 A 
HETATM   16  C2  UNL     1      32.220  55.173  59.494  1.00  0.00    -0.040 A 
HETATM   17  C1  UNL     1      30.867  54.878  59.997  1.00  0.00     0.050 C 
HETATM   18  C26 UNL     1      32.829  56.372  59.801  1.00  0.00     0.013 A 
HETATM   19  N4  UNL     1      34.070  56.665  59.350  1.00  0.00    -0.346 N 
HETATM   20  C27 UNL     1      32.078  57.347  60.650  1.00  0.00     0.068 C 
ATOM     21  H4  UNL     1      34.486  57.563  59.598  1.00  0.00     0.167 HD
ENDBRANCH  11  13
ENDBRANCH   1  11
BRANCH   2  22
HETATM   22  C8  UNL     1      38.014  56.430  60.202  1.00  0.00    -0.021 A 
HETATM   23  C9  UNL     1      37.192  55.703  61.029  1.00  0.00     0.015 A 
HETATM   24  C10 UNL     1      37.636  54.654  61.793  1.00  0.00     0.040 A 
HETATM   25  C11 UNL     1      38.953  54.297  61.747  1.00  0.00     0.105 A 
HETATM   26  C12 UNL     1      39.817  54.998  60.930  1.00  0.00     0.105 A 
HETATM   27  O2  UNL     1      39.706  53.308  62.379  1.00  0.00    -0.323 OA
HETATM   28  C13 UNL     1      39.338  56.070  60.156  1.00  0.00     0.052 A 
HETATM   29  O1  UNL     1      41.083  54.456  61.052  1.00  0.00    -0.323 OA
HETATM   30  C14 UNL     1      41.051  53.381  61.970  1.00  0.00     0.352 A 
ENDBRANCH   2  22
BRANCH   7  31
HETATM   31  S1  UNL     1      34.833  62.194  55.402  1.00  0.00     0.264 S 
HETATM   32  O3  UNL     1      34.957  61.816  53.945  1.00  0.00    -0.200 OA
HETATM   33  O4  UNL     1      35.741  63.318  55.766  1.00  0.00    -0.200 OA
BRANCH  31  34
HETATM   34  N2  UNL     1      33.195  62.529  55.827  1.00  0.00    -0.264 N 
ATOM     35  H2  UNL     1      32.996  63.143  56.616  1.00  0.00     0.180 HD
BRANCH  34  36
HETATM   36  C20 UNL     1      32.219  62.014  55.162  1.00  0.00     0.137 A 
HETATM   37  C21 UNL     1      31.173  61.225  55.569  1.00  0.00     0.077 A 
HETATM   38  C22 UNL     1      30.401  60.946  54.439  1.00  0.00     0.171 A 
HETATM   39  O5  UNL     1      30.998  61.558  53.445  1.00  0.00    -0.248 OA
HETATM   40  N3  UNL     1      32.052  62.184  53.831  1.00  0.00    -0.245 N 
ATOM     41  H3  UNL     1      32.668  62.726  53.226  1.00  0.00     0.196 HD
ENDBRANCH  34  36
ENDBRANCH  31  34
ENDBRANCH   7  31
TORSDOF 6
ENDMDL
MODEL 2
REMARK VINA RESULT: -7.183784121      4.338      7.449
REMARK  6 active torsions:
REMARK  status: ('A' for Active; 'I' for Inactive)
REMARK    1  A    between atoms: C5_5  and  N1_6 
REMARK    2  A    between atoms: N1_6  and  C6_8 
REMARK    3  A    between atoms: C7_9  and  C8_10 
REMARK    4  A    between atoms: C19_23  and  S1_24 
REMARK    5  A    between atoms: S1_24  and  N2_27 
REMARK    6  A    between atoms: N2_27  and  C20_29 
ROOT
HETATM    1  C6  UNL     1      36.545  58.688  59.231  1.00  0.00     0.056 A 
HETATM    2  C7  UNL     1      35.564  58.363  58.331  1.00  0.00     0.002 A 
HETATM    3  C15 UNL     1      35.437  59.112  57.161  1.00  0.00     0.015 A 
HETATM    4  C16 UNL     1      36.267  60.166  56.886  1.00  0.00     0.013 A 
HETATM    5  C17 UNL     1      37.244  60.491  57.778  1.00  0.00    -0.022 A 
HETATM    6  C18 UNL     1      38.093  61.557  57.510  1.00  0.00     0.037 A 
HETATM    7  C19 UNL     1      39.080  61.883  58.417  1.00  0.00     0.080 A 
HETATM    8  C23 UNL     1      39.196  61.139  59.563  1.00  0.00     0.026 A 
HETATM    9  C24 UNL     1      38.369  60.080  59.852  1.00  0.00     0.016 A 
HETATM   10  C25 UNL     1      37.377  59.744  58.953  1.00  0.00     0.002 A 
ENDROOT
BRANCH   1  11
HETATM   11  N1  UNL     1      36.696  57.962  60.409  1.00  0.00    -0.341 N 
ATOM     12  H1  UNL     1      36.118  58.245  61.201  1.00  0.00     0.167 HD
BRANCH  11  13
HETATM   13  C5  UNL     1      37.489  56.972  60.598  1.00  0.00     0.105 A 
HETATM   14  C4  UNL     1      37.128  55.657  60.448  1.00  0.00     0.049 A 
HETATM   15  C3  UNL     1      38.048  54.652  60.672  1.00  0.00     0.012 A 
HETATM   16  C2  UNL     1      39.350  54.950  61.051  1.00  0.00    -0.040 A 
HETATM   17  C1  UNL     1      40.367  53.912  61.301  1.00  0.00     0.050 C 
HETATM   18  C26 UNL     1      39.671  56.284  61.190  1.00  0.00     0.013 A 
HETATM   19  N4  UNL     1      38.755  57.253  60.966  1.00  0.00    -0.346 N 
HETATM   20  C27 UNL     1      41.066  56.635  61.597  1.00  0.00     0.068 C 
ATOM     21  H4  UNL     1      39.031  58.229  61.080  1.00  0.00     0.167 HD
ENDBRANCH  11  13
ENDBRANCH   1  11
BRANCH   2  22
HETATM   22  C8  UNL     1      34.630  57.270  58.514  1.00  0.00    -0.021 A 
HETATM   23  C9  UNL     1      34.828  56.033  57.949  1.00  0.00     0.015 A 
HETATM   24  C10 UNL     1      33.958  54.987  58.115  1.00  0.00     0.040 A 
HETATM   25  C11 UNL     1      32.834  55.158  58.871  1.00  0.00     0.105 A 
HETATM   26  C12 UNL     1      32.593  56.384  59.459  1.00  0.00     0.105 A 
HETATM   27  O2  UNL     1      31.775  54.323  59.228  1.00  0.00    -0.323 OA
HETATM   28  C13 UNL     1      33.501  57.442  59.275  1.00  0.00     0.052 A 
HETATM   29  O1  UNL     1      31.407  56.311  60.167  1.00  0.00    -0.323 OA
HETATM   30  C14 UNL     1      30.857  55.015  60.038  1.00  0.00     0.352 A 
ENDBRANCH   2  22
BRANCH   7  31
HETATM   31  S1  UNL     1      40.161  63.237  58.081  1.00  0.00     0.264 S 
HETATM   32  O3  UNL     1      39.925  64.240  59.185  1.00  0.00    -0.200 OA
HETATM   33  O4  UNL     1      39.798  63.785  56.743  1.00  0.00    -0.200 OA
BRANCH  31  34
HETATM   34  N2  UNL     1      41.779  62.640  58.111  1.00  0.00    -0.264 N 
ATOM     35  H2  UNL     1      42.062  61.923  57.443  1.00  0.00     0.180 HD
BRANCH  34  36
HETATM   36  C20 UNL     1      42.635  63.085  58.965  1.00  0.00     0.137 A 
HETATM   37  C21 UNL     1      43.865  63.665  58.783  1.00  0.00     0.077 A 
HETATM   38  C22 UNL     1      44.373  63.962  60.051  1.00  0.00     0.171 A 
HETATM   39  O5  UNL     1      43.458  63.562  60.899  1.00  0.00    -0.248 OA
HETATM   40  N3  UNL     1      42.441  63.050  60.302  1.00  0.00    -0.245 N 
ATOM     41  H3  UNL     1      41.614  62.676  60.767  1.00  0.00     0.196 HD
ENDBRANCH  34  36
ENDBRANCH  31  34
ENDBRANCH   7  31
TORSDOF 6
ENDMDL
MODEL 3
REMARK VINA RESULT: -7.118810804      4.085      7.703
REMARK  6 active torsions:
REMARK  status: ('A' for Active; 'I' for Inactive)
REMARK    1  A    between atoms: C5_5  and  N1_6 
REMARK    2  A    between atoms: N1_6  and  C6_8 
REMARK    3  A    between atoms: C7_9  and  C8_10 
REMARK    4  A    between atoms: C19_23  and  S1_24 
REMARK    5  A    between atoms: S1_24  and  N2_27 
REMARK    6  A    between atoms: N2_27  and  C20_29 
ROOT
HETATM    1  C6  UNL     1      36.874  59.676  58.841  1.00  0.00     0.056 A 
HETATM    2  C7  UNL     1      38.209  59.532  58.566  1.00  0.00     0.002 A 
HETATM    3  C15 UNL     1      38.738  58.250  58.412  1.00  0.00     0.015 A 
HETATM    4  C16 UNL     1      37.960  57.130  58.530  1.00  0.00     0.013 A 
HETATM    5  C17 UNL     1      36.632  57.270  58.803  1.00  0.00    -0.022 A 
HETATM    6  C18 UNL     1      35.832  56.142  58.924  1.00  0.00     0.037 A 
HETATM    7  C19 UNL     1      34.488  56.290  59.201  1.00  0.00     0.080 A 
HETATM    8  C23 UNL     1      33.979  57.554  59.349  1.00  0.00     0.026 A 
HETATM    9  C24 UNL     1      34.750  58.686  59.234  1.00  0.00     0.016 A 
HETATM   10  C25 UNL     1      36.095  58.553  58.958  1.00  0.00     0.002 A 
ENDROOT
BRANCH   1  11
HETATM   11  N1  UNL     1      36.317  60.942  59.002  1.00  0.00    -0.341 N 
ATOM     12  H1  UNL     1      35.959  61.172  59.929  1.00  0.00     0.167 HD
BRANCH  11  13
HETATM   13  C5  UNL     1      36.208  61.847  58.100  1.00  0.00     0.105 A 
HETATM   14  C4  UNL     1      36.613  63.148  58.263  1.00  0.00     0.049 A 
HETATM   15  C3  UNL     1      36.458  64.059  57.238  1.00  0.00     0.012 A 
HETATM   16  C2  UNL     1      35.893  63.681  56.027  1.00  0.00    -0.040 A 
HETATM   17  C1  UNL     1      35.708  64.617  54.904  1.00  0.00     0.050 C 
HETATM   18  C26 UNL     1      35.501  62.364  55.906  1.00  0.00     0.013 A 
HETATM   19  N4  UNL     1      35.661  61.487  56.923  1.00  0.00    -0.346 N 
HETATM   20  C27 UNL     1      34.889  61.927  54.613  1.00  0.00     0.068 C 
ATOM     21  H4  UNL     1      35.357  60.522  56.794  1.00  0.00     0.167 HD
ENDBRANCH  11  13
ENDBRANCH   1  11
BRANCH   2  22
HETATM   22  C8  UNL     1      39.128  60.642  58.417  1.00  0.00    -0.021 A 
HETATM   23  C9  UNL     1      39.503  61.125  57.186  1.00  0.00     0.015 A 
HETATM   24  C10 UNL     1      40.369  62.176  57.028  1.00  0.00     0.040 A 
HETATM   25  C11 UNL     1      40.897  62.788  58.128  1.00  0.00     0.105 A 
HETATM   26  C12 UNL     1      40.548  62.338  59.386  1.00  0.00     0.105 A 
HETATM   27  O2  UNL     1      41.779  63.853  58.309  1.00  0.00    -0.323 OA
HETATM   28  C13 UNL     1      39.658  61.258  59.524  1.00  0.00     0.052 A 
HETATM   29  O1  UNL     1      41.202  63.108  60.331  1.00  0.00    -0.323 OA
HETATM   30  C14 UNL     1      41.998  64.079  59.681  1.00  0.00     0.352 A 
ENDBRANCH   2  22
BRANCH   7  31
HETATM   31  S1  UNL     1      33.467  54.858  59.356  1.00  0.00     0.264 S 
HETATM   32  O3  UNL     1      33.574  54.427  60.800  1.00  0.00    -0.200 OA
HETATM   33  O4  UNL     1      33.996  53.822  58.424  1.00  0.00    -0.200 OA
BRANCH  31  34
HETATM   34  N2  UNL     1      31.853  55.317  58.956  1.00  0.00    -0.264 N 
ATOM     35  H2  UNL     1      31.692  55.975  58.194  1.00  0.00     0.180 HD
BRANCH  34  36
HETATM   36  C20 UNL     1      30.847  54.841  59.607  1.00  0.00     0.137 A 
HETATM   37  C21 UNL     1      29.810  54.042  59.197  1.00  0.00     0.077 A 
HETATM   38  C22 UNL     1      28.994  53.822  60.309  1.00  0.00     0.171 A 
HETATM   39  O5  UNL     1      29.559  54.475  61.295  1.00  0.00    -0.248 OA
HETATM   40  N3  UNL     1      30.633  55.075  60.921  1.00  0.00    -0.245 N 
ATOM     41  H3  UNL     1      31.231  55.640  61.523  1.00  0.00     0.196 HD
ENDBRANCH  34  36
ENDBRANCH  31  34
ENDBRANCH   7  31
TORSDOF 6
ENDMDL
MODEL 4
REMARK VINA RESULT: -7.033436749      4.053      8.555
REMARK  6 active torsions:
REMARK  status: ('A' for Active; 'I' for Inactive)
REMARK    1  A    between atoms: C5_5  and  N1_6 
REMARK    2  A    between atoms: N1_6  and  C6_8 
REMARK    3  A    between atoms: C7_9  and  C8_10 
REMARK    4  A    between atoms: C19_23  and  S1_24 
REMARK    5  A    between atoms: S1_24  and  N2_27 
REMARK    6  A    between atoms: N2_27  and  C20_29 
ROOT
HETATM    1  C6  UNL     1      36.838  59.775  58.078  1.00  0.00     0.056 A 
HETATM    2  C7  UNL     1      36.215  60.973  57.846  1.00  0.00     0.002 A 
HETATM    3  C15 UNL     1      34.822  61.034  57.876  1.00  0.00     0.015 A 
HETATM    4  C16 UNL     1      34.057  59.928  58.129  1.00  0.00     0.013 A 
HETATM    5  C17 UNL     1      34.673  58.735  58.361  1.00  0.00    -0.022 A 
HETATM    6  C18 UNL     1      33.908  57.604  58.619  1.00  0.00     0.037 A 
HETATM    7  C19 UNL     1      34.537  56.398  58.853  1.00  0.00     0.080 A 
HETATM    8  C23 UNL     1      35.906  56.351  58.823  1.00  0.00     0.026 A 
HETATM    9  C24 UNL     1      36.686  57.454  58.568  1.00  0.00     0.016 A 
HETATM   10  C25 UNL     1      36.070  58.666  58.333  1.00  0.00     0.002 A 
ENDROOT
BRANCH   1  11
HETATM   11  N1  UNL     1      38.227  59.680  58.054  1.00  0.00    -0.341 N 
ATOM     12  H1  UNL     1      38.635  59.095  57.324  1.00  0.00     0.167 HD
BRANCH  11  13
HETATM   13  C5  UNL     1      39.044  60.256  58.857  1.00  0.00     0.105 A 
HETATM   14  C4  UNL     1      38.973  60.163  60.224  1.00  0.00     0.049 A 
HETATM   15  C3  UNL     1      39.896  60.816  61.016  1.00  0.00     0.012 A 
HETATM   16  C2  UNL     1      40.910  61.576  60.448  1.00  0.00    -0.040 A 
HETATM   17  C1  UNL     1      41.918  62.291  61.252  1.00  0.00     0.050 C 
HETATM   18  C26 UNL     1      40.945  61.642  59.071  1.00  0.00     0.013 A 
HETATM   19  N4  UNL     1      40.031  60.995  58.314  1.00  0.00    -0.346 N 
HETATM   20  C27 UNL     1      42.026  62.454  58.431  1.00  0.00     0.068 C 
ATOM     21  H4  UNL     1      40.090  61.069  57.298  1.00  0.00     0.167 HD
ENDBRANCH  11  13
ENDBRANCH   1  11
BRANCH   2  22
HETATM   22  C8  UNL     1      36.920  62.209  57.570  1.00  0.00    -0.021 A 
HETATM   23  C9  UNL     1      37.194  63.133  58.549  1.00  0.00     0.015 A 
HETATM   24  C10 UNL     1      37.862  64.305  58.306  1.00  0.00     0.040 A 
HETATM   25  C11 UNL     1      38.284  64.591  57.040  1.00  0.00     0.105 A 
HETATM   26  C12 UNL     1      38.032  63.692  56.023  1.00  0.00     0.105 A 
HETATM   27  O2  UNL     1      38.970  65.664  56.471  1.00  0.00    -0.323 OA
HETATM   28  C13 UNL     1      37.345  62.495  56.297  1.00  0.00     0.052 A 
HETATM   29  O1  UNL     1      38.552  64.197  54.844  1.00  0.00    -0.323 OA
HETATM   30  C14 UNL     1      39.152  65.453  55.091  1.00  0.00     0.352 A 
ENDBRANCH   2  22
BRANCH   7  31
HETATM   31  S1  UNL     1      33.569  54.960  59.182  1.00  0.00     0.264 S 
HETATM   32  O3  UNL     1      33.769  54.652  60.647  1.00  0.00    -0.200 OA
HETATM   33  O4  UNL     1      34.074  53.864  58.308  1.00  0.00    -0.200 OA
BRANCH  31  34
HETATM   34  N2  UNL     1      31.922  55.344  58.841  1.00  0.00    -0.264 N 
ATOM     35  H2  UNL     1      31.702  55.966  58.063  1.00  0.00     0.180 HD
BRANCH  34  36
HETATM   36  C20 UNL     1      30.965  54.858  59.555  1.00  0.00     0.137 A 
HETATM   37  C21 UNL     1      29.926  54.028  59.217  1.00  0.00     0.077 A 
HETATM   38  C22 UNL     1      29.178  53.810  60.377  1.00  0.00     0.171 A 
HETATM   39  O5  UNL     1      29.781  54.494  61.319  1.00  0.00    -0.248 OA
HETATM   40  N3  UNL     1      30.818  55.110  60.875  1.00  0.00    -0.245 N 
ATOM     41  H3  UNL     1      31.435  55.699  61.433  1.00  0.00     0.196 HD
ENDBRANCH  34  36
ENDBRANCH  31  34
ENDBRANCH   7  31
TORSDOF 6
ENDMDL
MODEL 5
REMARK VINA RESULT: -7.022866395      4.486      7.576
REMARK  6 active torsions:
REMARK  status: ('A' for Active; 'I' for Inactive)
REMARK    1  A    between atoms: C5_5  and  N1_6 
REMARK    2  A    between atoms: N1_6  and  C6_8 
REMARK    3  A    between atoms: C7_9  and  C8_10 
REMARK    4  A    between atoms: C19_23  and  S1_24 
REMARK    5  A    between atoms: S1_24  and  N2_27 
REMARK    6  A    between atoms: N2_27  and  C20_29 
ROOT
HETATM    1  C6  UNL     1      37.958  59.467  59.503  1.00  0.00     0.056 A 
HETATM    2  C7  UNL     1      38.057  60.198  60.658  1.00  0.00     0.002 A 
HETATM    3  C15 UNL     1      37.144  59.971  61.688  1.00  0.00     0.015 A 
HETATM    4  C16 UNL     1      36.150  59.037  61.577  1.00  0.00     0.013 A 
HETATM    5  C17 UNL     1      36.049  58.308  60.431  1.00  0.00    -0.022 A 
HETATM    6  C18 UNL     1      35.045  57.356  60.306  1.00  0.00     0.037 A 
HETATM    7  C19 UNL     1      34.947  56.621  59.143  1.00  0.00     0.080 A 
HETATM    8  C23 UNL     1      35.850  56.852  58.138  1.00  0.00     0.026 A 
HETATM    9  C24 UNL     1      36.852  57.788  58.236  1.00  0.00     0.016 A 
HETATM   10  C25 UNL     1      36.961  58.530  59.394  1.00  0.00     0.002 A 
ENDROOT
BRANCH   1  11
HETATM   11  N1  UNL     1      38.852  59.671  58.455  1.00  0.00    -0.341 N 
ATOM     12  H1  UNL     1      39.479  58.899  58.229  1.00  0.00     0.167 HD
BRANCH  11  13
HETATM   13  C5  UNL     1      38.966  60.734  57.747  1.00  0.00     0.105 A 
HETATM   14  C4  UNL     1      40.165  61.259  57.335  1.00  0.00     0.049 A 
HETATM   15  C3  UNL     1      40.196  62.410  56.573  1.00  0.00     0.012 A 
HETATM   16  C2  UNL     1      39.022  63.056  56.210  1.00  0.00    -0.040 A 
HETATM   17  C1  UNL     1      39.005  64.286  55.398  1.00  0.00     0.050 C 
HETATM   18  C26 UNL     1      37.840  62.495  56.645  1.00  0.00     0.013 A 
HETATM   19  N4  UNL     1      37.831  61.367  57.391  1.00  0.00    -0.346 N 
HETATM   20  C27 UNL     1      36.559  63.169  56.269  1.00  0.00     0.068 C 
ATOM     21  H4  UNL     1      36.936  60.983  57.694  1.00  0.00     0.167 HD
ENDBRANCH  11  13
ENDBRANCH   1  11
BRANCH   2  22
HETATM   22  C8  UNL     1      39.067  61.211  60.889  1.00  0.00    -0.021 A 
HETATM   23  C9  UNL     1      38.834  62.546  60.664  1.00  0.00     0.015 A 
HETATM   24  C10 UNL     1      39.777  63.517  60.880  1.00  0.00     0.040 A 
HETATM   25  C11 UNL     1      41.014  63.166  61.339  1.00  0.00     0.105 A 
HETATM   26  C12 UNL     1      41.295  61.835  61.580  1.00  0.00     0.105 A 
HETATM   27  O2  UNL     1      42.167  63.886  61.653  1.00  0.00    -0.323 OA
HETATM   28  C13 UNL     1      40.311  60.857  61.351  1.00  0.00     0.052 A 
HETATM   29  O1  UNL     1      42.597  61.731  62.035  1.00  0.00    -0.323 OA
HETATM   30  C14 UNL     1      43.184  63.016  62.089  1.00  0.00     0.352 A 
ENDBRANCH   2  22
BRANCH   7  31
HETATM   31  S1  UNL     1      33.672  55.411  58.981  1.00  0.00     0.264 S 
HETATM   32  O3  UNL     1      34.113  54.231  59.813  1.00  0.00    -0.200 OA
HETATM   33  O4  UNL     1      33.559  55.064  57.536  1.00  0.00    -0.200 OA
BRANCH  31  34
HETATM   34  N2  UNL     1      32.213  56.099  59.591  1.00  0.00    -0.264 N 
ATOM     35  H2  UNL     1      32.194  57.084  59.856  1.00  0.00     0.180 HD
BRANCH  34  36
HETATM   36  C20 UNL     1      31.146  55.388  59.717  1.00  0.00     0.137 A 
HETATM   37  C21 UNL     1      29.971  55.642  60.378  1.00  0.00     0.077 A 
HETATM   38  C22 UNL     1      29.144  54.530  60.193  1.00  0.00     0.171 A 
HETATM   39  O5  UNL     1      29.837  53.695  59.457  1.00  0.00    -0.248 OA
HETATM   40  N3  UNL     1      30.999  54.162  59.166  1.00  0.00    -0.245 N 
ATOM     41  H3  UNL     1      31.701  53.681  58.605  1.00  0.00     0.196 HD
ENDBRANCH  34  36
ENDBRANCH  31  34
ENDBRANCH   7  31
TORSDOF 6
ENDMDL
