MODEL 1
REMARK VINA RESULT: -6.714858113      0.000      0.000
REMARK  6 active torsions:
REMARK  status: ('A' for Active; 'I' for Inactive)
REMARK    1  A    between atoms: N1_1  and  S1_4 
REMARK    2  A    between atoms: S1_4  and  C1_7 
REMARK    3  A    between atoms: C6_12  and  N2_13 
REMARK    4  A    between atoms: N2_13  and  C7_15 
REMARK    5  A    between atoms: C11_21  and  C12_22 
REMARK    6  A    between atoms: N5_35  and  C23_36 
ROOT
HETATM    1  C7  UNL     1      35.531  62.192  55.684  1.00  0.00     0.176 A 
HETATM    2  N3  UNL     1      34.943  60.970  55.836  1.00  0.00    -0.336 N 
ATOM      3  H3  UNL     1      34.080  60.763  55.334  1.00  0.00     0.168 HD
HETATM    4  C8  UNL     1      35.478  60.046  56.629  1.00  0.00     0.061 A 
HETATM    5  C9  UNL     1      34.853  58.826  56.755  1.00  0.00     0.033 A 
HETATM    6  C10 UNL     1      35.382  57.829  57.577  1.00  0.00     0.014 A 
HETATM    7  C11 UNL     1      36.549  58.078  58.272  1.00  0.00    -0.024 A 
HETATM    8  C21 UNL     1      37.184  59.319  58.144  1.00  0.00     0.044 A 
HETATM    9  C22 UNL     1      36.654  60.294  57.330  1.00  0.00     0.070 A 
HETATM   10  N5  UNL     1      37.246  61.504  57.186  1.00  0.00    -0.274 N 
HETATM   11  C29 UNL     1      36.696  62.446  56.375  1.00  0.00     0.297 A 
HETATM   12  O3  UNL     1      37.335  63.528  56.325  1.00  0.00    -0.263 OA
ENDROOT
BRANCH   1  13
HETATM   13  N2  UNL     1      35.029  63.073  54.933  1.00  0.00    -0.337 N 
ATOM     14  H2  UNL     1      34.561  63.826  55.439  1.00  0.00     0.167 HD
BRANCH  13  15
HETATM   15  C6  UNL     1      34.989  63.216  53.559  1.00  0.00     0.057 A 
HETATM   16  C1  UNL     1      33.755  63.177  52.907  1.00  0.00     0.105 A 
HETATM   17  C2  UNL     1      33.656  63.309  51.525  1.00  0.00     0.027 A 
HETATM   18  C3  UNL     1      34.775  63.484  50.745  1.00  0.00     0.002 A 
HETATM   19  C4  UNL     1      35.996  63.521  51.393  1.00  0.00     0.002 A 
HETATM   20  C5  UNL     1      36.110  63.393  52.756  1.00  0.00     0.031 A 
BRANCH  16  21
HETATM   21  S1  UNL     1      32.318  62.948  53.867  1.00  0.00     0.259 S 
HETATM   22  O1  UNL     1      32.345  64.012  54.960  1.00  0.00    -0.201 OA
HETATM   23  O2  UNL     1      32.273  61.649  54.593  1.00  0.00    -0.201 OA
BRANCH  21  24
HETATM   24  N1  UNL     1      30.886  63.281  52.961  1.00  0.00    -0.324 N 
ATOM     25  H12 UNL     1      30.825  63.470  51.961  1.00  0.00     0.169 HD
ATOM     26  H11 UNL     1      30.130  63.246  53.645  1.00  0.00     0.169 HD
ENDBRANCH  21  24
ENDBRANCH  16  21
ENDBRANCH  13  15
ENDBRANCH   1  13
BRANCH  10  27
HETATM   27  C23 UNL     1      38.445  61.773  57.893  1.00  0.00     0.043 A 
HETATM   28  C24 UNL     1      39.638  61.435  57.251  1.00  0.00     0.030 A 
HETATM   29  C25 UNL     1      40.850  61.665  57.870  1.00  0.00     0.002 A 
HETATM   30  C26 UNL     1      40.891  62.228  59.127  1.00  0.00     0.000 A 
HETATM   31  C27 UNL     1      39.709  62.562  59.759  1.00  0.00     0.002 A 
HETATM   32  C28 UNL     1      38.496  62.335  59.145  1.00  0.00     0.030 A 
ENDBRANCH  10  27
BRANCH   7  33
HETATM   33  C12 UNL     1      37.124  57.047  59.141  1.00  0.00    -0.025 A 
HETATM   34  C13 UNL     1      36.430  55.909  59.487  1.00  0.00     0.013 A 
HETATM   35  C14 UNL     1      36.994  54.954  60.306  1.00  0.00     0.014 A 
HETATM   36  C15 UNL     1      38.268  55.086  60.818  1.00  0.00    -0.011 A 
HETATM   37  C16 UNL     1      38.806  54.115  61.637  1.00  0.00     0.099 A 
HETATM   38  C19 UNL     1      38.966  56.225  60.475  1.00  0.00    -0.022 A 
HETATM   39  N4  UNL     1      40.063  54.287  62.118  1.00  0.00    -0.374 N 
HETATM   40  C17 UNL     1      40.783  55.394  61.803  1.00  0.00     0.088 A 
ATOM     41  H4  UNL     1      40.473  53.576  62.725  1.00  0.00     0.164 HD
HETATM   42  C18 UNL     1      40.237  56.358  60.985  1.00  0.00     0.029 A 
HETATM   43  C20 UNL     1      38.408  57.185  59.655  1.00  0.00     0.024 A 
ENDBRANCH   7  33
TORSDOF 6
ENDMDL
MODEL 2
REMARK VINA RESULT: -6.576333286      4.604      7.071
REMARK  6 active torsions:
REMARK  status: ('A' for Active; 'I' for Inactive)
REMARK    1  A    between atoms: N1_1  and  S1_4 
REMARK    2  A    between atoms: S1_4  and  C1_7 
REMARK    3  A    between atoms: C6_12  and  N2_13 
REMARK    4  A    between atoms: N2_13  and  C7_15 
REMARK    5  A    between atoms: C11_21  and  C12_22 
REMARK    6  A    between atoms: N5_35  and  C23_36 
ROOT
HETATM    1  C7  UNL     1      36.151  61.700  58.232  1.00  0.00     0.176 A 
HETATM    2  N3  UNL     1      36.402  60.503  58.838  1.00  0.00    -0.336 N 
ATOM      3  H3  UNL     1      37.348  60.288  59.152  1.00  0.00     0.168 HD
HETATM    4  C8  UNL     1      35.431  59.614  59.026  1.00  0.00     0.061 A 
HETATM    5  C9  UNL     1      35.726  58.419  59.641  1.00  0.00     0.033 A 
HETATM    6  C10 UNL     1      34.736  57.458  59.858  1.00  0.00     0.014 A 
HETATM    7  C11 UNL     1      33.444  57.718  59.443  1.00  0.00    -0.024 A 
HETATM    8  C21 UNL     1      33.145  58.933  58.817  1.00  0.00     0.044 A 
HETATM    9  C22 UNL     1      34.129  59.873  58.611  1.00  0.00     0.070 A 
HETATM   10  N5  UNL     1      33.870  61.058  58.007  1.00  0.00    -0.274 N 
HETATM   11  C29 UNL     1      34.864  61.965  57.816  1.00  0.00     0.297 A 
HETATM   12  O3  UNL     1      34.502  63.024  57.245  1.00  0.00    -0.263 OA
ENDROOT
BRANCH   1  13
HETATM   13  N2  UNL     1      37.068  62.548  58.051  1.00  0.00    -0.337 N 
ATOM     14  H2  UNL     1      37.274  63.113  58.876  1.00  0.00     0.167 HD
BRANCH  13  15
HETATM   15  C6  UNL     1      37.848  62.861  56.953  1.00  0.00     0.057 A 
HETATM   16  C1  UNL     1      39.175  62.430  56.918  1.00  0.00     0.105 A 
HETATM   17  C2  UNL     1      40.008  62.722  55.841  1.00  0.00     0.027 A 
HETATM   18  C3  UNL     1      39.553  63.451  54.766  1.00  0.00     0.002 A 
HETATM   19  C4  UNL     1      38.239  63.877  54.805  1.00  0.00     0.002 A 
HETATM   20  C5  UNL     1      37.404  63.596  55.860  1.00  0.00     0.031 A 
BRANCH  16  21
HETATM   21  S1  UNL     1      39.786  61.513  58.269  1.00  0.00     0.259 S 
HETATM   22  O1  UNL     1      39.230  60.099  58.127  1.00  0.00    -0.201 OA
HETATM   23  O2  UNL     1      39.301  61.988  59.594  1.00  0.00    -0.201 OA
BRANCH  21  24
HETATM   24  N1  UNL     1      41.500  61.324  58.189  1.00  0.00    -0.324 N 
ATOM     25  H12 UNL     1      42.038  60.504  58.468  1.00  0.00     0.169 HD
ATOM     26  H11 UNL     1      41.843  62.205  57.807  1.00  0.00     0.169 HD
ENDBRANCH  21  24
ENDBRANCH  16  21
ENDBRANCH  13  15
ENDBRANCH   1  13
BRANCH  10  27
HETATM   27  C23 UNL     1      32.548  61.338  57.577  1.00  0.00     0.043 A 
HETATM   28  C24 UNL     1      32.228  60.978  56.266  1.00  0.00     0.030 A 
HETATM   29  C25 UNL     1      30.963  61.216  55.770  1.00  0.00     0.002 A 
HETATM   30  C26 UNL     1      30.006  61.809  56.564  1.00  0.00     0.000 A 
HETATM   31  C27 UNL     1      30.326  62.163  57.860  1.00  0.00     0.002 A 
HETATM   32  C28 UNL     1      31.588  61.929  58.361  1.00  0.00     0.030 A 
ENDBRANCH  10  27
BRANCH   7  33
HETATM   33  C12 UNL     1      32.387  56.725  59.659  1.00  0.00    -0.025 A 
HETATM   34  C13 UNL     1      32.351  55.531  58.972  1.00  0.00     0.013 A 
HETATM   35  C14 UNL     1      31.346  54.614  59.193  1.00  0.00     0.014 A 
HETATM   36  C15 UNL     1      30.334  54.840  60.103  1.00  0.00    -0.011 A 
HETATM   37  C16 UNL     1      29.340  53.904  60.303  1.00  0.00     0.099 A 
HETATM   38  C19 UNL     1      30.366  56.034  60.792  1.00  0.00    -0.022 A 
HETATM   39  N4  UNL     1      28.363  54.169  61.209  1.00  0.00    -0.374 N 
HETATM   40  C17 UNL     1      28.360  55.333  61.907  1.00  0.00     0.088 A 
ATOM     41  H4  UNL     1      27.623  53.485  61.366  1.00  0.00     0.164 HD
HETATM   42  C18 UNL     1      29.357  56.261  61.700  1.00  0.00     0.029 A 
HETATM   43  C20 UNL     1      31.370  56.957  60.576  1.00  0.00     0.024 A 
ENDBRANCH   7  33
TORSDOF 6
ENDMDL
MODEL 3
REMARK VINA RESULT: -6.353268693      5.183      8.142
REMARK  6 active torsions:
REMARK  status: ('A' for Active; 'I' for Inactive)
REMARK    1  A    between atoms: N1_1  and  S1_4 
REMARK    2  A    between atoms: S1_4  and  C1_7 
REMARK    3  A    between atoms: C6_12  and  N2_13 
REMARK    4  A    between atoms: N2_13  and  C7_15 
REMARK    5  A    between atoms: C11_21  and  C12_22 
REMARK    6  A    between atoms: N5_35  and  C23_36 
ROOT
HETATM    1  C7  UNL     1      36.496  60.498  59.833  1.00  0.00     0.176 A 
HETATM    2  N3  UNL     1      36.369  59.298  60.471  1.00  0.00    -0.336 N 
ATOM      3  H3  UNL     1      37.143  58.942  61.031  1.00  0.00     0.168 HD
HETATM    4  C8  UNL     1      35.249  58.586  60.374  1.00  0.00     0.061 A 
HETATM    5  C9  UNL     1      35.161  57.381  61.033  1.00  0.00     0.033 A 
HETATM    6  C10 UNL     1      34.004  56.603  60.957  1.00  0.00     0.014 A 
HETATM    7  C11 UNL     1      32.936  57.056  60.206  1.00  0.00    -0.024 A 
HETATM    8  C21 UNL     1      33.027  58.281  59.536  1.00  0.00     0.044 A 
HETATM    9  C22 UNL     1      34.172  59.040  59.619  1.00  0.00     0.070 A 
HETATM   10  N5  UNL     1      34.289  60.230  58.982  1.00  0.00    -0.274 N 
HETATM   11  C29 UNL     1      35.434  60.954  59.083  1.00  0.00     0.297 A 
HETATM   12  O3  UNL     1      35.423  62.038  58.446  1.00  0.00    -0.263 OA
ENDROOT
BRANCH   1  13
HETATM   13  N2  UNL     1      37.555  61.178  59.922  1.00  0.00    -0.337 N 
ATOM     14  H2  UNL     1      37.579  61.798  60.731  1.00  0.00     0.167 HD
BRANCH  13  15
HETATM   15  C6  UNL     1      38.690  61.246  59.135  1.00  0.00     0.057 A 
HETATM   16  C1  UNL     1      39.943  61.280  59.751  1.00  0.00     0.105 A 
HETATM   17  C2  UNL     1      41.117  61.355  59.009  1.00  0.00     0.027 A 
HETATM   18  C3  UNL     1      41.090  61.400  57.634  1.00  0.00     0.002 A 
HETATM   19  C4  UNL     1      39.849  61.368  57.028  1.00  0.00     0.002 A 
HETATM   20  C5  UNL     1      38.680  61.293  57.746  1.00  0.00     0.031 A 
BRANCH  16  21
HETATM   21  S1  UNL     1      40.012  61.234  61.492  1.00  0.00     0.259 S 
HETATM   22  O1  UNL     1      39.240  59.992  61.930  1.00  0.00    -0.201 OA
HETATM   23  O2  UNL     1      39.322  62.373  62.158  1.00  0.00    -0.201 OA
BRANCH  21  24
HETATM   24  N1  UNL     1      41.622  60.976  62.060  1.00  0.00    -0.324 N 
ATOM     25  H12 UNL     1      41.897  60.577  62.958  1.00  0.00     0.169 HD
ATOM     26  H11 UNL     1      42.221  61.309  61.306  1.00  0.00     0.169 HD
ENDBRANCH  21  24
ENDBRANCH  16  21
ENDBRANCH  13  15
ENDBRANCH   1  13
BRANCH  10  27
HETATM   27  C23 UNL     1      33.200  60.707  58.208  1.00  0.00     0.043 A 
HETATM   28  C24 UNL     1      33.184  60.340  56.861  1.00  0.00     0.030 A 
HETATM   29  C25 UNL     1      32.160  60.762  56.038  1.00  0.00     0.002 A 
HETATM   30  C26 UNL     1      31.146  61.548  56.540  1.00  0.00     0.000 A 
HETATM   31  C27 UNL     1      31.165  61.908  57.873  1.00  0.00     0.002 A 
HETATM   32  C28 UNL     1      32.186  61.490  58.700  1.00  0.00     0.030 A 
ENDBRANCH  10  27
BRANCH   7  33
HETATM   33  C12 UNL     1      31.711  56.257  60.111  1.00  0.00    -0.025 A 
HETATM   34  C13 UNL     1      31.645  55.102  59.364  1.00  0.00     0.013 A 
HETATM   35  C14 UNL     1      30.479  54.368  59.290  1.00  0.00     0.014 A 
HETATM   36  C15 UNL     1      29.330  54.748  59.954  1.00  0.00    -0.011 A 
HETATM   37  C16 UNL     1      28.179  53.995  59.861  1.00  0.00     0.099 A 
HETATM   38  C19 UNL     1      29.393  55.905  60.702  1.00  0.00    -0.022 A 
HETATM   39  N4  UNL     1      27.071  54.407  60.530  1.00  0.00    -0.374 N 
HETATM   40  C17 UNL     1      27.092  55.539  61.279  1.00  0.00     0.088 A 
ATOM     41  H4  UNL     1      26.213  53.858  60.470  1.00  0.00     0.164 HD
HETATM   42  C18 UNL     1      28.248  56.284  61.364  1.00  0.00     0.029 A 
HETATM   43  C20 UNL     1      30.556  56.644  60.780  1.00  0.00     0.024 A 
ENDBRANCH   7  33
TORSDOF 6
ENDMDL
MODEL 4
REMARK VINA RESULT: -6.204876356      1.284      1.485
REMARK  6 active torsions:
REMARK  status: ('A' for Active; 'I' for Inactive)
REMARK    1  A    between atoms: N1_1  and  S1_4 
REMARK    2  A    between atoms: S1_4  and  C1_7 
REMARK    3  A    between atoms: C6_12  and  N2_13 
REMARK    4  A    between atoms: N2_13  and  C7_15 
REMARK    5  A    between atoms: C11_21  and  C12_22 
REMARK    6  A    between atoms: N5_35  and  C23_36 
ROOT
HETATM    1  C7  UNL     1      35.495  62.239  55.669  1.00  0.00     0.176 A 
HETATM    2  N3  UNL     1      34.887  61.026  55.819  1.00  0.00    -0.336 N 
ATOM      3  H3  UNL     1      34.020  60.833  55.319  1.00  0.00     0.168 HD
HETATM    4  C8  UNL     1      35.410  60.091  56.607  1.00  0.00     0.061 A 
HETATM    5  C9  UNL     1      34.766  58.881  56.732  1.00  0.00     0.033 A 
HETATM    6  C10 UNL     1      35.282  57.873  57.549  1.00  0.00     0.014 A 
HETATM    7  C11 UNL     1      36.455  58.102  58.241  1.00  0.00    -0.024 A 
HETATM    8  C21 UNL     1      37.109  59.332  58.115  1.00  0.00     0.044 A 
HETATM    9  C22 UNL     1      36.592  60.318  57.305  1.00  0.00     0.070 A 
HETATM   10  N5  UNL     1      37.203  61.519  57.163  1.00  0.00    -0.274 N 
HETATM   11  C29 UNL     1      36.666  62.472  56.357  1.00  0.00     0.297 A 
HETATM   12  O3  UNL     1      37.321  63.544  56.308  1.00  0.00    -0.263 OA
ENDROOT
BRANCH   1  13
HETATM   13  N2  UNL     1      35.004  63.130  54.922  1.00  0.00    -0.337 N 
ATOM     14  H2  UNL     1      34.311  63.719  55.384  1.00  0.00     0.167 HD
BRANCH  13  15
HETATM   15  C6  UNL     1      35.223  63.463  53.598  1.00  0.00     0.057 A 
HETATM   16  C1  UNL     1      34.950  64.764  53.171  1.00  0.00     0.105 A 
HETATM   17  C2  UNL     1      35.145  65.153  51.849  1.00  0.00     0.027 A 
HETATM   18  C3  UNL     1      35.615  64.266  50.908  1.00  0.00     0.002 A 
HETATM   19  C4  UNL     1      35.883  62.979  51.333  1.00  0.00     0.002 A 
HETATM   20  C5  UNL     1      35.697  62.580  52.635  1.00  0.00     0.031 A 
BRANCH  16  21
HETATM   21  S1  UNL     1      34.343  65.909  54.337  1.00  0.00     0.259 S 
HETATM   22  O1  UNL     1      35.432  66.080  55.393  1.00  0.00    -0.201 OA
HETATM   23  O2  UNL     1      33.148  65.436  55.087  1.00  0.00    -0.201 OA
BRANCH  21  24
HETATM   24  N1  UNL     1      34.148  67.480  53.647  1.00  0.00    -0.324 N 
ATOM     25  H12 UNL     1      34.842  68.005  53.116  1.00  0.00     0.169 HD
ATOM     26  H11 UNL     1      33.196  67.754  53.888  1.00  0.00     0.169 HD
ENDBRANCH  21  24
ENDBRANCH  16  21
ENDBRANCH  13  15
ENDBRANCH   1  13
BRANCH  10  27
HETATM   27  C23 UNL     1      38.408  61.767  57.868  1.00  0.00     0.043 A 
HETATM   28  C24 UNL     1      39.594  61.420  57.217  1.00  0.00     0.030 A 
HETATM   29  C25 UNL     1      40.811  61.629  57.833  1.00  0.00     0.002 A 
HETATM   30  C26 UNL     1      40.864  62.181  59.095  1.00  0.00     0.000 A 
HETATM   31  C27 UNL     1      39.689  62.523  59.734  1.00  0.00     0.002 A 
HETATM   32  C28 UNL     1      38.471  62.317  59.124  1.00  0.00     0.030 A 
ENDBRANCH  10  27
BRANCH   7  33
HETATM   33  C12 UNL     1      37.016  57.059  59.106  1.00  0.00    -0.025 A 
HETATM   34  C13 UNL     1      36.310  55.924  59.439  1.00  0.00     0.013 A 
HETATM   35  C14 UNL     1      36.861  54.958  60.254  1.00  0.00     0.014 A 
HETATM   36  C15 UNL     1      38.133  55.075  60.775  1.00  0.00    -0.011 A 
HETATM   37  C16 UNL     1      38.658  54.093  61.589  1.00  0.00     0.099 A 
HETATM   38  C19 UNL     1      38.843  56.211  60.444  1.00  0.00    -0.022 A 
HETATM   39  N4  UNL     1      39.914  54.251  62.079  1.00  0.00    -0.374 N 
HETATM   40  C17 UNL     1      40.646  55.354  61.776  1.00  0.00     0.088 A 
ATOM     41  H4  UNL     1      40.314  53.532  62.682  1.00  0.00     0.164 HD
HETATM   42  C18 UNL     1      40.112  56.329  60.962  1.00  0.00     0.029 A 
HETATM   43  C20 UNL     1      38.298  57.182  59.628  1.00  0.00     0.024 A 
ENDBRANCH   7  33
TORSDOF 6
ENDMDL
MODEL 5
REMARK VINA RESULT: -6.199038151      2.220      4.596
REMARK  6 active torsions:
REMARK  status: ('A' for Active; 'I' for Inactive)
REMARK    1  A    between atoms: N1_1  and  S1_4 
REMARK    2  A    between atoms: S1_4  and  C1_7 
REMARK    3  A    between atoms: C6_12  and  N2_13 
REMARK    4  A    between atoms: N2_13  and  C7_15 
REMARK    5  A    between atoms: C11_21  and  C12_22 
REMARK    6  A    between atoms: N5_35  and  C23_36 
ROOT
HETATM    1  C7  UNL     1      34.525  60.828  55.857  1.00  0.00     0.176 A 
HETATM    2  N3  UNL     1      35.754  61.242  56.281  1.00  0.00    -0.336 N 
ATOM      3  H3  UNL     1      36.136  62.121  55.933  1.00  0.00     0.168 HD
HETATM    4  C8  UNL     1      36.461  60.516  57.142  1.00  0.00     0.061 A 
HETATM    5  C9  UNL     1      37.697  60.969  57.545  1.00  0.00     0.033 A 
HETATM    6  C10 UNL     1      38.472  60.237  58.448  1.00  0.00     0.014 A 
HETATM    7  C11 UNL     1      37.985  59.041  58.937  1.00  0.00    -0.024 A 
HETATM    8  C21 UNL     1      36.729  58.581  58.527  1.00  0.00     0.044 A 
HETATM    9  C22 UNL     1      35.973  59.312  57.638  1.00  0.00     0.070 A 
HETATM   10  N5  UNL     1      34.754  58.892  57.223  1.00  0.00    -0.274 N 
HETATM   11  C29 UNL     1      34.033  59.636  56.342  1.00  0.00     0.297 A 
HETATM   12  O3  UNL     1      32.920  59.142  56.031  1.00  0.00    -0.263 OA
ENDROOT
BRANCH   1  13
HETATM   13  N2  UNL     1      33.848  61.513  55.040  1.00  0.00    -0.337 N 
ATOM     14  H2  UNL     1      33.926  61.195  54.074  1.00  0.00     0.167 HD
BRANCH  13  15
HETATM   15  C6  UNL     1      33.023  62.609  55.201  1.00  0.00     0.057 A 
HETATM   16  C1  UNL     1      33.207  63.725  54.382  1.00  0.00     0.105 A 
HETATM   17  C2  UNL     1      32.410  64.859  54.504  1.00  0.00     0.027 A 
HETATM   18  C3  UNL     1      31.405  64.925  55.441  1.00  0.00     0.002 A 
HETATM   19  C4  UNL     1      31.225  63.820  56.251  1.00  0.00     0.002 A 
HETATM   20  C5  UNL     1      32.003  62.693  56.142  1.00  0.00     0.031 A 
BRANCH  16  21
HETATM   21  S1  UNL     1      34.479  63.677  53.190  1.00  0.00     0.259 S 
HETATM   22  O1  UNL     1      35.739  63.204  53.911  1.00  0.00    -0.201 OA
HETATM   23  O2  UNL     1      34.833  65.008  52.626  1.00  0.00    -0.201 OA
BRANCH  21  24
HETATM   24  N1  UNL     1      34.182  62.475  51.987  1.00  0.00    -0.324 N 
ATOM     25  H12 UNL     1      33.826  61.531  52.140  1.00  0.00     0.169 HD
ATOM     26  H11 UNL     1      34.439  62.918  51.106  1.00  0.00     0.169 HD
ENDBRANCH  21  24
ENDBRANCH  16  21
ENDBRANCH  13  15
ENDBRANCH   1  13
BRANCH  10  27
HETATM   27  C23 UNL     1      34.241  57.666  57.718  1.00  0.00     0.043 A 
HETATM   28  C24 UNL     1      33.398  57.745  58.828  1.00  0.00     0.030 A 
HETATM   29  C25 UNL     1      32.856  56.598  59.372  1.00  0.00     0.002 A 
HETATM   30  C26 UNL     1      33.145  55.367  58.824  1.00  0.00     0.000 A 
HETATM   31  C27 UNL     1      33.979  55.294  57.726  1.00  0.00     0.002 A 
HETATM   32  C28 UNL     1      34.523  56.435  57.178  1.00  0.00     0.030 A 
ENDBRANCH  10  27
BRANCH   7  33
HETATM   33  C12 UNL     1      38.779  58.255  59.885  1.00  0.00    -0.025 A 
HETATM   34  C13 UNL     1      39.588  58.845  60.831  1.00  0.00     0.013 A 
HETATM   35  C14 UNL     1      40.325  58.082  61.712  1.00  0.00     0.014 A 
HETATM   36  C15 UNL     1      40.294  56.703  61.693  1.00  0.00    -0.011 A 
HETATM   37  C16 UNL     1      41.043  55.966  62.586  1.00  0.00     0.099 A 
HETATM   38  C19 UNL     1      39.486  56.108  60.747  1.00  0.00    -0.022 A 
HETATM   39  N4  UNL     1      40.981  54.610  62.530  1.00  0.00    -0.374 N 
HETATM   40  C17 UNL     1      40.198  53.987  61.614  1.00  0.00     0.088 A 
ATOM     41  H4  UNL     1      41.531  54.054  63.185  1.00  0.00     0.164 HD
HETATM   42  C18 UNL     1      39.453  54.733  60.726  1.00  0.00     0.029 A 
HETATM   43  C20 UNL     1      38.744  56.866  59.862  1.00  0.00     0.024 A 
ENDBRANCH   7  33
TORSDOF 6
ENDMDL
