MODEL 1
REMARK VINA RESULT: -7.358821809      0.000      0.000
REMARK  6 active torsions:
REMARK  status: ('A' for Active; 'I' for Inactive)
REMARK    1  A    between atoms: O1_2  and  C2_3 
REMARK    2  A    between atoms: C6_7  and  N1_8 
REMARK    3  A    between atoms: N1_8  and  C7_10 
REMARK    4  A    between atoms: C11_18  and  C12_19 
REMARK    5  A    between atoms: C17_24  and  C18_25 
REMARK       I    between atoms: C18_25  and  N4_27 
REMARK    6  A    between atoms: N4_27  and  C19_29 
ROOT
HETATM    1  C7  UNL     1      33.348  55.821  59.107  1.00  0.00     0.119 A 
HETATM    2  N2  UNL     1      33.826  54.696  58.541  1.00  0.00    -0.338 N 
ATOM      3  H2  UNL     1      33.632  53.812  59.011  1.00  0.00     0.168 HD
HETATM    4  C8  UNL     1      34.533  54.653  57.412  1.00  0.00     0.182 A 
HETATM    5  N3  UNL     1      34.789  55.831  56.791  1.00  0.00    -0.352 N 
ATOM      6  H3  UNL     1      35.327  55.840  55.925  1.00  0.00     0.166 HD
HETATM    7  C9  UNL     1      34.338  56.987  57.309  1.00  0.00     0.047 A 
HETATM    8  C10 UNL     1      34.589  58.193  56.690  1.00  0.00     0.042 A 
HETATM    9  C11 UNL     1      34.128  59.397  57.216  1.00  0.00    -0.023 A 
HETATM   10  C27 UNL     1      33.394  59.410  58.392  1.00  0.00     0.013 A 
HETATM   11  C28 UNL     1      33.134  58.191  59.027  1.00  0.00     0.018 A 
HETATM   12  C29 UNL     1      33.604  57.038  58.479  1.00  0.00     0.035 A 
ENDROOT
BRANCH   9  13
HETATM   13  C12 UNL     1      34.405  60.648  56.534  1.00  0.00    -0.013 A 
HETATM   14  C13 UNL     1      35.648  61.216  56.693  1.00  0.00    -0.050 A 
HETATM   15  C14 UNL     1      36.640  60.530  57.545  1.00  0.00     0.049 C 
HETATM   16  C15 UNL     1      35.950  62.414  56.055  1.00  0.00     0.009 A 
HETATM   17  C16 UNL     1      34.973  62.974  55.288  1.00  0.00     0.018 A 
HETATM   18  C17 UNL     1      33.700  62.420  55.108  1.00  0.00     0.039 A 
HETATM   19  C25 UNL     1      33.417  61.241  55.741  1.00  0.00    -0.035 A 
HETATM   20  C26 UNL     1      32.102  60.608  55.596  1.00  0.00     0.050 C 
BRANCH  18  21
HETATM   21  C18 UNL     1      32.744  63.094  54.282  1.00  0.00     0.270 C 
HETATM   22  O2  UNL     1      32.130  64.102  54.805  1.00  0.00    -0.267 OA
HETATM   23  N4  UNL     1      32.379  62.804  52.962  1.00  0.00    -0.155 N 
ATOM     24  H4  UNL     1      33.138  62.753  52.283  1.00  0.00     0.187 HD
BRANCH  23  25
HETATM   25  C19 UNL     1      31.191  62.595  52.513  1.00  0.00     0.685 A 
HETATM   26  N5  UNL     1      30.849  61.311  52.291  1.00  0.00    -0.196 N 
HETATM   27  C20 UNL     1      29.641  60.955  51.828  1.00  0.00     0.024 A 
ATOM     28  H5  UNL     1      31.536  60.580  52.482  1.00  0.00     0.184 HD
HETATM   29  C21 UNL     1      29.297  59.521  51.593  1.00  0.00     0.068 C 
HETATM   30  C22 UNL     1      28.708  61.964  51.568  1.00  0.00     0.050 A 
HETATM   31  C23 UNL     1      29.041  63.276  51.789  1.00  0.00     0.024 A 
HETATM   32  C24 UNL     1      28.053  64.329  51.514  1.00  0.00     0.068 C 
HETATM   33  N6  UNL     1      30.280  63.541  52.257  1.00  0.00    -0.196 N 
ATOM     34  H6  UNL     1      30.535  64.514  52.424  1.00  0.00     0.184 HD
ENDBRANCH  23  25
ENDBRANCH  18  21
ENDBRANCH   9  13
BRANCH   1  35
HETATM   35  N1  UNL     1      32.664  55.795  60.210  1.00  0.00    -0.342 N 
ATOM     36  H1  UNL     1      33.112  55.952  61.113  1.00  0.00     0.167 HD
BRANCH  35  37
HETATM   37  C6  UNL     1      31.267  55.540  60.113  1.00  0.00     0.036 A 
HETATM   38  C5  UNL     1      30.850  54.504  59.320  1.00  0.00     0.029 A 
HETATM   39  C4  UNL     1      29.490  54.229  59.204  1.00  0.00     0.005 A 
HETATM   40  C3  UNL     1      28.575  54.997  59.883  1.00  0.00     0.037 A 
HETATM   41  C2  UNL     1      28.977  56.058  60.698  1.00  0.00     0.070 A 
HETATM   42  C30 UNL     1      30.321  56.292  60.783  1.00  0.00     0.066 A 
BRANCH  41  43
HETATM   43  O1  UNL     1      28.022  56.804  61.364  1.00  0.00    -0.356 OA
HETATM   44  C1  UNL     1      27.029  56.131  62.096  1.00  0.00     0.210 C 
ENDBRANCH  41  43
ENDBRANCH  35  37
ENDBRANCH   1  35
TORSDOF 6
ENDMDL
MODEL 2
REMARK VINA RESULT: -7.138040663      3.382      6.311
REMARK  6 active torsions:
REMARK  status: ('A' for Active; 'I' for Inactive)
REMARK    1  A    between atoms: O1_2  and  C2_3 
REMARK    2  A    between atoms: C6_7  and  N1_8 
REMARK    3  A    between atoms: N1_8  and  C7_10 
REMARK    4  A    between atoms: C11_18  and  C12_19 
REMARK    5  A    between atoms: C17_24  and  C18_25 
REMARK       I    between atoms: C18_25  and  N4_27 
REMARK    6  A    between atoms: N4_27  and  C19_29 
ROOT
HETATM    1  C7  UNL     1      33.397  55.961  58.989  1.00  0.00     0.119 A 
HETATM    2  N2  UNL     1      33.862  54.865  58.360  1.00  0.00    -0.338 N 
ATOM      3  H2  UNL     1      33.679  53.959  58.792  1.00  0.00     0.168 HD
HETATM    4  C8  UNL     1      34.545  54.877  57.215  1.00  0.00     0.182 A 
HETATM    5  N3  UNL     1      34.786  56.083  56.645  1.00  0.00    -0.352 N 
ATOM      6  H3  UNL     1      35.305  56.133  55.768  1.00  0.00     0.166 HD
HETATM    7  C9  UNL     1      34.347  57.212  57.227  1.00  0.00     0.047 A 
HETATM    8  C10 UNL     1      34.584  58.447  56.660  1.00  0.00     0.042 A 
HETATM    9  C11 UNL     1      34.134  59.624  57.253  1.00  0.00    -0.023 A 
HETATM   10  C27 UNL     1      33.427  59.580  58.444  1.00  0.00     0.013 A 
HETATM   11  C28 UNL     1      33.181  58.333  59.026  1.00  0.00     0.018 A 
HETATM   12  C29 UNL     1      33.639  57.207  58.413  1.00  0.00     0.035 A 
ENDROOT
BRANCH   9  13
HETATM   13  C12 UNL     1      34.396  60.906  56.625  1.00  0.00    -0.013 A 
HETATM   14  C13 UNL     1      33.412  61.461  55.839  1.00  0.00    -0.050 A 
HETATM   15  C14 UNL     1      32.139  60.730  55.672  1.00  0.00     0.049 C 
HETATM   16  C15 UNL     1      33.626  62.688  55.221  1.00  0.00     0.009 A 
HETATM   17  C16 UNL     1      34.831  63.289  55.433  1.00  0.00     0.018 A 
HETATM   18  C17 UNL     1      35.850  62.750  56.226  1.00  0.00     0.039 A 
HETATM   19  C25 UNL     1      35.625  61.542  56.828  1.00  0.00    -0.035 A 
HETATM   20  C26 UNL     1      36.652  60.921  57.671  1.00  0.00     0.050 C 
BRANCH  18  21
HETATM   21  C18 UNL     1      37.081  63.464  56.380  1.00  0.00     0.270 C 
HETATM   22  O2  UNL     1      37.953  63.333  55.437  1.00  0.00    -0.267 OA
HETATM   23  N4  UNL     1      37.475  64.300  57.431  1.00  0.00    -0.155 N 
ATOM     24  H4  UNL     1      36.841  65.064  57.665  1.00  0.00     0.187 HD
BRANCH  23  25
HETATM   25  C19 UNL     1      38.549  64.209  58.135  1.00  0.00     0.685 A 
HETATM   26  N5  UNL     1      39.371  63.181  57.850  1.00  0.00    -0.196 N 
HETATM   27  C20 UNL     1      40.523  62.974  58.505  1.00  0.00     0.024 A 
ATOM     28  H5  UNL     1      39.107  62.534  57.106  1.00  0.00     0.184 HD
HETATM   29  C21 UNL     1      41.411  61.824  58.162  1.00  0.00     0.068 C 
HETATM   30  C22 UNL     1      40.875  63.866  59.523  1.00  0.00     0.050 A 
HETATM   31  C23 UNL     1      40.049  64.918  59.826  1.00  0.00     0.024 A 
HETATM   32  C24 UNL     1      40.429  65.851  60.897  1.00  0.00     0.068 C 
HETATM   33  N6  UNL     1      38.909  65.049  59.114  1.00  0.00    -0.196 N 
ATOM     34  H6  UNL     1      38.289  65.828  59.332  1.00  0.00     0.184 HD
ENDBRANCH  23  25
ENDBRANCH  18  21
ENDBRANCH   9  13
BRANCH   1  35
HETATM   35  N1  UNL     1      32.738  55.882  60.104  1.00  0.00    -0.342 N 
ATOM     36  H1  UNL     1      33.197  56.039  61.002  1.00  0.00     0.167 HD
BRANCH  35  37
HETATM   37  C6  UNL     1      31.352  55.569  60.029  1.00  0.00     0.036 A 
HETATM   38  C5  UNL     1      30.971  54.484  59.285  1.00  0.00     0.029 A 
HETATM   39  C4  UNL     1      29.622  54.151  59.192  1.00  0.00     0.005 A 
HETATM   40  C3  UNL     1      28.681  54.911  59.844  1.00  0.00     0.037 A 
HETATM   41  C2  UNL     1      29.046  56.022  60.609  1.00  0.00     0.070 A 
HETATM   42  C30 UNL     1      30.380  56.312  60.673  1.00  0.00     0.066 A 
BRANCH  41  43
HETATM   43  O1  UNL     1      28.067  56.758  61.249  1.00  0.00    -0.356 OA
HETATM   44  C1  UNL     1      28.456  57.844  62.052  1.00  0.00     0.210 C 
ENDBRANCH  41  43
ENDBRANCH  35  37
ENDBRANCH   1  35
TORSDOF 6
ENDMDL
MODEL 3
REMARK VINA RESULT: -7.038250092      4.242      8.532
REMARK  6 active torsions:
REMARK  status: ('A' for Active; 'I' for Inactive)
REMARK    1  A    between atoms: O1_2  and  C2_3 
REMARK    2  A    between atoms: C6_7  and  N1_8 
REMARK    3  A    between atoms: N1_8  and  C7_10 
REMARK    4  A    between atoms: C11_18  and  C12_19 
REMARK    5  A    between atoms: C17_24  and  C18_25 
REMARK       I    between atoms: C18_25  and  N4_27 
REMARK    6  A    between atoms: N4_27  and  C19_29 
ROOT
HETATM    1  C7  UNL     1      30.609  61.872  56.662  1.00  0.00     0.119 A 
HETATM    2  N2  UNL     1      29.942  62.412  57.701  1.00  0.00    -0.338 N 
ATOM      3  H2  UNL     1      29.103  62.953  57.493  1.00  0.00     0.168 HD
HETATM    4  C8  UNL     1      30.299  62.292  58.979  1.00  0.00     0.182 A 
HETATM    5  N3  UNL     1      31.416  61.573  59.250  1.00  0.00    -0.352 N 
ATOM      6  H3  UNL     1      31.722  61.458  60.217  1.00  0.00     0.166 HD
HETATM    7  C9  UNL     1      32.123  61.010  58.255  1.00  0.00     0.047 A 
HETATM    8  C10 UNL     1      33.261  60.275  58.514  1.00  0.00     0.042 A 
HETATM    9  C11 UNL     1      34.002  59.687  57.492  1.00  0.00    -0.023 A 
HETATM   10  C27 UNL     1      33.606  59.829  56.172  1.00  0.00     0.013 A 
HETATM   11  C28 UNL     1      32.453  60.572  55.899  1.00  0.00     0.018 A 
HETATM   12  C29 UNL     1      31.758  61.130  56.928  1.00  0.00     0.035 A 
ENDROOT
BRANCH   9  13
HETATM   13  C12 UNL     1      35.191  58.914  57.801  1.00  0.00    -0.013 A 
HETATM   14  C13 UNL     1      35.075  57.546  57.893  1.00  0.00    -0.050 A 
HETATM   15  C14 UNL     1      33.751  56.929  57.672  1.00  0.00     0.049 C 
HETATM   16  C15 UNL     1      36.192  56.773  58.188  1.00  0.00     0.009 A 
HETATM   17  C16 UNL     1      37.371  57.429  58.375  1.00  0.00     0.018 A 
HETATM   18  C17 UNL     1      37.521  58.819  58.288  1.00  0.00     0.039 A 
HETATM   19  C25 UNL     1      36.413  59.567  57.997  1.00  0.00    -0.035 A 
HETATM   20  C26 UNL     1      36.500  61.027  57.893  1.00  0.00     0.050 C 
BRANCH  18  21
HETATM   21  C18 UNL     1      38.807  59.408  58.506  1.00  0.00     0.270 C 
HETATM   22  O2  UNL     1      39.274  59.359  59.709  1.00  0.00    -0.267 OA
HETATM   23  N4  UNL     1      39.641  60.041  57.578  1.00  0.00    -0.155 N 
ATOM     24  H4  UNL     1      39.873  59.509  56.739  1.00  0.00     0.187 HD
BRANCH  23  25
HETATM   25  C19 UNL     1      40.146  61.222  57.666  1.00  0.00     0.685 A 
HETATM   26  N5  UNL     1      39.664  62.148  56.815  1.00  0.00    -0.196 N 
HETATM   27  C20 UNL     1      40.101  63.417  56.805  1.00  0.00     0.024 A 
ATOM     28  H5  UNL     1      38.938  61.875  56.152  1.00  0.00     0.184 HD
HETATM   29  C21 UNL     1      39.543  64.418  55.848  1.00  0.00     0.068 C 
HETATM   30  C22 UNL     1      41.097  63.781  57.717  1.00  0.00     0.050 A 
HETATM   31  C23 UNL     1      41.599  62.850  58.590  1.00  0.00     0.024 A 
HETATM   32  C24 UNL     1      42.644  63.243  59.545  1.00  0.00     0.068 C 
HETATM   33  N6  UNL     1      41.098  61.596  58.529  1.00  0.00    -0.196 N 
ATOM     34  H6  UNL     1      41.466  60.898  59.174  1.00  0.00     0.184 HD
ENDBRANCH  23  25
ENDBRANCH  18  21
ENDBRANCH   9  13
BRANCH   1  35
HETATM   35  N1  UNL     1      30.208  62.025  55.438  1.00  0.00    -0.342 N 
ATOM     36  H1  UNL     1      30.566  62.783  54.855  1.00  0.00     0.167 HD
BRANCH  35  37
HETATM   37  C6  UNL     1      29.252  61.098  54.936  1.00  0.00     0.036 A 
HETATM   38  C5  UNL     1      28.014  61.064  55.521  1.00  0.00     0.029 A 
HETATM   39  C4  UNL     1      27.055  60.168  55.053  1.00  0.00     0.005 A 
HETATM   40  C3  UNL     1      27.356  59.325  54.011  1.00  0.00     0.037 A 
HETATM   41  C2  UNL     1      28.612  59.342  53.398  1.00  0.00     0.070 A 
HETATM   42  C30 UNL     1      29.521  60.237  53.889  1.00  0.00     0.066 A 
BRANCH  41  43
HETATM   43  O1  UNL     1      28.871  58.478  52.352  1.00  0.00    -0.356 OA
HETATM   44  C1  UNL     1      29.605  58.951  51.251  1.00  0.00     0.210 C 
ENDBRANCH  41  43
ENDBRANCH  35  37
ENDBRANCH   1  35
TORSDOF 6
ENDMDL
MODEL 4
REMARK VINA RESULT: -7.032242611      3.182      5.527
REMARK  6 active torsions:
REMARK  status: ('A' for Active; 'I' for Inactive)
REMARK    1  A    between atoms: O1_2  and  C2_3 
REMARK    2  A    between atoms: C6_7  and  N1_8 
REMARK    3  A    between atoms: N1_8  and  C7_10 
REMARK    4  A    between atoms: C11_18  and  C12_19 
REMARK    5  A    between atoms: C17_24  and  C18_25 
REMARK       I    between atoms: C18_25  and  N4_27 
REMARK    6  A    between atoms: N4_27  and  C19_29 
ROOT
HETATM    1  C7  UNL     1      33.359  55.882  59.008  1.00  0.00     0.119 A 
HETATM    2  N2  UNL     1      33.813  54.782  58.378  1.00  0.00    -0.338 N 
ATOM      3  H2  UNL     1      33.617  53.877  58.806  1.00  0.00     0.168 HD
HETATM    4  C8  UNL     1      34.499  54.789  57.235  1.00  0.00     0.182 A 
HETATM    5  N3  UNL     1      34.757  55.993  56.669  1.00  0.00    -0.352 N 
ATOM      6  H3  UNL     1      35.279  56.040  55.794  1.00  0.00     0.166 HD
HETATM    7  C9  UNL     1      34.329  57.126  57.252  1.00  0.00     0.047 A 
HETATM    8  C10 UNL     1      34.583  58.359  56.690  1.00  0.00     0.042 A 
HETATM    9  C11 UNL     1      34.145  59.541  57.285  1.00  0.00    -0.023 A 
HETATM   10  C27 UNL     1      33.434  59.502  58.473  1.00  0.00     0.013 A 
HETATM   11  C28 UNL     1      33.171  58.256  59.051  1.00  0.00     0.018 A 
HETATM   12  C29 UNL     1      33.617  57.126  58.437  1.00  0.00     0.035 A 
ENDROOT
BRANCH   9  13
HETATM   13  C12 UNL     1      34.424  60.821  56.661  1.00  0.00    -0.013 A 
HETATM   14  C13 UNL     1      33.433  61.411  55.910  1.00  0.00    -0.050 A 
HETATM   15  C14 UNL     1      32.136  60.718  55.775  1.00  0.00     0.049 C 
HETATM   16  C15 UNL     1      33.663  62.638  55.297  1.00  0.00     0.009 A 
HETATM   17  C16 UNL     1      34.890  63.202  55.479  1.00  0.00     0.018 A 
HETATM   18  C17 UNL     1      35.917  62.627  56.236  1.00  0.00     0.039 A 
HETATM   19  C25 UNL     1      35.677  61.421  56.833  1.00  0.00    -0.035 A 
HETATM   20  C26 UNL     1      36.709  60.762  57.639  1.00  0.00     0.050 C 
BRANCH  18  21
HETATM   21  C18 UNL     1      37.172  63.305  56.359  1.00  0.00     0.270 C 
HETATM   22  O2  UNL     1      37.505  63.707  57.540  1.00  0.00    -0.267 OA
HETATM   23  N4  UNL     1      38.103  63.598  55.356  1.00  0.00    -0.155 N 
ATOM     24  H4  UNL     1      38.426  62.811  54.793  1.00  0.00     0.187 HD
BRANCH  23  25
HETATM   25  C19 UNL     1      38.596  64.751  55.066  1.00  0.00     0.685 A 
HETATM   26  N5  UNL     1      37.947  65.464  54.124  1.00  0.00    -0.196 N 
HETATM   27  C20 UNL     1      38.354  66.681  53.733  1.00  0.00     0.024 A 
ATOM     28  H5  UNL     1      37.115  65.062  53.693  1.00  0.00     0.184 HD
HETATM   29  C21 UNL     1      37.610  67.443  52.687  1.00  0.00     0.068 C 
HETATM   30  C22 UNL     1      39.496  67.222  54.331  1.00  0.00     0.050 A 
HETATM   31  C23 UNL     1      40.168  66.510  55.290  1.00  0.00     0.024 A 
HETATM   32  C24 UNL     1      41.368  67.087  55.914  1.00  0.00     0.068 C 
HETATM   33  N6  UNL     1      39.687  65.292  55.623  1.00  0.00    -0.196 N 
ATOM     34  H6  UNL     1      40.180  64.755  56.336  1.00  0.00     0.184 HD
ENDBRANCH  23  25
ENDBRANCH  18  21
ENDBRANCH   9  13
BRANCH   1  35
HETATM   35  N1  UNL     1      32.695  55.808  60.121  1.00  0.00    -0.342 N 
ATOM     36  H1  UNL     1      33.157  55.937  61.022  1.00  0.00     0.167 HD
BRANCH  35  37
HETATM   37  C6  UNL     1      31.299  55.541  60.039  1.00  0.00     0.036 A 
HETATM   38  C5  UNL     1      30.885  54.483  59.275  1.00  0.00     0.029 A 
HETATM   39  C4  UNL     1      29.526  54.195  59.174  1.00  0.00     0.005 A 
HETATM   40  C3  UNL     1      28.610  54.973  59.840  1.00  0.00     0.037 A 
HETATM   41  C2  UNL     1      29.009  56.058  60.626  1.00  0.00     0.070 A 
HETATM   42  C30 UNL     1      30.352  56.303  60.697  1.00  0.00     0.066 A 
BRANCH  41  43
HETATM   43  O1  UNL     1      28.053  56.813  61.279  1.00  0.00    -0.356 OA
HETATM   44  C1  UNL     1      27.086  56.152  62.055  1.00  0.00     0.210 C 
ENDBRANCH  41  43
ENDBRANCH  35  37
ENDBRANCH   1  35
TORSDOF 6
ENDMDL
MODEL 5
REMARK VINA RESULT: -6.784486734      8.179     12.645
REMARK  6 active torsions:
REMARK  status: ('A' for Active; 'I' for Inactive)
REMARK    1  A    between atoms: O1_2  and  C2_3 
REMARK    2  A    between atoms: C6_7  and  N1_8 
REMARK    3  A    between atoms: N1_8  and  C7_10 
REMARK    4  A    between atoms: C11_18  and  C12_19 
REMARK    5  A    between atoms: C17_24  and  C18_25 
REMARK       I    between atoms: C18_25  and  N4_27 
REMARK    6  A    between atoms: N4_27  and  C19_29 
ROOT
HETATM    1  C7  UNL     1      28.852  58.927  48.908  1.00  0.00     0.119 A 
HETATM    2  N2  UNL     1      29.018  59.558  50.087  1.00  0.00    -0.338 N 
ATOM      3  H2  UNL     1      28.330  60.266  50.344  1.00  0.00     0.168 HD
HETATM    4  C8  UNL     1      30.014  59.326  50.941  1.00  0.00     0.182 A 
HETATM    5  N3  UNL     1      30.926  58.385  50.596  1.00  0.00    -0.352 N 
ATOM      6  H3  UNL     1      31.703  58.179  51.223  1.00  0.00     0.166 HD
HETATM    7  C9  UNL     1      30.813  57.721  49.432  1.00  0.00     0.047 A 
HETATM    8  C10 UNL     1      31.732  56.761  49.065  1.00  0.00     0.042 A 
HETATM    9  C11 UNL     1      31.627  56.066  47.862  1.00  0.00    -0.023 A 
HETATM   10  C27 UNL     1      30.580  56.329  46.994  1.00  0.00     0.013 A 
HETATM   11  C28 UNL     1      29.642  57.302  47.357  1.00  0.00     0.018 A 
HETATM   12  C29 UNL     1      29.783  57.957  48.542  1.00  0.00     0.035 A 
ENDROOT
BRANCH   9  13
HETATM   13  C12 UNL     1      32.609  55.056  47.512  1.00  0.00    -0.013 A 
HETATM   14  C13 UNL     1      32.188  53.752  47.392  1.00  0.00    -0.050 A 
HETATM   15  C14 UNL     1      30.763  53.440  47.623  1.00  0.00     0.049 C 
HETATM   16  C15 UNL     1      33.100  52.756  47.057  1.00  0.00     0.009 A 
HETATM   17  C16 UNL     1      34.393  53.138  46.862  1.00  0.00     0.018 A 
HETATM   18  C17 UNL     1      34.850  54.456  46.977  1.00  0.00     0.039 A 
HETATM   19  C25 UNL     1      33.943  55.425  47.306  1.00  0.00    -0.035 A 
HETATM   20  C26 UNL     1      34.355  56.825  47.443  1.00  0.00     0.050 C 
BRANCH  18  21
HETATM   21  C18 UNL     1      36.234  54.748  46.753  1.00  0.00     0.270 C 
HETATM   22  O2  UNL     1      37.002  54.762  47.791  1.00  0.00    -0.267 OA
HETATM   23  N4  UNL     1      36.878  55.027  45.542  1.00  0.00    -0.155 N 
ATOM     24  H4  UNL     1      36.760  54.341  44.797  1.00  0.00     0.187 HD
BRANCH  23  25
HETATM   25  C19 UNL     1      37.604  56.054  45.266  1.00  0.00     0.685 A 
HETATM   26  N5  UNL     1      38.887  55.813  44.933  1.00  0.00    -0.196 N 
HETATM   27  C20 UNL     1      39.747  56.793  44.619  1.00  0.00     0.024 A 
ATOM     28  H5  UNL     1      39.217  54.848  44.919  1.00  0.00     0.184 HD
HETATM   29  C21 UNL     1      41.163  56.490  44.254  1.00  0.00     0.068 C 
HETATM   30  C22 UNL     1      39.285  58.113  44.642  1.00  0.00     0.050 A 
HETATM   31  C23 UNL     1      37.982  58.375  44.979  1.00  0.00     0.024 A 
HETATM   32  C24 UNL     1      37.505  59.765  44.999  1.00  0.00     0.068 C 
HETATM   33  N6  UNL     1      37.186  57.325  45.280  1.00  0.00    -0.196 N 
ATOM     34  H6  UNL     1      36.216  57.511  45.532  1.00  0.00     0.184 HD
ENDBRANCH  23  25
ENDBRANCH  18  21
ENDBRANCH   9  13
BRANCH   1  35
HETATM   35  N1  UNL     1      27.859  59.199  48.120  1.00  0.00    -0.342 N 
ATOM     36  H1  UNL     1      27.121  58.516  47.945  1.00  0.00     0.167 HD
BRANCH  35  37
HETATM   37  C6  UNL     1      27.835  60.483  47.508  1.00  0.00     0.036 A 
HETATM   38  C5  UNL     1      26.934  61.405  47.969  1.00  0.00     0.029 A 
HETATM   39  C4  UNL     1      26.886  62.672  47.392  1.00  0.00     0.005 A 
HETATM   40  C3  UNL     1      27.740  62.989  46.363  1.00  0.00     0.037 A 
HETATM   41  C2  UNL     1      28.669  62.065  45.876  1.00  0.00     0.070 A 
HETATM   42  C30 UNL     1      28.681  60.835  46.472  1.00  0.00     0.066 A 
BRANCH  41  43
HETATM   43  O1  UNL     1      29.510  62.426  44.840  1.00  0.00    -0.356 OA
HETATM   44  C1  UNL     1      30.027  61.419  44.008  1.00  0.00     0.210 C 
ENDBRANCH  41  43
ENDBRANCH  35  37
ENDBRANCH   1  35
TORSDOF 6
ENDMDL
