MODEL 1
REMARK VINA RESULT: -8.592458735      0.000      0.000
REMARK  10 active torsions:
REMARK  status: ('A' for Active; 'I' for Inactive)
REMARK       I    between atoms: C2_2  and  N1_4 
REMARK    1  A    between atoms: N1_4  and  C3_6 
REMARK    2  A    between atoms: C4_7  and  O2_8 
REMARK    3  A    between atoms: C6_12  and  C7_13 
REMARK    4  A    between atoms: C10_17  and  N2_18 
REMARK    5  A    between atoms: N2_18  and  C11_20 
REMARK    6  A    between atoms: C11_20  and  C12_26 
REMARK    7  A    between atoms: N3_21  and  N4_23 
REMARK    8  A    between atoms: N4_23  and  O5_24 
REMARK    9  A    between atoms: C12_26  and  N5_27 
REMARK   10  A    between atoms: C12_26  and  O6_31 
ROOT
HETATM    1  C3  UNL     1      30.635  66.838   3.050  1.00  0.00     0.109 C 
HETATM    2  C4  UNL     1      29.638  66.998   2.069  1.00  0.00     0.147 C 
HETATM    3  C5  UNL     1      28.956  68.176   1.757  1.00  0.00     0.220 C 
HETATM    4  O3  UNL     1      28.019  68.051   0.929  1.00  0.00    -0.284 OA
HETATM    5  C6  UNL     1      29.181  69.462   2.243  1.00  0.00     0.056 C 
HETATM    6  C8  UNL     1      29.920  69.836   3.364  1.00  0.00     0.037 C 
HETATM    7  C9  UNL     1      30.399  68.958   4.330  1.00  0.00     0.049 A 
HETATM    8  C10 UNL     1      30.640  69.271   5.650  1.00  0.00     0.140 A 
HETATM    9  N6  UNL     1      31.072  68.136   6.222  1.00  0.00    -0.243 N 
ATOM     10  H6  UNL     1      31.334  68.042   7.203  1.00  0.00     0.196 HD
HETATM   11  O7  UNL     1      31.107  67.175   5.349  1.00  0.00    -0.233 OA
HETATM   12  C13 UNL     1      30.714  67.596   4.176  1.00  0.00     0.142 A 
ENDROOT
BRANCH   8  13
HETATM   13  N2  UNL     1      30.466  70.422   6.151  1.00  0.00    -0.325 N 
ATOM     14  H2  UNL     1      31.285  71.026   6.216  1.00  0.00     0.169 HD
BRANCH  13  15
HETATM   15  C11 UNL     1      29.248  70.943   6.626  1.00  0.00     0.153 C 
HETATM   16  N3  UNL     1      28.351  71.428   5.835  1.00  0.00    -0.263 N 
ATOM     17  H3  UNL     1      28.515  71.440   4.829  1.00  0.00     0.186 HD
BRANCH  16  18
HETATM   18  N4  UNL     1      27.159  71.934   6.350  1.00  0.00     0.020 NA
BRANCH  18  19
HETATM   19  O5  UNL     1      26.923  73.204   5.975  1.00  0.00    -0.277 OA
ATOM     20  H5  UNL     1      26.120  73.555   6.340  1.00  0.00     0.240 HD
ENDBRANCH  18  19
ENDBRANCH  16  18
BRANCH  15  21
HETATM   21  C12 UNL     1      29.009  70.926   8.092  1.00  0.00     0.386 C 
BRANCH  21  22
HETATM   22  N5  UNL     1      27.912  70.015   8.427  1.00  0.00    -0.046 N 
ATOM     23  H53 UNL     1      27.287  69.867   7.634  1.00  0.00     0.277 HD
ATOM     24  H52 UNL     1      28.239  69.057   8.546  1.00  0.00     0.277 HD
ATOM     25  H51 UNL     1      27.406  70.346   9.249  1.00  0.00     0.277 HD
ENDBRANCH  21  22
BRANCH  21  26
HETATM   26  O6  UNL     1      28.644  72.216   8.469  1.00  0.00    -0.364 OA
ATOM     27  H6  UNL     1      29.388  72.602   8.917  1.00  0.00     0.212 HD
ENDBRANCH  21  26
ENDBRANCH  15  21
ENDBRANCH  13  15
ENDBRANCH   8  13
BRANCH   5  28
HETATM   28  C7  UNL     1      28.584  70.567   1.506  1.00  0.00     0.274 C 
HETATM   29  O4  UNL     1      28.795  71.754   1.847  1.00  0.00    -0.301 OA
ENDBRANCH   5  28
BRANCH   1  30
HETATM   30  N1  UNL     1      31.553  65.821   2.838  1.00  0.00    -0.323 N 
HETATM   31  C2  UNL     1      32.431  65.551   1.794  1.00  0.00     0.218 C 
HETATM   32  C1  UNL     1      33.330  64.346   1.870  1.00  0.00     0.117 C 
HETATM   33  O1  UNL     1      32.534  66.240   0.780  1.00  0.00    -0.274 OA
ATOM     34  H1  UNL     1      31.591  65.138   3.595  1.00  0.00     0.169 HD
ENDBRANCH   1  30
BRANCH   2  35
HETATM   35  O2  UNL     1      29.346  65.843   1.377  1.00  0.00    -0.355 OA
ATOM     36  H2  UNL     1      28.459  65.812   1.038  1.00  0.00     0.218 HD
ENDBRANCH   2  35
TORSDOF 10
ENDMDL
MODEL 2
REMARK VINA RESULT: -8.411054703      5.054      8.236
REMARK  10 active torsions:
REMARK  status: ('A' for Active; 'I' for Inactive)
REMARK       I    between atoms: C2_2  and  N1_4 
REMARK    1  A    between atoms: N1_4  and  C3_6 
REMARK    2  A    between atoms: C4_7  and  O2_8 
REMARK    3  A    between atoms: C6_12  and  C7_13 
REMARK    4  A    between atoms: C10_17  and  N2_18 
REMARK    5  A    between atoms: N2_18  and  C11_20 
REMARK    6  A    between atoms: C11_20  and  C12_26 
REMARK    7  A    between atoms: N3_21  and  N4_23 
REMARK    8  A    between atoms: N4_23  and  O5_24 
REMARK    9  A    between atoms: C12_26  and  N5_27 
REMARK   10  A    between atoms: C12_26  and  O6_31 
ROOT
HETATM    1  C3  UNL     1      29.669  65.825   0.661  1.00  0.00     0.109 C 
HETATM    2  C4  UNL     1      29.627  66.464   1.914  1.00  0.00     0.147 C 
HETATM    3  C5  UNL     1      30.637  66.475   2.879  1.00  0.00     0.220 C 
HETATM    4  O3  UNL     1      30.327  67.008   3.974  1.00  0.00    -0.284 OA
HETATM    5  C6  UNL     1      31.933  65.975   2.782  1.00  0.00     0.056 C 
HETATM    6  C8  UNL     1      32.439  65.086   1.835  1.00  0.00     0.037 C 
HETATM    7  C9  UNL     1      31.668  64.369   0.926  1.00  0.00     0.049 A 
HETATM    8  C10 UNL     1      32.005  63.153   0.374  1.00  0.00     0.140 A 
HETATM    9  N6  UNL     1      30.980  62.819  -0.426  1.00  0.00    -0.243 N 
ATOM     10  H6  UNL     1      30.929  61.964  -0.981  1.00  0.00     0.196 HD
HETATM   11  O7  UNL     1      30.063  63.738  -0.393  1.00  0.00    -0.233 OA
HETATM   12  C13 UNL     1      30.408  64.712   0.406  1.00  0.00     0.142 A 
ENDROOT
BRANCH   8  13
HETATM   13  N2  UNL     1      33.083  62.534   0.618  1.00  0.00    -0.325 N 
ATOM     14  H2  UNL     1      33.736  62.419  -0.158  1.00  0.00     0.169 HD
BRANCH  13  15
HETATM   15  C11 UNL     1      33.465  61.992   1.859  1.00  0.00     0.153 C 
HETATM   16  N3  UNL     1      32.693  61.209   2.535  1.00  0.00    -0.263 N 
ATOM     17  H3  UNL     1      31.772  60.966   2.171  1.00  0.00     0.186 HD
BRANCH  16  18
HETATM   18  N4  UNL     1      33.112  60.694   3.761  1.00  0.00     0.020 NA
BRANCH  18  19
HETATM   19  O5  UNL     1      33.318  59.366   3.729  1.00  0.00    -0.277 OA
ATOM     20  H5  UNL     1      34.238  59.135   3.668  1.00  0.00     0.240 HD
ENDBRANCH  18  19
ENDBRANCH  16  18
BRANCH  15  21
HETATM   21  C12 UNL     1      34.806  62.346   2.390  1.00  0.00     0.386 C 
BRANCH  21  22
HETATM   22  N5  UNL     1      35.593  61.139   2.656  1.00  0.00    -0.046 N 
ATOM     23  H53 UNL     1      35.029  60.408   3.091  1.00  0.00     0.277 HD
ATOM     24  H52 UNL     1      35.840  60.651   1.795  1.00  0.00     0.277 HD
ATOM     25  H51 UNL     1      36.418  61.361   3.214  1.00  0.00     0.277 HD
ENDBRANCH  21  22
BRANCH  21  26
HETATM   26  O6  UNL     1      34.612  63.022   3.592  1.00  0.00    -0.364 OA
ATOM     27  H6  UNL     1      34.966  62.478   4.284  1.00  0.00     0.212 HD
ENDBRANCH  21  26
ENDBRANCH  15  21
ENDBRANCH  13  15
ENDBRANCH   8  13
BRANCH   5  28
HETATM   28  C7  UNL     1      32.896  66.422   3.780  1.00  0.00     0.274 C 
HETATM   29  O4  UNL     1      33.978  65.812   3.944  1.00  0.00    -0.301 OA
ENDBRANCH   5  28
BRANCH   1  30
HETATM   30  N1  UNL     1      28.875  66.369  -0.337  1.00  0.00    -0.323 N 
HETATM   31  C2  UNL     1      28.994  67.520  -1.109  1.00  0.00     0.218 C 
HETATM   32  C1  UNL     1      27.949  67.833  -2.145  1.00  0.00     0.117 C 
HETATM   33  O1  UNL     1      29.916  68.329  -1.008  1.00  0.00    -0.274 OA
ATOM     34  H1  UNL     1      28.042  65.818  -0.547  1.00  0.00     0.169 HD
ENDBRANCH   1  30
BRANCH   2  35
HETATM   35  O2  UNL     1      28.448  67.132   2.161  1.00  0.00    -0.355 OA
ATOM     36  H2  UNL     1      28.479  67.700   2.922  1.00  0.00     0.218 HD
ENDBRANCH   2  35
TORSDOF 10
ENDMDL
MODEL 3
REMARK VINA RESULT: -8.212267792      2.386      7.264
REMARK  10 active torsions:
REMARK  status: ('A' for Active; 'I' for Inactive)
REMARK       I    between atoms: C2_2  and  N1_4 
REMARK    1  A    between atoms: N1_4  and  C3_6 
REMARK    2  A    between atoms: C4_7  and  O2_8 
REMARK    3  A    between atoms: C6_12  and  C7_13 
REMARK    4  A    between atoms: C10_17  and  N2_18 
REMARK    5  A    between atoms: N2_18  and  C11_20 
REMARK    6  A    between atoms: C11_20  and  C12_26 
REMARK    7  A    between atoms: N3_21  and  N4_23 
REMARK    8  A    between atoms: N4_23  and  O5_24 
REMARK    9  A    between atoms: C12_26  and  N5_27 
REMARK   10  A    between atoms: C12_26  and  O6_31 
ROOT
HETATM    1  C3  UNL     1      28.101  71.750   3.883  1.00  0.00     0.109 C 
HETATM    2  C4  UNL     1      27.998  71.928   5.275  1.00  0.00     0.147 C 
HETATM    3  C5  UNL     1      28.795  71.330   6.254  1.00  0.00     0.220 C 
HETATM    4  O3  UNL     1      28.438  71.541   7.440  1.00  0.00    -0.284 OA
HETATM    5  C6  UNL     1      29.925  70.534   6.083  1.00  0.00     0.056 C 
HETATM    6  C8  UNL     1      30.356  69.897   4.921  1.00  0.00     0.037 C 
HETATM    7  C9  UNL     1      29.604  69.773   3.757  1.00  0.00     0.049 A 
HETATM    8  C10 UNL     1      29.725  68.762   2.830  1.00  0.00     0.140 A 
HETATM    9  N6  UNL     1      28.806  69.020   1.886  1.00  0.00    -0.243 N 
ATOM     10  H6  UNL     1      28.645  68.447   1.057  1.00  0.00     0.196 HD
HETATM   11  O7  UNL     1      28.150  70.103   2.178  1.00  0.00    -0.233 OA
HETATM   12  C13 UNL     1      28.578  70.618   3.300  1.00  0.00     0.142 A 
ENDROOT
BRANCH   8  13
HETATM   13  N2  UNL     1      30.559  67.813   2.916  1.00  0.00    -0.325 N 
ATOM     14  H2  UNL     1      31.401  67.985   3.467  1.00  0.00     0.169 HD
BRANCH  13  15
HETATM   15  C11 UNL     1      30.434  66.542   2.323  1.00  0.00     0.153 C 
HETATM   16  N3  UNL     1      29.408  65.786   2.527  1.00  0.00    -0.263 N 
ATOM     17  H3  UNL     1      28.654  66.105   3.135  1.00  0.00     0.186 HD
BRANCH  16  18
HETATM   18  N4  UNL     1      29.325  64.534   1.919  1.00  0.00     0.020 NA
BRANCH  18  19
HETATM   19  O5  UNL     1      28.481  63.699   2.550  1.00  0.00    -0.277 OA
ATOM     20  H5  UNL     1      28.759  62.792   2.511  1.00  0.00     0.240 HD
ENDBRANCH  18  19
ENDBRANCH  16  18
BRANCH  15  21
HETATM   21  C12 UNL     1      31.531  66.076   1.437  1.00  0.00     0.386 C 
BRANCH  21  22
HETATM   22  N5  UNL     1      31.019  65.752   0.104  1.00  0.00    -0.046 N 
ATOM     23  H53 UNL     1      30.502  64.872   0.101  1.00  0.00     0.277 HD
ATOM     24  H52 UNL     1      30.261  66.377  -0.171  1.00  0.00     0.277 HD
ATOM     25  H51 UNL     1      31.774  65.750  -0.582  1.00  0.00     0.277 HD
ENDBRANCH  21  22
BRANCH  21  26
HETATM   26  O6  UNL     1      32.059  64.917   2.003  1.00  0.00    -0.364 OA
ATOM     27  H6  UNL     1      32.609  64.507   1.347  1.00  0.00     0.212 HD
ENDBRANCH  21  26
ENDBRANCH  15  21
ENDBRANCH  13  15
ENDBRANCH   8  13
BRANCH   5  28
HETATM   28  C7  UNL     1      30.778  70.331   7.246  1.00  0.00     0.274 C 
HETATM   29  O4  UNL     1      31.766  69.563   7.190  1.00  0.00    -0.301 OA
ENDBRANCH   5  28
BRANCH   1  30
HETATM   30  N1  UNL     1      27.651  72.796   3.091  1.00  0.00    -0.323 N 
HETATM   31  C2  UNL     1      26.381  73.180   2.674  1.00  0.00     0.218 C 
HETATM   32  C1  UNL     1      26.219  74.401   1.810  1.00  0.00     0.117 C 
HETATM   33  O1  UNL     1      25.347  72.581   2.965  1.00  0.00    -0.274 OA
ATOM     34  H1  UNL     1      28.398  73.402   2.747  1.00  0.00     0.169 HD
ENDBRANCH   1  30
BRANCH   2  35
HETATM   35  O2  UNL     1      26.993  72.791   5.654  1.00  0.00    -0.355 OA
ATOM     36  H2  UNL     1      26.956  72.950   6.591  1.00  0.00     0.218 HD
ENDBRANCH   2  35
TORSDOF 10
ENDMDL
MODEL 4
REMARK VINA RESULT: -8.123700497      4.990      8.437
REMARK  10 active torsions:
REMARK  status: ('A' for Active; 'I' for Inactive)
REMARK       I    between atoms: C2_2  and  N1_4 
REMARK    1  A    between atoms: N1_4  and  C3_6 
REMARK    2  A    between atoms: C4_7  and  O2_8 
REMARK    3  A    between atoms: C6_12  and  C7_13 
REMARK    4  A    between atoms: C10_17  and  N2_18 
REMARK    5  A    between atoms: N2_18  and  C11_20 
REMARK    6  A    between atoms: C11_20  and  C12_26 
REMARK    7  A    between atoms: N3_21  and  N4_23 
REMARK    8  A    between atoms: N4_23  and  O5_24 
REMARK    9  A    between atoms: C12_26  and  N5_27 
REMARK   10  A    between atoms: C12_26  and  O6_31 
ROOT
HETATM    1  C3  UNL     1      30.444  65.905   0.506  1.00  0.00     0.109 C 
HETATM    2  C4  UNL     1      29.823  66.552   1.590  1.00  0.00     0.147 C 
HETATM    3  C5  UNL     1      30.370  66.770   2.856  1.00  0.00     0.220 C 
HETATM    4  O3  UNL     1      29.583  67.260   3.704  1.00  0.00    -0.284 OA
HETATM    5  C6  UNL     1      31.667  66.514   3.295  1.00  0.00     0.056 C 
HETATM    6  C8  UNL     1      32.633  65.713   2.689  1.00  0.00     0.037 C 
HETATM    7  C9  UNL     1      32.396  64.847   1.627  1.00  0.00     0.049 A 
HETATM    8  C10 UNL     1      33.111  63.702   1.351  1.00  0.00     0.140 A 
HETATM    9  N6  UNL     1      32.539  63.168   0.260  1.00  0.00    -0.243 N 
ATOM     10  H6  UNL     1      32.843  62.306  -0.194  1.00  0.00     0.196 HD
HETATM   11  O7  UNL     1      31.543  63.903  -0.133  1.00  0.00    -0.233 OA
HETATM   12  C13 UNL     1      31.394  64.942   0.645  1.00  0.00     0.142 A 
ENDROOT
BRANCH   8  13
HETATM   13  N2  UNL     1      34.098  63.298   2.034  1.00  0.00    -0.325 N 
ATOM     14  H2  UNL     1      34.514  63.965   2.686  1.00  0.00     0.169 HD
BRANCH  13  15
HETATM   15  C11 UNL     1      34.675  62.015   1.979  1.00  0.00     0.153 C 
HETATM   16  N3  UNL     1      35.466  61.657   1.025  1.00  0.00    -0.263 N 
ATOM     17  H3  UNL     1      35.691  62.314   0.278  1.00  0.00     0.186 HD
BRANCH  16  18
HETATM   18  N4  UNL     1      36.015  60.376   1.009  1.00  0.00     0.020 NA
BRANCH  18  19
HETATM   19  O5  UNL     1      36.253  59.921  -0.233  1.00  0.00    -0.277 OA
ATOM     20  H5  UNL     1      35.539  59.402  -0.581  1.00  0.00     0.240 HD
ENDBRANCH  18  19
ENDBRANCH  16  18
BRANCH  15  21
HETATM   21  C12 UNL     1      34.347  61.058   3.066  1.00  0.00     0.386 C 
BRANCH  21  22
HETATM   22  N5  UNL     1      32.908  60.786   3.101  1.00  0.00    -0.046 N 
ATOM     23  H53 UNL     1      32.544  60.799   4.054  1.00  0.00     0.277 HD
ATOM     24  H52 UNL     1      32.368  61.562   2.719  1.00  0.00     0.277 HD
ATOM     25  H51 UNL     1      32.695  59.908   2.627  1.00  0.00     0.277 HD
ENDBRANCH  21  22
BRANCH  21  26
HETATM   26  O6  UNL     1      34.715  61.654   4.270  1.00  0.00    -0.364 OA
ATOM     27  H6  UNL     1      34.504  61.042   4.965  1.00  0.00     0.212 HD
ENDBRANCH  21  26
ENDBRANCH  15  21
ENDBRANCH  13  15
ENDBRANCH   8  13
BRANCH   5  28
HETATM   28  C7  UNL     1      32.088  67.152   4.535  1.00  0.00     0.274 C 
HETATM   29  O4  UNL     1      32.080  66.519   5.616  1.00  0.00    -0.301 OA
ENDBRANCH   5  28
BRANCH   1  30
HETATM   30  N1  UNL     1      30.016  66.272  -0.762  1.00  0.00    -0.323 N 
HETATM   31  C2  UNL     1      28.943  65.862  -1.546  1.00  0.00     0.218 C 
HETATM   32  C1  UNL     1      28.736  66.476  -2.904  1.00  0.00     0.117 C 
HETATM   33  O1  UNL     1      28.123  65.009  -1.207  1.00  0.00    -0.274 OA
ATOM     34  H1  UNL     1      30.602  66.980  -1.204  1.00  0.00     0.169 HD
ENDBRANCH   1  30
BRANCH   2  35
HETATM   35  O2  UNL     1      28.547  66.997   1.318  1.00  0.00    -0.355 OA
ATOM     36  H2  UNL     1      28.012  67.126   2.092  1.00  0.00     0.218 HD
ENDBRANCH   2  35
TORSDOF 10
ENDMDL
MODEL 5
REMARK VINA RESULT: -8.016425549      2.433      7.228
REMARK  10 active torsions:
REMARK  status: ('A' for Active; 'I' for Inactive)
REMARK       I    between atoms: C2_2  and  N1_4 
REMARK    1  A    between atoms: N1_4  and  C3_6 
REMARK    2  A    between atoms: C4_7  and  O2_8 
REMARK    3  A    between atoms: C6_12  and  C7_13 
REMARK    4  A    between atoms: C10_17  and  N2_18 
REMARK    5  A    between atoms: N2_18  and  C11_20 
REMARK    6  A    between atoms: C11_20  and  C12_26 
REMARK    7  A    between atoms: N3_21  and  N4_23 
REMARK    8  A    between atoms: N4_23  and  O5_24 
REMARK    9  A    between atoms: C12_26  and  N5_27 
REMARK   10  A    between atoms: C12_26  and  O6_31 
ROOT
HETATM    1  C3  UNL     1      28.409  71.230   3.605  1.00  0.00     0.109 C 
HETATM    2  C4  UNL     1      28.419  71.565   4.971  1.00  0.00     0.147 C 
HETATM    3  C5  UNL     1      29.248  71.023   5.956  1.00  0.00     0.220 C 
HETATM    4  O3  UNL     1      28.993  71.387   7.132  1.00  0.00    -0.284 OA
HETATM    5  C6  UNL     1      30.313  70.139   5.802  1.00  0.00     0.056 C 
HETATM    6  C8  UNL     1      30.618  69.351   4.693  1.00  0.00     0.037 C 
HETATM    7  C9  UNL     1      29.777  69.153   3.604  1.00  0.00     0.049 A 
HETATM    8  C10 UNL     1      29.767  68.042   2.790  1.00  0.00     0.140 A 
HETATM    9  N6  UNL     1      28.798  68.258   1.887  1.00  0.00    -0.243 N 
ATOM     10  H6  UNL     1      28.543  67.611   1.140  1.00  0.00     0.196 HD
HETATM   11  O7  UNL     1      28.233  69.408   2.098  1.00  0.00    -0.233 OA
HETATM   12  C13 UNL     1      28.773  70.012   3.123  1.00  0.00     0.142 A 
ENDROOT
BRANCH   8  13
HETATM   13  N2  UNL     1      30.547  67.052   2.928  1.00  0.00    -0.325 N 
ATOM     14  H2  UNL     1      30.884  66.857   3.871  1.00  0.00     0.169 HD
BRANCH  13  15
HETATM   15  C11 UNL     1      30.990  66.197   1.902  1.00  0.00     0.153 C 
HETATM   16  N3  UNL     1      32.125  66.361   1.311  1.00  0.00    -0.263 N 
ATOM     17  H3  UNL     1      32.734  67.132   1.585  1.00  0.00     0.186 HD
BRANCH  16  18
HETATM   18  N4  UNL     1      32.524  65.490   0.299  1.00  0.00     0.020 NA
BRANCH  18  19
HETATM   19  O5  UNL     1      33.849  65.524   0.069  1.00  0.00    -0.277 OA
ATOM     20  H5  UNL     1      34.362  65.563   0.867  1.00  0.00     0.240 HD
ENDBRANCH  18  19
ENDBRANCH  16  18
BRANCH  15  21
HETATM   21  C12 UNL     1      30.104  65.074   1.501  1.00  0.00     0.386 C 
BRANCH  21  22
HETATM   22  N5  UNL     1      29.476  65.346   0.206  1.00  0.00    -0.046 N 
ATOM     23  H53 UNL     1      28.563  65.790   0.314  1.00  0.00     0.277 HD
ATOM     24  H52 UNL     1      29.953  66.096  -0.295  1.00  0.00     0.277 HD
ATOM     25  H51 UNL     1      29.418  64.495  -0.353  1.00  0.00     0.277 HD
ENDBRANCH  21  22
BRANCH  21  26
HETATM   26  O6  UNL     1      29.104  64.968   2.465  1.00  0.00    -0.364 OA
ATOM     27  H6  UNL     1      28.451  64.366   2.131  1.00  0.00     0.212 HD
ENDBRANCH  21  26
ENDBRANCH  15  21
ENDBRANCH  13  15
ENDBRANCH   8  13
BRANCH   5  28
HETATM   28  C7  UNL     1      31.235  70.005   6.922  1.00  0.00     0.274 C 
HETATM   29  O4  UNL     1      32.255  69.284   6.829  1.00  0.00    -0.301 OA
ENDBRANCH   5  28
BRANCH   1  30
HETATM   30  N1  UNL     1      27.966  72.213   2.731  1.00  0.00    -0.323 N 
HETATM   31  C2  UNL     1      26.694  72.636   2.360  1.00  0.00     0.218 C 
HETATM   32  C1  UNL     1      26.543  73.764   1.376  1.00  0.00     0.117 C 
HETATM   33  O1  UNL     1      25.650  72.145   2.786  1.00  0.00    -0.274 OA
ATOM     34  H1  UNL     1      28.721  72.724   2.271  1.00  0.00     0.169 HD
ENDBRANCH   1  30
BRANCH   2  35
HETATM   35  O2  UNL     1      27.499  72.531   5.317  1.00  0.00    -0.355 OA
ATOM     36  H2  UNL     1      27.782  73.095   6.027  1.00  0.00     0.218 HD
ENDBRANCH   2  35
TORSDOF 10
ENDMDL
