MODEL 1
REMARK VINA RESULT: -8.886823765      0.000      0.000
REMARK  6 active torsions:
REMARK  status: ('A' for Active; 'I' for Inactive)
REMARK    1  A    between atoms: N1_1  and  S1_4 
REMARK    2  A    between atoms: S1_4  and  C1_7 
REMARK    3  A    between atoms: C5_11  and  N2_12 
REMARK    4  A    between atoms: N3_14  and  C6_16 
REMARK    5  A    between atoms: C8_23  and  N6_24 
REMARK    6  A    between atoms: N6_24  and  O4_26 
ROOT
HETATM    1  C6  UNL     1      32.664  65.160   1.922  1.00  0.00     0.194 C 
HETATM    2  N4  UNL     1      32.278  64.534   0.780  1.00  0.00    -0.288 N 
ATOM      3  H4  UNL     1      32.014  65.120  -0.013  1.00  0.00     0.172 HD
HETATM    4  C7  UNL     1      32.217  63.188   0.615  1.00  0.00     0.340 C 
HETATM    5  O3  UNL     1      31.459  62.737  -0.272  1.00  0.00    -0.246 OA
HETATM    6  N5  UNL     1      32.879  62.228   1.293  1.00  0.00    -0.139 N 
ATOM      7  H5  UNL     1      32.587  61.268   1.114  1.00  0.00     0.189 HD
HETATM    8  C8  UNL     1      33.879  62.390   2.177  1.00  0.00     0.708 C 
HETATM    9  N7  UNL     1      34.146  63.474   2.919  1.00  0.00    -0.151 N 
ATOM     10  H7  UNL     1      34.835  63.342   3.660  1.00  0.00     0.188 HD
HETATM   11  C9  UNL     1      33.629  64.713   2.818  1.00  0.00     0.305 C 
HETATM   12  O5  UNL     1      34.064  65.575   3.624  1.00  0.00    -0.263 OA
ENDROOT
BRANCH   1  13
HETATM   13  N3  UNL     1      32.060  66.377   2.275  1.00  0.00    -0.280 N 
HETATM   14  N2  UNL     1      31.251  66.506   3.247  1.00  0.00    -0.299 N 
ATOM     15  H2  UNL     1      31.018  65.688   3.810  1.00  0.00     0.187 HD
ATOM     16  H3  UNL     1      32.282  67.204   1.721  1.00  0.00     0.188 HD
BRANCH  14  17
HETATM   17  C5  UNL     1      30.662  67.760   3.568  1.00  0.00     0.049 A 
HETATM   18  C4  UNL     1      30.007  68.489   2.600  1.00  0.00     0.031 A 
HETATM   19  C3  UNL     1      29.424  69.710   2.878  1.00  0.00     0.004 A 
HETATM   20  C2  UNL     1      29.482  70.249   4.162  1.00  0.00     0.025 A 
HETATM   21  C1  UNL     1      30.138  69.523   5.135  1.00  0.00     0.081 A 
HETATM   22  C10 UNL     1      30.713  68.306   4.837  1.00  0.00     0.056 A 
BRANCH  21  23
HETATM   23  S1  UNL     1      30.213  70.196   6.748  1.00  0.00     0.256 S 
HETATM   24  O1  UNL     1      30.282  71.706   6.640  1.00  0.00    -0.201 OA
HETATM   25  O2  UNL     1      31.411  69.739   7.504  1.00  0.00    -0.201 OA
BRANCH  23  26
HETATM   26  N1  UNL     1      28.737  69.814   7.583  1.00  0.00    -0.324 N 
ATOM     27  H12 UNL     1      28.032  70.486   7.883  1.00  0.00     0.169 HD
ATOM     28  H11 UNL     1      28.720  68.802   7.709  1.00  0.00     0.169 HD
ENDBRANCH  23  26
ENDBRANCH  21  23
ENDBRANCH  14  17
ENDBRANCH   1  13
BRANCH   8  29
HETATM   29  N6  UNL     1      34.696  61.391   2.350  1.00  0.00    -0.098 N 
ATOM     30  H6  UNL     1      35.680  61.504   2.107  1.00  0.00     0.213 HD
BRANCH  29  31
HETATM   31  O4  UNL     1      34.263  60.196   2.850  1.00  0.00    -0.276 OA
ATOM     32  H4  UNL     1      33.742  59.600   2.326  1.00  0.00     0.245 HD
ENDBRANCH  29  31
ENDBRANCH   8  29
TORSDOF 6
ENDMDL
MODEL 2
REMARK VINA RESULT: -8.875009849      2.051      2.459
REMARK  6 active torsions:
REMARK  status: ('A' for Active; 'I' for Inactive)
REMARK    1  A    between atoms: N1_1  and  S1_4 
REMARK    2  A    between atoms: S1_4  and  C1_7 
REMARK    3  A    between atoms: C5_11  and  N2_12 
REMARK    4  A    between atoms: N3_14  and  C6_16 
REMARK    5  A    between atoms: C8_23  and  N6_24 
REMARK    6  A    between atoms: N6_24  and  O4_26 
ROOT
HETATM    1  C6  UNL     1      32.665  65.090   1.922  1.00  0.00     0.194 C 
HETATM    2  N4  UNL     1      32.198  64.696   0.709  1.00  0.00    -0.288 N 
ATOM      3  H4  UNL     1      31.962  65.424   0.034  1.00  0.00     0.172 HD
HETATM    4  C7  UNL     1      32.021  63.405   0.327  1.00  0.00     0.340 C 
HETATM    5  O3  UNL     1      31.205  63.168  -0.590  1.00  0.00    -0.246 OA
HETATM    6  N5  UNL     1      32.620  62.297   0.811  1.00  0.00    -0.139 N 
ATOM      7  H5  UNL     1      32.245  61.405   0.489  1.00  0.00     0.189 HD
HETATM    8  C8  UNL     1      33.653  62.232   1.668  1.00  0.00     0.708 C 
HETATM    9  N7  UNL     1      34.030  63.153   2.568  1.00  0.00    -0.151 N 
ATOM     10  H7  UNL     1      34.724  62.847   3.249  1.00  0.00     0.188 HD
HETATM   11  C9  UNL     1      33.614  64.427   2.692  1.00  0.00     0.305 C 
HETATM   12  O5  UNL     1      34.140  65.106   3.611  1.00  0.00    -0.263 OA
ENDROOT
BRANCH   1  13
HETATM   13  N3  UNL     1      32.173  66.275   2.494  1.00  0.00    -0.280 N 
HETATM   14  N2  UNL     1      31.410  66.301   3.510  1.00  0.00    -0.299 N 
ATOM     15  H2  UNL     1      31.132  65.422   3.945  1.00  0.00     0.187 HD
ATOM     16  H3  UNL     1      32.442  67.163   2.070  1.00  0.00     0.188 HD
BRANCH  14  17
HETATM   17  C5  UNL     1      30.936  67.525   4.056  1.00  0.00     0.049 A 
HETATM   18  C4  UNL     1      31.050  67.774   5.407  1.00  0.00     0.031 A 
HETATM   19  C3  UNL     1      30.601  68.952   5.971  1.00  0.00     0.004 A 
HETATM   20  C2  UNL     1      30.009  69.937   5.183  1.00  0.00     0.025 A 
HETATM   21  C1  UNL     1      29.892  69.692   3.829  1.00  0.00     0.081 A 
HETATM   22  C10 UNL     1      30.347  68.510   3.285  1.00  0.00     0.056 A 
BRANCH  21  23
HETATM   23  S1  UNL     1      29.150  70.926   2.835  1.00  0.00     0.256 S 
HETATM   24  O1  UNL     1      28.932  72.164   3.682  1.00  0.00    -0.201 OA
HETATM   25  O2  UNL     1      27.830  70.507   2.293  1.00  0.00    -0.201 OA
BRANCH  23  26
HETATM   26  N1  UNL     1      30.258  71.366   1.570  1.00  0.00    -0.324 N 
ATOM     27  H12 UNL     1      30.293  72.268   1.095  1.00  0.00     0.169 HD
ATOM     28  H11 UNL     1      30.855  70.556   1.402  1.00  0.00     0.169 HD
ENDBRANCH  23  26
ENDBRANCH  21  23
ENDBRANCH  14  17
ENDBRANCH   1  13
BRANCH   8  29
HETATM   29  N6  UNL     1      34.390  61.158   1.642  1.00  0.00    -0.098 N 
ATOM     30  H6  UNL     1      35.041  61.018   0.869  1.00  0.00     0.213 HD
BRANCH  29  31
HETATM   31  O4  UNL     1      34.309  60.216   2.627  1.00  0.00    -0.276 OA
ATOM     32  H4  UNL     1      34.541  59.309   2.465  1.00  0.00     0.245 HD
ENDBRANCH  29  31
ENDBRANCH   8  29
TORSDOF 6
ENDMDL
MODEL 3
REMARK VINA RESULT: -8.598053647      3.188      3.765
REMARK  6 active torsions:
REMARK  status: ('A' for Active; 'I' for Inactive)
REMARK    1  A    between atoms: N1_1  and  S1_4 
REMARK    2  A    between atoms: S1_4  and  C1_7 
REMARK    3  A    between atoms: C5_11  and  N2_12 
REMARK    4  A    between atoms: N3_14  and  C6_16 
REMARK    5  A    between atoms: C8_23  and  N6_24 
REMARK    6  A    between atoms: N6_24  and  O4_26 
ROOT
HETATM    1  C6  UNL     1      29.635  66.654   2.084  1.00  0.00     0.194 C 
HETATM    2  N4  UNL     1      28.770  65.618   2.233  1.00  0.00    -0.288 N 
ATOM      3  H4  UNL     1      27.824  65.834   2.548  1.00  0.00     0.172 HD
HETATM    4  C7  UNL     1      29.070  64.315   1.995  1.00  0.00     0.340 C 
HETATM    5  O3  UNL     1      28.384  63.438   2.565  1.00  0.00    -0.246 OA
HETATM    6  N5  UNL     1      30.038  63.808   1.204  1.00  0.00    -0.139 N 
ATOM      7  H5  UNL     1      30.193  62.802   1.271  1.00  0.00     0.189 HD
HETATM    8  C8  UNL     1      30.821  64.473   0.338  1.00  0.00     0.708 C 
HETATM    9  N7  UNL     1      31.154  65.772   0.367  1.00  0.00    -0.151 N 
ATOM     10  H7  UNL     1      31.901  66.050  -0.270  1.00  0.00     0.188 HD
HETATM   11  C9  UNL     1      30.636  66.757   1.124  1.00  0.00     0.305 C 
HETATM   12  O5  UNL     1      31.105  67.911   0.949  1.00  0.00    -0.263 OA
ENDROOT
BRANCH   1  13
HETATM   13  N3  UNL     1      29.550  67.749   2.958  1.00  0.00    -0.280 N 
HETATM   14  N2  UNL     1      30.320  67.914   3.956  1.00  0.00    -0.299 N 
ATOM     15  H2  UNL     1      31.044  67.221   4.144  1.00  0.00     0.187 HD
ATOM     16  H3  UNL     1      28.831  68.451   2.783  1.00  0.00     0.188 HD
BRANCH  14  17
HETATM   17  C5  UNL     1      30.198  69.040   4.815  1.00  0.00     0.049 A 
HETATM   18  C4  UNL     1      31.034  69.179   5.903  1.00  0.00     0.031 A 
HETATM   19  C3  UNL     1      30.943  70.260   6.757  1.00  0.00     0.004 A 
HETATM   20  C2  UNL     1      29.992  71.256   6.546  1.00  0.00     0.025 A 
HETATM   21  C1  UNL     1      29.152  71.121   5.458  1.00  0.00     0.081 A 
HETATM   22  C10 UNL     1      29.259  70.034   4.616  1.00  0.00     0.056 A 
BRANCH  21  23
HETATM   23  S1  UNL     1      27.956  72.369   5.188  1.00  0.00     0.256 S 
HETATM   24  O1  UNL     1      28.614  73.520   4.452  1.00  0.00    -0.201 OA
HETATM   25  O2  UNL     1      27.391  72.904   6.457  1.00  0.00    -0.201 OA
BRANCH  23  26
HETATM   26  N1  UNL     1      26.718  71.740   4.143  1.00  0.00    -0.324 N 
ATOM     27  H12 UNL     1      26.686  71.843   3.129  1.00  0.00     0.169 HD
ATOM     28  H11 UNL     1      26.044  71.258   4.737  1.00  0.00     0.169 HD
ENDBRANCH  23  26
ENDBRANCH  21  23
ENDBRANCH  14  17
ENDBRANCH   1  13
BRANCH   8  29
HETATM   29  N6  UNL     1      31.328  63.799  -0.655  1.00  0.00    -0.098 N 
ATOM     30  H6  UNL     1      31.625  64.295  -1.495  1.00  0.00     0.213 HD
BRANCH  29  31
HETATM   31  O4  UNL     1      31.471  62.443  -0.594  1.00  0.00    -0.276 OA
ATOM     32  H4  UNL     1      32.110  62.037  -0.019  1.00  0.00     0.245 HD
ENDBRANCH  29  31
ENDBRANCH   8  29
TORSDOF 6
ENDMDL
MODEL 4
REMARK VINA RESULT: -8.577571948      2.832      8.131
REMARK  6 active torsions:
REMARK  status: ('A' for Active; 'I' for Inactive)
REMARK    1  A    between atoms: N1_1  and  S1_4 
REMARK    2  A    between atoms: S1_4  and  C1_7 
REMARK    3  A    between atoms: C5_11  and  N2_12 
REMARK    4  A    between atoms: N3_14  and  C6_16 
REMARK    5  A    between atoms: C8_23  and  N6_24 
REMARK    6  A    between atoms: N6_24  and  O4_26 
ROOT
HETATM    1  C6  UNL     1      30.058  68.947   4.499  1.00  0.00     0.194 C 
HETATM    2  N4  UNL     1      29.288  69.945   3.993  1.00  0.00    -0.288 N 
ATOM      3  H4  UNL     1      28.772  69.753   3.134  1.00  0.00     0.172 HD
HETATM    4  C7  UNL     1      29.153  71.178   4.544  1.00  0.00     0.340 C 
HETATM    5  O3  UNL     1      28.802  72.121   3.802  1.00  0.00    -0.246 OA
HETATM    6  N5  UNL     1      29.351  71.550   5.826  1.00  0.00    -0.139 N 
ATOM      7  H5  UNL     1      29.337  72.553   6.011  1.00  0.00     0.189 HD
HETATM    8  C8  UNL     1      29.565  70.753   6.887  1.00  0.00     0.708 C 
HETATM    9  N7  UNL     1      30.071  69.512   6.889  1.00  0.00    -0.151 N 
ATOM     10  H7  UNL     1      30.325  69.140   7.805  1.00  0.00     0.188 HD
HETATM   11  C9  UNL     1      30.288  68.689   5.846  1.00  0.00     0.305 C 
HETATM   12  O5  UNL     1      30.753  67.551   6.111  1.00  0.00    -0.263 OA
ENDROOT
BRANCH   1  13
HETATM   13  N3  UNL     1      30.704  68.065   3.618  1.00  0.00    -0.280 N 
HETATM   14  N2  UNL     1      30.114  67.117   3.012  1.00  0.00    -0.299 N 
ATOM     15  H2  UNL     1      29.116  66.975   3.165  1.00  0.00     0.187 HD
ATOM     16  H3  UNL     1      31.703  68.194   3.455  1.00  0.00     0.188 HD
BRANCH  14  17
HETATM   17  C5  UNL     1      30.810  66.248   2.127  1.00  0.00     0.049 A 
HETATM   18  C4  UNL     1      30.212  65.819   0.961  1.00  0.00     0.031 A 
HETATM   19  C3  UNL     1      30.859  64.976   0.080  1.00  0.00     0.004 A 
HETATM   20  C2  UNL     1      32.151  64.526   0.344  1.00  0.00     0.025 A 
HETATM   21  C1  UNL     1      32.753  64.952   1.511  1.00  0.00     0.081 A 
HETATM   22  C10 UNL     1      32.091  65.794   2.379  1.00  0.00     0.056 A 
BRANCH  21  23
HETATM   23  S1  UNL     1      34.375  64.389   1.848  1.00  0.00     0.256 S 
HETATM   24  O1  UNL     1      34.618  64.475   3.341  1.00  0.00    -0.201 OA
HETATM   25  O2  UNL     1      35.417  65.207   1.169  1.00  0.00    -0.201 OA
BRANCH  23  26
HETATM   26  N1  UNL     1      34.486  62.710   1.412  1.00  0.00    -0.324 N 
ATOM     27  H12 UNL     1      35.135  62.033   1.812  1.00  0.00     0.169 HD
ATOM     28  H11 UNL     1      33.785  62.543   0.690  1.00  0.00     0.169 HD
ENDBRANCH  23  26
ENDBRANCH  21  23
ENDBRANCH  14  17
ENDBRANCH   1  13
BRANCH   8  29
HETATM   29  N6  UNL     1      29.253  71.221   8.062  1.00  0.00    -0.098 N 
ATOM     30  H6  UNL     1      29.671  70.802   8.893  1.00  0.00     0.213 HD
BRANCH  29  31
HETATM   31  O4  UNL     1      28.377  72.259   8.206  1.00  0.00    -0.276 OA
ATOM     32  H4  UNL     1      28.456  72.879   8.921  1.00  0.00     0.245 HD
ENDBRANCH  29  31
ENDBRANCH   8  29
TORSDOF 6
ENDMDL
MODEL 5
REMARK VINA RESULT: -8.563701212      2.722      3.537
REMARK  6 active torsions:
REMARK  status: ('A' for Active; 'I' for Inactive)
REMARK    1  A    between atoms: N1_1  and  S1_4 
REMARK    2  A    between atoms: S1_4  and  C1_7 
REMARK    3  A    between atoms: C5_11  and  N2_12 
REMARK    4  A    between atoms: N3_14  and  C6_16 
REMARK    5  A    between atoms: C8_23  and  N6_24 
REMARK    6  A    between atoms: N6_24  and  O4_26 
ROOT
HETATM    1  C6  UNL     1      31.462  66.063   2.655  1.00  0.00     0.194 C 
HETATM    2  N4  UNL     1      32.759  65.743   2.410  1.00  0.00    -0.288 N 
ATOM      3  H4  UNL     1      33.407  65.760   3.198  1.00  0.00     0.172 HD
HETATM    4  C7  UNL     1      33.258  65.401   1.194  1.00  0.00     0.340 C 
HETATM    5  O3  UNL     1      34.483  65.557   0.995  1.00  0.00    -0.246 OA
HETATM    6  N5  UNL     1      32.602  64.899   0.128  1.00  0.00    -0.139 N 
ATOM      7  H5  UNL     1      33.132  64.843  -0.741  1.00  0.00     0.189 HD
HETATM    8  C8  UNL     1      31.331  64.464   0.078  1.00  0.00     0.708 C 
HETATM    9  N7  UNL     1      30.313  64.820   0.875  1.00  0.00    -0.151 N 
ATOM     10  H7  UNL     1      29.387  64.520   0.568  1.00  0.00     0.188 HD
HETATM   11  C9  UNL     1      30.348  65.518   2.026  1.00  0.00     0.305 C 
HETATM   12  O5  UNL     1      29.249  65.704   2.608  1.00  0.00    -0.263 OA
ENDROOT
BRANCH   1  13
HETATM   13  N3  UNL     1      31.167  67.032   3.627  1.00  0.00    -0.280 N 
HETATM   14  N2  UNL     1      30.576  68.128   3.371  1.00  0.00    -0.299 N 
ATOM     15  H2  UNL     1      30.294  68.328   2.412  1.00  0.00     0.187 HD
ATOM     16  H3  UNL     1      31.442  66.846   4.591  1.00  0.00     0.188 HD
BRANCH  14  17
HETATM   17  C5  UNL     1      30.296  69.081   4.389  1.00  0.00     0.049 A 
HETATM   18  C4  UNL     1      30.969  69.032   5.591  1.00  0.00     0.031 A 
HETATM   19  C3  UNL     1      30.723  69.942   6.600  1.00  0.00     0.004 A 
HETATM   20  C2  UNL     1      29.775  70.950   6.433  1.00  0.00     0.025 A 
HETATM   21  C1  UNL     1      29.098  71.002   5.231  1.00  0.00     0.081 A 
HETATM   22  C10 UNL     1      29.358  70.084   4.236  1.00  0.00     0.056 A 
BRANCH  21  23
HETATM   23  S1  UNL     1      27.906  72.265   5.017  1.00  0.00     0.256 S 
HETATM   24  O1  UNL     1      28.573  73.452   4.350  1.00  0.00    -0.201 OA
HETATM   25  O2  UNL     1      27.330  72.733   6.307  1.00  0.00    -0.201 OA
BRANCH  23  26
HETATM   26  N1  UNL     1      26.677  71.695   3.928  1.00  0.00    -0.324 N 
ATOM     27  H12 UNL     1      26.459  70.718   3.734  1.00  0.00     0.169 HD
ATOM     28  H11 UNL     1      26.226  72.519   3.530  1.00  0.00     0.169 HD
ENDBRANCH  23  26
ENDBRANCH  21  23
ENDBRANCH  14  17
ENDBRANCH   1  13
BRANCH   8  29
HETATM   29  N6  UNL     1      31.029  63.595  -0.844  1.00  0.00    -0.098 N 
ATOM     30  H6  UNL     1      30.465  63.889  -1.641  1.00  0.00     0.213 HD
BRANCH  29  31
HETATM   31  O4  UNL     1      31.450  62.298  -0.766  1.00  0.00    -0.276 OA
ATOM     32  H4  UNL     1      30.858  61.574  -0.931  1.00  0.00     0.245 HD
ENDBRANCH  29  31
ENDBRANCH   8  29
TORSDOF 6
ENDMDL
