MODEL 1
REMARK VINA RESULT: -8.452938106      0.000      0.000
REMARK  8 active torsions:
REMARK  status: ('A' for Active; 'I' for Inactive)
REMARK    1  A    between atoms: N1_1  and  S1_4 
REMARK    2  A    between atoms: S1_4  and  C1_7 
REMARK       I    between atoms: N4_13  and  C3_15 
REMARK    3  A    between atoms: C3_15  and  C4_17 
REMARK    4  A    between atoms: C5_18  and  C6_19 
REMARK    5  A    between atoms: C6_19  and  O4_20 
REMARK    6  A    between atoms: C7_24  and  O5_25 
REMARK    7  A    between atoms: C8_27  and  N6_28 
REMARK    8  A    between atoms: N6_28  and  O6_30 
ROOT
HETATM    1  C1  UNL     1      30.375  68.715   1.850  1.00  0.00     0.208 A 
HETATM    2  N2  UNL     1      31.077  68.223   0.844  1.00  0.00    -0.281 N 
ATOM      3  H2  UNL     1      31.339  68.828   0.066  1.00  0.00     0.188 HD
HETATM    4  N3  UNL     1      31.427  67.004   0.839  1.00  0.00    -0.278 N 
ATOM      5  H3  UNL     1      31.970  66.622   0.063  1.00  0.00     0.189 HD
HETATM    6  C2  UNL     1      31.072  66.230   1.868  1.00  0.00     0.169 A 
HETATM    7  N4  UNL     1      31.332  64.956   2.051  1.00  0.00    -0.302 N 
ATOM      8  H4  UNL     1      30.986  64.506   2.898  1.00  0.00     0.171 HD
HETATM    9  C3  UNL     1      32.061  64.192   1.136  1.00  0.00     0.262 C 
HETATM   10  O3  UNL     1      31.703  64.127  -0.068  1.00  0.00    -0.267 OA
HETATM   11  S2  UNL     1      30.212  67.337   2.844  1.00  0.00    -0.020 SA
ENDROOT
BRANCH   9  12
HETATM   12  C4  UNL     1      33.244  63.464   1.576  1.00  0.00     0.089 A 
HETATM   13  C5  UNL     1      34.508  64.010   1.640  1.00  0.00     0.053 A 
HETATM   14  N5  UNL     1      35.387  63.093   2.082  1.00  0.00    -0.336 N 
HETATM   15  C7  UNL     1      34.722  61.935   2.312  1.00  0.00     0.170 A 
ATOM     16  H5  UNL     1      36.387  63.243   2.219  1.00  0.00     0.168 HD
HETATM   17  C8  UNL     1      33.379  62.164   1.997  1.00  0.00     0.122 A 
BRANCH  13  18
HETATM   18  C6  UNL     1      34.862  65.404   1.280  1.00  0.00     0.222 C 
BRANCH  18  19
HETATM   19  O4  UNL     1      34.356  65.741   0.029  1.00  0.00    -0.395 OA
ATOM     20  H4  UNL     1      34.989  65.561  -0.655  1.00  0.00     0.209 HD
ENDBRANCH  18  19
ENDBRANCH  13  18
BRANCH  15  21
HETATM   21  O5  UNL     1      35.186  60.727   2.767  1.00  0.00    -0.344 OA
ATOM     22  H5  UNL     1      35.261  59.893   2.317  1.00  0.00     0.219 HD
ENDBRANCH  15  21
BRANCH  17  23
HETATM   23  N6  UNL     1      32.320  61.224   2.090  1.00  0.00    -0.264 N 
ATOM     24  H6  UNL     1      31.732  61.040   1.276  1.00  0.00     0.194 HD
BRANCH  23  25
HETATM   25  O6  UNL     1      32.106  60.627   3.147  1.00  0.00    -0.289 OA
ATOM     26  H6  UNL     1      32.476  59.766   3.298  1.00  0.00     0.244 HD
ENDBRANCH  23  25
ENDBRANCH  17  23
ENDBRANCH   9  12
BRANCH   1  27
HETATM   27  S1  UNL     1      29.798  70.357   2.047  1.00  0.00     0.280 S 
HETATM   28  O1  UNL     1      28.712  70.624   1.049  1.00  0.00    -0.199 OA
HETATM   29  O2  UNL     1      29.302  70.557   3.459  1.00  0.00    -0.199 OA
BRANCH  27  30
HETATM   30  N1  UNL     1      31.051  71.514   1.778  1.00  0.00    -0.323 N 
ATOM     31  H12 UNL     1      31.478  71.725   0.876  1.00  0.00     0.169 HD
ATOM     32  H11 UNL     1      31.278  71.938   2.678  1.00  0.00     0.169 HD
ENDBRANCH  27  30
ENDBRANCH   1  27
TORSDOF 8
ENDMDL
MODEL 2
REMARK VINA RESULT: -7.970568400      3.001      3.195
REMARK  8 active torsions:
REMARK  status: ('A' for Active; 'I' for Inactive)
REMARK    1  A    between atoms: N1_1  and  S1_4 
REMARK    2  A    between atoms: S1_4  and  C1_7 
REMARK       I    between atoms: N4_13  and  C3_15 
REMARK    3  A    between atoms: C3_15  and  C4_17 
REMARK    4  A    between atoms: C5_18  and  C6_19 
REMARK    5  A    between atoms: C6_19  and  O4_20 
REMARK    6  A    between atoms: C7_24  and  O5_25 
REMARK    7  A    between atoms: C8_27  and  N6_28 
REMARK    8  A    between atoms: N6_28  and  O6_30 
ROOT
HETATM    1  C1  UNL     1      28.872  66.177  -1.195  1.00  0.00     0.208 A 
HETATM    2  N2  UNL     1      29.966  65.637  -1.705  1.00  0.00    -0.281 N 
ATOM      3  H2  UNL     1      30.262  65.891  -2.648  1.00  0.00     0.188 HD
HETATM    4  N3  UNL     1      30.649  64.808  -1.032  1.00  0.00    -0.278 N 
ATOM      5  H3  UNL     1      31.494  64.391  -1.424  1.00  0.00     0.189 HD
HETATM    6  C2  UNL     1      30.240  64.490   0.199  1.00  0.00     0.169 A 
HETATM    7  N4  UNL     1      30.799  63.661   1.050  1.00  0.00    -0.302 N 
ATOM      8  H4  UNL     1      30.359  63.526   1.960  1.00  0.00     0.171 HD
HETATM    9  C3  UNL     1      31.970  62.956   0.762  1.00  0.00     0.262 C 
HETATM   10  O3  UNL     1      32.043  62.231  -0.264  1.00  0.00    -0.267 OA
HETATM   11  S2  UNL     1      28.828  65.441   0.344  1.00  0.00    -0.020 SA
ENDROOT
BRANCH   9  12
HETATM   12  C4  UNL     1      33.119  63.058   1.653  1.00  0.00     0.089 A 
HETATM   13  C5  UNL     1      33.889  64.193   1.795  1.00  0.00     0.053 A 
HETATM   14  N5  UNL     1      34.872  63.978   2.687  1.00  0.00    -0.336 N 
HETATM   15  C7  UNL     1      34.768  62.706   3.143  1.00  0.00     0.170 A 
ATOM     16  H5  UNL     1      35.578  64.657   2.972  1.00  0.00     0.168 HD
HETATM   17  C8  UNL     1      33.671  62.127   2.498  1.00  0.00     0.122 A 
BRANCH  13  18
HETATM   18  C6  UNL     1      33.675  65.472   1.077  1.00  0.00     0.222 C 
BRANCH  18  19
HETATM   19  O4  UNL     1      34.500  65.563  -0.039  1.00  0.00    -0.395 OA
ATOM     20  H4  UNL     1      34.257  64.923  -0.697  1.00  0.00     0.209 HD
ENDBRANCH  18  19
ENDBRANCH  13  18
BRANCH  15  21
HETATM   21  O5  UNL     1      35.537  62.031   4.057  1.00  0.00    -0.344 OA
ATOM     22  H5  UNL     1      35.654  62.182   4.988  1.00  0.00     0.219 HD
ENDBRANCH  15  21
BRANCH  17  23
HETATM   23  N6  UNL     1      33.193  60.802   2.674  1.00  0.00    -0.264 N 
ATOM     24  H6  UNL     1      32.320  60.515   2.230  1.00  0.00     0.194 HD
BRANCH  23  25
HETATM   25  O6  UNL     1      33.826  59.996   3.360  1.00  0.00    -0.289 OA
ATOM     26  H6  UNL     1      33.681  59.063   3.262  1.00  0.00     0.244 HD
ENDBRANCH  23  25
ENDBRANCH  17  23
ENDBRANCH   9  12
BRANCH   1  27
HETATM   27  S1  UNL     1      27.797  67.333  -1.955  1.00  0.00     0.280 S 
HETATM   28  O1  UNL     1      26.403  67.124  -1.445  1.00  0.00    -0.199 OA
HETATM   29  O2  UNL     1      28.277  68.736  -1.671  1.00  0.00    -0.199 OA
BRANCH  27  30
HETATM   30  N1  UNL     1      27.761  67.144  -3.670  1.00  0.00    -0.323 N 
ATOM     31  H12 UNL     1      27.688  67.903  -4.347  1.00  0.00     0.169 HD
ATOM     32  H11 UNL     1      27.826  66.146  -3.872  1.00  0.00     0.169 HD
ENDBRANCH  27  30
ENDBRANCH   1  27
TORSDOF 8
ENDMDL
MODEL 3
REMARK VINA RESULT: -7.824932675      3.349      7.668
REMARK  8 active torsions:
REMARK  status: ('A' for Active; 'I' for Inactive)
REMARK    1  A    between atoms: N1_1  and  S1_4 
REMARK    2  A    between atoms: S1_4  and  C1_7 
REMARK       I    between atoms: N4_13  and  C3_15 
REMARK    3  A    between atoms: C3_15  and  C4_17 
REMARK    4  A    between atoms: C5_18  and  C6_19 
REMARK    5  A    between atoms: C6_19  and  O4_20 
REMARK    6  A    between atoms: C7_24  and  O5_25 
REMARK    7  A    between atoms: C8_27  and  N6_28 
REMARK    8  A    between atoms: N6_28  and  O6_30 
ROOT
HETATM    1  C1  UNL     1      33.450  62.211   2.133  1.00  0.00     0.208 A 
HETATM    2  N2  UNL     1      32.403  61.920   1.380  1.00  0.00    -0.281 N 
ATOM      3  H2  UNL     1      32.066  60.959   1.333  1.00  0.00     0.188 HD
HETATM    4  N3  UNL     1      31.816  62.827   0.716  1.00  0.00    -0.278 N 
ATOM      5  H3  UNL     1      31.007  62.604   0.135  1.00  0.00     0.189 HD
HETATM    6  C2  UNL     1      32.277  64.078   0.791  1.00  0.00     0.169 A 
HETATM    7  N4  UNL     1      31.817  65.149   0.188  1.00  0.00    -0.302 N 
ATOM      8  H4  UNL     1      32.285  66.040   0.351  1.00  0.00     0.171 HD
HETATM    9  C3  UNL     1      30.713  65.121  -0.669  1.00  0.00     0.262 C 
HETATM   10  O3  UNL     1      30.691  64.340  -1.655  1.00  0.00    -0.267 OA
HETATM   11  S2  UNL     1      33.594  63.890   1.863  1.00  0.00    -0.020 SA
ENDROOT
BRANCH   9  12
HETATM   12  C4  UNL     1      29.578  66.000  -0.421  1.00  0.00     0.089 A 
HETATM   13  C5  UNL     1      28.825  65.985   0.733  1.00  0.00     0.053 A 
HETATM   14  N5  UNL     1      27.850  66.909   0.664  1.00  0.00    -0.336 N 
HETATM   15  C7  UNL     1      27.943  67.543  -0.529  1.00  0.00     0.170 A 
ATOM     16  H5  UNL     1      27.158  67.100   1.388  1.00  0.00     0.168 HD
HETATM   17  C8  UNL     1      29.024  66.977  -1.213  1.00  0.00     0.122 A 
BRANCH  13  18
HETATM   18  C6  UNL     1      29.047  65.087   1.892  1.00  0.00     0.222 C 
BRANCH  18  19
HETATM   19  O4  UNL     1      29.967  65.634   2.780  1.00  0.00    -0.395 OA
ATOM     20  H4  UNL     1      30.075  65.080   3.543  1.00  0.00     0.209 HD
ENDBRANCH  18  19
ENDBRANCH  13  18
BRANCH  15  21
HETATM   21  O5  UNL     1      27.177  68.553  -1.054  1.00  0.00    -0.344 OA
ATOM     22  H5  UNL     1      27.427  69.289  -1.601  1.00  0.00     0.219 HD
ENDBRANCH  15  21
BRANCH  17  23
HETATM   23  N6  UNL     1      29.486  67.337  -2.505  1.00  0.00    -0.264 N 
ATOM     24  H6  UNL     1      29.905  68.255  -2.655  1.00  0.00     0.194 HD
BRANCH  23  25
HETATM   25  O6  UNL     1      29.384  66.549  -3.448  1.00  0.00    -0.289 OA
ATOM     26  H6  UNL     1      28.529  66.298  -3.774  1.00  0.00     0.244 HD
ENDBRANCH  23  25
ENDBRANCH  17  23
ENDBRANCH   9  12
BRANCH   1  27
HETATM   27  S1  UNL     1      34.394  61.114   3.119  1.00  0.00     0.280 S 
HETATM   28  O1  UNL     1      35.406  60.419   2.259  1.00  0.00    -0.199 OA
HETATM   29  O2  UNL     1      35.062  61.880   4.236  1.00  0.00    -0.199 OA
BRANCH  27  30
HETATM   30  N1  UNL     1      33.408  59.901   3.852  1.00  0.00    -0.323 N 
ATOM     31  H12 UNL     1      33.347  58.928   3.552  1.00  0.00     0.169 HD
ATOM     32  H11 UNL     1      32.908  60.336   4.627  1.00  0.00     0.169 HD
ENDBRANCH  27  30
ENDBRANCH   1  27
TORSDOF 8
ENDMDL
MODEL 4
REMARK VINA RESULT: -7.548050444      4.132      8.388
REMARK  8 active torsions:
REMARK  status: ('A' for Active; 'I' for Inactive)
REMARK    1  A    between atoms: N1_1  and  S1_4 
REMARK    2  A    between atoms: S1_4  and  C1_7 
REMARK       I    between atoms: N4_13  and  C3_15 
REMARK    3  A    between atoms: C3_15  and  C4_17 
REMARK    4  A    between atoms: C5_18  and  C6_19 
REMARK    5  A    between atoms: C6_19  and  O4_20 
REMARK    6  A    between atoms: C7_24  and  O5_25 
REMARK    7  A    between atoms: C8_27  and  N6_28 
REMARK    8  A    between atoms: N6_28  and  O6_30 
ROOT
HETATM    1  C1  UNL     1      29.653  66.351   1.139  1.00  0.00     0.208 A 
HETATM    2  N2  UNL     1      28.633  67.113   1.495  1.00  0.00    -0.281 N 
ATOM      3  H2  UNL     1      27.693  66.883   1.172  1.00  0.00     0.188 HD
HETATM    4  N3  UNL     1      28.814  68.127   2.234  1.00  0.00    -0.278 N 
ATOM      5  H3  UNL     1      28.028  68.716   2.511  1.00  0.00     0.189 HD
HETATM    6  C2  UNL     1      30.054  68.410   2.643  1.00  0.00     0.169 A 
HETATM    7  N4  UNL     1      30.450  69.404   3.403  1.00  0.00    -0.302 N 
ATOM      8  H4  UNL     1      31.442  69.482   3.627  1.00  0.00     0.171 HD
HETATM    9  C3  UNL     1      29.571  70.360   3.919  1.00  0.00     0.262 C 
HETATM   10  O3  UNL     1      28.818  71.013   3.152  1.00  0.00    -0.267 OA
HETATM   11  S2  UNL     1      30.947  67.148   1.915  1.00  0.00    -0.020 SA
ENDROOT
BRANCH   9  12
HETATM   12  C4  UNL     1      29.522  70.603   5.355  1.00  0.00     0.089 A 
HETATM   13  C5  UNL     1      30.267  69.908   6.283  1.00  0.00     0.053 A 
HETATM   14  N5  UNL     1      30.004  70.360   7.522  1.00  0.00    -0.336 N 
HETATM   15  C7  UNL     1      29.086  71.352   7.432  1.00  0.00     0.170 A 
ATOM     16  H5  UNL     1      30.424  70.013   8.385  1.00  0.00     0.168 HD
HETATM   17  C8  UNL     1      28.782  71.508   6.076  1.00  0.00     0.122 A 
BRANCH  13  18
HETATM   18  C6  UNL     1      31.224  68.819   5.974  1.00  0.00     0.222 C 
BRANCH  18  19
HETATM   19  O4  UNL     1      30.648  67.571   6.187  1.00  0.00    -0.395 OA
ATOM     20  H4  UNL     1      30.450  67.142   5.364  1.00  0.00     0.209 HD
ENDBRANCH  18  19
ENDBRANCH  13  18
BRANCH  15  21
HETATM   21  O5  UNL     1      28.511  72.114   8.417  1.00  0.00    -0.344 OA
ATOM     22  H5  UNL     1      27.743  71.944   8.951  1.00  0.00     0.219 HD
ENDBRANCH  15  21
BRANCH  17  23
HETATM   23  N6  UNL     1      27.866  72.438   5.520  1.00  0.00    -0.264 N 
ATOM     24  H6  UNL     1      27.992  72.762   4.560  1.00  0.00     0.194 HD
BRANCH  23  25
HETATM   25  O6  UNL     1      26.919  72.859   6.188  1.00  0.00    -0.289 OA
ATOM     26  H6  UNL     1      26.038  72.850   5.834  1.00  0.00     0.244 HD
ENDBRANCH  23  25
ENDBRANCH  17  23
ENDBRANCH   9  12
BRANCH   1  27
HETATM   27  S1  UNL     1      29.615  64.918   0.132  1.00  0.00     0.280 S 
HETATM   28  O1  UNL     1      28.190  64.532  -0.128  1.00  0.00    -0.199 OA
HETATM   29  O2  UNL     1      30.352  65.183  -1.159  1.00  0.00    -0.199 OA
BRANCH  27  30
HETATM   30  N1  UNL     1      30.389  63.577   0.896  1.00  0.00    -0.323 N 
ATOM     31  H12 UNL     1      29.977  62.992   1.622  1.00  0.00     0.169 HD
ATOM     32  H11 UNL     1      31.320  63.485   0.488  1.00  0.00     0.169 HD
ENDBRANCH  27  30
ENDBRANCH   1  27
TORSDOF 8
ENDMDL
MODEL 5
REMARK VINA RESULT: -7.517614860      2.977      7.755
REMARK  8 active torsions:
REMARK  status: ('A' for Active; 'I' for Inactive)
REMARK    1  A    between atoms: N1_1  and  S1_4 
REMARK    2  A    between atoms: S1_4  and  C1_7 
REMARK       I    between atoms: N4_13  and  C3_15 
REMARK    3  A    between atoms: C3_15  and  C4_17 
REMARK    4  A    between atoms: C5_18  and  C6_19 
REMARK    5  A    between atoms: C6_19  and  O4_20 
REMARK    6  A    between atoms: C7_24  and  O5_25 
REMARK    7  A    between atoms: C8_27  and  N6_28 
REMARK    8  A    between atoms: N6_28  and  O6_30 
ROOT
HETATM    1  C1  UNL     1      33.393  62.350   2.119  1.00  0.00     0.208 A 
HETATM    2  N2  UNL     1      32.291  62.141   1.418  1.00  0.00    -0.281 N 
ATOM      3  H2  UNL     1      31.906  61.199   1.349  1.00  0.00     0.188 HD
HETATM    4  N3  UNL     1      31.710  63.103   0.831  1.00  0.00    -0.278 N 
ATOM      5  H3  UNL     1      30.859  62.944   0.290  1.00  0.00     0.189 HD
HETATM    6  C2  UNL     1      32.233  64.328   0.934  1.00  0.00     0.169 A 
HETATM    7  N4  UNL     1      31.790  65.446   0.407  1.00  0.00    -0.302 N 
ATOM      8  H4  UNL     1      32.308  66.306   0.582  1.00  0.00     0.171 HD
HETATM    9  C3  UNL     1      30.638  65.507  -0.382  1.00  0.00     0.262 C 
HETATM   10  O3  UNL     1      30.522  64.775  -1.398  1.00  0.00    -0.267 OA
HETATM   11  S2  UNL     1      33.600  64.031   1.916  1.00  0.00    -0.020 SA
ENDROOT
BRANCH   9  12
HETATM   12  C4  UNL     1      29.562  66.423  -0.028  1.00  0.00     0.089 A 
HETATM   13  C5  UNL     1      28.231  66.068   0.030  1.00  0.00     0.053 A 
HETATM   14  N5  UNL     1      27.482  67.127   0.384  1.00  0.00    -0.336 N 
HETATM   15  C7  UNL     1      28.302  68.192   0.563  1.00  0.00     0.170 A 
ATOM     16  H5  UNL     1      26.469  67.130   0.498  1.00  0.00     0.168 HD
HETATM   17  C8  UNL     1      29.605  67.754   0.306  1.00  0.00     0.122 A 
BRANCH  13  18
HETATM   18  C6  UNL     1      27.689  64.717  -0.253  1.00  0.00     0.222 C 
BRANCH  18  19
HETATM   19  O4  UNL     1      27.634  64.476  -1.621  1.00  0.00    -0.395 OA
ATOM     20  H4  UNL     1      28.241  63.791  -1.872  1.00  0.00     0.209 HD
ENDBRANCH  18  19
ENDBRANCH  13  18
BRANCH  15  21
HETATM   21  O5  UNL     1      28.006  69.482   0.924  1.00  0.00    -0.344 OA
ATOM     22  H5  UNL     1      28.230  69.962   1.713  1.00  0.00     0.219 HD
ENDBRANCH  15  21
BRANCH  17  23
HETATM   23  N6  UNL     1      30.785  68.539   0.374  1.00  0.00    -0.264 N 
ATOM     24  H6  UNL     1      31.559  68.240   0.968  1.00  0.00     0.194 HD
BRANCH  23  25
HETATM   25  O6  UNL     1      30.882  69.581  -0.280  1.00  0.00    -0.289 OA
ATOM     26  H6  UNL     1      31.725  69.865  -0.610  1.00  0.00     0.244 HD
ENDBRANCH  23  25
ENDBRANCH  17  23
ENDBRANCH   9  12
BRANCH   1  27
HETATM   27  S1  UNL     1      34.339  61.166   2.997  1.00  0.00     0.280 S 
HETATM   28  O1  UNL     1      35.244  60.447   2.043  1.00  0.00    -0.199 OA
HETATM   29  O2  UNL     1      35.129  61.852   4.085  1.00  0.00    -0.199 OA
BRANCH  27  30
HETATM   30  N1  UNL     1      33.339  59.985   3.761  1.00  0.00    -0.323 N 
ATOM     31  H12 UNL     1      33.045  59.100   3.346  1.00  0.00     0.169 HD
ATOM     32  H11 UNL     1      33.104  60.334   4.690  1.00  0.00     0.169 HD
ENDBRANCH  27  30
ENDBRANCH   1  27
TORSDOF 8
ENDMDL
