MODEL 1
REMARK VINA RESULT: -4.982712326      0.000      0.000
REMARK  4 active torsions:
REMARK  status: ('A' for Active; 'I' for Inactive)
REMARK    1  A    between atoms: C2_2  and  N1_3 
REMARK    2  A    between atoms: N2_5  and  C3_7 
REMARK    3  A    between atoms: C3_7  and  O1_15 
REMARK       I    between atoms: N3_8  and  C4_10 
REMARK    4  A    between atoms: O1_15  and  O2_16 
ROOT
HETATM    1  C3  UNL     1      27.790  77.390  64.164  1.00  0.00     0.271 C 
HETATM    2  N3  UNL     1      28.085  76.320  64.791  1.00  0.00    -0.293 N 
ATOM      3  H3  UNL     1      28.824  76.347  65.494  1.00  0.00     0.172 HD
HETATM    4  C4  UNL     1      27.423  75.104  64.542  1.00  0.00     0.189 C 
HETATM    5  N4  UNL     1      26.387  74.802  65.251  1.00  0.00    -0.373 N 
ATOM      6  H41 UNL     1      25.907  73.921  65.071  1.00  0.00     0.158 HD
ATOM      7  H42 UNL     1      26.053  75.432  65.980  1.00  0.00     0.158 HD
HETATM    8  N5  UNL     1      27.890  74.224  63.524  1.00  0.00    -0.064 NA
ENDROOT
BRANCH   1   9
HETATM    9  N2  UNL     1      26.780  77.417  63.185  1.00  0.00    -0.267 N 
HETATM   10  N1  UNL     1      26.443  78.513  62.685  1.00  0.00    -0.334 N 
ATOM     11  H1  UNL     1      26.929  79.342  63.024  1.00  0.00     0.180 HD
ATOM     12  H2  UNL     1      26.328  76.553  62.885  1.00  0.00     0.190 HD
BRANCH  10  13
HETATM   13  C2  UNL     1      25.441  78.715  61.686  1.00  0.00     0.135 C 
HETATM   14  C1  UNL     1      25.727  80.045  61.016  1.00  0.00     0.028 C 
ENDBRANCH  10  13
ENDBRANCH   1   9
BRANCH   1  15
HETATM   15  O1  UNL     1      28.467  78.552  64.445  1.00  0.00    -0.159 OA
BRANCH  15  16
HETATM   16  O2  UNL     1      29.380  79.081  63.621  1.00  0.00    -0.237 OA
HETATM   17  C5  UNL     1      29.238  80.472  63.719  1.00  0.00     0.247 C 
ENDBRANCH  15  16
ENDBRANCH   1  15
TORSDOF 4
ENDMDL
MODEL 2
REMARK VINA RESULT: -4.704454118      2.924      4.808
REMARK  4 active torsions:
REMARK  status: ('A' for Active; 'I' for Inactive)
REMARK    1  A    between atoms: C2_2  and  N1_3 
REMARK    2  A    between atoms: N2_5  and  C3_7 
REMARK    3  A    between atoms: C3_7  and  O1_15 
REMARK       I    between atoms: N3_8  and  C4_10 
REMARK    4  A    between atoms: O1_15  and  O2_16 
ROOT
HETATM    1  C3  UNL     1      28.166  74.809  64.313  1.00  0.00     0.271 C 
HETATM    2  N3  UNL     1      28.350  76.044  64.054  1.00  0.00    -0.293 N 
ATOM      3  H3  UNL     1      29.304  76.390  63.943  1.00  0.00     0.172 HD
HETATM    4  C4  UNL     1      27.277  76.945  63.916  1.00  0.00     0.189 C 
HETATM    5  N4  UNL     1      26.780  77.146  62.742  1.00  0.00    -0.373 N 
ATOM      6  H41 UNL     1      26.003  77.799  62.642  1.00  0.00     0.158 HD
ATOM      7  H42 UNL     1      27.156  76.663  61.926  1.00  0.00     0.158 HD
HETATM    8  N5  UNL     1      26.753  77.620  65.055  1.00  0.00    -0.064 NA
ENDROOT
BRANCH   1   9
HETATM    9  N2  UNL     1      26.875  74.274  64.476  1.00  0.00    -0.267 N 
HETATM   10  N1  UNL     1      26.286  74.424  65.569  1.00  0.00    -0.334 N 
ATOM     11  H1  UNL     1      26.785  74.936  66.295  1.00  0.00     0.180 HD
ATOM     12  H2  UNL     1      26.425  73.771  63.712  1.00  0.00     0.190 HD
BRANCH  10  13
HETATM   13  C2  UNL     1      24.980  73.946  65.898  1.00  0.00     0.135 C 
HETATM   14  C1  UNL     1      24.408  74.871  66.955  1.00  0.00     0.028 C 
ENDBRANCH  10  13
ENDBRANCH   1   9
BRANCH   1  15
HETATM   15  O1  UNL     1      29.248  73.972  64.438  1.00  0.00    -0.159 OA
BRANCH  15  16
HETATM   16  O2  UNL     1      30.309  74.026  63.623  1.00  0.00    -0.237 OA
HETATM   17  C5  UNL     1      31.433  73.798  64.427  1.00  0.00     0.247 C 
ENDBRANCH  15  16
ENDBRANCH   1  15
TORSDOF 4
ENDMDL
MODEL 3
REMARK VINA RESULT: -4.655564011      2.321      3.214
REMARK  4 active torsions:
REMARK  status: ('A' for Active; 'I' for Inactive)
REMARK    1  A    between atoms: C2_2  and  N1_3 
REMARK    2  A    between atoms: N2_5  and  C3_7 
REMARK    3  A    between atoms: C3_7  and  O1_15 
REMARK       I    between atoms: N3_8  and  C4_10 
REMARK    4  A    between atoms: O1_15  and  O2_16 
ROOT
HETATM    1  C3  UNL     1      26.929  75.875  65.082  1.00  0.00     0.271 C 
HETATM    2  N3  UNL     1      27.275  74.709  64.700  1.00  0.00    -0.293 N 
ATOM      3  H3  UNL     1      26.850  73.896  65.146  1.00  0.00     0.172 HD
HETATM    4  C4  UNL     1      28.227  74.510  63.682  1.00  0.00     0.189 C 
HETATM    5  N4  UNL     1      27.819  74.392  62.464  1.00  0.00    -0.373 N 
ATOM      6  H41 UNL     1      28.509  74.248  61.726  1.00  0.00     0.158 HD
ATOM      7  H42 UNL     1      26.826  74.441  62.238  1.00  0.00     0.158 HD
HETATM    8  N5  UNL     1      29.614  74.440  63.997  1.00  0.00    -0.064 NA
ENDROOT
BRANCH   1   9
HETATM    9  N2  UNL     1      27.479  77.034  64.504  1.00  0.00    -0.267 N 
HETATM   10  N1  UNL     1      26.824  77.654  63.637  1.00  0.00    -0.334 N 
ATOM     11  H1  UNL     1      25.909  77.276  63.394  1.00  0.00     0.180 HD
ATOM     12  H2  UNL     1      28.401  77.365  64.789  1.00  0.00     0.190 HD
BRANCH  10  13
HETATM   13  C2  UNL     1      27.234  78.841  62.956  1.00  0.00     0.135 C 
HETATM   14  C1  UNL     1      26.246  79.087  61.832  1.00  0.00     0.028 C 
ENDBRANCH  10  13
ENDBRANCH   1   9
BRANCH   1  15
HETATM   15  O1  UNL     1      25.995  76.015  66.079  1.00  0.00    -0.159 OA
BRANCH  15  16
HETATM   16  O2  UNL     1      25.358  77.166  66.326  1.00  0.00    -0.237 OA
HETATM   17  C5  UNL     1      24.516  76.923  67.419  1.00  0.00     0.247 C 
ENDBRANCH  15  16
ENDBRANCH   1  15
TORSDOF 4
ENDMDL
MODEL 4
REMARK VINA RESULT: -4.530411776      2.503      3.446
REMARK  4 active torsions:
REMARK  status: ('A' for Active; 'I' for Inactive)
REMARK    1  A    between atoms: C2_2  and  N1_3 
REMARK    2  A    between atoms: N2_5  and  C3_7 
REMARK    3  A    between atoms: C3_7  and  O1_15 
REMARK       I    between atoms: N3_8  and  C4_10 
REMARK    4  A    between atoms: O1_15  and  O2_16 
ROOT
HETATM    1  C3  UNL     1      27.168  75.574  64.915  1.00  0.00     0.271 C 
HETATM    2  N3  UNL     1      26.634  75.393  66.059  1.00  0.00    -0.293 N 
ATOM      3  H3  UNL     1      26.496  74.441  66.396  1.00  0.00     0.172 HD
HETATM    4  C4  UNL     1      26.230  76.470  66.871  1.00  0.00     0.189 C 
HETATM    5  N4  UNL     1      27.061  76.944  67.736  1.00  0.00    -0.373 N 
ATOM      6  H41 UNL     1      26.769  77.724  68.325  1.00  0.00     0.158 HD
ATOM      7  H42 UNL     1      27.996  76.547  67.834  1.00  0.00     0.158 HD
HETATM    8  N5  UNL     1      24.925  77.024  66.735  1.00  0.00    -0.064 NA
ENDROOT
BRANCH   1   9
HETATM    9  N2  UNL     1      27.385  76.863  64.397  1.00  0.00    -0.267 N 
HETATM   10  N1  UNL     1      26.880  77.171  63.295  1.00  0.00    -0.334 N 
ATOM     11  H1  UNL     1      26.329  76.454  62.825  1.00  0.00     0.180 HD
ATOM     12  H2  UNL     1      27.947  77.539  64.914  1.00  0.00     0.190 HD
BRANCH  10  13
HETATM   13  C2  UNL     1      27.003  78.430  62.631  1.00  0.00     0.135 C 
HETATM   14  C1  UNL     1      25.740  78.643  61.819  1.00  0.00     0.028 C 
ENDBRANCH  10  13
ENDBRANCH   1   9
BRANCH   1  15
HETATM   15  O1  UNL     1      27.545  74.488  64.163  1.00  0.00    -0.159 OA
BRANCH  15  16
HETATM   16  O2  UNL     1      28.689  74.444  63.469  1.00  0.00    -0.237 OA
HETATM   17  C5  UNL     1      29.722  74.461  64.414  1.00  0.00     0.247 C 
ENDBRANCH  15  16
ENDBRANCH   1  15
TORSDOF 4
ENDMDL
MODEL 5
REMARK VINA RESULT: -4.491769015      2.664      4.066
REMARK  4 active torsions:
REMARK  status: ('A' for Active; 'I' for Inactive)
REMARK    1  A    between atoms: C2_2  and  N1_3 
REMARK    2  A    between atoms: N2_5  and  C3_7 
REMARK    3  A    between atoms: C3_7  and  O1_15 
REMARK       I    between atoms: N3_8  and  C4_10 
REMARK    4  A    between atoms: O1_15  and  O2_16 
ROOT
HETATM    1  C3  UNL     1      27.926  75.456  64.988  1.00  0.00     0.271 C 
HETATM    2  N3  UNL     1      28.727  75.915  65.868  1.00  0.00    -0.293 N 
ATOM      3  H3  UNL     1      28.892  75.375  66.717  1.00  0.00     0.172 HD
HETATM    4  C4  UNL     1      29.389  77.146  65.702  1.00  0.00     0.189 C 
HETATM    5  N4  UNL     1      30.558  77.156  65.157  1.00  0.00    -0.373 N 
ATOM      6  H41 UNL     1      31.038  78.048  65.037  1.00  0.00     0.158 HD
ATOM      7  H42 UNL     1      30.998  76.288  64.850  1.00  0.00     0.158 HD
HETATM    8  N5  UNL     1      28.775  78.357  66.130  1.00  0.00    -0.064 NA
ENDROOT
BRANCH   1   9
HETATM    9  N2  UNL     1      27.659  76.155  63.797  1.00  0.00    -0.267 N 
HETATM   10  N1  UNL     1      26.863  77.119  63.821  1.00  0.00    -0.334 N 
ATOM     11  H1  UNL     1      26.444  77.348  64.722  1.00  0.00     0.180 HD
ATOM     12  H2  UNL     1      28.108  75.878  62.924  1.00  0.00     0.190 HD
BRANCH  10  13
HETATM   13  C2  UNL     1      26.483  77.930  62.708  1.00  0.00     0.135 C 
HETATM   14  C1  UNL     1      27.386  79.149  62.702  1.00  0.00     0.028 C 
ENDBRANCH  10  13
ENDBRANCH   1   9
BRANCH   1  15
HETATM   15  O1  UNL     1      27.306  74.248  65.198  1.00  0.00    -0.159 OA
BRANCH  15  16
HETATM   16  O2  UNL     1      26.029  74.017  64.866  1.00  0.00    -0.237 OA
HETATM   17  C5  UNL     1      25.287  74.145  66.047  1.00  0.00     0.247 C 
ENDBRANCH  15  16
ENDBRANCH   1  15
TORSDOF 4
ENDMDL
