MODEL 1
REMARK VINA RESULT: -5.200719534      0.000      0.000
REMARK  2 active torsions:
REMARK  status: ('A' for Active; 'I' for Inactive)
REMARK    1  A    between atoms: C2_2  and  N2_6 
REMARK    2  A    between atoms: N2_6  and  C3_8 
ROOT
HETATM    1  N2  UNL     1      27.857  81.318  61.362  1.00  0.00    -0.374 N 
ATOM      2  H2  UNL     1      28.219  80.966  60.476  1.00  0.00     0.161 HD
ENDROOT
BRANCH   1   3
HETATM    3  C2  UNL     1      28.442  82.484  61.925  1.00  0.00     0.066 C 
HETATM    4  C1  UNL     1      28.754  82.520  63.376  1.00  0.00     0.088 C 
HETATM    5  N1  UNL     1      28.720  83.530  61.228  1.00  0.00    -0.389 N 
ATOM      6  H12 UNL     1      29.140  84.367  61.632  1.00  0.00     0.157 HD
ATOM      7  H11 UNL     1      28.506  83.505  60.232  1.00  0.00     0.157 HD
ENDBRANCH   1   3
BRANCH   1   8
HETATM    8  C3  UNL     1      26.764  80.608  61.999  1.00  0.00     0.106 C 
HETATM    9  C4  UNL     1      27.290  79.411  62.705  1.00  0.00     0.029 C 
HETATM   10  C5  UNL     1      26.567  78.146  62.477  1.00  0.00     0.028 C 
HETATM   11  C6  UNL     1      25.525  78.168  61.418  1.00  0.00     0.167 C 
HETATM   12  O1  UNL     1      24.815  79.355  61.339  1.00  0.00    -0.389 OA
HETATM   13  C7  UNL     1      25.725  80.341  60.972  1.00  0.00     0.192 C 
ENDBRANCH   1   8
TORSDOF 2
ENDMDL
MODEL 2
REMARK VINA RESULT: -5.099753323      1.652      2.150
REMARK  2 active torsions:
REMARK  status: ('A' for Active; 'I' for Inactive)
REMARK    1  A    between atoms: C2_2  and  N2_6 
REMARK    2  A    between atoms: N2_6  and  C3_8 
ROOT
HETATM    1  N2  UNL     1      27.897  81.561  62.534  1.00  0.00    -0.374 N 
ATOM      2  H2  UNL     1      27.192  81.902  63.189  1.00  0.00     0.161 HD
ENDROOT
BRANCH   1   3
HETATM    3  C2  UNL     1      28.796  82.494  61.950  1.00  0.00     0.066 C 
HETATM    4  C1  UNL     1      30.256  82.234  61.999  1.00  0.00     0.088 C 
HETATM    5  N1  UNL     1      28.400  83.573  61.370  1.00  0.00    -0.389 N 
ATOM      6  H12 UNL     1      29.044  84.243  60.950  1.00  0.00     0.157 HD
ATOM      7  H11 UNL     1      27.396  83.752  61.336  1.00  0.00     0.157 HD
ENDBRANCH   1   3
BRANCH   1   8
HETATM    8  C3  UNL     1      27.941  80.142  62.236  1.00  0.00     0.106 C 
HETATM    9  C4  UNL     1      26.636  79.709  61.674  1.00  0.00     0.029 C 
HETATM   10  C5  UNL     1      26.052  78.481  62.247  1.00  0.00     0.028 C 
HETATM   11  C6  UNL     1      26.729  77.934  63.451  1.00  0.00     0.167 C 
HETATM   12  O1  UNL     1      28.108  78.062  63.440  1.00  0.00    -0.389 OA
HETATM   13  C7  UNL     1      28.383  79.426  63.459  1.00  0.00     0.192 C 
ENDBRANCH   1   8
TORSDOF 2
ENDMDL
MODEL 3
REMARK VINA RESULT: -4.938770765      0.890      1.043
REMARK  2 active torsions:
REMARK  status: ('A' for Active; 'I' for Inactive)
REMARK    1  A    between atoms: C2_2  and  N2_6 
REMARK    2  A    between atoms: N2_6  and  C3_8 
ROOT
HETATM    1  N2  UNL     1      27.833  81.415  61.324  1.00  0.00    -0.374 N 
ATOM      2  H2  UNL     1      27.938  81.320  60.314  1.00  0.00     0.161 HD
ENDROOT
BRANCH   1   3
HETATM    3  C2  UNL     1      28.737  82.256  62.029  1.00  0.00     0.066 C 
HETATM    4  C1  UNL     1      29.944  82.775  61.339  1.00  0.00     0.088 C 
HETATM    5  N1  UNL     1      28.558  82.596  63.257  1.00  0.00    -0.389 N 
ATOM      6  H12 UNL     1      29.207  83.199  63.763  1.00  0.00     0.157 HD
ATOM      7  H11 UNL     1      27.729  82.240  63.731  1.00  0.00     0.157 HD
ENDBRANCH   1   3
BRANCH   1   8
HETATM    8  C3  UNL     1      26.768  80.686  61.986  1.00  0.00     0.106 C 
HETATM    9  C4  UNL     1      27.338  79.533  62.729  1.00  0.00     0.029 C 
HETATM   10  C5  UNL     1      26.661  78.235  62.543  1.00  0.00     0.028 C 
HETATM   11  C6  UNL     1      25.617  78.186  61.486  1.00  0.00     0.167 C 
HETATM   12  O1  UNL     1      24.865  79.343  61.371  1.00  0.00    -0.389 OA
HETATM   13  C7  UNL     1      25.738  80.350  60.971  1.00  0.00     0.192 C 
ENDBRANCH   1   8
TORSDOF 2
ENDMDL
MODEL 4
REMARK VINA RESULT: -4.764403596      3.072      4.764
REMARK  2 active torsions:
REMARK  status: ('A' for Active; 'I' for Inactive)
REMARK    1  A    between atoms: C2_2  and  N2_6 
REMARK    2  A    between atoms: N2_6  and  C3_8 
ROOT
HETATM    1  N2  UNL     1      27.021  77.108  62.752  1.00  0.00    -0.374 N 
ATOM      2  H2  UNL     1      27.220  76.745  61.819  1.00  0.00     0.161 HD
ENDROOT
BRANCH   1   3
HETATM    3  C2  UNL     1      27.242  76.265  63.875  1.00  0.00     0.066 C 
HETATM    4  C1  UNL     1      26.795  76.704  65.220  1.00  0.00     0.088 C 
HETATM    5  N1  UNL     1      27.820  75.119  63.782  1.00  0.00    -0.389 N 
ATOM      6  H12 UNL     1      27.978  74.514  64.587  1.00  0.00     0.157 HD
ATOM      7  H11 UNL     1      28.127  74.817  62.857  1.00  0.00     0.157 HD
ENDBRANCH   1   3
BRANCH   1   8
HETATM    8  C3  UNL     1      26.522  78.465  62.881  1.00  0.00     0.106 C 
HETATM    9  C4  UNL     1      25.538  78.739  61.802  1.00  0.00     0.029 C 
HETATM   10  C5  UNL     1      25.707  80.009  61.070  1.00  0.00     0.028 C 
HETATM   11  C6  UNL     1      26.951  80.770  61.355  1.00  0.00     0.167 C 
HETATM   12  O1  UNL     1      27.368  80.711  62.675  1.00  0.00    -0.389 OA
HETATM   13  C7  UNL     1      27.688  79.382  62.934  1.00  0.00     0.192 C 
ENDBRANCH   1   8
TORSDOF 2
ENDMDL
MODEL 5
REMARK VINA RESULT: -4.715900579      1.722      2.265
REMARK  2 active torsions:
REMARK  status: ('A' for Active; 'I' for Inactive)
REMARK    1  A    between atoms: C2_2  and  N2_6 
REMARK    2  A    between atoms: N2_6  and  C3_8 
ROOT
HETATM    1  N2  UNL     1      28.101  81.252  63.363  1.00  0.00    -0.374 N 
ATOM      2  H2  UNL     1      27.398  81.426  64.082  1.00  0.00     0.161 HD
ENDROOT
BRANCH   1   3
HETATM    3  C2  UNL     1      29.350  81.924  63.452  1.00  0.00     0.066 C 
HETATM    4  C1  UNL     1      30.135  82.178  62.218  1.00  0.00     0.088 C 
HETATM    5  N1  UNL     1      29.843  82.332  64.568  1.00  0.00    -0.389 N 
ATOM      6  H12 UNL     1      30.739  82.815  64.633  1.00  0.00     0.157 HD
ATOM      7  H11 UNL     1      29.304  82.158  65.416  1.00  0.00     0.157 HD
ENDBRANCH   1   3
BRANCH   1   8
HETATM    8  C3  UNL     1      27.786  80.329  62.289  1.00  0.00     0.106 C 
HETATM    9  C4  UNL     1      26.772  80.936  61.389  1.00  0.00     0.029 C 
HETATM   10  C5  UNL     1      25.627  80.081  61.022  1.00  0.00     0.028 C 
HETATM   11  C6  UNL     1      25.514  78.790  61.748  1.00  0.00     0.167 C 
HETATM   12  O1  UNL     1      26.727  78.181  62.025  1.00  0.00    -0.389 OA
HETATM   13  C7  UNL     1      27.409  79.027  62.895  1.00  0.00     0.192 C 
ENDBRANCH   1   8
TORSDOF 2
ENDMDL
