MODEL 1
REMARK VINA RESULT: -4.363995021      0.000      0.000
REMARK  3 active torsions:
REMARK  status: ('A' for Active; 'I' for Inactive)
REMARK    1  A    between atoms: N1_1  and  N2_4 
REMARK    2  A    between atoms: C1_6  and  N3_7 
REMARK    3  A    between atoms: C7_14  and  N4_15 
ROOT
HETATM    1  N3  UNL     1      27.398  80.340  61.700  1.00  0.00    -0.356 N 
ATOM      2  H3  UNL     1      27.342  80.264  60.684  1.00  0.00     0.166 HD
HETATM    3  C2  UNL     1      28.125  81.250  62.239  1.00  0.00     0.018 C 
HETATM    4  C3  UNL     1      28.284  81.458  63.680  1.00  0.00     0.054 C 
HETATM    5  C4  UNL     1      29.682  81.718  64.126  1.00  0.00     0.006 C 
HETATM    6  C5  UNL     1      30.541  82.435  63.158  1.00  0.00     0.003 C 
HETATM    7  C6  UNL     1      30.317  82.064  61.719  1.00  0.00     0.039 C 
HETATM    8  C7  UNL     1      28.861  82.162  61.322  1.00  0.00     0.228 C 
ENDROOT
BRANCH   1   9
HETATM    9  C1  UNL     1      26.666  79.431  62.532  1.00  0.00     0.196 C 
HETATM   10  N2  UNL     1      27.227  78.291  62.762  1.00  0.00    -0.303 N 
ATOM     11  H2  UNL     1      28.140  78.060  62.370  1.00  0.00     0.187 HD
BRANCH  10  12
HETATM   12  N1  UNL     1      26.534  77.393  63.567  1.00  0.00    -0.344 N 
ATOM     13  H12 UNL     1      25.544  77.210  63.405  1.00  0.00     0.176 HD
ATOM     14  H11 UNL     1      27.059  76.935  64.313  1.00  0.00     0.176 HD
ENDBRANCH  10  12
ENDBRANCH   1   9
BRANCH   8  15
HETATM   15  N4  UNL     1      28.412  83.525  61.497  1.00  0.00    -0.070 N 
ATOM     16  H43 UNL     1      28.642  84.107  60.692  1.00  0.00     0.275 HD
ATOM     17  H42 UNL     1      27.395  83.598  61.452  1.00  0.00     0.275 HD
ATOM     18  H41 UNL     1      28.782  83.914  62.364  1.00  0.00     0.275 HD
ENDBRANCH   8  15
TORSDOF 3
ENDMDL
MODEL 2
REMARK VINA RESULT: -4.355775488      1.648      2.004
REMARK  3 active torsions:
REMARK  status: ('A' for Active; 'I' for Inactive)
REMARK    1  A    between atoms: N1_1  and  N2_4 
REMARK    2  A    between atoms: C1_6  and  N3_7 
REMARK    3  A    between atoms: C7_14  and  N4_15 
ROOT
HETATM    1  N3  UNL     1      27.545  79.124  63.342  1.00  0.00    -0.356 N 
ATOM      2  H3  UNL     1      26.584  79.338  63.075  1.00  0.00     0.166 HD
HETATM    3  C2  UNL     1      28.434  80.049  63.346  1.00  0.00     0.018 C 
HETATM    4  C3  UNL     1      29.841  79.864  63.709  1.00  0.00     0.054 C 
HETATM    5  C4  UNL     1      30.816  80.543  62.811  1.00  0.00     0.006 C 
HETATM    6  C5  UNL     1      30.352  81.808  62.200  1.00  0.00     0.003 C 
HETATM    7  C6  UNL     1      28.901  81.825  61.809  1.00  0.00     0.039 C 
HETATM    8  C7  UNL     1      27.996  81.413  62.948  1.00  0.00     0.228 C 
ENDROOT
BRANCH   1   9
HETATM    9  C1  UNL     1      27.908  77.788  63.716  1.00  0.00     0.196 C 
HETATM   10  N2  UNL     1      26.953  76.920  63.726  1.00  0.00    -0.303 N 
ATOM     11  H2  UNL     1      25.997  77.179  63.481  1.00  0.00     0.187 HD
BRANCH  10  12
HETATM   12  N1  UNL     1      27.282  75.617  64.086  1.00  0.00    -0.344 N 
ATOM     13  H12 UNL     1      28.257  75.347  64.215  1.00  0.00     0.176 HD
ATOM     14  H11 UNL     1      26.511  74.960  64.213  1.00  0.00     0.176 HD
ENDBRANCH  10  12
ENDBRANCH   1   9
BRANCH   8  15
HETATM   15  N4  UNL     1      28.163  82.338  64.046  1.00  0.00    -0.070 N 
ATOM     16  H43 UNL     1      27.861  83.280  63.798  1.00  0.00     0.275 HD
ATOM     17  H42 UNL     1      27.498  82.159  64.799  1.00  0.00     0.275 HD
ATOM     18  H41 UNL     1      29.127  82.324  64.380  1.00  0.00     0.275 HD
ENDBRANCH   8  15
TORSDOF 3
ENDMDL
MODEL 3
REMARK VINA RESULT: -4.349734687      2.164      3.034
REMARK  3 active torsions:
REMARK  status: ('A' for Active; 'I' for Inactive)
REMARK    1  A    between atoms: N1_1  and  N2_4 
REMARK    2  A    between atoms: C1_6  and  N3_7 
REMARK    3  A    between atoms: C7_14  and  N4_15 
ROOT
HETATM    1  N3  UNL     1      28.258  80.289  62.884  1.00  0.00    -0.356 N 
ATOM      2  H3  UNL     1      28.577  79.326  62.770  1.00  0.00     0.166 HD
HETATM    3  C2  UNL     1      28.843  81.066  63.721  1.00  0.00     0.018 C 
HETATM    4  C3  UNL     1      28.477  82.462  63.972  1.00  0.00     0.054 C 
HETATM    5  C4  UNL     1      28.450  82.855  65.409  1.00  0.00     0.006 C 
HETATM    6  C5  UNL     1      29.418  82.157  66.283  1.00  0.00     0.003 C 
HETATM    7  C6  UNL     1      29.637  80.708  65.952  1.00  0.00     0.039 C 
HETATM    8  C7  UNL     1      29.979  80.499  64.494  1.00  0.00     0.228 C 
ENDROOT
BRANCH   1   9
HETATM    9  C1  UNL     1      27.155  80.780  62.110  1.00  0.00     0.196 C 
HETATM   10  N2  UNL     1      26.443  79.889  61.505  1.00  0.00    -0.303 N 
ATOM     11  H2  UNL     1      26.659  78.895  61.580  1.00  0.00     0.187 HD
BRANCH  10  12
HETATM   12  N1  UNL     1      25.368  80.342  60.748  1.00  0.00    -0.344 N 
ATOM     13  H12 UNL     1      25.518  80.980  59.967  1.00  0.00     0.176 HD
ATOM     14  H11 UNL     1      24.440  80.008  61.010  1.00  0.00     0.176 HD
ENDBRANCH  10  12
ENDBRANCH   1   9
BRANCH   8  15
HETATM   15  N4  UNL     1      31.203  81.206  64.188  1.00  0.00    -0.070 N 
ATOM     16  H43 UNL     1      32.025  80.619  64.323  1.00  0.00     0.275 HD
ATOM     17  H42 UNL     1      31.301  81.378  63.187  1.00  0.00     0.275 HD
ATOM     18  H41 UNL     1      31.260  82.069  64.728  1.00  0.00     0.275 HD
ENDBRANCH   8  15
TORSDOF 3
ENDMDL
MODEL 4
REMARK VINA RESULT: -4.254806566      1.772      1.856
REMARK  3 active torsions:
REMARK  status: ('A' for Active; 'I' for Inactive)
REMARK    1  A    between atoms: N1_1  and  N2_4 
REMARK    2  A    between atoms: C1_6  and  N3_7 
REMARK    3  A    between atoms: C7_14  and  N4_15 
ROOT
HETATM    1  N3  UNL     1      27.057  80.840  61.842  1.00  0.00    -0.356 N 
ATOM      2  H3  UNL     1      26.713  81.643  61.315  1.00  0.00     0.166 HD
HETATM    3  C2  UNL     1      28.078  80.963  62.611  1.00  0.00     0.018 C 
HETATM    4  C3  UNL     1      28.663  79.887  63.414  1.00  0.00     0.054 C 
HETATM    5  C4  UNL     1      30.151  79.824  63.390  1.00  0.00     0.006 C 
HETATM    6  C5  UNL     1      30.845  81.122  63.243  1.00  0.00     0.003 C 
HETATM    7  C6  UNL     1      30.166  82.102  62.328  1.00  0.00     0.039 C 
HETATM    8  C7  UNL     1      28.712  82.307  62.687  1.00  0.00     0.228 C 
ENDROOT
BRANCH   1   9
HETATM    9  C1  UNL     1      26.404  79.568  61.727  1.00  0.00     0.196 C 
HETATM   10  N2  UNL     1      25.173  79.594  61.342  1.00  0.00    -0.303 N 
ATOM     11  H2  UNL     1      24.699  80.473  61.133  1.00  0.00     0.187 HD
BRANCH  10  12
HETATM   12  N1  UNL     1      24.519  78.372  61.223  1.00  0.00    -0.344 N 
ATOM     13  H12 UNL     1      23.774  78.119  61.873  1.00  0.00     0.176 HD
ATOM     14  H11 UNL     1      24.818  77.755  60.468  1.00  0.00     0.176 HD
ENDBRANCH  10  12
ENDBRANCH   1   9
BRANCH   8  15
HETATM   15  N4  UNL     1      28.623  82.832  64.031  1.00  0.00    -0.070 N 
ATOM     16  H43 UNL     1      27.724  82.621  64.463  1.00  0.00     0.275 HD
ATOM     17  H42 UNL     1      29.226  82.323  64.678  1.00  0.00     0.275 HD
ATOM     18  H41 UNL     1      28.821  83.832  64.037  1.00  0.00     0.275 HD
ENDBRANCH   8  15
TORSDOF 3
ENDMDL
MODEL 5
REMARK VINA RESULT: -4.214658922      2.186      3.297
REMARK  3 active torsions:
REMARK  status: ('A' for Active; 'I' for Inactive)
REMARK    1  A    between atoms: N1_1  and  N2_4 
REMARK    2  A    between atoms: C1_6  and  N3_7 
REMARK    3  A    between atoms: C7_14  and  N4_15 
ROOT
HETATM    1  N3  UNL     1      27.950  78.191  64.360  1.00  0.00    -0.356 N 
ATOM      2  H3  UNL     1      28.529  78.372  65.180  1.00  0.00     0.166 HD
HETATM    3  C2  UNL     1      27.953  79.013  63.374  1.00  0.00     0.018 C 
HETATM    4  C3  UNL     1      27.166  78.861  62.148  1.00  0.00     0.054 C 
HETATM    5  C4  UNL     1      26.502  80.106  61.671  1.00  0.00     0.006 C 
HETATM    6  C5  UNL     1      27.221  81.367  61.958  1.00  0.00     0.003 C 
HETATM    7  C6  UNL     1      27.921  81.406  63.287  1.00  0.00     0.039 C 
HETATM    8  C7  UNL     1      28.825  80.212  63.493  1.00  0.00     0.228 C 
ENDROOT
BRANCH   1   9
HETATM    9  C1  UNL     1      27.128  77.017  64.304  1.00  0.00     0.196 C 
HETATM   10  N2  UNL     1      27.630  75.945  64.818  1.00  0.00    -0.303 N 
ATOM     11  H2  UNL     1      28.559  75.943  65.239  1.00  0.00     0.187 HD
BRANCH  10  12
HETATM   12  N1  UNL     1      26.851  74.794  64.774  1.00  0.00    -0.344 N 
ATOM     13  H12 UNL     1      26.777  74.188  65.591  1.00  0.00     0.176 HD
ATOM     14  H11 UNL     1      26.367  74.592  63.899  1.00  0.00     0.176 HD
ENDBRANCH  10  12
ENDBRANCH   1   9
BRANCH   8  15
HETATM   15  N4  UNL     1      29.841  80.202  62.465  1.00  0.00    -0.070 N 
ATOM     16  H43 UNL     1      29.767  81.012  61.850  1.00  0.00     0.275 HD
ATOM     17  H42 UNL     1      30.769  80.385  62.846  1.00  0.00     0.275 HD
ATOM     18  H41 UNL     1      29.811  79.326  61.944  1.00  0.00     0.275 HD
ENDBRANCH   8  15
TORSDOF 3
ENDMDL
