MODEL 1
REMARK VINA RESULT: -4.436998270      0.000      0.000
REMARK  2 active torsions:
REMARK  status: ('A' for Active; 'I' for Inactive)
REMARK    1  A    between atoms: C2_2  and  N1_3 
REMARK    2  A    between atoms: N2_5  and  C3_7 
ROOT
HETATM    1  C3  UNL     1      27.255  77.403  63.411  1.00  0.00     0.316 C 
HETATM    2  N3  UNL     1      27.906  78.547  63.991  1.00  0.00    -0.091 NA
HETATM    3  N4  UNL     1      27.775  79.543  62.999  1.00  0.00    -0.277 N 
ATOM      4  H4  UNL     1      28.401  80.337  62.866  1.00  0.00     0.185 HD
HETATM    5  C4  UNL     1      26.613  79.252  62.210  1.00  0.00     0.186 C 
HETATM    6  S1  UNL     1      25.968  80.183  61.031  1.00  0.00    -0.040 SA
HETATM    7  N5  UNL     1      26.162  77.989  62.687  1.00  0.00    -0.329 N 
ATOM      8  H5  UNL     1      25.240  77.579  62.541  1.00  0.00     0.165 HD
ENDROOT
BRANCH   1   9
HETATM    9  N2  UNL     1      26.871  76.416  64.337  1.00  0.00    -0.302 N 
HETATM   10  N1  UNL     1      26.392  76.675  65.464  1.00  0.00    -0.338 N 
ATOM     11  H1  UNL     1      26.272  77.653  65.725  1.00  0.00     0.179 HD
ATOM     12  H2  UNL     1      26.989  75.436  64.076  1.00  0.00     0.183 HD
BRANCH  10  13
HETATM   13  C2  UNL     1      26.007  75.681  66.395  1.00  0.00     0.134 C 
HETATM   14  C1  UNL     1      25.803  74.332  65.732  1.00  0.00     0.028 C 
ENDBRANCH  10  13
ENDBRANCH   1   9
TORSDOF 2
ENDMDL
MODEL 2
REMARK VINA RESULT: -4.357399150      1.288      1.681
REMARK  2 active torsions:
REMARK  status: ('A' for Active; 'I' for Inactive)
REMARK    1  A    between atoms: C2_2  and  N1_3 
REMARK    2  A    between atoms: N2_5  and  C3_7 
ROOT
HETATM    1  C3  UNL     1      26.748  78.042  63.334  1.00  0.00     0.316 C 
HETATM    2  N3  UNL     1      26.232  78.068  61.992  1.00  0.00    -0.091 NA
HETATM    3  N4  UNL     1      26.428  79.405  61.585  1.00  0.00    -0.277 N 
ATOM      4  H4  UNL     1      25.879  79.900  60.884  1.00  0.00     0.185 HD
HETATM    5  C4  UNL     1      27.530  79.950  62.325  1.00  0.00     0.186 C 
HETATM    6  S1  UNL     1      28.224  81.415  62.116  1.00  0.00    -0.040 SA
HETATM    7  N5  UNL     1      27.869  78.936  63.264  1.00  0.00    -0.329 N 
ATOM      8  H5  UNL     1      28.741  78.860  63.787  1.00  0.00     0.165 HD
ENDROOT
BRANCH   1   9
HETATM    9  N2  UNL     1      27.063  76.758  63.816  1.00  0.00    -0.302 N 
HETATM   10  N1  UNL     1      26.543  76.257  64.840  1.00  0.00    -0.338 N 
ATOM     11  H1  UNL     1      25.855  76.808  65.351  1.00  0.00     0.179 HD
ATOM     12  H2  UNL     1      27.751  76.204  63.304  1.00  0.00     0.183 HD
BRANCH  10  13
HETATM   13  C2  UNL     1      26.862  74.966  65.324  1.00  0.00     0.134 C 
HETATM   14  C1  UNL     1      25.638  74.240  65.850  1.00  0.00     0.028 C 
ENDBRANCH  10  13
ENDBRANCH   1   9
TORSDOF 2
ENDMDL
MODEL 3
REMARK VINA RESULT: -4.282084800      3.877      4.433
REMARK  2 active torsions:
REMARK  status: ('A' for Active; 'I' for Inactive)
REMARK    1  A    between atoms: C2_2  and  N1_3 
REMARK    2  A    between atoms: N2_5  and  C3_7 
ROOT
HETATM    1  C3  UNL     1      27.800  75.425  64.775  1.00  0.00     0.316 C 
HETATM    2  N3  UNL     1      28.405  74.172  64.413  1.00  0.00    -0.091 NA
HETATM    3  N4  UNL     1      29.784  74.470  64.362  1.00  0.00    -0.277 N 
ATOM      4  H4  UNL     1      30.478  73.979  63.798  1.00  0.00     0.185 HD
HETATM    5  C4  UNL     1      30.045  75.577  65.235  1.00  0.00     0.186 C 
HETATM    6  S1  UNL     1      31.505  76.203  65.618  1.00  0.00    -0.040 SA
HETATM    7  N5  UNL     1      28.758  75.995  65.679  1.00  0.00    -0.329 N 
ATOM      8  H5  UNL     1      28.557  76.585  66.486  1.00  0.00     0.165 HD
ENDROOT
BRANCH   1   9
HETATM    9  N2  UNL     1      26.500  75.318  65.303  1.00  0.00    -0.302 N 
HETATM   10  N1  UNL     1      25.972  74.228  65.623  1.00  0.00    -0.338 N 
ATOM     11  H1  UNL     1      26.512  73.374  65.494  1.00  0.00     0.179 HD
ATOM     12  H2  UNL     1      25.959  76.173  65.433  1.00  0.00     0.183 HD
BRANCH  10  13
HETATM   13  C2  UNL     1      24.664  74.122  66.152  1.00  0.00     0.134 C 
HETATM   14  C1  UNL     1      24.366  75.223  67.152  1.00  0.00     0.028 C 
ENDBRANCH  10  13
ENDBRANCH   1   9
TORSDOF 2
ENDMDL
MODEL 4
REMARK VINA RESULT: -4.176931686      1.658      2.024
REMARK  2 active torsions:
REMARK  status: ('A' for Active; 'I' for Inactive)
REMARK    1  A    between atoms: C2_2  and  N1_3 
REMARK    2  A    between atoms: N2_5  and  C3_7 
ROOT
HETATM    1  C3  UNL     1      26.717  78.260  63.152  1.00  0.00     0.316 C 
HETATM    2  N3  UNL     1      25.958  78.325  61.932  1.00  0.00    -0.091 NA
HETATM    3  N4  UNL     1      26.090  79.671  61.528  1.00  0.00    -0.277 N 
ATOM      4  H4  UNL     1      25.425  80.189  60.955  1.00  0.00     0.185 HD
HETATM    5  C4  UNL     1      27.318  80.189  62.059  1.00  0.00     0.186 C 
HETATM    6  S1  UNL     1      27.979  81.653  61.757  1.00  0.00    -0.040 SA
HETATM    7  N5  UNL     1      27.816  79.148  62.892  1.00  0.00    -0.329 N 
ATOM      8  H5  UNL     1      28.770  79.051  63.240  1.00  0.00     0.165 HD
ENDROOT
BRANCH   1   9
HETATM    9  N2  UNL     1      27.101  76.962  63.534  1.00  0.00    -0.302 N 
HETATM   10  N1  UNL     1      26.797  76.447  64.635  1.00  0.00    -0.338 N 
ATOM     11  H1  UNL     1      26.242  76.998  65.289  1.00  0.00     0.179 HD
ATOM     12  H2  UNL     1      27.656  76.409  62.880  1.00  0.00     0.183 HD
BRANCH  10  13
HETATM   13  C2  UNL     1      27.185  75.142  65.019  1.00  0.00     0.134 C 
HETATM   14  C1  UNL     1      28.392  74.657  64.238  1.00  0.00     0.028 C 
ENDBRANCH  10  13
ENDBRANCH   1   9
TORSDOF 2
ENDMDL
MODEL 5
REMARK VINA RESULT: -4.134740230      4.402      5.420
REMARK  2 active torsions:
REMARK  status: ('A' for Active; 'I' for Inactive)
REMARK    1  A    between atoms: C2_2  and  N1_3 
REMARK    2  A    between atoms: N2_5  and  C3_7 
ROOT
HETATM    1  C3  UNL     1      28.357  81.755  62.662  1.00  0.00     0.316 C 
HETATM    2  N3  UNL     1      29.201  82.081  61.543  1.00  0.00    -0.091 NA
HETATM    3  N4  UNL     1      30.372  82.587  62.147  1.00  0.00    -0.277 N 
ATOM      4  H4  UNL     1      31.022  83.248  61.722  1.00  0.00     0.185 HD
HETATM    5  C4  UNL     1      30.496  82.015  63.456  1.00  0.00     0.186 C 
HETATM    6  S1  UNL     1      31.751  82.187  64.488  1.00  0.00    -0.040 SA
HETATM    7  N5  UNL     1      29.292  81.278  63.640  1.00  0.00    -0.329 N 
ATOM      8  H5  UNL     1      29.126  80.550  64.335  1.00  0.00     0.165 HD
ENDROOT
BRANCH   1   9
HETATM    9  N2  UNL     1      27.317  80.854  62.368  1.00  0.00    -0.302 N 
HETATM   10  N1  UNL     1      26.639  80.899  61.316  1.00  0.00    -0.338 N 
ATOM     11  H1  UNL     1      26.852  81.628  60.636  1.00  0.00     0.179 HD
ATOM     12  H2  UNL     1      27.105  80.123  63.048  1.00  0.00     0.183 HD
BRANCH  10  13
HETATM   13  C2  UNL     1      25.593  79.993  61.022  1.00  0.00     0.134 C 
HETATM   14  C1  UNL     1      25.704  78.717  61.836  1.00  0.00     0.028 C 
ENDBRANCH  10  13
ENDBRANCH   1   9
TORSDOF 2
ENDMDL
