MODEL 1
REMARK VINA RESULT: -8.598749430      0.000      0.000
REMARK  10 active torsions:
REMARK  status: ('A' for Active; 'I' for Inactive)
REMARK    1  A    between atoms: C2_2  and  C3_3 
REMARK    2  A    between atoms: C6_8  and  N2_9 
REMARK    3  A    between atoms: N2_9  and  C7_10 
REMARK    4  A    between atoms: C7_10  and  O1_11 
REMARK    5  A    between atoms: C7_10  and  C8_13 
REMARK    6  A    between atoms: C8_13  and  C9_14 
REMARK    7  A    between atoms: C8_13  and  N3_18 
REMARK    8  A    between atoms: C9_14  and  C10_15 
REMARK       I    between atoms: N3_18  and  C13_20 
REMARK       I    between atoms: C13_20  and  N4_22 
REMARK    9  A    between atoms: N4_22  and  C14_23 
REMARK   10  A    between atoms: N4_22  and  C16_25 
ROOT
HETATM    1  C7  UNL     1       5.238  26.921   7.991  1.00  0.00     0.239 C 
ENDROOT
BRANCH   1   2
HETATM    2  N2  UNL     1       3.974  27.202   7.910  1.00  0.00    -0.359 NA
BRANCH   2   3
HETATM    3  C6  UNL     1       2.806  27.465   7.830  1.00  0.00     0.198 A 
HETATM    4  N1  UNL     1       2.278  27.771   6.605  1.00  0.00    -0.328 N 
HETATM    5  C5  UNL     1       0.962  27.915   6.436  1.00  0.00     0.062 A 
ATOM      6  H1  UNL     1       2.901  27.891   5.807  1.00  0.00     0.168 HD
HETATM    7  C4  UNL     1       0.458  28.159   5.183  1.00  0.00     0.039 A 
HETATM    8  C20 UNL     1       0.082  27.760   7.477  1.00  0.00     0.061 A 
HETATM    9  C3  UNL     1      -0.913  28.249   4.918  1.00  0.00    -0.050 A 
HETATM   10  C22 UNL     1      -1.758  28.087   5.970  1.00  0.00    -0.053 A 
HETATM   11  C21 UNL     1      -1.270  27.843   7.270  1.00  0.00     0.039 A 
HETATM   12  C23 UNL     1      -3.209  28.182   5.835  1.00  0.00     0.049 C 
HETATM   13  N5  UNL     1       0.588  27.468   8.687  1.00  0.00    -0.355 N 
HETATM   14  C18 UNL     1       1.916  27.323   8.864  1.00  0.00     0.155 A 
HETATM   15  C19 UNL     1      -0.389  27.333   9.770  1.00  0.00     0.156 C 
BRANCH   9  16
HETATM   16  C2  UNL     1      -1.315  28.354   3.523  1.00  0.00     0.034 C 
HETATM   17  C1  UNL     1      -1.234  29.852   3.155  1.00  0.00     0.010 C 
ENDBRANCH   9  16
ENDBRANCH   2   3
ENDBRANCH   1   2
BRANCH   1  18
HETATM   18  O1  UNL     1       5.981  27.969   8.475  1.00  0.00    -0.334 OA
ATOM     19  H1  UNL     1       6.866  27.979   8.128  1.00  0.00     0.220 HD
ENDBRANCH   1  18
BRANCH   1  20
HETATM   20  C8  UNL     1       6.125  25.796   7.720  1.00  0.00     0.079 C 
BRANCH  20  21
HETATM   21  C9  UNL     1       5.384  24.617   7.216  1.00  0.00     0.067 C 
BRANCH  21  22
HETATM   22  C10 UNL     1       5.381  24.299   5.787  1.00  0.00    -0.017 C 
HETATM   23  C11 UNL     1       4.005  24.717   5.230  1.00  0.00     0.010 C 
HETATM   24  C12 UNL     1       6.475  24.831   4.929  1.00  0.00     0.010 C 
ENDBRANCH  21  22
ENDBRANCH  20  21
BRANCH  20  25
HETATM   25  N3  UNL     1       7.182  25.474   8.600  1.00  0.00    -0.307 N 
HETATM   26  C13 UNL     1       7.276  24.959   9.866  1.00  0.00     0.322 C 
HETATM   27  O2  UNL     1       6.301  24.606  10.608  1.00  0.00    -0.247 OA
HETATM   28  N4  UNL     1       8.590  24.765  10.458  1.00  0.00    -0.335 N 
ATOM     29  H3  UNL     1       8.096  25.675   8.196  1.00  0.00     0.170 HD
BRANCH  28  30
HETATM   30  C14 UNL     1       8.673  24.073  11.739  1.00  0.00     0.123 C 
HETATM   31  C15 UNL     1       9.160  25.122  12.732  1.00  0.00     0.026 C 
ENDBRANCH  28  30
BRANCH  28  32
HETATM   32  C16 UNL     1       9.765  25.253   9.822  1.00  0.00     0.123 C 
HETATM   33  C17 UNL     1      10.594  24.123   9.225  1.00  0.00     0.026 C 
ENDBRANCH  28  32
ENDBRANCH  20  25
ENDBRANCH   1  20
TORSDOF 10
ENDMDL
MODEL 2
REMARK VINA RESULT: -8.461104870      1.063      1.247
REMARK  10 active torsions:
REMARK  status: ('A' for Active; 'I' for Inactive)
REMARK    1  A    between atoms: C2_2  and  C3_3 
REMARK    2  A    between atoms: C6_8  and  N2_9 
REMARK    3  A    between atoms: N2_9  and  C7_10 
REMARK    4  A    between atoms: C7_10  and  O1_11 
REMARK    5  A    between atoms: C7_10  and  C8_13 
REMARK    6  A    between atoms: C8_13  and  C9_14 
REMARK    7  A    between atoms: C8_13  and  N3_18 
REMARK    8  A    between atoms: C9_14  and  C10_15 
REMARK       I    between atoms: N3_18  and  C13_20 
REMARK       I    between atoms: C13_20  and  N4_22 
REMARK    9  A    between atoms: N4_22  and  C14_23 
REMARK   10  A    between atoms: N4_22  and  C16_25 
ROOT
HETATM    1  C7  UNL     1       5.177  26.780   7.616  1.00  0.00     0.239 C 
ENDROOT
BRANCH   1   2
HETATM    2  N2  UNL     1       3.919  27.097   7.599  1.00  0.00    -0.359 NA
BRANCH   2   3
HETATM    3  C6  UNL     1       2.757  27.396   7.580  1.00  0.00     0.198 A 
HETATM    4  N1  UNL     1       2.173  27.714   6.384  1.00  0.00    -0.328 N 
HETATM    5  C5  UNL     1       0.855  27.899   6.285  1.00  0.00     0.062 A 
ATOM      6  H1  UNL     1       2.756  27.811   5.553  1.00  0.00     0.168 HD
HETATM    7  C4  UNL     1       0.292  28.153   5.059  1.00  0.00     0.039 A 
HETATM    8  C20 UNL     1       0.028  27.774   7.373  1.00  0.00     0.061 A 
HETATM    9  C3  UNL     1      -1.087  28.285   4.868  1.00  0.00    -0.050 A 
HETATM   10  C22 UNL     1      -1.879  28.154   5.965  1.00  0.00    -0.053 A 
HETATM   11  C21 UNL     1      -1.329  27.899   7.238  1.00  0.00     0.039 A 
HETATM   12  C23 UNL     1      -3.332  28.293   5.907  1.00  0.00     0.049 C 
HETATM   13  N5  UNL     1       0.590  27.472   8.555  1.00  0.00    -0.355 N 
HETATM   14  C18 UNL     1       1.920  27.287   8.661  1.00  0.00     0.155 A 
HETATM   15  C19 UNL     1      -0.332  27.372   9.689  1.00  0.00     0.156 C 
BRANCH   9  16
HETATM   16  C2  UNL     1      -1.560  28.396   3.496  1.00  0.00     0.034 C 
HETATM   17  C1  UNL     1      -1.274  29.848   3.051  1.00  0.00     0.010 C 
ENDBRANCH   9  16
ENDBRANCH   2   3
ENDBRANCH   1   2
BRANCH   1  18
HETATM   18  O1  UNL     1       5.994  27.871   7.780  1.00  0.00    -0.334 OA
ATOM     19  H1  UNL     1       6.734  27.865   7.185  1.00  0.00     0.220 HD
ENDBRANCH   1  18
BRANCH   1  20
HETATM   20  C8  UNL     1       6.000  25.581   7.515  1.00  0.00     0.079 C 
BRANCH  20  21
HETATM   21  C9  UNL     1       5.310  24.496   6.781  1.00  0.00     0.067 C 
BRANCH  21  22
HETATM   22  C10 UNL     1       5.744  23.106   6.932  1.00  0.00    -0.017 C 
HETATM   23  C11 UNL     1       4.538  22.211   6.578  1.00  0.00     0.010 C 
HETATM   24  C12 UNL     1       6.962  22.650   6.209  1.00  0.00     0.010 C 
ENDBRANCH  21  22
ENDBRANCH  20  21
BRANCH  20  25
HETATM   25  N3  UNL     1       6.769  25.132   8.612  1.00  0.00    -0.307 N 
HETATM   26  C13 UNL     1       7.776  25.657   9.378  1.00  0.00     0.322 C 
HETATM   27  O2  UNL     1       8.292  26.817   9.251  1.00  0.00    -0.247 OA
HETATM   28  N4  UNL     1       8.335  24.861  10.459  1.00  0.00    -0.335 N 
ATOM     29  H3  UNL     1       6.513  24.189   8.904  1.00  0.00     0.170 HD
BRANCH  28  30
HETATM   30  C14 UNL     1       9.294  25.495  11.357  1.00  0.00     0.123 C 
HETATM   31  C15 UNL     1       8.940  24.984  12.748  1.00  0.00     0.026 C 
ENDBRANCH  28  30
BRANCH  28  32
HETATM   32  C16 UNL     1       7.977  23.495  10.630  1.00  0.00     0.123 C 
HETATM   33  C17 UNL     1       8.927  22.566   9.884  1.00  0.00     0.026 C 
ENDBRANCH  28  32
ENDBRANCH  20  25
ENDBRANCH   1  20
TORSDOF 10
ENDMDL
MODEL 3
REMARK VINA RESULT: -8.441754718      1.414      1.925
REMARK  10 active torsions:
REMARK  status: ('A' for Active; 'I' for Inactive)
REMARK    1  A    between atoms: C2_2  and  C3_3 
REMARK    2  A    between atoms: C6_8  and  N2_9 
REMARK    3  A    between atoms: N2_9  and  C7_10 
REMARK    4  A    between atoms: C7_10  and  O1_11 
REMARK    5  A    between atoms: C7_10  and  C8_13 
REMARK    6  A    between atoms: C8_13  and  C9_14 
REMARK    7  A    between atoms: C8_13  and  N3_18 
REMARK    8  A    between atoms: C9_14  and  C10_15 
REMARK       I    between atoms: N3_18  and  C13_20 
REMARK       I    between atoms: C13_20  and  N4_22 
REMARK    9  A    between atoms: N4_22  and  C14_23 
REMARK   10  A    between atoms: N4_22  and  C16_25 
ROOT
HETATM    1  C7  UNL     1       5.210  26.556   7.279  1.00  0.00     0.239 C 
ENDROOT
BRANCH   1   2
HETATM    2  N2  UNL     1       3.964  26.915   7.318  1.00  0.00    -0.359 NA
BRANCH   2   3
HETATM    3  C6  UNL     1       2.812  27.252   7.358  1.00  0.00     0.198 A 
HETATM    4  N1  UNL     1       2.182  27.600   6.195  1.00  0.00    -0.328 N 
HETATM    5  C5  UNL     1       0.868  27.828   6.162  1.00  0.00     0.062 A 
ATOM      6  H1  UNL     1       2.727  27.686   5.337  1.00  0.00     0.168 HD
HETATM    7  C4  UNL     1       0.255  28.112   4.967  1.00  0.00     0.039 A 
HETATM    8  C20 UNL     1       0.091  27.720   7.287  1.00  0.00     0.061 A 
HETATM    9  C3  UNL     1      -1.127  28.291   4.844  1.00  0.00    -0.050 A 
HETATM   10  C22 UNL     1      -1.869  28.175   5.978  1.00  0.00    -0.053 A 
HETATM   11  C21 UNL     1      -1.267  27.890   7.220  1.00  0.00     0.039 A 
HETATM   12  C23 UNL     1      -3.317  28.362   5.992  1.00  0.00     0.049 C 
HETATM   13  N5  UNL     1       0.699  27.388   8.438  1.00  0.00    -0.355 N 
HETATM   14  C18 UNL     1       2.026  27.159   8.478  1.00  0.00     0.155 A 
HETATM   15  C19 UNL     1      -0.169  27.307   9.616  1.00  0.00     0.156 C 
BRANCH   9  16
HETATM   16  C2  UNL     1      -1.663  28.431   3.498  1.00  0.00     0.034 C 
HETATM   17  C1  UNL     1      -1.271  29.846   3.016  1.00  0.00     0.010 C 
ENDBRANCH   9  16
ENDBRANCH   2   3
ENDBRANCH   1   2
BRANCH   1  18
HETATM   18  O1  UNL     1       6.040  27.468   7.883  1.00  0.00    -0.334 OA
ATOM     19  H1  UNL     1       5.575  28.238   8.189  1.00  0.00     0.220 HD
ENDBRANCH   1  18
BRANCH   1  20
HETATM   20  C8  UNL     1       6.010  25.445   6.777  1.00  0.00     0.079 C 
BRANCH  20  21
HETATM   21  C9  UNL     1       5.251  24.605   5.823  1.00  0.00     0.067 C 
BRANCH  21  22
HETATM   22  C10 UNL     1       4.735  23.298   6.235  1.00  0.00    -0.017 C 
HETATM   23  C11 UNL     1       3.215  23.456   6.451  1.00  0.00     0.010 C 
HETATM   24  C12 UNL     1       5.020  22.111   5.385  1.00  0.00     0.010 C 
ENDBRANCH  21  22
ENDBRANCH  20  21
BRANCH  20  25
HETATM   25  N3  UNL     1       6.858  24.713   7.638  1.00  0.00    -0.307 N 
HETATM   26  C13 UNL     1       8.194  24.412   7.668  1.00  0.00     0.322 C 
HETATM   27  O2  UNL     1       9.068  24.787   6.818  1.00  0.00    -0.247 OA
HETATM   28  N4  UNL     1       8.716  23.602   8.757  1.00  0.00    -0.335 N 
ATOM     29  H3  UNL     1       6.353  24.311   8.428  1.00  0.00     0.170 HD
BRANCH  28  30
HETATM   30  C14 UNL     1      10.160  23.425   8.853  1.00  0.00     0.123 C 
HETATM   31  C15 UNL     1      10.367  21.934   9.088  1.00  0.00     0.026 C 
ENDBRANCH  28  30
BRANCH  28  32
HETATM   32  C16 UNL     1       7.846  22.979   9.694  1.00  0.00     0.123 C 
HETATM   33  C17 UNL     1       7.700  23.807  10.965  1.00  0.00     0.026 C 
ENDBRANCH  28  32
ENDBRANCH  20  25
ENDBRANCH   1  20
TORSDOF 10
ENDMDL
MODEL 4
REMARK VINA RESULT: -8.410557266      1.722      3.792
REMARK  10 active torsions:
REMARK  status: ('A' for Active; 'I' for Inactive)
REMARK    1  A    between atoms: C2_2  and  C3_3 
REMARK    2  A    between atoms: C6_8  and  N2_9 
REMARK    3  A    between atoms: N2_9  and  C7_10 
REMARK    4  A    between atoms: C7_10  and  O1_11 
REMARK    5  A    between atoms: C7_10  and  C8_13 
REMARK    6  A    between atoms: C8_13  and  C9_14 
REMARK    7  A    between atoms: C8_13  and  N3_18 
REMARK    8  A    between atoms: C9_14  and  C10_15 
REMARK       I    between atoms: N3_18  and  C13_20 
REMARK       I    between atoms: C13_20  and  N4_22 
REMARK    9  A    between atoms: N4_22  and  C14_23 
REMARK   10  A    between atoms: N4_22  and  C16_25 
ROOT
HETATM    1  C7  UNL     1       5.072  26.784   8.088  1.00  0.00     0.239 C 
ENDROOT
BRANCH   1   2
HETATM    2  N2  UNL     1       3.827  27.132   7.977  1.00  0.00    -0.359 NA
BRANCH   2   3
HETATM    3  C6  UNL     1       2.674  27.450   7.871  1.00  0.00     0.198 A 
HETATM    4  N1  UNL     1       2.176  27.729   6.628  1.00  0.00    -0.328 N 
HETATM    5  C5  UNL     1       0.871  27.932   6.436  1.00  0.00     0.062 A 
ATOM      6  H1  UNL     1       2.813  27.783   5.833  1.00  0.00     0.168 HD
HETATM    7  C4  UNL     1       0.393  28.146   5.167  1.00  0.00     0.039 A 
HETATM    8  C20 UNL     1      -0.027  27.866   7.471  1.00  0.00     0.061 A 
HETATM    9  C3  UNL     1      -0.968  28.294   4.881  1.00  0.00    -0.050 A 
HETATM   10  C22 UNL     1      -1.832  28.221   5.929  1.00  0.00    -0.053 A 
HETATM   11  C21 UNL     1      -1.370  28.008   7.243  1.00  0.00     0.039 A 
HETATM   12  C23 UNL     1      -3.275  28.383   5.770  1.00  0.00     0.049 C 
HETATM   13  N5  UNL     1       0.451  27.602   8.699  1.00  0.00    -0.355 N 
HETATM   14  C18 UNL     1       1.768  27.398   8.898  1.00  0.00     0.155 A 
HETATM   15  C19 UNL     1      -0.543  27.562   9.774  1.00  0.00     0.156 C 
BRANCH   9  16
HETATM   16  C2  UNL     1      -1.350  28.359   3.478  1.00  0.00     0.034 C 
HETATM   17  C1  UNL     1      -1.202  29.836   3.052  1.00  0.00     0.010 C 
ENDBRANCH   9  16
ENDBRANCH   2   3
ENDBRANCH   1   2
BRANCH   1  18
HETATM   18  O1  UNL     1       5.934  27.816   7.814  1.00  0.00    -0.334 OA
ATOM     19  H1  UNL     1       6.109  28.357   8.576  1.00  0.00     0.220 HD
ENDBRANCH   1  18
BRANCH   1  20
HETATM   20  C8  UNL     1       5.846  25.597   8.430  1.00  0.00     0.079 C 
BRANCH  20  21
HETATM   21  C9  UNL     1       7.121  25.942   9.099  1.00  0.00     0.067 C 
BRANCH  21  22
HETATM   22  C10 UNL     1       7.192  26.029  10.559  1.00  0.00    -0.017 C 
HETATM   23  C11 UNL     1       8.290  25.048  11.020  1.00  0.00     0.010 C 
HETATM   24  C12 UNL     1       7.384  27.362  11.191  1.00  0.00     0.010 C 
ENDBRANCH  21  22
ENDBRANCH  20  21
BRANCH  20  25
HETATM   25  N3  UNL     1       5.946  24.510   7.533  1.00  0.00    -0.307 N 
HETATM   26  C13 UNL     1       5.057  23.745   6.824  1.00  0.00     0.322 C 
HETATM   27  O2  UNL     1       3.789  23.877   6.817  1.00  0.00    -0.247 OA
HETATM   28  N4  UNL     1       5.560  22.677   5.974  1.00  0.00    -0.335 N 
ATOM     29  H3  UNL     1       6.912  24.226   7.375  1.00  0.00     0.170 HD
BRANCH  28  30
HETATM   30  C14 UNL     1       4.613  21.979   5.112  1.00  0.00     0.123 C 
HETATM   31  C15 UNL     1       5.205  20.590   4.907  1.00  0.00     0.026 C 
ENDBRANCH  28  30
BRANCH  28  32
HETATM   32  C16 UNL     1       6.932  22.303   5.994  1.00  0.00     0.123 C 
HETATM   33  C17 UNL     1       7.763  23.158   5.045  1.00  0.00     0.026 C 
ENDBRANCH  28  32
ENDBRANCH  20  25
ENDBRANCH   1  20
TORSDOF 10
ENDMDL
MODEL 5
REMARK VINA RESULT: -8.390338494      0.837      1.268
REMARK  10 active torsions:
REMARK  status: ('A' for Active; 'I' for Inactive)
REMARK    1  A    between atoms: C2_2  and  C3_3 
REMARK    2  A    between atoms: C6_8  and  N2_9 
REMARK    3  A    between atoms: N2_9  and  C7_10 
REMARK    4  A    between atoms: C7_10  and  O1_11 
REMARK    5  A    between atoms: C7_10  and  C8_13 
REMARK    6  A    between atoms: C8_13  and  C9_14 
REMARK    7  A    between atoms: C8_13  and  N3_18 
REMARK    8  A    between atoms: C9_14  and  C10_15 
REMARK       I    between atoms: N3_18  and  C13_20 
REMARK       I    between atoms: C13_20  and  N4_22 
REMARK    9  A    between atoms: N4_22  and  C14_23 
REMARK   10  A    between atoms: N4_22  and  C16_25 
ROOT
HETATM    1  C7  UNL     1       4.996  27.641   8.455  1.00  0.00     0.239 C 
ENDROOT
BRANCH   1   2
HETATM    2  N2  UNL     1       3.720  27.777   8.267  1.00  0.00    -0.359 NA
BRANCH   2   3
HETATM    3  C6  UNL     1       2.540  27.909   8.092  1.00  0.00     0.198 A 
HETATM    4  N1  UNL     1       2.078  28.121   6.822  1.00  0.00    -0.328 N 
HETATM    5  C5  UNL     1       0.771  28.118   6.552  1.00  0.00     0.062 A 
ATOM      6  H1  UNL     1       2.745  28.286   6.067  1.00  0.00     0.168 HD
HETATM    7  C4  UNL     1       0.343  28.269   5.256  1.00  0.00     0.039 A 
HETATM    8  C20 UNL     1      -0.164  27.897   7.530  1.00  0.00     0.061 A 
HETATM    9  C3  UNL     1      -1.006  28.203   4.888  1.00  0.00    -0.050 A 
HETATM   10  C22 UNL     1      -1.907  27.981   5.881  1.00  0.00    -0.053 A 
HETATM   11  C21 UNL     1      -1.497  27.828   7.221  1.00  0.00     0.039 A 
HETATM   12  C23 UNL     1      -3.345  27.914   5.636  1.00  0.00     0.049 C 
HETATM   13  N5  UNL     1       0.276  27.697   8.783  1.00  0.00    -0.355 N 
HETATM   14  C18 UNL     1       1.593  27.702   9.062  1.00  0.00     0.155 A 
HETATM   15  C19 UNL     1      -0.762  27.487   9.796  1.00  0.00     0.156 C 
BRANCH   9  16
HETATM   16  C2  UNL     1      -1.308  28.224   3.465  1.00  0.00     0.034 C 
HETATM   17  C1  UNL     1      -1.443  29.711   3.068  1.00  0.00     0.010 C 
ENDBRANCH   9  16
ENDBRANCH   2   3
ENDBRANCH   1   2
BRANCH   1  18
HETATM   18  O1  UNL     1       5.539  28.683   9.165  1.00  0.00    -0.334 OA
ATOM     19  H1  UNL     1       5.438  29.517   8.723  1.00  0.00     0.220 HD
ENDBRANCH   1  18
BRANCH   1  20
HETATM   20  C8  UNL     1       6.050  26.686   8.133  1.00  0.00     0.079 C 
BRANCH  20  21
HETATM   21  C9  UNL     1       5.526  25.508   7.405  1.00  0.00     0.067 C 
BRANCH  21  22
HETATM   22  C10 UNL     1       5.204  25.601   5.980  1.00  0.00    -0.017 C 
HETATM   23  C11 UNL     1       6.289  24.814   5.216  1.00  0.00     0.010 C 
HETATM   24  C12 UNL     1       3.847  25.200   5.521  1.00  0.00     0.010 C 
ENDBRANCH  21  22
ENDBRANCH  20  21
BRANCH  20  25
HETATM   25  N3  UNL     1       7.062  26.376   9.070  1.00  0.00    -0.307 N 
HETATM   26  C13 UNL     1       7.181  25.518  10.131  1.00  0.00     0.322 C 
HETATM   27  O2  UNL     1       6.289  24.706  10.545  1.00  0.00    -0.247 OA
HETATM   28  N4  UNL     1       8.426  25.484  10.882  1.00  0.00    -0.335 N 
ATOM     29  H3  UNL     1       7.909  26.924   8.919  1.00  0.00     0.170 HD
BRANCH  28  30
HETATM   30  C14 UNL     1       8.586  24.458  11.905  1.00  0.00     0.123 C 
HETATM   31  C15 UNL     1       9.824  23.671  11.495  1.00  0.00     0.026 C 
ENDBRANCH  28  30
BRANCH  28  32
HETATM   32  C16 UNL     1       9.456  26.436  10.644  1.00  0.00     0.123 C 
HETATM   33  C17 UNL     1       9.410  27.580  11.650  1.00  0.00     0.026 C 
ENDBRANCH  28  32
ENDBRANCH  20  25
ENDBRANCH   1  20
TORSDOF 10
ENDMDL
