MODEL 1
REMARK VINA RESULT: -8.594770483      0.000      0.000
REMARK  10 active torsions:
REMARK  status: ('A' for Active; 'I' for Inactive)
REMARK    1  A    between atoms: C2_2  and  C3_3 
REMARK    2  A    between atoms: C3_3  and  C4_4 
REMARK    3  A    between atoms: C5_5  and  C6_6 
REMARK    4  A    between atoms: C6_6  and  C7_7 
REMARK    5  A    between atoms: C7_7  and  C8_8 
REMARK    6  A    between atoms: C10_13  and  C11_14 
REMARK    7  A    between atoms: C11_14  and  C12_15 
REMARK    8  A    between atoms: C12_15  and  C13_16 
REMARK    9  A    between atoms: C13_16  and  C14_17 
REMARK   10  A    between atoms: N3_22  and  O1_23 
ROOT
HETATM    1  C4  UNL     1       3.759  27.786   7.091  1.00  0.00     0.040 A 
HETATM    2  C5  UNL     1       3.911  28.426   8.300  1.00  0.00     0.067 A 
HETATM    3  N3  UNL     1       4.878  28.042   9.201  1.00  0.00    -0.224 N 
HETATM    4  C17 UNL     1       5.696  27.041   8.934  1.00  0.00     0.095 A 
HETATM    5  C18 UNL     1       6.655  26.694   9.885  1.00  0.00    -0.030 A 
HETATM    6  C19 UNL     1       6.807  27.394  11.179  1.00  0.00     0.050 C 
HETATM    7  C20 UNL     1       7.478  25.629   9.537  1.00  0.00     0.009 A 
HETATM    8  C21 UNL     1       7.372  24.952   8.346  1.00  0.00     0.003 A 
HETATM    9  C22 UNL     1       6.406  25.336   7.441  1.00  0.00     0.032 A 
HETATM   10  C23 UNL     1       5.553  26.392   7.730  1.00  0.00     0.064 A 
HETATM   11  N4  UNL     1       4.591  26.768   6.822  1.00  0.00    -0.351 N 
HETATM   12  C24 UNL     1       4.563  26.012   5.617  1.00  0.00     0.156 C 
ENDROOT
BRANCH   2  13
HETATM   13  C6  UNL     1       2.978  29.520   8.668  1.00  0.00     0.092 C 
BRANCH  13  14
HETATM   14  C7  UNL     1       1.794  28.961   9.392  1.00  0.00     0.028 C 
BRANCH  14  15
HETATM   15  C8  UNL     1       0.600  28.884   8.833  1.00  0.00     0.103 A 
HETATM   16  N1  UNL     1      -0.405  29.743   9.064  1.00  0.00    -0.332 N 
HETATM   17  C9  UNL     1      -1.493  29.385   8.321  1.00  0.00     0.128 A 
ATOM     18  H1  UNL     1      -0.362  30.541   9.697  1.00  0.00     0.168 HD
HETATM   19  S1  UNL     1      -2.919  30.161   8.310  1.00  0.00    -0.058 SA
HETATM   20  C10 UNL     1      -1.154  28.269   7.606  1.00  0.00     0.068 A 
HETATM   21  N2  UNL     1       0.136  27.997   7.952  1.00  0.00    -0.340 N 
ATOM     22  H2  UNL     1       0.678  27.216   7.583  1.00  0.00     0.167 HD
BRANCH  20  23
HETATM   23  C11 UNL     1      -1.847  27.557   6.740  1.00  0.00     0.006 C 
BRANCH  23  24
HETATM   24  C12 UNL     1      -2.140  28.085   5.402  1.00  0.00     0.030 C 
BRANCH  24  25
HETATM   25  C13 UNL     1      -0.862  28.332   4.609  1.00  0.00     0.008 C 
BRANCH  25  26
HETATM   26  C14 UNL     1      -1.160  28.833   3.210  1.00  0.00    -0.014 A 
HETATM   27  C15 UNL     1      -2.299  29.769   2.993  1.00  0.00     0.005 A 
HETATM   28  C16 UNL     1      -0.898  30.332   3.003  1.00  0.00     0.005 A 
ENDBRANCH  25  26
ENDBRANCH  24  25
ENDBRANCH  23  24
ENDBRANCH  20  23
ENDBRANCH  14  15
ENDBRANCH  13  14
ENDBRANCH   2  13
BRANCH   1  29
HETATM   29  C3  UNL     1       2.764  28.211   6.073  1.00  0.00     0.085 C 
BRANCH  29  30
HETATM   30  C2  UNL     1       3.027  29.554   5.509  1.00  0.00    -0.031 C 
HETATM   31  C1  UNL     1       2.030  30.399   5.344  1.00  0.00     0.007 C 
ENDBRANCH  29  30
ENDBRANCH   1  29
BRANCH   3  32
HETATM   32  O1  UNL     1       4.928  28.747  10.352  1.00  0.00    -0.282 OA
ATOM     33  H1  UNL     1       4.765  28.255  11.148  1.00  0.00     0.245 HD
ENDBRANCH   3  32
TORSDOF 10
ENDMDL
MODEL 2
REMARK VINA RESULT: -8.208892145      1.748      2.203
REMARK  10 active torsions:
REMARK  status: ('A' for Active; 'I' for Inactive)
REMARK    1  A    between atoms: C2_2  and  C3_3 
REMARK    2  A    between atoms: C3_3  and  C4_4 
REMARK    3  A    between atoms: C5_5  and  C6_6 
REMARK    4  A    between atoms: C6_6  and  C7_7 
REMARK    5  A    between atoms: C7_7  and  C8_8 
REMARK    6  A    between atoms: C10_13  and  C11_14 
REMARK    7  A    between atoms: C11_14  and  C12_15 
REMARK    8  A    between atoms: C12_15  and  C13_16 
REMARK    9  A    between atoms: C13_16  and  C14_17 
REMARK   10  A    between atoms: N3_22  and  O1_23 
ROOT
HETATM    1  C4  UNL     1       5.063  26.387   6.652  1.00  0.00     0.040 A 
HETATM    2  C5  UNL     1       4.999  26.494   8.022  1.00  0.00     0.067 A 
HETATM    3  N3  UNL     1       5.691  25.633   8.844  1.00  0.00    -0.224 N 
HETATM    4  C17 UNL     1       6.439  24.668   8.342  1.00  0.00     0.095 A 
HETATM    5  C18 UNL     1       7.114  23.824   9.222  1.00  0.00    -0.030 A 
HETATM    6  C19 UNL     1       7.038  23.955  10.694  1.00  0.00     0.050 C 
HETATM    7  C20 UNL     1       7.880  22.832   8.623  1.00  0.00     0.009 A 
HETATM    8  C21 UNL     1       7.981  22.675   7.261  1.00  0.00     0.003 A 
HETATM    9  C22 UNL     1       7.292  23.538   6.436  1.00  0.00     0.032 A 
HETATM   10  C23 UNL     1       6.509  24.549   6.974  1.00  0.00     0.064 A 
HETATM   11  N4  UNL     1       5.825  25.406   6.144  1.00  0.00    -0.351 N 
HETATM   12  C24 UNL     1       5.995  25.168   4.751  1.00  0.00     0.156 C 
ENDROOT
BRANCH   2  13
HETATM   13  C6  UNL     1       4.126  27.526   8.633  1.00  0.00     0.092 C 
BRANCH  13  14
HETATM   14  C7  UNL     1       2.770  26.953   8.905  1.00  0.00     0.028 C 
BRANCH  14  15
HETATM   15  C8  UNL     1       1.669  27.483   8.402  1.00  0.00     0.103 A 
HETATM   16  N1  UNL     1       0.862  28.329   9.061  1.00  0.00    -0.332 N 
HETATM   17  C9  UNL     1      -0.176  28.694   8.254  1.00  0.00     0.128 A 
ATOM     18  H1  UNL     1       1.004  28.650  10.019  1.00  0.00     0.168 HD
HETATM   19  S1  UNL     1      -1.377  29.704   8.668  1.00  0.00    -0.058 SA
HETATM   20  C10 UNL     1      -0.009  28.056   7.055  1.00  0.00     0.068 A 
HETATM   21  N2  UNL     1       1.133  27.324   7.192  1.00  0.00    -0.340 N 
ATOM     22  H2  UNL     1       1.527  26.732   6.461  1.00  0.00     0.167 HD
BRANCH  20  23
HETATM   23  C11 UNL     1      -0.730  28.093   5.953  1.00  0.00     0.006 C 
BRANCH  23  24
HETATM   24  C12 UNL     1      -0.084  28.205   4.640  1.00  0.00     0.030 C 
BRANCH  24  25
HETATM   25  C13 UNL     1      -1.029  28.800   3.603  1.00  0.00     0.008 C 
BRANCH  25  26
HETATM   26  C14 UNL     1      -1.254  30.280   3.836  1.00  0.00    -0.014 A 
HETATM   27  C15 UNL     1      -0.085  31.202   3.882  1.00  0.00     0.005 A 
HETATM   28  C16 UNL     1      -0.926  31.171   2.628  1.00  0.00     0.005 A 
ENDBRANCH  25  26
ENDBRANCH  24  25
ENDBRANCH  23  24
ENDBRANCH  20  23
ENDBRANCH  14  15
ENDBRANCH  13  14
ENDBRANCH   2  13
BRANCH   1  29
HETATM   29  C3  UNL     1       4.376  27.333   5.736  1.00  0.00     0.085 C 
BRANCH  29  30
HETATM   30  C2  UNL     1       5.145  28.571   5.476  1.00  0.00    -0.031 C 
HETATM   31  C1  UNL     1       4.507  29.713   5.312  1.00  0.00     0.007 C 
ENDBRANCH  29  30
ENDBRANCH   1  29
BRANCH   3  32
HETATM   32  O1  UNL     1       5.548  25.839  10.171  1.00  0.00    -0.282 OA
ATOM     33  H1  UNL     1       5.889  25.157  10.737  1.00  0.00     0.245 HD
ENDBRANCH   3  32
TORSDOF 10
ENDMDL
MODEL 3
REMARK VINA RESULT: -8.142991898      2.873      8.444
REMARK  10 active torsions:
REMARK  status: ('A' for Active; 'I' for Inactive)
REMARK    1  A    between atoms: C2_2  and  C3_3 
REMARK    2  A    between atoms: C3_3  and  C4_4 
REMARK    3  A    between atoms: C5_5  and  C6_6 
REMARK    4  A    between atoms: C6_6  and  C7_7 
REMARK    5  A    between atoms: C7_7  and  C8_8 
REMARK    6  A    between atoms: C10_13  and  C11_14 
REMARK    7  A    between atoms: C11_14  and  C12_15 
REMARK    8  A    between atoms: C12_15  and  C13_16 
REMARK    9  A    between atoms: C13_16  and  C14_17 
REMARK   10  A    between atoms: N3_22  and  O1_23 
ROOT
HETATM    1  C4  UNL     1       1.192  28.636   6.527  1.00  0.00     0.040 A 
HETATM    2  C5  UNL     1       0.910  29.137   7.777  1.00  0.00     0.067 A 
HETATM    3  N3  UNL     1      -0.385  29.367   8.185  1.00  0.00    -0.224 N 
HETATM    4  C17 UNL     1      -1.404  29.116   7.384  1.00  0.00     0.095 A 
HETATM    5  C18 UNL     1      -2.693  29.371   7.849  1.00  0.00    -0.030 A 
HETATM    6  C19 UNL     1      -2.979  29.907   9.198  1.00  0.00     0.050 C 
HETATM    7  C20 UNL     1      -3.715  29.086   6.952  1.00  0.00     0.009 A 
HETATM    8  C21 UNL     1      -3.494  28.587   5.691  1.00  0.00     0.003 A 
HETATM    9  C22 UNL     1      -2.199  28.352   5.281  1.00  0.00     0.032 A 
HETATM   10  C23 UNL     1      -1.135  28.617   6.131  1.00  0.00     0.064 A 
HETATM   11  N4  UNL     1       0.154  28.382   5.715  1.00  0.00    -0.351 N 
HETATM   12  C24 UNL     1       0.282  27.859   4.397  1.00  0.00     0.156 C 
ENDROOT
BRANCH   2  13
HETATM   13  C6  UNL     1       2.025  29.488   8.691  1.00  0.00     0.092 C 
BRANCH  13  14
HETATM   14  C7  UNL     1       2.465  28.275   9.449  1.00  0.00     0.028 C 
BRANCH  14  15
HETATM   15  C8  UNL     1       3.739  27.951   9.581  1.00  0.00     0.103 A 
HETATM   16  N1  UNL     1       4.304  26.855   9.050  1.00  0.00    -0.332 N 
HETATM   17  C9  UNL     1       5.632  26.827   9.364  1.00  0.00     0.128 A 
ATOM     18  H1  UNL     1       3.815  26.152   8.495  1.00  0.00     0.168 HD
HETATM   19  S1  UNL     1       6.677  25.668   8.917  1.00  0.00    -0.058 SA
HETATM   20  C10 UNL     1       5.901  27.939  10.113  1.00  0.00     0.068 A 
HETATM   21  N2  UNL     1       4.713  28.598  10.221  1.00  0.00    -0.340 N 
ATOM     22  H2  UNL     1       4.585  29.474  10.727  1.00  0.00     0.167 HD
BRANCH  20  23
HETATM   23  C11 UNL     1       7.030  28.370  10.640  1.00  0.00     0.006 C 
BRANCH  23  24
HETATM   24  C12 UNL     1       7.670  27.638  11.740  1.00  0.00     0.030 C 
BRANCH  24  25
HETATM   25  C13 UNL     1       9.174  27.881  11.770  1.00  0.00     0.008 C 
BRANCH  25  26
HETATM   26  C14 UNL     1       9.513  29.326  11.468  1.00  0.00    -0.014 A 
HETATM   27  C15 UNL     1      10.423  30.073  12.383  1.00  0.00     0.005 A 
HETATM   28  C16 UNL     1      10.978  29.566  11.074  1.00  0.00     0.005 A 
ENDBRANCH  25  26
ENDBRANCH  24  25
ENDBRANCH  23  24
ENDBRANCH  20  23
ENDBRANCH  14  15
ENDBRANCH  13  14
ENDBRANCH   2  13
BRANCH   1  29
HETATM   29  C3  UNL     1       2.572  28.322   6.076  1.00  0.00     0.085 C 
BRANCH  29  30
HETATM   30  C2  UNL     1       3.357  29.516   5.689  1.00  0.00    -0.031 C 
HETATM   31  C1  UNL     1       4.673  29.457   5.678  1.00  0.00     0.007 C 
ENDBRANCH  29  30
ENDBRANCH   1  29
BRANCH   3  32
HETATM   32  O1  UNL     1      -0.533  29.860   9.433  1.00  0.00    -0.282 OA
ATOM     33  H1  UNL     1      -0.030  29.427  10.113  1.00  0.00     0.245 HD
ENDBRANCH   3  32
TORSDOF 10
ENDMDL
MODEL 4
REMARK VINA RESULT: -8.108303069      1.273      1.973
REMARK  10 active torsions:
REMARK  status: ('A' for Active; 'I' for Inactive)
REMARK    1  A    between atoms: C2_2  and  C3_3 
REMARK    2  A    between atoms: C3_3  and  C4_4 
REMARK    3  A    between atoms: C5_5  and  C6_6 
REMARK    4  A    between atoms: C6_6  and  C7_7 
REMARK    5  A    between atoms: C7_7  and  C8_8 
REMARK    6  A    between atoms: C10_13  and  C11_14 
REMARK    7  A    between atoms: C11_14  and  C12_15 
REMARK    8  A    between atoms: C12_15  and  C13_16 
REMARK    9  A    between atoms: C13_16  and  C14_17 
REMARK   10  A    between atoms: N3_22  and  O1_23 
ROOT
HETATM    1  C4  UNL     1       4.712  26.340   8.044  1.00  0.00     0.040 A 
HETATM    2  C5  UNL     1       4.688  27.626   8.534  1.00  0.00     0.067 A 
HETATM    3  N3  UNL     1       5.661  28.088   9.391  1.00  0.00    -0.224 N 
HETATM    4  C17 UNL     1       6.655  27.308   9.775  1.00  0.00     0.095 A 
HETATM    5  C18 UNL     1       7.610  27.828  10.646  1.00  0.00    -0.030 A 
HETATM    6  C19 UNL     1       7.571  29.214  11.161  1.00  0.00     0.050 C 
HETATM    7  C20 UNL     1       8.623  26.949  11.009  1.00  0.00     0.009 A 
HETATM    8  C21 UNL     1       8.699  25.655  10.554  1.00  0.00     0.003 A 
HETATM    9  C22 UNL     1       7.727  25.190   9.693  1.00  0.00     0.032 A 
HETATM   10  C23 UNL     1       6.689  26.020   9.294  1.00  0.00     0.064 A 
HETATM   11  N4  UNL     1       5.722  25.549   8.436  1.00  0.00    -0.351 N 
HETATM   12  C24 UNL     1       5.888  24.199   8.015  1.00  0.00     0.156 C 
ENDROOT
BRANCH   2  13
HETATM   13  C6  UNL     1       3.561  28.522   8.175  1.00  0.00     0.092 C 
BRANCH  13  14
HETATM   14  C7  UNL     1       2.382  28.237   9.052  1.00  0.00     0.028 C 
BRANCH  14  15
HETATM   15  C8  UNL     1       1.139  28.365   8.624  1.00  0.00     0.103 A 
HETATM   16  N1  UNL     1       0.303  29.346   8.998  1.00  0.00    -0.332 N 
HETATM   17  C9  UNL     1      -0.896  29.192   8.365  1.00  0.00     0.128 A 
ATOM     18  H1  UNL     1       0.530  30.093   9.655  1.00  0.00     0.168 HD
HETATM   19  S1  UNL     1      -2.183  30.166   8.541  1.00  0.00    -0.058 SA
HETATM   20  C10 UNL     1      -0.803  28.081   7.572  1.00  0.00     0.068 A 
HETATM   21  N2  UNL     1       0.460  27.606   7.764  1.00  0.00    -0.340 N 
ATOM     22  H2  UNL     1       0.838  26.777   7.306  1.00  0.00     0.167 HD
BRANCH  20  23
HETATM   23  C11 UNL     1      -1.679  27.528   6.758  1.00  0.00     0.006 C 
BRANCH  23  24
HETATM   24  C12 UNL     1      -2.033  28.173   5.489  1.00  0.00     0.030 C 
BRANCH  24  25
HETATM   25  C13 UNL     1      -0.802  28.411   4.622  1.00  0.00     0.008 C 
BRANCH  25  26
HETATM   26  C14 UNL     1      -1.180  28.845   3.221  1.00  0.00    -0.014 A 
HETATM   27  C15 UNL     1      -2.341  29.759   3.024  1.00  0.00     0.005 A 
HETATM   28  C16 UNL     1      -0.949  30.336   2.934  1.00  0.00     0.005 A 
ENDBRANCH  25  26
ENDBRANCH  24  25
ENDBRANCH  23  24
ENDBRANCH  20  23
ENDBRANCH  14  15
ENDBRANCH  13  14
ENDBRANCH   2  13
BRANCH   1  29
HETATM   29  C3  UNL     1       3.710  25.827   7.074  1.00  0.00     0.085 C 
BRANCH  29  30
HETATM   30  C2  UNL     1       4.117  25.988   5.660  1.00  0.00    -0.031 C 
HETATM   31  C1  UNL     1       4.318  24.920   4.915  1.00  0.00     0.007 C 
ENDBRANCH  29  30
ENDBRANCH   1  29
BRANCH   3  32
HETATM   32  O1  UNL     1       5.528  29.367   9.802  1.00  0.00    -0.282 OA
ATOM     33  H1  UNL     1       6.290  29.923   9.685  1.00  0.00     0.245 HD
ENDBRANCH   3  32
TORSDOF 10
ENDMDL
MODEL 5
REMARK VINA RESULT: -8.102470665      1.914      3.759
REMARK  10 active torsions:
REMARK  status: ('A' for Active; 'I' for Inactive)
REMARK    1  A    between atoms: C2_2  and  C3_3 
REMARK    2  A    between atoms: C3_3  and  C4_4 
REMARK    3  A    between atoms: C5_5  and  C6_6 
REMARK    4  A    between atoms: C6_6  and  C7_7 
REMARK    5  A    between atoms: C7_7  and  C8_8 
REMARK    6  A    between atoms: C10_13  and  C11_14 
REMARK    7  A    between atoms: C11_14  and  C12_15 
REMARK    8  A    between atoms: C12_15  and  C13_16 
REMARK    9  A    between atoms: C13_16  and  C14_17 
REMARK   10  A    between atoms: N3_22  and  O1_23 
ROOT
HETATM    1  C4  UNL     1       6.142  24.848   7.602  1.00  0.00     0.040 A 
HETATM    2  C5  UNL     1       5.563  26.095   7.562  1.00  0.00     0.067 A 
HETATM    3  N3  UNL     1       5.787  27.025   8.553  1.00  0.00    -0.224 N 
HETATM    4  C17 UNL     1       6.566  26.747   9.582  1.00  0.00     0.095 A 
HETATM    5  C18 UNL     1       6.754  27.725  10.557  1.00  0.00    -0.030 A 
HETATM    6  C19 UNL     1       6.126  29.063  10.497  1.00  0.00     0.050 C 
HETATM    7  C20 UNL     1       7.583  27.361  11.611  1.00  0.00     0.009 A 
HETATM    8  C21 UNL     1       8.187  26.130  11.705  1.00  0.00     0.003 A 
HETATM    9  C22 UNL     1       7.968  25.199  10.713  1.00  0.00     0.032 A 
HETATM   10  C23 UNL     1       7.149  25.502   9.634  1.00  0.00     0.064 A 
HETATM   11  N4  UNL     1       6.934  24.567   8.649  1.00  0.00    -0.351 N 
HETATM   12  C24 UNL     1       7.605  23.326   8.831  1.00  0.00     0.156 C 
ENDROOT
BRANCH   2  13
HETATM   13  C6  UNL     1       4.635  26.434   6.455  1.00  0.00     0.092 C 
BRANCH  13  14
HETATM   14  C7  UNL     1       3.237  26.050   6.825  1.00  0.00     0.028 C 
BRANCH  14  15
HETATM   15  C8  UNL     1       2.255  26.932   6.878  1.00  0.00     0.103 A 
HETATM   16  N1  UNL     1       1.830  27.529   8.003  1.00  0.00    -0.332 N 
HETATM   17  C9  UNL     1       0.813  28.391   7.707  1.00  0.00     0.128 A 
ATOM     18  H1  UNL     1       2.208  27.364   8.935  1.00  0.00     0.168 HD
HETATM   19  S1  UNL     1       0.018  29.310   8.783  1.00  0.00    -0.058 SA
HETATM   20  C10 UNL     1       0.601  28.328   6.357  1.00  0.00     0.068 A 
HETATM   21  N2  UNL     1       1.506  27.422   5.891  1.00  0.00    -0.340 N 
ATOM     22  H2  UNL     1       1.598  27.153   4.912  1.00  0.00     0.167 HD
BRANCH  20  23
HETATM   23  C11 UNL     1      -0.252  28.975   5.589  1.00  0.00     0.006 C 
BRANCH  23  24
HETATM   24  C12 UNL     1      -1.320  28.256   4.884  1.00  0.00     0.030 C 
BRANCH  24  25
HETATM   25  C13 UNL     1      -2.401  27.781   5.848  1.00  0.00     0.008 C 
BRANCH  25  26
HETATM   26  C14 UNL     1      -3.407  28.874   6.144  1.00  0.00    -0.014 A 
HETATM   27  C15 UNL     1      -4.713  28.520   6.768  1.00  0.00     0.005 A 
HETATM   28  C16 UNL     1      -3.643  29.131   7.640  1.00  0.00     0.005 A 
ENDBRANCH  25  26
ENDBRANCH  24  25
ENDBRANCH  23  24
ENDBRANCH  20  23
ENDBRANCH  14  15
ENDBRANCH  13  14
ENDBRANCH   2  13
BRANCH   1  29
HETATM   29  C3  UNL     1       5.968  23.843   6.522  1.00  0.00     0.085 C 
BRANCH  29  30
HETATM   30  C2  UNL     1       4.934  22.826   6.817  1.00  0.00    -0.031 C 
HETATM   31  C1  UNL     1       4.038  22.522   5.900  1.00  0.00     0.007 C 
ENDBRANCH  29  30
ENDBRANCH   1  29
BRANCH   3  32
HETATM   32  O1  UNL     1       5.163  28.213   8.401  1.00  0.00    -0.282 OA
ATOM     33  H1  UNL     1       5.677  28.982   8.614  1.00  0.00     0.245 HD
ENDBRANCH   3  32
TORSDOF 10
ENDMDL
