MODEL 1
REMARK VINA RESULT: -10.174821292      0.000      0.000
REMARK  7 active torsions:
REMARK  status: ('A' for Active; 'I' for Inactive)
REMARK    1  A    between atoms: C2_2  and  C3_3 
REMARK    2  A    between atoms: C3_3  and  C4_4 
REMARK    3  A    between atoms: C4_4  and  C5_5 
REMARK    4  A    between atoms: C5_5  and  N1_6 
REMARK       I    between atoms: N1_6  and  C6_8 
REMARK       I    between atoms: C6_8  and  N2_10 
REMARK    5  A    between atoms: C16_25  and  C17_26 
REMARK    6  A    between atoms: C17_26  and  C18_27 
REMARK    7  A    between atoms: C18_27  and  C19_28 
ROOT
HETATM    1  N1  UNL     1       6.700  26.559  10.556  1.00  0.00    -0.343 N 
ATOM      2  H1  UNL     1       6.151  27.308  10.980  1.00  0.00     0.164 HD
HETATM    3  C6  UNL     1       6.311  26.037   9.323  1.00  0.00     0.325 C 
HETATM    4  O1  UNL     1       7.009  25.111   8.821  1.00  0.00    -0.247 OA
HETATM    5  N2  UNL     1       5.163  26.490   8.591  1.00  0.00    -0.260 N 
HETATM    6  C7  UNL     1       4.771  25.941   7.314  1.00  0.00     0.195 A 
HETATM    7  C8  UNL     1       3.554  26.690   6.930  1.00  0.00     0.044 A 
HETATM    8  N3  UNL     1       2.592  26.836   5.972  1.00  0.00    -0.360 N 
ATOM      9  H3  UNL     1       2.540  26.290   5.112  1.00  0.00     0.165 HD
HETATM   10  C9  UNL     1       1.725  27.799   6.323  1.00  0.00     0.018 A 
HETATM   11  C10 UNL     1       2.106  28.318   7.542  1.00  0.00    -0.016 A 
HETATM   12  C11 UNL     1       3.248  27.615   7.902  1.00  0.00     0.065 A 
HETATM   13  C12 UNL     1       4.243  27.492   8.933  1.00  0.00     0.264 A 
HETATM   14  O2  UNL     1       4.243  28.204   9.968  1.00  0.00    -0.267 OA
HETATM   15  C13 UNL     1       1.483  29.400   8.359  1.00  0.00     0.061 C 
HETATM   16  C14 UNL     1       0.045  29.056   8.678  1.00  0.00     0.131 C 
HETATM   17  N4  UNL     1      -0.782  28.907   7.517  1.00  0.00    -0.346 N 
HETATM   18  C15 UNL     1      -1.925  29.721   7.303  1.00  0.00     0.224 C 
HETATM   19  O3  UNL     1      -2.228  30.821   7.832  1.00  0.00    -0.273 OA
HETATM   20  C16 UNL     1      -2.788  29.053   6.292  1.00  0.00     0.083 C 
HETATM   21  C21 UNL     1      -1.925  28.043   5.616  1.00  0.00     0.018 C 
HETATM   22  C22 UNL     1      -1.689  28.355   4.155  1.00  0.00     0.013 C 
HETATM   23  C23 UNL     1      -0.678  28.011   6.419  1.00  0.00     0.097 C 
HETATM   24  C24 UNL     1       0.539  28.259   5.553  1.00  0.00     0.083 C 
ENDROOT
BRANCH   1  25
HETATM   25  C5  UNL     1       7.866  26.059  11.243  1.00  0.00     0.125 C 
BRANCH  25  26
HETATM   26  C4  UNL     1       8.819  27.106  11.712  1.00  0.00     0.023 C 
BRANCH  26  27
HETATM   27  C3  UNL     1       8.664  28.417  10.973  1.00  0.00     0.028 C 
BRANCH  27  28
HETATM   28  C2  UNL     1       9.599  29.393  11.577  1.00  0.00    -0.037 C 
HETATM   29  C1  UNL     1      10.757  29.731  11.019  1.00  0.00     0.007 C 
ENDBRANCH  27  28
ENDBRANCH  26  27
ENDBRANCH  25  26
ENDBRANCH   1  25
BRANCH  20  30
HETATM   30  C17 UNL     1      -3.975  28.348   6.905  1.00  0.00     0.014 C 
BRANCH  30  31
HETATM   31  C18 UNL     1      -5.254  29.133   6.743  1.00  0.00     0.000 C 
BRANCH  31  32
HETATM   32  C19 UNL     1      -5.443  30.073   7.908  1.00  0.00    -0.005 C 
HETATM   33  C20 UNL     1      -6.143  31.348   7.490  1.00  0.00     0.005 C 
ENDBRANCH  31  32
ENDBRANCH  30  31
ENDBRANCH  20  30
TORSDOF 7
ENDMDL
MODEL 2
REMARK VINA RESULT: -9.739689383      0.845      1.406
REMARK  7 active torsions:
REMARK  status: ('A' for Active; 'I' for Inactive)
REMARK    1  A    between atoms: C2_2  and  C3_3 
REMARK    2  A    between atoms: C3_3  and  C4_4 
REMARK    3  A    between atoms: C4_4  and  C5_5 
REMARK    4  A    between atoms: C5_5  and  N1_6 
REMARK       I    between atoms: N1_6  and  C6_8 
REMARK       I    between atoms: C6_8  and  N2_10 
REMARK    5  A    between atoms: C16_25  and  C17_26 
REMARK    6  A    between atoms: C17_26  and  C18_27 
REMARK    7  A    between atoms: C18_27  and  C19_28 
ROOT
HETATM    1  N1  UNL     1       6.670  26.500  10.539  1.00  0.00    -0.343 N 
ATOM      2  H1  UNL     1       6.125  27.248  10.969  1.00  0.00     0.164 HD
HETATM    3  C6  UNL     1       6.278  25.990   9.301  1.00  0.00     0.325 C 
HETATM    4  O1  UNL     1       6.971  25.064   8.793  1.00  0.00    -0.247 OA
HETATM    5  N2  UNL     1       5.134  26.457   8.572  1.00  0.00    -0.260 N 
HETATM    6  C7  UNL     1       4.740  25.920   7.291  1.00  0.00     0.195 A 
HETATM    7  C8  UNL     1       3.528  26.680   6.911  1.00  0.00     0.044 A 
HETATM    8  N3  UNL     1       2.568  26.839   5.953  1.00  0.00    -0.360 N 
ATOM      9  H3  UNL     1       2.513  26.301   5.088  1.00  0.00     0.165 HD
HETATM   10  C9  UNL     1       1.706  27.804   6.311  1.00  0.00     0.018 A 
HETATM   11  C10 UNL     1       2.090  28.312   7.534  1.00  0.00    -0.016 A 
HETATM   12  C11 UNL     1       3.226  27.598   7.890  1.00  0.00     0.065 A 
HETATM   13  C12 UNL     1       4.220  27.461   8.921  1.00  0.00     0.264 A 
HETATM   14  O2  UNL     1       4.223  28.165   9.962  1.00  0.00    -0.267 OA
HETATM   15  C13 UNL     1       1.472  29.391   8.360  1.00  0.00     0.061 C 
HETATM   16  C14 UNL     1       0.032  29.053   8.674  1.00  0.00     0.131 C 
HETATM   17  N4  UNL     1      -0.795  28.919   7.511  1.00  0.00    -0.346 N 
HETATM   18  C15 UNL     1      -1.933  29.741   7.303  1.00  0.00     0.224 C 
HETATM   19  O3  UNL     1      -2.229  30.839   7.840  1.00  0.00    -0.273 OA
HETATM   20  C16 UNL     1      -2.799  29.087   6.286  1.00  0.00     0.083 C 
HETATM   21  C21 UNL     1      -1.941  28.077   5.603  1.00  0.00     0.018 C 
HETATM   22  C22 UNL     1      -1.702  28.400   4.144  1.00  0.00     0.013 C 
HETATM   23  C23 UNL     1      -0.695  28.031   6.407  1.00  0.00     0.097 C 
HETATM   24  C24 UNL     1       0.524  28.279   5.543  1.00  0.00     0.083 C 
ENDROOT
BRANCH   1  25
HETATM   25  C5  UNL     1       7.831  25.987  11.223  1.00  0.00     0.125 C 
BRANCH  25  26
HETATM   26  C4  UNL     1       8.803  27.022  11.678  1.00  0.00     0.023 C 
BRANCH  26  27
HETATM   27  C3  UNL     1      10.128  26.435  12.116  1.00  0.00     0.028 C 
BRANCH  27  28
HETATM   28  C2  UNL     1       9.898  25.024  12.495  1.00  0.00    -0.037 C 
HETATM   29  C1  UNL     1      10.829  24.082  12.387  1.00  0.00     0.007 C 
ENDBRANCH  27  28
ENDBRANCH  26  27
ENDBRANCH  25  26
ENDBRANCH   1  25
BRANCH  20  30
HETATM   30  C17 UNL     1      -3.990  28.385   6.891  1.00  0.00     0.014 C 
BRANCH  30  31
HETATM   31  C18 UNL     1      -5.265  29.175   6.729  1.00  0.00     0.000 C 
BRANCH  31  32
HETATM   32  C19 UNL     1      -5.441  30.132   7.882  1.00  0.00    -0.005 C 
HETATM   33  C20 UNL     1      -6.268  31.337   7.489  1.00  0.00     0.005 C 
ENDBRANCH  31  32
ENDBRANCH  30  31
ENDBRANCH  20  30
TORSDOF 7
ENDMDL
MODEL 3
REMARK VINA RESULT: -9.556279216      1.179      2.104
REMARK  7 active torsions:
REMARK  status: ('A' for Active; 'I' for Inactive)
REMARK    1  A    between atoms: C2_2  and  C3_3 
REMARK    2  A    between atoms: C3_3  and  C4_4 
REMARK    3  A    between atoms: C4_4  and  C5_5 
REMARK    4  A    between atoms: C5_5  and  N1_6 
REMARK       I    between atoms: N1_6  and  C6_8 
REMARK       I    between atoms: C6_8  and  N2_10 
REMARK    5  A    between atoms: C16_25  and  C17_26 
REMARK    6  A    between atoms: C17_26  and  C18_27 
REMARK    7  A    between atoms: C18_27  and  C19_28 
ROOT
HETATM    1  N1  UNL     1       6.884  26.917  10.402  1.00  0.00    -0.343 N 
ATOM      2  H1  UNL     1       6.219  27.495  10.915  1.00  0.00     0.164 HD
HETATM    3  C6  UNL     1       6.618  26.578   9.075  1.00  0.00     0.325 C 
HETATM    4  O1  UNL     1       7.459  25.860   8.464  1.00  0.00    -0.247 OA
HETATM    5  N2  UNL     1       5.444  26.998   8.365  1.00  0.00    -0.260 N 
HETATM    6  C7  UNL     1       5.180  26.641   6.991  1.00  0.00     0.195 A 
HETATM    7  C8  UNL     1       3.883  27.276   6.670  1.00  0.00     0.044 A 
HETATM    8  N3  UNL     1       2.945  27.461   5.694  1.00  0.00    -0.360 N 
ATOM      9  H3  UNL     1       3.002  27.079   4.751  1.00  0.00     0.165 HD
HETATM   10  C9  UNL     1       1.937  28.220   6.154  1.00  0.00     0.018 A 
HETATM   11  C10 UNL     1       2.196  28.557   7.466  1.00  0.00    -0.016 A 
HETATM   12  C11 UNL     1       3.413  27.960   7.767  1.00  0.00     0.065 A 
HETATM   13  C12 UNL     1       4.379  27.788   8.819  1.00  0.00     0.264 A 
HETATM   14  O2  UNL     1       4.239  28.294   9.961  1.00  0.00    -0.267 OA
HETATM   15  C13 UNL     1       1.395  29.379   8.420  1.00  0.00     0.061 C 
HETATM   16  C14 UNL     1       0.012  28.793   8.586  1.00  0.00     0.131 C 
HETATM   17  N4  UNL     1      -0.744  28.747   7.368  1.00  0.00    -0.346 N 
HETATM   18  C15 UNL     1      -1.983  29.424   7.231  1.00  0.00     0.224 C 
HETATM   19  O3  UNL     1      -2.460  30.360   7.923  1.00  0.00    -0.273 OA
HETATM   20  C16 UNL     1      -2.705  28.840   6.068  1.00  0.00     0.083 C 
HETATM   21  C21 UNL     1      -1.683  28.094   5.281  1.00  0.00     0.018 C 
HETATM   22  C22 UNL     1      -1.442  28.695   3.913  1.00  0.00     0.013 C 
HETATM   23  C23 UNL     1      -0.474  28.086   6.140  1.00  0.00     0.097 C 
HETATM   24  C24 UNL     1       0.726  28.648   5.405  1.00  0.00     0.083 C 
ENDROOT
BRANCH   1  25
HETATM   25  C5  UNL     1       8.084  26.462  11.060  1.00  0.00     0.125 C 
BRANCH  25  26
HETATM   26  C4  UNL     1       8.002  25.091  11.642  1.00  0.00     0.023 C 
BRANCH  26  27
HETATM   27  C3  UNL     1       9.053  24.153  11.090  1.00  0.00     0.028 C 
BRANCH  27  28
HETATM   28  C2  UNL     1       8.365  22.942  10.589  1.00  0.00    -0.037 C 
HETATM   29  C1  UNL     1       7.111  22.949  10.149  1.00  0.00     0.007 C 
ENDBRANCH  27  28
ENDBRANCH  26  27
ENDBRANCH  25  26
ENDBRANCH   1  25
BRANCH  20  30
HETATM   30  C17 UNL     1      -3.800  27.883   6.476  1.00  0.00     0.014 C 
BRANCH  30  31
HETATM   31  C18 UNL     1      -4.901  28.567   7.247  1.00  0.00     0.000 C 
BRANCH  31  32
HETATM   32  C19 UNL     1      -5.546  29.639   6.404  1.00  0.00    -0.005 C 
HETATM   33  C20 UNL     1      -5.961  30.833   7.237  1.00  0.00     0.005 C 
ENDBRANCH  31  32
ENDBRANCH  30  31
ENDBRANCH  20  30
TORSDOF 7
ENDMDL
MODEL 4
REMARK VINA RESULT: -9.195440161      1.925      2.097
REMARK  7 active torsions:
REMARK  status: ('A' for Active; 'I' for Inactive)
REMARK    1  A    between atoms: C2_2  and  C3_3 
REMARK    2  A    between atoms: C3_3  and  C4_4 
REMARK    3  A    between atoms: C4_4  and  C5_5 
REMARK    4  A    between atoms: C5_5  and  N1_6 
REMARK       I    between atoms: N1_6  and  C6_8 
REMARK       I    between atoms: C6_8  and  N2_10 
REMARK    5  A    between atoms: C16_25  and  C17_26 
REMARK    6  A    between atoms: C17_26  and  C18_27 
REMARK    7  A    between atoms: C18_27  and  C19_28 
ROOT
HETATM    1  N1  UNL     1       7.090  25.083   9.051  1.00  0.00    -0.343 N 
ATOM      2  H1  UNL     1       6.669  25.743   9.706  1.00  0.00     0.164 HD
HETATM    3  C6  UNL     1       6.512  24.901   7.794  1.00  0.00     0.325 C 
HETATM    4  O1  UNL     1       7.055  24.078   7.003  1.00  0.00    -0.247 OA
HETATM    5  N2  UNL     1       5.338  25.593   7.348  1.00  0.00    -0.260 N 
HETATM    6  C7  UNL     1       4.750  25.396   6.044  1.00  0.00     0.195 A 
HETATM    7  C8  UNL     1       3.575  26.295   6.011  1.00  0.00     0.044 A 
HETATM    8  N3  UNL     1       2.528  26.731   5.250  1.00  0.00    -0.360 N 
ATOM      9  H3  UNL     1       2.324  26.414   4.303  1.00  0.00     0.165 HD
HETATM   10  C9  UNL     1       1.805  27.637   5.928  1.00  0.00     0.018 A 
HETATM   11  C10 UNL     1       2.373  27.821   7.171  1.00  0.00    -0.016 A 
HETATM   12  C11 UNL     1       3.474  26.976   7.201  1.00  0.00     0.065 A 
HETATM   13  C12 UNL     1       4.565  26.542   8.032  1.00  0.00     0.264 A 
HETATM   14  O2  UNL     1       4.753  26.982   9.195  1.00  0.00    -0.267 OA
HETATM   15  C13 UNL     1       1.955  28.713   8.292  1.00  0.00     0.061 C 
HETATM   16  C14 UNL     1       0.537  28.400   8.713  1.00  0.00     0.131 C 
HETATM   17  N4  UNL     1      -0.429  28.591   7.672  1.00  0.00    -0.346 N 
HETATM   18  C15 UNL     1      -1.504  29.507   7.807  1.00  0.00     0.224 C 
HETATM   19  O3  UNL     1      -1.636  30.465   8.611  1.00  0.00    -0.273 OA
HETATM   20  C16 UNL     1      -2.539  29.162   6.795  1.00  0.00     0.083 C 
HETATM   21  C21 UNL     1      -1.862  28.289   5.795  1.00  0.00     0.018 C 
HETATM   22  C22 UNL     1      -1.766  28.928   4.427  1.00  0.00     0.013 C 
HETATM   23  C23 UNL     1      -0.539  27.981   6.393  1.00  0.00     0.097 C 
HETATM   24  C24 UNL     1       0.588  28.349   5.451  1.00  0.00     0.083 C 
ENDROOT
BRANCH   1  25
HETATM   25  C5  UNL     1       8.273  24.355   9.440  1.00  0.00     0.125 C 
BRANCH  25  26
HETATM   26  C4  UNL     1       8.188  23.678  10.766  1.00  0.00     0.023 C 
BRANCH  26  27
HETATM   27  C3  UNL     1       9.540  23.260  11.302  1.00  0.00     0.028 C 
BRANCH  27  28
HETATM   28  C2  UNL     1       9.874  24.146  12.439  1.00  0.00    -0.037 C 
HETATM   29  C1  UNL     1       8.955  24.792  13.150  1.00  0.00     0.007 C 
ENDBRANCH  27  28
ENDBRANCH  26  27
ENDBRANCH  25  26
ENDBRANCH   1  25
BRANCH  20  30
HETATM   30  C17 UNL     1      -3.710  28.411   7.383  1.00  0.00     0.014 C 
BRANCH  30  31
HETATM   31  C18 UNL     1      -5.019  29.127   7.161  1.00  0.00     0.000 C 
BRANCH  31  32
HETATM   32  C19 UNL     1      -5.187  30.239   8.167  1.00  0.00    -0.005 C 
HETATM   33  C20 UNL     1      -6.152  31.297   7.675  1.00  0.00     0.005 C 
ENDBRANCH  31  32
ENDBRANCH  30  31
ENDBRANCH  20  30
TORSDOF 7
ENDMDL
MODEL 5
REMARK VINA RESULT: -9.157611755      2.263     10.476
REMARK  7 active torsions:
REMARK  status: ('A' for Active; 'I' for Inactive)
REMARK    1  A    between atoms: C2_2  and  C3_3 
REMARK    2  A    between atoms: C3_3  and  C4_4 
REMARK    3  A    between atoms: C4_4  and  C5_5 
REMARK    4  A    between atoms: C5_5  and  N1_6 
REMARK       I    between atoms: N1_6  and  C6_8 
REMARK       I    between atoms: C6_8  and  N2_10 
REMARK    5  A    between atoms: C16_25  and  C17_26 
REMARK    6  A    between atoms: C17_26  and  C18_27 
REMARK    7  A    between atoms: C18_27  and  C19_28 
ROOT
HETATM    1  N1  UNL     1      -0.804  27.831   5.944  1.00  0.00    -0.343 N 
ATOM      2  H1  UNL     1      -0.095  27.381   5.364  1.00  0.00     0.164 HD
HETATM    3  C6  UNL     1      -0.454  28.310   7.207  1.00  0.00     0.325 C 
HETATM    4  O1  UNL     1      -1.352  28.862   7.903  1.00  0.00    -0.247 OA
HETATM    5  N2  UNL     1       0.866  28.212   7.759  1.00  0.00    -0.260 N 
HETATM    6  C7  UNL     1       1.215  28.713   9.068  1.00  0.00     0.195 A 
HETATM    7  C8  UNL     1       2.654  28.405   9.227  1.00  0.00     0.044 A 
HETATM    8  N3  UNL     1       3.727  28.502  10.066  1.00  0.00    -0.360 N 
ATOM      9  H3  UNL     1       3.706  28.928  10.992  1.00  0.00     0.165 HD
HETATM   10  C9  UNL     1       4.815  27.957   9.497  1.00  0.00     0.018 A 
HETATM   11  C10 UNL     1       4.473  27.482   8.249  1.00  0.00    -0.016 A 
HETATM   12  C11 UNL     1       3.124  27.771   8.100  1.00  0.00     0.065 A 
HETATM   13  C12 UNL     1       2.017  27.650   7.189  1.00  0.00     0.264 A 
HETATM   14  O2  UNL     1       2.122  27.111   6.059  1.00  0.00    -0.267 OA
HETATM   15  C13 UNL     1       5.313  26.796   7.222  1.00  0.00     0.061 C 
HETATM   16  C14 UNL     1       5.932  25.544   7.801  1.00  0.00     0.131 C 
HETATM   17  N4  UNL     1       6.794  25.792   8.919  1.00  0.00    -0.346 N 
HETATM   18  C15 UNL     1       8.166  25.428   8.902  1.00  0.00     0.224 C 
HETATM   19  O3  UNL     1       8.905  25.160   7.921  1.00  0.00    -0.273 OA
HETATM   20  C16 UNL     1       8.657  25.403  10.306  1.00  0.00     0.083 C 
HETATM   21  C21 UNL     1       7.656  26.162  11.107  1.00  0.00     0.018 C 
HETATM   22  C22 UNL     1       8.218  27.439  11.692  1.00  0.00     0.013 C 
HETATM   23  C23 UNL     1       6.522  26.391  10.178  1.00  0.00     0.097 C 
HETATM   24  C24 UNL     1       6.179  27.864  10.083  1.00  0.00     0.083 C 
ENDROOT
BRANCH   1  25
HETATM   25  C5  UNL     1      -2.151  27.960   5.445  1.00  0.00     0.125 C 
BRANCH  25  26
HETATM   26  C4  UNL     1      -2.332  28.984   4.376  1.00  0.00     0.023 C 
BRANCH  26  27
HETATM   27  C3  UNL     1      -1.235  28.949   3.334  1.00  0.00     0.028 C 
BRANCH  27  28
HETATM   28  C2  UNL     1      -1.050  30.325   2.821  1.00  0.00    -0.037 C 
HETATM   29  C1  UNL     1      -0.444  31.283   3.514  1.00  0.00     0.007 C 
ENDBRANCH  27  28
ENDBRANCH  26  27
ENDBRANCH  25  26
ENDBRANCH   1  25
BRANCH  20  30
HETATM   30  C17 UNL     1       8.769  24.005  10.865  1.00  0.00     0.014 C 
BRANCH  30  31
HETATM   31  C18 UNL     1      10.203  23.571  11.042  1.00  0.00     0.000 C 
BRANCH  31  32
HETATM   32  C19 UNL     1      10.741  24.061  12.363  1.00  0.00    -0.005 C 
HETATM   33  C20 UNL     1      12.253  24.008  12.406  1.00  0.00     0.005 C 
ENDBRANCH  31  32
ENDBRANCH  30  31
ENDBRANCH  20  30
TORSDOF 7
ENDMDL
