MODEL 1
REMARK VINA RESULT: -7.094315626      0.000      0.000
REMARK  8 active torsions:
REMARK  status: ('A' for Active; 'I' for Inactive)
REMARK    1  A    between atoms: C7_7  and  C8_8 
REMARK    2  A    between atoms: C8_8  and  C9_9 
REMARK    3  A    between atoms: C9_9  and  C10_10 
REMARK    4  A    between atoms: C10_10  and  C11_11 
REMARK    5  A    between atoms: C11_11  and  C12_12 
REMARK    6  A    between atoms: C17_20  and  C18_21 
REMARK    7  A    between atoms: C18_21  and  O1_24 
REMARK    8  A    between atoms: C23_30  and  C24_31 
ROOT
HETATM    1  C1  UNL     1       3.795 -28.871   9.081  1.00  0.00     0.018 C 
HETATM    2  C2  UNL     1       2.707 -28.910   8.558  1.00  0.00    -0.077 C 
HETATM    3  C3  UNL     1       1.407 -28.953   7.954  1.00  0.00     0.028 A 
HETATM    4  C4  UNL     1       0.297 -29.019   8.771  1.00  0.00     0.035 A 
HETATM    5  C5  UNL     1      -0.981 -29.063   8.270  1.00  0.00    -0.007 A 
HETATM    6  C6  UNL     1      -2.111 -29.132   9.029  1.00  0.00     0.023 A 
HETATM    7  C7  UNL     1      -3.408 -29.179   8.476  1.00  0.00    -0.032 A 
HETATM    8  C17 UNL     1      -3.552 -29.151   7.126  1.00  0.00     0.050 A 
HETATM    9  N2  UNL     1      -2.392 -29.084   6.396  1.00  0.00    -0.356 N 
ATOM     10  H2  UNL     1      -2.484 -29.065   5.380  1.00  0.00     0.166 HD
HETATM   11  C21 UNL     1      -1.174 -29.041   6.889  1.00  0.00     0.043 A 
HETATM   12  C22 UNL     1      -0.053 -28.975   6.089  1.00  0.00     0.043 A 
HETATM   13  C23 UNL     1       1.229 -28.931   6.588  1.00  0.00     0.016 A 
ENDROOT
BRANCH  13  14
HETATM   14  C24 UNL     1       2.420 -28.866   5.686  1.00  0.00     0.217 C 
HETATM   15 CL1  UNL     1       3.119 -27.249   5.644  1.00  0.00    -0.078 Cl
HETATM   16 CL2  UNL     1       1.846 -29.229   4.020  1.00  0.00    -0.078 Cl
HETATM   17 CL3  UNL     1       3.591 -30.118   6.127  1.00  0.00    -0.078 Cl
ENDBRANCH  13  14
BRANCH   7  18
HETATM   18  C8  UNL     1      -4.471 -29.334   9.438  1.00  0.00     0.040 C 
BRANCH  18  19
HETATM   19  C9  UNL     1      -4.773 -27.949  10.063  1.00  0.00     0.005 C 
BRANCH  19  20
HETATM   20  C10 UNL     1      -6.209 -27.701   9.827  1.00  0.00     0.002 C 
BRANCH  20  21
HETATM   21  C11 UNL     1      -6.779 -26.507  10.466  1.00  0.00     0.033 C 
BRANCH  21  22
HETATM   22  C12 UNL     1      -7.192 -25.405   9.550  1.00  0.00     0.185 C 
HETATM   23  C13 UNL     1      -6.673 -24.117  10.219  1.00  0.00     0.033 C 
HETATM   24  C14 UNL     1      -6.727 -22.928   9.320  1.00  0.00     0.004 C 
HETATM   25  C15 UNL     1      -6.255 -23.219   7.905  1.00  0.00     0.027 C 
HETATM   26  C16 UNL     1      -5.538 -24.575   8.008  1.00  0.00     0.232 C 
HETATM   27  N1  UNL     1      -6.581 -25.558   8.261  1.00  0.00    -0.071 N 
ATOM     28  H12 UNL     1      -6.226 -26.506   8.136  1.00  0.00     0.277 HD
ATOM     29  H11 UNL     1      -7.283 -25.545   7.522  1.00  0.00     0.277 HD
ENDBRANCH  21  22
ENDBRANCH  20  21
ENDBRANCH  19  20
ENDBRANCH  18  19
ENDBRANCH   7  18
BRANCH   8  30
HETATM   30  C18 UNL     1      -4.865 -29.131   6.496  1.00  0.00     0.093 C 
HETATM   31  C19 UNL     1      -4.551 -29.354   4.971  1.00  0.00     0.052 C 
HETATM   32  C20 UNL     1      -5.836 -30.198   6.793  1.00  0.00     0.052 C 
BRANCH  30  33
HETATM   33  O1  UNL     1      -5.412 -27.830   6.433  1.00  0.00    -0.384 OA
ATOM     34  H1  UNL     1      -5.976 -27.710   5.677  1.00  0.00     0.211 HD
ENDBRANCH  30  33
ENDBRANCH   8  30
TORSDOF 8
ENDMDL
MODEL 2
REMARK VINA RESULT: -6.609977108      5.224      9.329
REMARK  8 active torsions:
REMARK  status: ('A' for Active; 'I' for Inactive)
REMARK    1  A    between atoms: C7_7  and  C8_8 
REMARK    2  A    between atoms: C8_8  and  C9_9 
REMARK    3  A    between atoms: C9_9  and  C10_10 
REMARK    4  A    between atoms: C10_10  and  C11_11 
REMARK    5  A    between atoms: C11_11  and  C12_12 
REMARK    6  A    between atoms: C17_20  and  C18_21 
REMARK    7  A    between atoms: C18_21  and  O1_24 
REMARK    8  A    between atoms: C23_30  and  C24_31 
ROOT
HETATM    1  C1  UNL     1      -9.020 -20.620   7.482  1.00  0.00     0.018 C 
HETATM    2  C2  UNL     1      -8.649 -21.698   7.876  1.00  0.00    -0.077 C 
HETATM    3  C3  UNL     1      -8.190 -22.977   8.338  1.00  0.00     0.028 A 
HETATM    4  C4  UNL     1      -6.978 -23.453   7.881  1.00  0.00     0.035 A 
HETATM    5  C5  UNL     1      -6.471 -24.667   8.276  1.00  0.00    -0.007 A 
HETATM    6  C6  UNL     1      -5.283 -25.186   7.855  1.00  0.00     0.023 A 
HETATM    7  C7  UNL     1      -4.797 -26.439   8.282  1.00  0.00    -0.032 A 
HETATM    8  C17 UNL     1      -5.535 -27.172   9.156  1.00  0.00     0.050 A 
HETATM    9  N2  UNL     1      -6.724 -26.616   9.555  1.00  0.00    -0.356 N 
ATOM     10  H2  UNL     1      -7.291 -27.156  10.209  1.00  0.00     0.166 HD
HETATM   11  C21 UNL     1      -7.198 -25.452   9.169  1.00  0.00     0.043 A 
HETATM   12  C22 UNL     1      -8.407 -24.961   9.615  1.00  0.00     0.043 A 
HETATM   13  C23 UNL     1      -8.918 -23.744   9.221  1.00  0.00     0.016 A 
ENDROOT
BRANCH  13  14
HETATM   14  C24 UNL     1     -10.237 -23.249   9.722  1.00  0.00     0.217 C 
HETATM   15 CL1  UNL     1     -10.102 -21.643  10.435  1.00  0.00    -0.078 Cl
HETATM   16 CL2  UNL     1     -10.760 -24.361  11.036  1.00  0.00    -0.078 Cl
HETATM   17 CL3  UNL     1     -11.453 -23.339   8.438  1.00  0.00    -0.078 Cl
ENDBRANCH  13  14
BRANCH   7  18
HETATM   18  C8  UNL     1      -3.562 -26.853   7.662  1.00  0.00     0.040 C 
BRANCH  18  19
HETATM   19  C9  UNL     1      -3.855 -27.223   6.186  1.00  0.00     0.005 C 
BRANCH  19  20
HETATM   20  C10 UNL     1      -2.918 -28.314   5.848  1.00  0.00     0.002 C 
BRANCH  20  21
HETATM   21  C11 UNL     1      -2.110 -28.845   6.954  1.00  0.00     0.033 C 
BRANCH  21  22
HETATM   22  C12 UNL     1      -0.675 -29.116   6.649  1.00  0.00     0.185 C 
HETATM   23  C13 UNL     1      -0.323 -28.145   5.505  1.00  0.00     0.033 C 
HETATM   24  C14 UNL     1       1.144 -28.051   5.249  1.00  0.00     0.004 C 
HETATM   25  C15 UNL     1       1.975 -27.967   6.518  1.00  0.00     0.027 C 
HETATM   26  C16 UNL     1       0.959 -27.640   7.624  1.00  0.00     0.232 C 
HETATM   27  N1  UNL     1       0.149 -28.839   7.788  1.00  0.00    -0.071 N 
ATOM     28  H12 UNL     1      -0.410 -28.787   8.639  1.00  0.00     0.277 HD
ATOM     29  H11 UNL     1       0.732 -29.643   8.021  1.00  0.00     0.277 HD
ENDBRANCH  21  22
ENDBRANCH  20  21
ENDBRANCH  19  20
ENDBRANCH  18  19
ENDBRANCH   7  18
BRANCH   8  30
HETATM   30  C18 UNL     1      -5.057 -28.442   9.684  1.00  0.00     0.093 C 
HETATM   31  C19 UNL     1      -6.117 -28.809  10.787  1.00  0.00     0.052 C 
HETATM   32  C20 UNL     1      -5.050 -29.637   8.822  1.00  0.00     0.052 C 
BRANCH  30  33
HETATM   33  O1  UNL     1      -3.915 -28.291  10.501  1.00  0.00    -0.384 OA
ATOM     34  H1  UNL     1      -4.138 -28.129  11.410  1.00  0.00     0.211 HD
ENDBRANCH  30  33
ENDBRANCH   8  30
TORSDOF 8
ENDMDL
MODEL 3
REMARK VINA RESULT: -6.544701971      1.841      2.623
REMARK  8 active torsions:
REMARK  status: ('A' for Active; 'I' for Inactive)
REMARK    1  A    between atoms: C7_7  and  C8_8 
REMARK    2  A    between atoms: C8_8  and  C9_9 
REMARK    3  A    between atoms: C9_9  and  C10_10 
REMARK    4  A    between atoms: C10_10  and  C11_11 
REMARK    5  A    between atoms: C11_11  and  C12_12 
REMARK    6  A    between atoms: C17_20  and  C18_21 
REMARK    7  A    between atoms: C18_21  and  O1_24 
REMARK    8  A    between atoms: C23_30  and  C24_31 
ROOT
HETATM    1  C1  UNL     1       2.549 -27.325   6.058  1.00  0.00     0.018 C 
HETATM    2  C2  UNL     1       1.462 -27.836   6.178  1.00  0.00    -0.077 C 
HETATM    3  C3  UNL     1       0.164 -28.428   6.332  1.00  0.00     0.028 A 
HETATM    4  C4  UNL     1      -0.697 -27.906   7.276  1.00  0.00     0.035 A 
HETATM    5  C5  UNL     1      -1.955 -28.417   7.483  1.00  0.00    -0.007 A 
HETATM    6  C6  UNL     1      -2.843 -27.943   8.402  1.00  0.00     0.023 A 
HETATM    7  C7  UNL     1      -4.127 -28.498   8.587  1.00  0.00    -0.032 A 
HETATM    8  C17 UNL     1      -4.510 -29.550   7.819  1.00  0.00     0.050 A 
HETATM    9  N2  UNL     1      -3.588 -29.998   6.907  1.00  0.00    -0.356 N 
ATOM     10  H2  UNL     1      -3.860 -30.790   6.324  1.00  0.00     0.166 HD
HETATM   11  C21 UNL     1      -2.386 -29.500   6.718  1.00  0.00     0.043 A 
HETATM   12  C22 UNL     1      -1.513 -30.008   5.780  1.00  0.00     0.043 A 
HETATM   13  C23 UNL     1      -0.251 -29.498   5.569  1.00  0.00     0.016 A 
ENDROOT
BRANCH  13  14
HETATM   14  C24 UNL     1       0.669 -30.082   4.546  1.00  0.00     0.217 C 
HETATM   15 CL1  UNL     1       0.045 -31.596   3.896  1.00  0.00    -0.078 Cl
HETATM   16 CL2  UNL     1       2.216 -30.470   5.379  1.00  0.00    -0.078 Cl
HETATM   17 CL3  UNL     1       1.030 -28.885   3.293  1.00  0.00    -0.078 Cl
ENDBRANCH  13  14
BRANCH   7  18
HETATM   18  C8  UNL     1      -4.889 -27.914   9.664  1.00  0.00     0.040 C 
BRANCH  18  19
HETATM   19  C9  UNL     1      -5.251 -26.459   9.274  1.00  0.00     0.005 C 
BRANCH  19  20
HETATM   20  C10 UNL     1      -6.484 -26.135  10.021  1.00  0.00     0.002 C 
BRANCH  20  21
HETATM   21  C11 UNL     1      -6.792 -24.707  10.182  1.00  0.00     0.033 C 
BRANCH  21  22
HETATM   22  C12 UNL     1      -7.159 -23.970   8.938  1.00  0.00     0.185 C 
HETATM   23  C13 UNL     1      -8.467 -24.628   8.458  1.00  0.00     0.033 C 
HETATM   24  C14 UNL     1      -9.156 -23.848   7.390  1.00  0.00     0.004 C 
HETATM   25  C15 UNL     1      -9.183 -22.352   7.656  1.00  0.00     0.027 C 
HETATM   26  C16 UNL     1      -8.797 -22.216   9.137  1.00  0.00     0.232 C 
HETATM   27  N1  UNL     1      -7.391 -22.583   9.218  1.00  0.00    -0.071 N 
ATOM     28  H12 UNL     1      -6.998 -22.322  10.122  1.00  0.00     0.277 HD
ATOM     29  H11 UNL     1      -6.824 -21.989   8.612  1.00  0.00     0.277 HD
ENDBRANCH  21  22
ENDBRANCH  20  21
ENDBRANCH  19  20
ENDBRANCH  18  19
ENDBRANCH   7  18
BRANCH   8  30
HETATM   30  C18 UNL     1      -5.845 -30.124   7.916  1.00  0.00     0.093 C 
HETATM   31  C19 UNL     1      -5.576 -31.656   8.155  1.00  0.00     0.052 C 
HETATM   32  C20 UNL     1      -6.717 -29.762   9.048  1.00  0.00     0.052 C 
BRANCH  30  33
HETATM   33  O1  UNL     1      -6.494 -30.194   6.664  1.00  0.00    -0.384 OA
ATOM     34  H1  UNL     1      -6.142 -29.572   6.038  1.00  0.00     0.211 HD
ENDBRANCH  30  33
ENDBRANCH   8  30
TORSDOF 8
ENDMDL
MODEL 4
REMARK VINA RESULT: -6.502112488      5.252      9.348
REMARK  8 active torsions:
REMARK  status: ('A' for Active; 'I' for Inactive)
REMARK    1  A    between atoms: C7_7  and  C8_8 
REMARK    2  A    between atoms: C8_8  and  C9_9 
REMARK    3  A    between atoms: C9_9  and  C10_10 
REMARK    4  A    between atoms: C10_10  and  C11_11 
REMARK    5  A    between atoms: C11_11  and  C12_12 
REMARK    6  A    between atoms: C17_20  and  C18_21 
REMARK    7  A    between atoms: C18_21  and  O1_24 
REMARK    8  A    between atoms: C23_30  and  C24_31 
ROOT
HETATM    1  C1  UNL     1      -9.145 -20.692   7.480  1.00  0.00     0.018 C 
HETATM    2  C2  UNL     1      -8.760 -21.765   7.875  1.00  0.00    -0.077 C 
HETATM    3  C3  UNL     1      -8.285 -23.037   8.338  1.00  0.00     0.028 A 
HETATM    4  C4  UNL     1      -7.086 -23.516   7.850  1.00  0.00     0.035 A 
HETATM    5  C5  UNL     1      -6.564 -24.724   8.244  1.00  0.00    -0.007 A 
HETATM    6  C6  UNL     1      -5.388 -25.245   7.793  1.00  0.00     0.023 A 
HETATM    7  C7  UNL     1      -4.886 -26.493   8.220  1.00  0.00    -0.032 A 
HETATM    8  C17 UNL     1      -5.595 -27.217   9.124  1.00  0.00     0.050 A 
HETATM    9  N2  UNL     1      -6.774 -26.659   9.552  1.00  0.00    -0.356 N 
ATOM     10  H2  UNL     1      -7.320 -27.192  10.229  1.00  0.00     0.166 HD
HETATM   11  C21 UNL     1      -7.262 -25.501   9.168  1.00  0.00     0.043 A 
HETATM   12  C22 UNL     1      -8.458 -25.007   9.643  1.00  0.00     0.043 A 
HETATM   13  C23 UNL     1      -8.984 -23.796   9.251  1.00  0.00     0.016 A 
ENDROOT
BRANCH  13  14
HETATM   14  C24 UNL     1     -10.288 -23.298   9.786  1.00  0.00     0.217 C 
HETATM   15 CL1  UNL     1     -10.138 -21.681  10.471  1.00  0.00    -0.078 Cl
HETATM   16 CL2  UNL     1     -10.766 -24.392  11.131  1.00  0.00    -0.078 Cl
HETATM   17 CL3  UNL     1     -11.544 -23.411   8.542  1.00  0.00    -0.078 Cl
ENDBRANCH  13  14
BRANCH   7  18
HETATM   18  C8  UNL     1      -3.670 -26.911   7.568  1.00  0.00     0.040 C 
BRANCH  18  19
HETATM   19  C9  UNL     1      -2.489 -26.110   8.172  1.00  0.00     0.005 C 
BRANCH  19  20
HETATM   20  C10 UNL     1      -1.733 -27.068   9.003  1.00  0.00     0.002 C 
BRANCH  20  21
HETATM   21  C11 UNL     1      -0.947 -28.079   8.282  1.00  0.00     0.033 C 
BRANCH  21  22
HETATM   22  C12 UNL     1      -0.341 -27.641   6.991  1.00  0.00     0.185 C 
HETATM   23  C13 UNL     1       1.165 -27.928   7.143  1.00  0.00     0.033 C 
HETATM   24  C14 UNL     1       1.912 -27.832   5.855  1.00  0.00     0.004 C 
HETATM   25  C15 UNL     1       1.190 -28.487   4.688  1.00  0.00     0.027 C 
HETATM   26  C16 UNL     1       0.095 -29.343   5.343  1.00  0.00     0.232 C 
HETATM   27  N1  UNL     1      -0.868 -28.402   5.896  1.00  0.00    -0.071 N 
ATOM     28  H12 UNL     1      -1.730 -28.878   6.164  1.00  0.00     0.277 HD
ATOM     29  H11 UNL     1      -1.237 -27.788   5.170  1.00  0.00     0.277 HD
ENDBRANCH  21  22
ENDBRANCH  20  21
ENDBRANCH  19  20
ENDBRANCH  18  19
ENDBRANCH   7  18
BRANCH   8  30
HETATM   30  C18 UNL     1      -5.099 -28.480   9.652  1.00  0.00     0.093 C 
HETATM   31  C19 UNL     1      -6.346 -29.090  10.392  1.00  0.00     0.052 C 
HETATM   32  C20 UNL     1      -4.705 -29.556   8.727  1.00  0.00     0.052 C 
BRANCH  30  33
HETATM   33  O1  UNL     1      -4.238 -28.301  10.758  1.00  0.00    -0.384 OA
ATOM     34  H1  UNL     1      -3.479 -27.771  10.543  1.00  0.00     0.211 HD
ENDBRANCH  30  33
ENDBRANCH   8  30
TORSDOF 8
ENDMDL
MODEL 5
REMARK VINA RESULT: -6.228351731      3.859      6.319
REMARK  8 active torsions:
REMARK  status: ('A' for Active; 'I' for Inactive)
REMARK    1  A    between atoms: C7_7  and  C8_8 
REMARK    2  A    between atoms: C8_8  and  C9_9 
REMARK    3  A    between atoms: C9_9  and  C10_10 
REMARK    4  A    between atoms: C10_10  and  C11_11 
REMARK    5  A    between atoms: C11_11  and  C12_12 
REMARK    6  A    between atoms: C17_20  and  C18_21 
REMARK    7  A    between atoms: C18_21  and  O1_24 
REMARK    8  A    between atoms: C23_30  and  C24_31 
ROOT
HETATM    1  C1  UNL     1      -0.077 -28.284   5.674  1.00  0.00     0.018 C 
HETATM    2  C2  UNL     1      -1.098 -27.833   6.133  1.00  0.00    -0.077 C 
HETATM    3  C3  UNL     1      -2.309 -27.280   6.667  1.00  0.00     0.028 A 
HETATM    4  C4  UNL     1      -2.576 -25.942   6.462  1.00  0.00     0.035 A 
HETATM    5  C5  UNL     1      -3.713 -25.338   6.941  1.00  0.00    -0.007 A 
HETATM    6  C6  UNL     1      -4.025 -24.023   6.770  1.00  0.00     0.023 A 
HETATM    7  C7  UNL     1      -5.203 -23.439   7.281  1.00  0.00    -0.032 A 
HETATM    8  C17 UNL     1      -6.077 -24.213   7.975  1.00  0.00     0.050 A 
HETATM    9  N2  UNL     1      -5.727 -25.531   8.127  1.00  0.00    -0.356 N 
ATOM     10  H2  UNL     1      -6.373 -26.125   8.648  1.00  0.00     0.166 HD
HETATM   11  C21 UNL     1      -4.635 -26.096   7.662  1.00  0.00     0.043 A 
HETATM   12  C22 UNL     1      -4.351 -27.431   7.858  1.00  0.00     0.043 A 
HETATM   13  C23 UNL     1      -3.213 -28.039   7.378  1.00  0.00     0.016 A 
ENDROOT
BRANCH  13  14
HETATM   14  C24 UNL     1      -2.938 -29.489   7.618  1.00  0.00     0.217 C 
HETATM   15 CL1  UNL     1      -2.678 -30.361   6.108  1.00  0.00    -0.078 Cl
HETATM   16 CL2  UNL     1      -4.408 -30.191   8.379  1.00  0.00    -0.078 Cl
HETATM   17 CL3  UNL     1      -1.605 -29.678   8.767  1.00  0.00    -0.078 Cl
ENDBRANCH  13  14
BRANCH   7  18
HETATM   18  C8  UNL     1      -5.315 -22.017   7.069  1.00  0.00     0.040 C 
BRANCH  18  19
HETATM   19  C9  UNL     1      -5.744 -21.773   5.600  1.00  0.00     0.005 C 
BRANCH  19  20
HETATM   20  C10 UNL     1      -7.153 -21.334   5.657  1.00  0.00     0.002 C 
BRANCH  20  21
HETATM   21  C11 UNL     1      -7.903 -21.385   4.395  1.00  0.00     0.033 C 
BRANCH  21  22
HETATM   22  C12 UNL     1      -9.380 -21.207   4.500  1.00  0.00     0.185 C 
HETATM   23  C13 UNL     1      -9.934 -21.668   3.138  1.00  0.00     0.033 C 
HETATM   24  C14 UNL     1     -11.415 -21.844   3.138  1.00  0.00     0.004 C 
HETATM   25  C15 UNL     1     -11.940 -22.547   4.380  1.00  0.00     0.027 C 
HETATM   26  C16 UNL     1     -10.690 -23.156   5.036  1.00  0.00     0.232 C 
HETATM   27  N1  UNL     1      -9.919 -22.031   5.543  1.00  0.00    -0.071 N 
ATOM     28  H12 UNL     1      -9.183 -22.348   6.174  1.00  0.00     0.277 HD
ATOM     29  H11 UNL     1     -10.471 -21.475   6.197  1.00  0.00     0.277 HD
ENDBRANCH  21  22
ENDBRANCH  20  21
ENDBRANCH  19  20
ENDBRANCH  18  19
ENDBRANCH   7  18
BRANCH   8  30
HETATM   30  C18 UNL     1      -7.341 -23.685   8.471  1.00  0.00     0.093 C 
HETATM   31  C19 UNL     1      -7.814 -24.766   9.511  1.00  0.00     0.052 C 
HETATM   32  C20 UNL     1      -7.355 -22.440   9.259  1.00  0.00     0.052 C 
BRANCH  30  33
HETATM   33  O1  UNL     1      -8.383 -23.801   7.524  1.00  0.00    -0.384 OA
ATOM     34  H1  UNL     1      -9.055 -24.414   7.799  1.00  0.00     0.211 HD
ENDBRANCH  30  33
ENDBRANCH   8  30
TORSDOF 8
ENDMDL
