MODEL 1
REMARK VINA RESULT: -8.135146278      0.000      0.000
REMARK  11 active torsions:
REMARK  status: ('A' for Active; 'I' for Inactive)
REMARK    1  A    between atoms: C2_2  and  C3_3 
REMARK    2  A    between atoms: C3_3  and  C4_4 
REMARK    3  A    between atoms: C3_3  and  N1_6 
REMARK    4  A    between atoms: N1_6  and  C7_8 
REMARK    5  A    between atoms: C7_8  and  O1_9 
REMARK    6  A    between atoms: C7_8  and  C8_11 
REMARK    7  A    between atoms: C9_12  and  N2_13 
REMARK    8  A    between atoms: N2_13  and  C10_15 
REMARK    9  A    between atoms: C10_15  and  N3_17 
REMARK   10  A    between atoms: N3_17  and  C11_19 
REMARK   11  A    between atoms: C20_29  and  C21_30 
ROOT
HETATM    1  C8  UNL     1      -4.429 -27.881   8.789  1.00  0.00     0.065 A 
HETATM    2  C9  UNL     1      -3.695 -26.890   8.079  1.00  0.00     0.092 A 
HETATM    3  S2  UNL     1      -4.531 -25.460   8.329  1.00  0.00    -0.075 SA
HETATM    4  C18 UNL     1      -5.788 -26.021   9.303  1.00  0.00    -0.003 A 
HETATM    5  C19 UNL     1      -6.889 -25.155   9.887  1.00  0.00     0.057 C 
HETATM    6  C20 UNL     1      -5.538 -27.370   9.426  1.00  0.00     0.077 A 
ENDROOT
BRANCH   2   7
HETATM    7  N2  UNL     1      -2.424 -27.090   7.418  1.00  0.00    -0.327 N 
ATOM      8  H2  UNL     1      -2.406 -27.024   6.400  1.00  0.00     0.169 HD
BRANCH   7   9
HETATM    9  C10 UNL     1      -1.216 -27.366   8.071  1.00  0.00     0.172 C 
HETATM   10  S1  UNL     1      -0.688 -26.107   9.039  1.00  0.00    -0.041 SA
BRANCH   9  11
HETATM   11  N3  UNL     1      -0.444 -28.518   8.033  1.00  0.00    -0.362 N 
ATOM     12  H3  UNL     1      -0.893 -29.432   8.093  1.00  0.00     0.162 HD
BRANCH  11  13
HETATM   13  C11 UNL     1       1.022 -28.429   7.908  1.00  0.00     0.083 C 
HETATM   14  C12 UNL     1       1.680 -29.491   8.690  1.00  0.00     0.025 C 
HETATM   15  C13 UNL     1       2.923 -30.111   8.180  1.00  0.00     0.002 C 
HETATM   16  C14 UNL     1       4.071 -29.140   8.025  1.00  0.00     0.000 C 
HETATM   17  C15 UNL     1       3.952 -28.457   6.719  1.00  0.00     0.000 C 
HETATM   18  C16 UNL     1       2.679 -28.694   5.971  1.00  0.00     0.002 C 
HETATM   19  C17 UNL     1       1.451 -28.123   6.541  1.00  0.00     0.025 C 
ENDBRANCH  11  13
ENDBRANCH   9  11
ENDBRANCH   7   9
ENDBRANCH   2   7
BRANCH   1  20
HETATM   20  C7  UNL     1      -4.077 -29.280   8.524  1.00  0.00     0.152 C 
BRANCH  20  21
HETATM   21  N1  UNL     1      -4.548 -30.356   7.798  1.00  0.00    -0.361 N 
HETATM   22  C6  UNL     1      -5.211 -31.507   8.370  1.00  0.00     0.152 C 
BRANCH  21  23
HETATM   23  C3  UNL     1      -4.192 -30.504   6.361  1.00  0.00     0.085 C 
BRANCH  23  24
HETATM   24  C2  UNL     1      -5.140 -29.831   5.446  1.00  0.00     0.021 C 
HETATM   25  C1  UNL     1      -4.658 -28.422   5.067  1.00  0.00     0.007 C 
ENDBRANCH  23  24
BRANCH  23  26
HETATM   26  C4  UNL     1      -2.775 -30.194   6.062  1.00  0.00     0.021 C 
HETATM   27  C5  UNL     1      -2.253 -31.057   4.903  1.00  0.00     0.007 C 
ENDBRANCH  23  26
ENDBRANCH  21  23
ENDBRANCH  20  21
BRANCH  20  28
HETATM   28  O1  UNL     1      -2.948 -29.623   9.217  1.00  0.00    -0.345 OA
ATOM     29  H1  UNL     1      -2.171 -29.430   8.707  1.00  0.00     0.219 HD
ENDBRANCH  20  28
ENDBRANCH   1  20
BRANCH   6  30
HETATM   30  C21 UNL     1      -6.556 -28.162  10.237  1.00  0.00     0.419 C 
HETATM   31  F1  UNL     1      -6.663 -27.590  11.544  1.00  0.00    -0.166 F 
HETATM   32  F2  UNL     1      -6.093 -29.407  10.587  1.00  0.00    -0.166 F 
HETATM   33  F3  UNL     1      -7.815 -28.063   9.759  1.00  0.00    -0.166 F 
ENDBRANCH   6  30
TORSDOF 11
ENDMDL
MODEL 2
REMARK VINA RESULT: -7.703111832      3.133      7.638
REMARK  11 active torsions:
REMARK  status: ('A' for Active; 'I' for Inactive)
REMARK    1  A    between atoms: C2_2  and  C3_3 
REMARK    2  A    between atoms: C3_3  and  C4_4 
REMARK    3  A    between atoms: C3_3  and  N1_6 
REMARK    4  A    between atoms: N1_6  and  C7_8 
REMARK    5  A    between atoms: C7_8  and  O1_9 
REMARK    6  A    between atoms: C7_8  and  C8_11 
REMARK    7  A    between atoms: C9_12  and  N2_13 
REMARK    8  A    between atoms: N2_13  and  C10_15 
REMARK    9  A    between atoms: C10_15  and  N3_17 
REMARK   10  A    between atoms: N3_17  and  C11_19 
REMARK   11  A    between atoms: C20_29  and  C21_30 
ROOT
HETATM    1  C8  UNL     1      -5.477 -28.515   8.840  1.00  0.00     0.065 A 
HETATM    2  C9  UNL     1      -6.035 -27.509   9.676  1.00  0.00     0.092 A 
HETATM    3  S2  UNL     1      -7.200 -28.291  10.590  1.00  0.00    -0.075 SA
HETATM    4  C18 UNL     1      -7.042 -29.858   9.989  1.00  0.00    -0.003 A 
HETATM    5  C19 UNL     1      -7.842 -31.057  10.463  1.00  0.00     0.057 C 
HETATM    6  C20 UNL     1      -6.047 -29.753   9.042  1.00  0.00     0.077 A 
ENDROOT
BRANCH   2   7
HETATM    7  N2  UNL     1      -5.566 -26.144   9.786  1.00  0.00    -0.327 N 
ATOM      8  H2  UNL     1      -4.690 -25.985  10.284  1.00  0.00     0.169 HD
BRANCH   7   9
HETATM    9  C10 UNL     1      -6.224 -25.025   9.261  1.00  0.00     0.172 C 
HETATM   10  S1  UNL     1      -5.441 -24.362   7.939  1.00  0.00    -0.041 SA
BRANCH   9  11
HETATM   11  N3  UNL     1      -7.411 -24.435   9.671  1.00  0.00    -0.362 N 
ATOM     12  H3  UNL     1      -7.676 -24.458  10.656  1.00  0.00     0.162 HD
BRANCH  11  13
HETATM   13  C11 UNL     1      -8.292 -23.774   8.690  1.00  0.00     0.083 C 
HETATM   14  C12 UNL     1      -9.253 -24.735   8.120  1.00  0.00     0.025 C 
HETATM   15  C13 UNL     1     -10.624 -24.285   7.786  1.00  0.00     0.002 C 
HETATM   16  C14 UNL     1     -10.671 -23.201   6.734  1.00  0.00     0.000 C 
HETATM   17  C15 UNL     1     -10.469 -21.888   7.386  1.00  0.00     0.000 C 
HETATM   18  C16 UNL     1     -10.064 -21.929   8.826  1.00  0.00     0.002 C 
HETATM   19  C17 UNL     1      -8.723 -22.445   9.129  1.00  0.00     0.025 C 
ENDBRANCH  11  13
ENDBRANCH   9  11
ENDBRANCH   7   9
ENDBRANCH   2   7
BRANCH   1  20
HETATM   20  C7  UNL     1      -4.618 -28.062   7.742  1.00  0.00     0.152 C 
BRANCH  20  21
HETATM   21  N1  UNL     1      -3.277 -27.855   7.480  1.00  0.00    -0.361 N 
HETATM   22  C6  UNL     1      -2.411 -26.997   8.258  1.00  0.00     0.152 C 
BRANCH  21  23
HETATM   23  C3  UNL     1      -2.677 -28.345   6.210  1.00  0.00     0.085 C 
BRANCH  23  24
HETATM   24  C2  UNL     1      -1.321 -27.812   5.953  1.00  0.00     0.021 C 
HETATM   25  C1  UNL     1      -0.296 -28.940   5.761  1.00  0.00     0.007 C 
ENDBRANCH  23  24
BRANCH  23  26
HETATM   26  C4  UNL     1      -2.768 -29.814   6.035  1.00  0.00     0.021 C 
HETATM   27  C5  UNL     1      -3.586 -30.171   4.784  1.00  0.00     0.007 C 
ENDBRANCH  23  26
ENDBRANCH  21  23
ENDBRANCH  20  21
BRANCH  20  28
HETATM   28  O1  UNL     1      -5.377 -27.733   6.651  1.00  0.00    -0.345 OA
ATOM     29  H1  UNL     1      -5.824 -26.907   6.791  1.00  0.00     0.219 HD
ENDBRANCH  20  28
ENDBRANCH   1  20
BRANCH   6  30
HETATM   30  C21 UNL     1      -5.710 -31.034   8.289  1.00  0.00     0.419 C 
HETATM   31  F1  UNL     1      -5.936 -30.829   6.891  1.00  0.00    -0.166 F 
HETATM   32  F2  UNL     1      -6.630 -32.029   8.510  1.00  0.00    -0.166 F 
HETATM   33  F3  UNL     1      -4.399 -31.357   8.340  1.00  0.00    -0.166 F 
ENDBRANCH   6  30
TORSDOF 11
ENDMDL
MODEL 3
REMARK VINA RESULT: -7.687919557      3.203      7.557
REMARK  11 active torsions:
REMARK  status: ('A' for Active; 'I' for Inactive)
REMARK    1  A    between atoms: C2_2  and  C3_3 
REMARK    2  A    between atoms: C3_3  and  C4_4 
REMARK    3  A    between atoms: C3_3  and  N1_6 
REMARK    4  A    between atoms: N1_6  and  C7_8 
REMARK    5  A    between atoms: C7_8  and  O1_9 
REMARK    6  A    between atoms: C7_8  and  C8_11 
REMARK    7  A    between atoms: C9_12  and  N2_13 
REMARK    8  A    between atoms: N2_13  and  C10_15 
REMARK    9  A    between atoms: C10_15  and  N3_17 
REMARK   10  A    between atoms: N3_17  and  C11_19 
REMARK   11  A    between atoms: C20_29  and  C21_30 
ROOT
HETATM    1  C8  UNL     1      -5.450 -28.423   8.713  1.00  0.00     0.065 A 
HETATM    2  C9  UNL     1      -5.982 -27.451   9.604  1.00  0.00     0.092 A 
HETATM    3  S2  UNL     1      -7.067 -28.286  10.569  1.00  0.00    -0.075 SA
HETATM    4  C18 UNL     1      -6.904 -29.834   9.922  1.00  0.00    -0.003 A 
HETATM    5  C19 UNL     1      -7.642 -31.065  10.416  1.00  0.00     0.057 C 
HETATM    6  C20 UNL     1      -5.973 -29.681   8.920  1.00  0.00     0.077 A 
ENDROOT
BRANCH   2   7
HETATM    7  N2  UNL     1      -5.543 -26.077   9.719  1.00  0.00    -0.327 N 
ATOM      8  H2  UNL     1      -4.605 -25.910  10.082  1.00  0.00     0.169 HD
BRANCH   7   9
HETATM    9  C10 UNL     1      -6.310 -24.959   9.368  1.00  0.00     0.172 C 
HETATM   10  S1  UNL     1      -6.643 -23.956  10.666  1.00  0.00    -0.041 SA
BRANCH   9  11
HETATM   11  N3  UNL     1      -6.791 -24.583   8.122  1.00  0.00    -0.362 N 
ATOM     12  H3  UNL     1      -6.279 -24.844   7.280  1.00  0.00     0.162 HD
BRANCH  11  13
HETATM   13  C11 UNL     1      -8.040 -23.807   8.009  1.00  0.00     0.083 C 
HETATM   14  C12 UNL     1      -7.819 -22.570   7.237  1.00  0.00     0.025 C 
HETATM   15  C13 UNL     1      -8.889 -22.062   6.350  1.00  0.00     0.002 C 
HETATM   16  C14 UNL     1     -10.164 -21.701   7.077  1.00  0.00     0.000 C 
HETATM   17  C15 UNL     1     -10.980 -22.922   7.253  1.00  0.00     0.000 C 
HETATM   18  C16 UNL     1     -10.311 -24.212   6.896  1.00  0.00     0.002 C 
HETATM   19  C17 UNL     1      -9.207 -24.655   7.757  1.00  0.00     0.025 C 
ENDBRANCH  11  13
ENDBRANCH   9  11
ENDBRANCH   7   9
ENDBRANCH   2   7
BRANCH   1  20
HETATM   20  C7  UNL     1      -4.672 -27.921   7.575  1.00  0.00     0.152 C 
BRANCH  20  21
HETATM   21  N1  UNL     1      -3.373 -27.943   7.106  1.00  0.00    -0.361 N 
HETATM   22  C6  UNL     1      -2.799 -26.947   6.228  1.00  0.00     0.152 C 
BRANCH  21  23
HETATM   23  C3  UNL     1      -2.524 -29.148   7.305  1.00  0.00     0.085 C 
BRANCH  23  24
HETATM   24  C2  UNL     1      -1.759 -29.537   6.099  1.00  0.00     0.021 C 
HETATM   25  C1  UNL     1      -2.549 -30.517   5.219  1.00  0.00     0.007 C 
ENDBRANCH  23  24
BRANCH  23  26
HETATM   26  C4  UNL     1      -1.693 -29.098   8.531  1.00  0.00     0.021 C 
HETATM   27  C5  UNL     1      -0.205 -28.938   8.183  1.00  0.00     0.007 C 
ENDBRANCH  23  26
ENDBRANCH  21  23
ENDBRANCH  20  21
BRANCH  20  28
HETATM   28  O1  UNL     1      -5.477 -27.206   6.730  1.00  0.00    -0.345 OA
ATOM     29  H1  UNL     1      -5.942 -26.528   7.205  1.00  0.00     0.219 HD
ENDBRANCH  20  28
ENDBRANCH   1  20
BRANCH   6  30
HETATM   30  C21 UNL     1      -5.649 -30.935   8.117  1.00  0.00     0.419 C 
HETATM   31  F1  UNL     1      -5.740 -30.635   6.721  1.00  0.00    -0.166 F 
HETATM   32  F2  UNL     1      -6.643 -31.879   8.197  1.00  0.00    -0.166 F 
HETATM   33  F3  UNL     1      -4.369 -31.344   8.256  1.00  0.00    -0.166 F 
ENDBRANCH   6  30
TORSDOF 11
ENDMDL
MODEL 4
REMARK VINA RESULT: -7.685652051      3.140      7.715
REMARK  11 active torsions:
REMARK  status: ('A' for Active; 'I' for Inactive)
REMARK    1  A    between atoms: C2_2  and  C3_3 
REMARK    2  A    between atoms: C3_3  and  C4_4 
REMARK    3  A    between atoms: C3_3  and  N1_6 
REMARK    4  A    between atoms: N1_6  and  C7_8 
REMARK    5  A    between atoms: C7_8  and  O1_9 
REMARK    6  A    between atoms: C7_8  and  C8_11 
REMARK    7  A    between atoms: C9_12  and  N2_13 
REMARK    8  A    between atoms: N2_13  and  C10_15 
REMARK    9  A    between atoms: C10_15  and  N3_17 
REMARK   10  A    between atoms: N3_17  and  C11_19 
REMARK   11  A    between atoms: C20_29  and  C21_30 
ROOT
HETATM    1  C8  UNL     1      -5.478 -28.481   8.816  1.00  0.00     0.065 A 
HETATM    2  C9  UNL     1      -6.062 -27.485   9.647  1.00  0.00     0.092 A 
HETATM    3  S2  UNL     1      -7.219 -28.289  10.551  1.00  0.00    -0.075 SA
HETATM    4  C18 UNL     1      -7.025 -29.853   9.953  1.00  0.00    -0.003 A 
HETATM    5  C19 UNL     1      -7.806 -31.068  10.422  1.00  0.00     0.057 C 
HETATM    6  C20 UNL     1      -6.025 -29.730   9.014  1.00  0.00     0.077 A 
ENDROOT
BRANCH   2   7
HETATM    7  N2  UNL     1      -5.620 -26.112   9.760  1.00  0.00    -0.327 N 
ATOM      8  H2  UNL     1      -4.736 -25.939  10.237  1.00  0.00     0.169 HD
BRANCH   7   9
HETATM    9  C10 UNL     1      -6.316 -25.002   9.263  1.00  0.00     0.172 C 
HETATM   10  S1  UNL     1      -5.544 -24.265   7.974  1.00  0.00    -0.041 SA
BRANCH   9  11
HETATM   11  N3  UNL     1      -7.530 -24.473   9.676  1.00  0.00    -0.362 N 
ATOM     12  H3  UNL     1      -7.817 -24.562  10.651  1.00  0.00     0.162 HD
BRANCH  11  13
HETATM   13  C11 UNL     1      -8.408 -23.782   8.713  1.00  0.00     0.083 C 
HETATM   14  C12 UNL     1      -9.374 -24.723   8.118  1.00  0.00     0.025 C 
HETATM   15  C13 UNL     1     -10.742 -24.260   7.796  1.00  0.00     0.002 C 
HETATM   16  C14 UNL     1     -10.785 -23.147   6.773  1.00  0.00     0.000 C 
HETATM   17  C15 UNL     1     -10.577 -21.853   7.460  1.00  0.00     0.000 C 
HETATM   18  C16 UNL     1     -10.173 -21.935   8.898  1.00  0.00     0.002 C 
HETATM   19  C17 UNL     1      -8.833 -22.464   9.188  1.00  0.00     0.025 C 
ENDBRANCH  11  13
ENDBRANCH   9  11
ENDBRANCH   7   9
ENDBRANCH   2   7
BRANCH   1  20
HETATM   20  C7  UNL     1      -4.619 -28.011   7.724  1.00  0.00     0.152 C 
BRANCH  20  21
HETATM   21  N1  UNL     1      -3.276 -27.842   7.450  1.00  0.00    -0.361 N 
HETATM   22  C6  UNL     1      -2.686 -26.620   6.949  1.00  0.00     0.152 C 
BRANCH  21  23
HETATM   23  C3  UNL     1      -2.359 -29.014   7.443  1.00  0.00     0.085 C 
BRANCH  23  24
HETATM   24  C2  UNL     1      -1.837 -29.347   6.098  1.00  0.00     0.021 C 
HETATM   25  C1  UNL     1      -2.827 -30.215   5.306  1.00  0.00     0.007 C 
ENDBRANCH  23  24
BRANCH  23  26
HETATM   26  C4  UNL     1      -1.301 -28.951   8.478  1.00  0.00     0.021 C 
HETATM   27  C5  UNL     1       0.093 -28.867   7.838  1.00  0.00     0.007 C 
ENDBRANCH  23  26
ENDBRANCH  21  23
ENDBRANCH  20  21
BRANCH  20  28
HETATM   28  O1  UNL     1      -5.382 -27.609   6.661  1.00  0.00    -0.345 OA
ATOM     29  H1  UNL     1      -5.929 -26.871   6.903  1.00  0.00     0.219 HD
ENDBRANCH  20  28
ENDBRANCH   1  20
BRANCH   6  30
HETATM   30  C21 UNL     1      -5.657 -31.004   8.265  1.00  0.00     0.419 C 
HETATM   31  F1  UNL     1      -5.822 -30.786   6.860  1.00  0.00    -0.166 F 
HETATM   32  F2  UNL     1      -6.588 -31.999   8.436  1.00  0.00    -0.166 F 
HETATM   33  F3  UNL     1      -4.351 -31.330   8.370  1.00  0.00    -0.166 F 
ENDBRANCH   6  30
TORSDOF 11
ENDMDL
MODEL 5
REMARK VINA RESULT: -7.661430112      1.840      2.870
REMARK  11 active torsions:
REMARK  status: ('A' for Active; 'I' for Inactive)
REMARK    1  A    between atoms: C2_2  and  C3_3 
REMARK    2  A    between atoms: C3_3  and  C4_4 
REMARK    3  A    between atoms: C3_3  and  N1_6 
REMARK    4  A    between atoms: N1_6  and  C7_8 
REMARK    5  A    between atoms: C7_8  and  O1_9 
REMARK    6  A    between atoms: C7_8  and  C8_11 
REMARK    7  A    between atoms: C9_12  and  N2_13 
REMARK    8  A    between atoms: N2_13  and  C10_15 
REMARK    9  A    between atoms: C10_15  and  N3_17 
REMARK   10  A    between atoms: N3_17  and  C11_19 
REMARK   11  A    between atoms: C20_29  and  C21_30 
ROOT
HETATM    1  C8  UNL     1      -4.940 -26.800   9.094  1.00  0.00     0.065 A 
HETATM    2  C9  UNL     1      -3.832 -27.007   8.226  1.00  0.00     0.092 A 
HETATM    3  S2  UNL     1      -3.765 -25.639   7.263  1.00  0.00    -0.075 SA
HETATM    4  C18 UNL     1      -5.074 -24.778   7.885  1.00  0.00    -0.003 A 
HETATM    5  C19 UNL     1      -5.514 -23.403   7.415  1.00  0.00     0.057 C 
HETATM    6  C20 UNL     1      -5.573 -25.597   8.874  1.00  0.00     0.077 A 
ENDROOT
BRANCH   2   7
HETATM    7  N2  UNL     1      -2.898 -28.111   8.295  1.00  0.00    -0.327 N 
ATOM      8  H2  UNL     1      -3.194 -29.004   7.901  1.00  0.00     0.169 HD
BRANCH   7   9
HETATM    9  C10 UNL     1      -1.619 -28.044   8.860  1.00  0.00     0.172 C 
HETATM   10  S1  UNL     1      -1.343 -26.620   9.696  1.00  0.00    -0.041 SA
BRANCH   9  11
HETATM   11  N3  UNL     1      -0.600 -28.985   8.834  1.00  0.00    -0.362 N 
ATOM     12  H3  UNL     1      -0.760 -29.918   9.213  1.00  0.00     0.162 HD
BRANCH  11  13
HETATM   13  C11 UNL     1       0.716 -28.643   8.262  1.00  0.00     0.083 C 
HETATM   14  C12 UNL     1       1.742 -29.606   8.698  1.00  0.00     0.025 C 
HETATM   15  C13 UNL     1       2.829 -29.986   7.769  1.00  0.00     0.002 C 
HETATM   16  C14 UNL     1       3.707 -28.830   7.349  1.00  0.00     0.000 C 
HETATM   17  C15 UNL     1       3.069 -28.127   6.214  1.00  0.00     0.000 C 
HETATM   18  C16 UNL     1       1.672 -28.549   5.887  1.00  0.00     0.002 C 
HETATM   19  C17 UNL     1       0.626 -28.217   6.864  1.00  0.00     0.025 C 
ENDBRANCH  11  13
ENDBRANCH   9  11
ENDBRANCH   7   9
ENDBRANCH   2   7
BRANCH   1  20
HETATM   20  C7  UNL     1      -5.400 -27.959   9.866  1.00  0.00     0.152 C 
BRANCH  20  21
HETATM   21  N1  UNL     1      -6.527 -28.748   9.997  1.00  0.00    -0.361 N 
HETATM   22  C6  UNL     1      -7.543 -28.569  11.011  1.00  0.00     0.152 C 
BRANCH  21  23
HETATM   23  C3  UNL     1      -6.655 -30.007   9.215  1.00  0.00     0.085 C 
BRANCH  23  24
HETATM   24  C2  UNL     1      -5.449 -30.334   8.420  1.00  0.00     0.021 C 
HETATM   25  C1  UNL     1      -5.721 -30.236   6.912  1.00  0.00     0.007 C 
ENDBRANCH  23  24
BRANCH  23  26
HETATM   26  C4  UNL     1      -7.158 -31.153  10.006  1.00  0.00     0.021 C 
HETATM   27  C5  UNL     1      -7.977 -32.113   9.129  1.00  0.00     0.007 C 
ENDBRANCH  23  26
ENDBRANCH  21  23
ENDBRANCH  20  21
BRANCH  20  28
HETATM   28  O1  UNL     1      -4.419 -28.375  10.726  1.00  0.00    -0.345 OA
ATOM     29  H1  UNL     1      -4.223 -29.294  10.590  1.00  0.00     0.219 HD
ENDBRANCH  20  28
ENDBRANCH   1  20
BRANCH   6  30
HETATM   30  C21 UNL     1      -6.811 -25.084   9.599  1.00  0.00     0.419 C 
HETATM   31  F1  UNL     1      -6.658 -23.685   9.855  1.00  0.00    -0.166 F 
HETATM   32  F2  UNL     1      -6.882 -25.532  10.895  1.00  0.00    -0.166 F 
HETATM   33  F3  UNL     1      -7.931 -25.134   8.846  1.00  0.00    -0.166 F 
ENDBRANCH   6  30
TORSDOF 11
ENDMDL
