MODEL 1
REMARK VINA RESULT: -9.764389902      0.000      0.000
REMARK  7 active torsions:
REMARK  status: ('A' for Active; 'I' for Inactive)
REMARK       I    between atoms: C1_4  and  N3_6 
REMARK    1  A    between atoms: N3_6  and  C2_8 
REMARK    2  A    between atoms: C3_11  and  C4_12 
REMARK    3  A    between atoms: C7_15  and  O1_16 
REMARK    4  A    between atoms: O1_16  and  C8_17 
REMARK    5  A    between atoms: C8_17  and  C9_18 
REMARK    6  A    between atoms: C15_24  and  C16_25 
REMARK    7  A    between atoms: C20_29  and  C21_30 
ROOT
HETATM    1  C4  UNL     1      -1.572 -27.774   8.583  1.00  0.00    -0.008 A 
HETATM    2  C5  UNL     1      -0.805 -27.570   9.711  1.00  0.00     0.016 A 
HETATM    3  C6  UNL     1       0.546 -27.791   9.665  1.00  0.00     0.038 A 
HETATM    4  C7  UNL     1       1.130 -28.220   8.483  1.00  0.00     0.075 A 
HETATM    5  C15 UNL     1       0.374 -28.429   7.340  1.00  0.00    -0.020 A 
HETATM    6  C23 UNL     1      -0.980 -28.196   7.427  1.00  0.00     0.024 A 
ENDROOT
BRANCH   1   7
HETATM    7  C3  UNL     1      -3.024 -27.521   8.677  1.00  0.00     0.060 A 
HETATM    8  N4  UNL     1      -3.777 -28.274   9.506  1.00  0.00    -0.191 N 
HETATM    9  C2  UNL     1      -5.096 -28.137   9.675  1.00  0.00     0.684 A 
ATOM     10  H4  UNL     1      -3.305 -29.003  10.043  1.00  0.00     0.184 HD
HETATM   11  N5  UNL     1      -5.744 -27.199   8.991  1.00  0.00    -0.202 N 
HETATM   12  C25 UNL     1      -5.054 -26.413   8.148  1.00  0.00     0.108 A 
ATOM     13  H5  UNL     1      -6.751 -27.078   9.106  1.00  0.00     0.183 HD
HETATM   14  C24 UNL     1      -3.672 -26.557   7.972  1.00  0.00     0.048 A 
BRANCH   9  15
HETATM   15  N3  UNL     1      -5.694 -28.938  10.510  1.00  0.00    -0.164 N 
HETATM   16  C1  UNL     1      -6.942 -29.523  10.257  1.00  0.00     0.200 C 
HETATM   17  N1  UNL     1      -7.972 -29.114  10.912  1.00  0.00    -0.373 N 
HETATM   18  N2  UNL     1      -7.049 -30.547   9.291  1.00  0.00    -0.063 NA
ATOM     19  H12 UNL     1      -8.881 -29.540  10.728  1.00  0.00     0.158 HD
ATOM     20  H11 UNL     1      -7.895 -28.374  11.609  1.00  0.00     0.158 HD
ATOM     21  H3  UNL     1      -5.229 -29.151  11.394  1.00  0.00     0.187 HD
ENDBRANCH   9  15
ENDBRANCH   1   7
BRANCH   5  22
HETATM   22  C16 UNL     1       1.069 -28.890   6.112  1.00  0.00     0.022 C 
HETATM   23  C17 UNL     1       0.637 -27.991   4.972  1.00  0.00     0.009 C 
HETATM   24  C18 UNL     1       1.448 -28.382   3.754  1.00  0.00     0.001 C 
HETATM   25  C19 UNL     1       1.078 -29.791   3.367  1.00  0.00     0.010 C 
HETATM   26  C20 UNL     1       0.210 -30.463   4.400  1.00  0.00     0.051 C 
HETATM   27  C22 UNL     1       0.762 -30.328   5.791  1.00  0.00     0.019 C 
BRANCH  26  28
HETATM   28  C21 UNL     1       0.154 -31.944   4.002  1.00  0.00     0.357 C 
HETATM   29  F1  UNL     1       0.477 -32.022   2.647  1.00  0.00    -0.214 F 
HETATM   30  F2  UNL     1      -1.183 -32.343   4.079  1.00  0.00    -0.214 F 
ENDBRANCH  26  28
ENDBRANCH   5  22
BRANCH   4  31
HETATM   31  O1  UNL     1       2.494 -28.451   8.413  1.00  0.00    -0.350 OA
BRANCH  31  32
HETATM   32  C8  UNL     1       2.979 -29.715   8.820  1.00  0.00     0.180 C 
BRANCH  32  33
HETATM   33  C9  UNL     1       4.052 -30.234   7.893  1.00  0.00     0.010 C 
HETATM   34  C10 UNL     1       4.339 -29.215   6.808  1.00  0.00     0.007 C 
HETATM   35  C11 UNL     1       5.809 -29.096   6.527  1.00  0.00     0.000 C 
HETATM   36  C12 UNL     1       6.520 -30.427   6.578  1.00  0.00     0.000 C 
HETATM   37  C13 UNL     1       6.413 -31.064   7.936  1.00  0.00     0.000 C 
HETATM   38  C14 UNL     1       5.318 -30.371   8.723  1.00  0.00     0.007 C 
ENDBRANCH  32  33
ENDBRANCH  31  32
ENDBRANCH   4  31
TORSDOF 7
ENDMDL
MODEL 2
REMARK VINA RESULT: -9.662094590      4.106      6.586
REMARK  7 active torsions:
REMARK  status: ('A' for Active; 'I' for Inactive)
REMARK       I    between atoms: C1_4  and  N3_6 
REMARK    1  A    between atoms: N3_6  and  C2_8 
REMARK    2  A    between atoms: C3_11  and  C4_12 
REMARK    3  A    between atoms: C7_15  and  O1_16 
REMARK    4  A    between atoms: O1_16  and  C8_17 
REMARK    5  A    between atoms: C8_17  and  C9_18 
REMARK    6  A    between atoms: C15_24  and  C16_25 
REMARK    7  A    between atoms: C20_29  and  C21_30 
ROOT
HETATM    1  C4  UNL     1      -5.471 -25.117   7.957  1.00  0.00    -0.008 A 
HETATM    2  C5  UNL     1      -4.284 -24.668   7.418  1.00  0.00     0.016 A 
HETATM    3  C6  UNL     1      -3.240 -25.539   7.251  1.00  0.00     0.038 A 
HETATM    4  C7  UNL     1      -3.388 -26.865   7.626  1.00  0.00     0.075 A 
HETATM    5  C15 UNL     1      -4.576 -27.333   8.168  1.00  0.00    -0.020 A 
HETATM    6  C23 UNL     1      -5.601 -26.426   8.321  1.00  0.00     0.024 A 
ENDROOT
BRANCH   1   7
HETATM    7  C3  UNL     1      -6.571 -24.143   8.117  1.00  0.00     0.060 A 
HETATM    8  N4  UNL     1      -7.640 -24.468   8.874  1.00  0.00    -0.191 N 
HETATM    9  C2  UNL     1      -8.691 -23.670   9.091  1.00  0.00     0.684 A 
ATOM     10  H4  UNL     1      -7.647 -25.389   9.312  1.00  0.00     0.184 HD
HETATM   11  N5  UNL     1      -8.717 -22.464   8.536  1.00  0.00    -0.202 N 
HETATM   12  C25 UNL     1      -7.683 -22.077   7.769  1.00  0.00     0.108 A 
ATOM     13  H5  UNL     1      -9.510 -21.840   8.689  1.00  0.00     0.183 HD
HETATM   14  C24 UNL     1      -6.583 -22.912   7.542  1.00  0.00     0.048 A 
BRANCH   9  15
HETATM   15  N3  UNL     1      -9.655 -24.119   9.845  1.00  0.00    -0.164 N 
HETATM   16  C1  UNL     1     -10.836 -23.406  10.090  1.00  0.00     0.200 C 
HETATM   17  N1  UNL     1     -11.030 -22.891  11.254  1.00  0.00    -0.373 N 
HETATM   18  N2  UNL     1     -11.790 -23.262   9.060  1.00  0.00    -0.063 NA
ATOM     19  H12 UNL     1     -11.891 -22.373  11.433  1.00  0.00     0.158 HD
ATOM     20  H11 UNL     1     -10.341 -22.995  11.999  1.00  0.00     0.158 HD
ATOM     21  H3  UNL     1      -9.543 -25.035  10.280  1.00  0.00     0.187 HD
ENDBRANCH   9  15
ENDBRANCH   1   7
BRANCH   5  22
HETATM   22  C16 UNL     1      -4.659 -28.765   8.548  1.00  0.00     0.022 C 
HETATM   23  C17 UNL     1      -5.152 -29.535   7.339  1.00  0.00     0.009 C 
HETATM   24  C18 UNL     1      -5.108 -31.008   7.692  1.00  0.00     0.001 C 
HETATM   25  C19 UNL     1      -6.092 -31.260   8.805  1.00  0.00     0.010 C 
HETATM   26  C20 UNL     1      -6.648 -29.985   9.384  1.00  0.00     0.051 C 
HETATM   27  C22 UNL     1      -5.574 -28.990   9.722  1.00  0.00     0.019 C 
BRANCH  26  28
HETATM   28  C21 UNL     1      -7.400 -30.394  10.658  1.00  0.00     0.357 C 
HETATM   29  F1  UNL     1      -8.393 -31.298  10.281  1.00  0.00    -0.214 F 
HETATM   30  F2  UNL     1      -8.091 -29.267  11.111  1.00  0.00    -0.214 F 
ENDBRANCH  26  28
ENDBRANCH   5  22
BRANCH   4  31
HETATM   31  O1  UNL     1      -2.346 -27.765   7.467  1.00  0.00    -0.350 OA
BRANCH  31  32
HETATM   32  C8  UNL     1      -1.628 -27.746   6.250  1.00  0.00     0.180 C 
BRANCH  32  33
HETATM   33  C9  UNL     1      -0.300 -28.455   6.367  1.00  0.00     0.010 C 
HETATM   34  C10 UNL     1       0.619 -28.026   5.241  1.00  0.00     0.007 C 
HETATM   35  C11 UNL     1       2.027 -27.814   5.717  1.00  0.00     0.000 C 
HETATM   36  C12 UNL     1       2.452 -28.833   6.747  1.00  0.00     0.000 C 
HETATM   37  C13 UNL     1       1.589 -28.774   7.978  1.00  0.00     0.000 C 
HETATM   38  C14 UNL     1       0.334 -27.983   7.665  1.00  0.00     0.007 C 
ENDBRANCH  32  33
ENDBRANCH  31  32
ENDBRANCH   4  31
TORSDOF 7
ENDMDL
MODEL 3
REMARK VINA RESULT: -9.566761836      4.262      6.949
REMARK  7 active torsions:
REMARK  status: ('A' for Active; 'I' for Inactive)
REMARK       I    between atoms: C1_4  and  N3_6 
REMARK    1  A    between atoms: N3_6  and  C2_8 
REMARK    2  A    between atoms: C3_11  and  C4_12 
REMARK    3  A    between atoms: C7_15  and  O1_16 
REMARK    4  A    between atoms: O1_16  and  C8_17 
REMARK    5  A    between atoms: C8_17  and  C9_18 
REMARK    6  A    between atoms: C15_24  and  C16_25 
REMARK    7  A    between atoms: C20_29  and  C21_30 
ROOT
HETATM    1  C4  UNL     1      -5.511 -25.351   8.049  1.00  0.00    -0.008 A 
HETATM    2  C5  UNL     1      -4.337 -24.902   7.479  1.00  0.00     0.016 A 
HETATM    3  C6  UNL     1      -3.308 -25.778   7.260  1.00  0.00     0.038 A 
HETATM    4  C7  UNL     1      -3.456 -27.110   7.613  1.00  0.00     0.075 A 
HETATM    5  C15 UNL     1      -4.629 -27.579   8.186  1.00  0.00    -0.020 A 
HETATM    6  C23 UNL     1      -5.639 -26.666   8.390  1.00  0.00     0.024 A 
ENDROOT
BRANCH   1   7
HETATM    7  C3  UNL     1      -6.595 -24.371   8.266  1.00  0.00     0.060 A 
HETATM    8  N4  UNL     1      -6.684 -23.291   7.462  1.00  0.00    -0.191 N 
HETATM    9  C2  UNL     1      -7.620 -22.341   7.562  1.00  0.00     0.684 A 
ATOM     10  H4  UNL     1      -5.986 -23.190   6.725  1.00  0.00     0.184 HD
HETATM   11  N5  UNL     1      -8.545 -22.438   8.511  1.00  0.00    -0.202 N 
HETATM   12  C25 UNL     1      -8.514 -23.490   9.346  1.00  0.00     0.108 A 
ATOM     13  H5  UNL     1      -9.268 -21.724   8.603  1.00  0.00     0.183 HD
HETATM   14  C24 UNL     1      -7.534 -24.484   9.241  1.00  0.00     0.048 A 
BRANCH   9  15
HETATM   15  N3  UNL     1      -7.581 -21.351   6.715  1.00  0.00    -0.164 N 
HETATM   16  C1  UNL     1      -7.659 -21.523   5.326  1.00  0.00     0.200 C 
HETATM   17  N1  UNL     1      -6.607 -21.335   4.609  1.00  0.00    -0.373 N 
HETATM   18  N2  UNL     1      -8.885 -21.900   4.738  1.00  0.00    -0.063 NA
ATOM     19  H12 UNL     1      -6.664 -21.459   3.598  1.00  0.00     0.158 HD
ATOM     20  H11 UNL     1      -5.720 -21.063   5.034  1.00  0.00     0.158 HD
ATOM     21  H3  UNL     1      -7.490 -20.404   7.081  1.00  0.00     0.187 HD
ENDBRANCH   9  15
ENDBRANCH   1   7
BRANCH   5  22
HETATM   22  C16 UNL     1      -4.712 -29.018   8.539  1.00  0.00     0.022 C 
HETATM   23  C17 UNL     1      -5.202 -29.765   7.315  1.00  0.00     0.009 C 
HETATM   24  C18 UNL     1      -5.159 -31.244   7.641  1.00  0.00     0.001 C 
HETATM   25  C19 UNL     1      -6.146 -31.517   8.747  1.00  0.00     0.010 C 
HETATM   26  C20 UNL     1      -6.703 -30.253   9.348  1.00  0.00     0.051 C 
HETATM   27  C22 UNL     1      -5.631 -29.264   9.706  1.00  0.00     0.019 C 
BRANCH  26  28
HETATM   28  C21 UNL     1      -7.459 -30.685  10.612  1.00  0.00     0.357 C 
HETATM   29  F1  UNL     1      -8.513 -31.504  10.206  1.00  0.00    -0.214 F 
HETATM   30  F2  UNL     1      -8.069 -29.545  11.140  1.00  0.00    -0.214 F 
ENDBRANCH  26  28
ENDBRANCH   5  22
BRANCH   4  31
HETATM   31  O1  UNL     1      -2.428 -28.015   7.401  1.00  0.00    -0.350 OA
BRANCH  31  32
HETATM   32  C8  UNL     1      -1.649 -27.878   6.230  1.00  0.00     0.180 C 
BRANCH  32  33
HETATM   33  C9  UNL     1      -0.289 -28.517   6.379  1.00  0.00     0.010 C 
HETATM   34  C10 UNL     1       0.622 -28.071   5.252  1.00  0.00     0.007 C 
HETATM   35  C11 UNL     1       2.011 -27.778   5.738  1.00  0.00     0.000 C 
HETATM   36  C12 UNL     1       2.473 -28.750   6.797  1.00  0.00     0.000 C 
HETATM   37  C13 UNL     1       1.594 -28.705   8.017  1.00  0.00     0.000 C 
HETATM   38  C14 UNL     1       0.305 -27.984   7.672  1.00  0.00     0.007 C 
ENDBRANCH  32  33
ENDBRANCH  31  32
ENDBRANCH   4  31
TORSDOF 7
ENDMDL
MODEL 4
REMARK VINA RESULT: -9.558038463      1.152      1.675
REMARK  7 active torsions:
REMARK  status: ('A' for Active; 'I' for Inactive)
REMARK       I    between atoms: C1_4  and  N3_6 
REMARK    1  A    between atoms: N3_6  and  C2_8 
REMARK    2  A    between atoms: C3_11  and  C4_12 
REMARK    3  A    between atoms: C7_15  and  O1_16 
REMARK    4  A    between atoms: O1_16  and  C8_17 
REMARK    5  A    between atoms: C8_17  and  C9_18 
REMARK    6  A    between atoms: C15_24  and  C16_25 
REMARK    7  A    between atoms: C20_29  and  C21_30 
ROOT
HETATM    1  C4  UNL     1      -1.797 -28.150   8.706  1.00  0.00    -0.008 A 
HETATM    2  C5  UNL     1      -1.061 -27.820   9.825  1.00  0.00     0.016 A 
HETATM    3  C6  UNL     1       0.306 -27.854   9.775  1.00  0.00     0.038 A 
HETATM    4  C7  UNL     1       0.940 -28.220   8.597  1.00  0.00     0.075 A 
HETATM    5  C15 UNL     1       0.216 -28.553   7.462  1.00  0.00    -0.020 A 
HETATM    6  C23 UNL     1      -1.157 -28.508   7.554  1.00  0.00     0.024 A 
ENDROOT
BRANCH   1   7
HETATM    7  C3  UNL     1      -3.270 -28.098   8.805  1.00  0.00     0.060 A 
HETATM    8  N4  UNL     1      -3.864 -26.988   9.291  1.00  0.00    -0.191 N 
HETATM    9  C2  UNL     1      -5.185 -26.826   9.425  1.00  0.00     0.684 A 
ATOM     10  H4  UNL     1      -3.262 -26.215   9.576  1.00  0.00     0.184 HD
HETATM   11  N5  UNL     1      -6.000 -27.812   9.064  1.00  0.00    -0.202 N 
HETATM   12  C25 UNL     1      -5.473 -28.946   8.572  1.00  0.00     0.108 A 
ATOM     13  H5  UNL     1      -7.010 -27.708   9.158  1.00  0.00     0.183 HD
HETATM   14  C24 UNL     1      -4.091 -29.114   8.431  1.00  0.00     0.048 A 
BRANCH   9  15
HETATM   15  N3  UNL     1      -5.617 -25.697   9.911  1.00  0.00    -0.164 N 
HETATM   16  C1  UNL     1      -6.945 -25.488  10.308  1.00  0.00     0.200 C 
HETATM   17  N1  UNL     1      -7.703 -24.732   9.593  1.00  0.00    -0.373 N 
HETATM   18  N2  UNL     1      -7.428 -26.109  11.480  1.00  0.00    -0.063 NA
ATOM     19  H12 UNL     1      -8.670 -24.579   9.883  1.00  0.00     0.158 HD
ATOM     20  H11 UNL     1      -7.354 -24.284   8.747  1.00  0.00     0.158 HD
ATOM     21  H3  UNL     1      -4.956 -24.926  10.008  1.00  0.00     0.187 HD
ENDBRANCH   9  15
ENDBRANCH   1   7
BRANCH   5  22
HETATM   22  C16 UNL     1       0.964 -28.936   6.239  1.00  0.00     0.022 C 
HETATM   23  C17 UNL     1       0.544 -27.995   5.128  1.00  0.00     0.009 C 
HETATM   24  C18 UNL     1       1.406 -28.306   3.922  1.00  0.00     0.001 C 
HETATM   25  C19 UNL     1       1.087 -29.704   3.457  1.00  0.00     0.010 C 
HETATM   26  C20 UNL     1       0.206 -30.448   4.427  1.00  0.00     0.051 C 
HETATM   27  C22 UNL     1       0.707 -30.365   5.840  1.00  0.00     0.019 C 
BRANCH  26  28
HETATM   28  C21 UNL     1       0.203 -31.909   3.958  1.00  0.00     0.357 C 
HETATM   29  F1  UNL     1       0.491 -31.907   2.593  1.00  0.00    -0.214 F 
HETATM   30  F2  UNL     1      -1.112 -32.371   4.050  1.00  0.00    -0.214 F 
ENDBRANCH  26  28
ENDBRANCH   5  22
BRANCH   4  31
HETATM   31  O1  UNL     1       2.323 -28.261   8.522  1.00  0.00    -0.350 OA
BRANCH  31  32
HETATM   32  C8  UNL     1       2.976 -29.454   8.907  1.00  0.00     0.180 C 
BRANCH  32  33
HETATM   33  C9  UNL     1       3.933 -29.942   7.845  1.00  0.00     0.010 C 
HETATM   34  C10 UNL     1       4.236 -28.825   6.866  1.00  0.00     0.007 C 
HETATM   35  C11 UNL     1       5.688 -28.792   6.486  1.00  0.00     0.000 C 
HETATM   36  C12 UNL     1       6.278 -30.173   6.327  1.00  0.00     0.000 C 
HETATM   37  C13 UNL     1       6.207 -30.961   7.608  1.00  0.00     0.000 C 
HETATM   38  C14 UNL     1       5.234 -30.282   8.552  1.00  0.00     0.007 C 
ENDBRANCH  32  33
ENDBRANCH  31  32
ENDBRANCH   4  31
TORSDOF 7
ENDMDL
MODEL 5
REMARK VINA RESULT: -9.374499778      3.063      5.062
REMARK  7 active torsions:
REMARK  status: ('A' for Active; 'I' for Inactive)
REMARK       I    between atoms: C1_4  and  N3_6 
REMARK    1  A    between atoms: N3_6  and  C2_8 
REMARK    2  A    between atoms: C3_11  and  C4_12 
REMARK    3  A    between atoms: C7_15  and  O1_16 
REMARK    4  A    between atoms: O1_16  and  C8_17 
REMARK    5  A    between atoms: C8_17  and  C9_18 
REMARK    6  A    between atoms: C15_24  and  C16_25 
REMARK    7  A    between atoms: C20_29  and  C21_30 
ROOT
HETATM    1  C4  UNL     1      -4.365 -30.180   7.393  1.00  0.00    -0.008 A 
HETATM    2  C5  UNL     1      -4.333 -30.552   6.065  1.00  0.00     0.016 A 
HETATM    3  C6  UNL     1      -3.247 -30.233   5.295  1.00  0.00     0.038 A 
HETATM    4  C7  UNL     1      -2.189 -29.537   5.858  1.00  0.00     0.075 A 
HETATM    5  C15 UNL     1      -2.204 -29.156   7.192  1.00  0.00    -0.020 A 
HETATM    6  C23 UNL     1      -3.314 -29.496   7.932  1.00  0.00     0.024 A 
ENDROOT
BRANCH   1   7
HETATM    7  C3  UNL     1      -5.556 -30.548   8.187  1.00  0.00     0.060 A 
HETATM    8  N4  UNL     1      -6.104 -29.638   9.020  1.00  0.00    -0.191 N 
HETATM    9  C2  UNL     1      -7.180 -29.856   9.785  1.00  0.00     0.684 A 
ATOM     10  H4  UNL     1      -5.667 -28.718   9.070  1.00  0.00     0.184 HD
HETATM   11  N5  UNL     1      -7.775 -31.043   9.746  1.00  0.00    -0.202 N 
HETATM   12  C25 UNL     1      -7.279 -31.995   8.937  1.00  0.00     0.108 A 
ATOM     13  H5  UNL     1      -8.596 -31.230  10.322  1.00  0.00     0.183 HD
HETATM   14  C24 UNL     1      -6.154 -31.767   8.136  1.00  0.00     0.048 A 
BRANCH   9  15
HETATM   15  N3  UNL     1      -7.599 -28.883  10.543  1.00  0.00    -0.164 N 
HETATM   16  C1  UNL     1      -7.097 -27.577  10.467  1.00  0.00     0.200 C 
HETATM   17  N1  UNL     1      -6.346 -27.135  11.415  1.00  0.00    -0.373 N 
HETATM   18  N2  UNL     1      -7.420 -26.769   9.355  1.00  0.00    -0.063 NA
ATOM     19  H12 UNL     1      -5.981 -26.183  11.360  1.00  0.00     0.158 HD
ATOM     20  H11 UNL     1      -6.113 -27.718  12.218  1.00  0.00     0.158 HD
ATOM     21  H3  UNL     1      -8.329 -29.082  11.227  1.00  0.00     0.187 HD
ENDBRANCH   9  15
ENDBRANCH   1   7
BRANCH   5  22
HETATM   22  C16 UNL     1      -1.035 -28.413   7.724  1.00  0.00     0.022 C 
HETATM   23  C17 UNL     1      -0.717 -28.973   9.095  1.00  0.00     0.009 C 
HETATM   24  C18 UNL     1       0.554 -28.302   9.574  1.00  0.00     0.001 C 
HETATM   25  C19 UNL     1       0.277 -26.831   9.754  1.00  0.00     0.010 C 
HETATM   26  C20 UNL     1      -1.066 -26.426   9.206  1.00  0.00     0.051 C 
HETATM   27  C22 UNL     1      -1.295 -26.932   7.810  1.00  0.00     0.019 C 
BRANCH  26  28
HETATM   28  C21 UNL     1      -1.078 -24.891   9.213  1.00  0.00     0.357 C 
HETATM   29  F1  UNL     1      -1.783 -24.477   8.083  1.00  0.00    -0.214 F 
HETATM   30  F2  UNL     1       0.235 -24.466   8.998  1.00  0.00    -0.214 F 
ENDBRANCH  26  28
ENDBRANCH   5  22
BRANCH   4  31
HETATM   31  O1  UNL     1      -1.079 -29.202   5.099  1.00  0.00    -0.350 OA
BRANCH  31  32
HETATM   32  C8  UNL     1      -0.056 -30.166   4.951  1.00  0.00     0.180 C 
BRANCH  32  33
HETATM   33  C9  UNL     1       1.316 -29.569   5.153  1.00  0.00     0.010 C 
HETATM   34  C10 UNL     1       1.251 -28.060   5.023  1.00  0.00     0.007 C 
HETATM   35  C11 UNL     1       2.093 -27.372   6.058  1.00  0.00     0.000 C 
HETATM   36  C12 UNL     1       3.393 -28.094   6.323  1.00  0.00     0.000 C 
HETATM   37  C13 UNL     1       3.162 -29.487   6.841  1.00  0.00     0.000 C 
HETATM   38  C14 UNL     1       1.720 -29.877   6.585  1.00  0.00     0.007 C 
ENDBRANCH  32  33
ENDBRANCH  31  32
ENDBRANCH   4  31
TORSDOF 7
ENDMDL
