MODEL 1
REMARK VINA RESULT: -8.383771334      0.000      0.000
REMARK  11 active torsions:
REMARK  status: ('A' for Active; 'I' for Inactive)
REMARK    1  A    between atoms: O1_2  and  C2_3 
REMARK    2  A    between atoms: C2_3  and  C3_5 
REMARK    3  A    between atoms: C3_5  and  N1_6 
REMARK    4  A    between atoms: C3_5  and  C15_27 
REMARK    5  A    between atoms: N1_6  and  C4_9 
REMARK    6  A    between atoms: C4_9  and  C5_10 
REMARK    7  A    between atoms: C4_9  and  C8_17 
REMARK    8  A    between atoms: C5_10  and  C6_11 
REMARK    9  A    between atoms: N2_13  and  O3_15 
REMARK       I    between atoms: C8_17  and  N3_19 
REMARK   10  A    between atoms: N3_19  and  C9_21 
REMARK   11  A    between atoms: C16_30  and  N5_31 
ROOT
HETATM    1  N1  UNL     1      22.023  -6.282 -27.802  1.00  0.00    -0.042 N 
ATOM      2  H11 UNL     1      21.675  -5.502 -28.360  1.00  0.00     0.279 HD
ATOM      3  H12 UNL     1      21.322  -6.267 -27.061  1.00  0.00     0.279 HD
ENDROOT
BRANCH   1   4
HETATM    4  C3  UNL     1      23.331  -6.023 -27.295  1.00  0.00     0.353 C 
BRANCH   4   5
HETATM    5  C2  UNL     1      24.237  -5.500 -28.298  1.00  0.00     0.297 C 
HETATM    6  O2  UNL     1      25.219  -6.258 -28.626  1.00  0.00    -0.262 OA
BRANCH   5   7
HETATM    7  O1  UNL     1      24.175  -4.279 -28.954  1.00  0.00    -0.325 OA
HETATM    8  C1  UNL     1      23.248  -4.125 -30.042  1.00  0.00     0.213 C 
ENDBRANCH   5   7
ENDBRANCH   4   5
BRANCH   4   9
HETATM    9  C15 UNL     1      23.219  -5.208 -26.053  1.00  0.00     0.131 A 
HETATM   10  N4  UNL     1      23.429  -3.915 -26.083  1.00  0.00    -0.323 N 
HETATM   11  C16 UNL     1      23.341  -3.219 -24.973  1.00  0.00     0.160 A 
ATOM     12  H4  UNL     1      23.659  -3.453 -26.963  1.00  0.00     0.169 HD
HETATM   13  S1  UNL     1      22.942  -4.416 -23.826  1.00  0.00     0.024 SA
HETATM   14  N6  UNL     1      22.912  -5.743 -24.857  1.00  0.00    -0.311 N 
ATOM     15  H6  UNL     1      22.711  -6.718 -24.631  1.00  0.00     0.175 HD
BRANCH  11  16
HETATM   16  N5  UNL     1      23.513  -1.922 -24.833  1.00  0.00    -0.379 N 
ATOM     17  H52 UNL     1      22.996  -1.137 -25.229  1.00  0.00     0.158 HD
ATOM     18  H51 UNL     1      24.234  -1.452 -24.285  1.00  0.00     0.158 HD
ENDBRANCH  11  16
ENDBRANCH   4   9
ENDBRANCH   1   4
BRANCH   1  19
HETATM   19  C4  UNL     1      21.991  -7.553 -28.558  1.00  0.00     0.284 C 
BRANCH  19  20
HETATM   20  C5  UNL     1      22.320  -8.627 -27.597  1.00  0.00     0.097 C 
BRANCH  20  21
HETATM   21  C6  UNL     1      23.022  -9.827 -28.088  1.00  0.00     0.008 C 
HETATM   22  C7  UNL     1      24.538  -9.736 -28.280  1.00  0.00     0.065 C 
HETATM   23  N2  UNL     1      22.465 -10.919 -28.339  1.00  0.00    -0.278 N 
ATOM     24  H2  UNL     1      21.458 -11.000 -28.199  1.00  0.00     0.193 HD
BRANCH  23  25
HETATM   25  O3  UNL     1      23.168 -12.023 -28.800  1.00  0.00    -0.290 OA
ATOM     26  H3  UNL     1      23.314 -12.793 -28.264  1.00  0.00     0.244 HD
ENDBRANCH  23  25
ENDBRANCH  20  21
ENDBRANCH  19  20
BRANCH  19  27
HETATM   27  C8  UNL     1      20.652  -7.539 -29.194  1.00  0.00     0.253 C 
HETATM   28  O4  UNL     1      20.177  -8.652 -29.486  1.00  0.00    -0.271 OA
HETATM   29  N3  UNL     1      19.947  -6.368 -29.483  1.00  0.00    -0.333 N 
ATOM     30  H3  UNL     1      20.435  -5.516 -29.206  1.00  0.00     0.168 HD
BRANCH  29  31
HETATM   31  C9  UNL     1      18.698  -6.136 -30.082  1.00  0.00    -0.011 C 
HETATM   32  C10 UNL     1      17.762  -5.383 -29.216  1.00  0.00     0.052 C 
HETATM   33  C11 UNL     1      17.475  -3.940 -29.559  1.00  0.00     0.006 C 
HETATM   34  C12 UNL     1      17.091  -3.881 -31.021  1.00  0.00     0.001 C 
HETATM   35  C13 UNL     1      18.401  -4.244 -31.760  1.00  0.00     0.006 C 
HETATM   36  C14 UNL     1      18.683  -5.679 -31.518  1.00  0.00     0.052 C 
ENDBRANCH  29  31
ENDBRANCH  19  27
ENDBRANCH   1  19
TORSDOF 11
ENDMDL
MODEL 2
REMARK VINA RESULT: -8.282625323      2.792      3.887
REMARK  11 active torsions:
REMARK  status: ('A' for Active; 'I' for Inactive)
REMARK    1  A    between atoms: O1_2  and  C2_3 
REMARK    2  A    between atoms: C2_3  and  C3_5 
REMARK    3  A    between atoms: C3_5  and  N1_6 
REMARK    4  A    between atoms: C3_5  and  C15_27 
REMARK    5  A    between atoms: N1_6  and  C4_9 
REMARK    6  A    between atoms: C4_9  and  C5_10 
REMARK    7  A    between atoms: C4_9  and  C8_17 
REMARK    8  A    between atoms: C5_10  and  C6_11 
REMARK    9  A    between atoms: N2_13  and  O3_15 
REMARK       I    between atoms: C8_17  and  N3_19 
REMARK   10  A    between atoms: N3_19  and  C9_21 
REMARK   11  A    between atoms: C16_30  and  N5_31 
ROOT
HETATM    1  N1  UNL     1      20.052  -6.696 -28.843  1.00  0.00    -0.042 N 
ATOM      2  H11 UNL     1      19.285  -6.120 -28.497  1.00  0.00     0.279 HD
ATOM      3  H12 UNL     1      20.498  -6.914 -27.951  1.00  0.00     0.279 HD
ENDROOT
BRANCH   1   4
HETATM    4  C3  UNL     1      20.921  -5.957 -29.700  1.00  0.00     0.353 C 
BRANCH   4   5
HETATM    5  C2  UNL     1      20.313  -4.750 -30.221  1.00  0.00     0.297 C 
HETATM    6  O2  UNL     1      20.414  -4.563 -31.486  1.00  0.00    -0.262 OA
BRANCH   5   7
HETATM    7  O1  UNL     1      19.630  -3.765 -29.521  1.00  0.00    -0.325 OA
HETATM    8  C1  UNL     1      18.193  -3.756 -29.566  1.00  0.00     0.213 C 
ENDBRANCH   5   7
ENDBRANCH   4   5
BRANCH   4   9
HETATM    9  C15 UNL     1      22.230  -5.766 -29.016  1.00  0.00     0.131 A 
HETATM   10  N4  UNL     1      23.081  -6.757 -28.917  1.00  0.00    -0.323 N 
HETATM   11  C16 UNL     1      24.222  -6.570 -28.294  1.00  0.00     0.160 A 
ATOM     12  H4  UNL     1      22.858  -7.667 -29.320  1.00  0.00     0.169 HD
HETATM   13  S1  UNL     1      24.115  -4.934 -27.825  1.00  0.00     0.024 SA
HETATM   14  N6  UNL     1      22.599  -4.594 -28.466  1.00  0.00    -0.311 N 
ATOM     15  H6  UNL     1      22.084  -3.713 -28.444  1.00  0.00     0.175 HD
BRANCH  11  16
HETATM   16  N5  UNL     1      25.183  -7.452 -28.114  1.00  0.00    -0.379 N 
ATOM     17  H52 UNL     1      25.829  -7.580 -27.335  1.00  0.00     0.158 HD
ATOM     18  H51 UNL     1      25.470  -8.190 -28.758  1.00  0.00     0.158 HD
ENDBRANCH  11  16
ENDBRANCH   4   9
ENDBRANCH   1   4
BRANCH   1  19
HETATM   19  C4  UNL     1      19.557  -7.917 -29.517  1.00  0.00     0.284 C 
BRANCH  19  20
HETATM   20  C5  UNL     1      19.933  -9.059 -28.658  1.00  0.00     0.097 C 
BRANCH  20  21
HETATM   21  C6  UNL     1      21.088  -9.889 -29.047  1.00  0.00     0.008 C 
HETATM   22  C7  UNL     1      20.890 -10.897 -30.183  1.00  0.00     0.065 C 
HETATM   23  N2  UNL     1      22.221  -9.812 -28.524  1.00  0.00    -0.278 N 
ATOM     24  H2  UNL     1      22.373  -9.133 -27.778  1.00  0.00     0.193 HD
BRANCH  23  25
HETATM   25  O3  UNL     1      23.280 -10.616 -28.923  1.00  0.00    -0.290 OA
ATOM     26  H3  UNL     1      24.125 -10.597 -28.488  1.00  0.00     0.244 HD
ENDBRANCH  23  25
ENDBRANCH  20  21
ENDBRANCH  19  20
BRANCH  19  27
HETATM   27  C8  UNL     1      18.121  -7.625 -29.740  1.00  0.00     0.253 C 
HETATM   28  O4  UNL     1      17.370  -7.813 -28.765  1.00  0.00    -0.271 OA
HETATM   29  N3  UNL     1      17.602  -7.187 -30.962  1.00  0.00    -0.333 N 
ATOM     30  H3  UNL     1      18.307  -7.075 -31.690  1.00  0.00     0.168 HD
BRANCH  29  31
HETATM   31  C9  UNL     1      16.300  -6.873 -31.381  1.00  0.00    -0.011 C 
HETATM   32  C10 UNL     1      16.200  -5.559 -32.058  1.00  0.00     0.052 C 
HETATM   33  C11 UNL     1      15.998  -5.541 -33.555  1.00  0.00     0.006 C 
HETATM   34  C12 UNL     1      14.831  -6.449 -33.874  1.00  0.00     0.001 C 
HETATM   35  C13 UNL     1      15.361  -7.861 -33.532  1.00  0.00     0.006 C 
HETATM   36  C14 UNL     1      15.501  -7.957 -32.059  1.00  0.00     0.052 C 
ENDBRANCH  29  31
ENDBRANCH  19  27
ENDBRANCH   1  19
TORSDOF 11
ENDMDL
MODEL 3
REMARK VINA RESULT: -8.243743767      2.936      4.008
REMARK  11 active torsions:
REMARK  status: ('A' for Active; 'I' for Inactive)
REMARK    1  A    between atoms: O1_2  and  C2_3 
REMARK    2  A    between atoms: C2_3  and  C3_5 
REMARK    3  A    between atoms: C3_5  and  N1_6 
REMARK    4  A    between atoms: C3_5  and  C15_27 
REMARK    5  A    between atoms: N1_6  and  C4_9 
REMARK    6  A    between atoms: C4_9  and  C5_10 
REMARK    7  A    between atoms: C4_9  and  C8_17 
REMARK    8  A    between atoms: C5_10  and  C6_11 
REMARK    9  A    between atoms: N2_13  and  O3_15 
REMARK       I    between atoms: C8_17  and  N3_19 
REMARK   10  A    between atoms: N3_19  and  C9_21 
REMARK   11  A    between atoms: C16_30  and  N5_31 
ROOT
HETATM    1  N1  UNL     1      19.733  -6.440 -29.073  1.00  0.00    -0.042 N 
ATOM      2  H11 UNL     1      18.918  -5.955 -28.696  1.00  0.00     0.279 HD
ATOM      3  H12 UNL     1      20.236  -6.600 -28.200  1.00  0.00     0.279 HD
ENDROOT
BRANCH   1   4
HETATM    4  C3  UNL     1      20.475  -5.608 -29.964  1.00  0.00     0.353 C 
BRANCH   4   5
HETATM    5  C2  UNL     1      19.697  -4.508 -30.495  1.00  0.00     0.297 C 
HETATM    6  O2  UNL     1      19.469  -4.531 -31.758  1.00  0.00    -0.262 OA
BRANCH   5   7
HETATM    7  O1  UNL     1      19.163  -3.428 -29.808  1.00  0.00    -0.325 OA
HETATM    8  C1  UNL     1      17.746  -3.396 -29.562  1.00  0.00     0.213 C 
ENDBRANCH   5   7
ENDBRANCH   4   5
BRANCH   4   9
HETATM    9  C15 UNL     1      21.759  -5.225 -29.314  1.00  0.00     0.131 A 
HETATM   10  N4  UNL     1      22.408  -4.155 -29.701  1.00  0.00    -0.323 N 
HETATM   11  C16 UNL     1      23.547  -3.845 -29.125  1.00  0.00     0.160 A 
ATOM     12  H4  UNL     1      22.030  -3.566 -30.444  1.00  0.00     0.169 HD
HETATM   13  S1  UNL     1      23.729  -5.099 -27.984  1.00  0.00     0.024 SA
HETATM   14  N6  UNL     1      22.317  -5.945 -28.323  1.00  0.00    -0.311 N 
ATOM     15  H6  UNL     1      21.967  -6.798 -27.884  1.00  0.00     0.175 HD
BRANCH  11  16
HETATM   16  N5  UNL     1      24.314  -2.808 -29.388  1.00  0.00    -0.379 N 
ATOM     17  H52 UNL     1      24.952  -2.634 -30.165  1.00  0.00     0.158 HD
ATOM     18  H51 UNL     1      24.418  -1.962 -28.828  1.00  0.00     0.158 HD
ENDBRANCH  11  16
ENDBRANCH   4   9
ENDBRANCH   1   4
BRANCH   1  19
HETATM   19  C4  UNL     1      19.357  -7.712 -29.727  1.00  0.00     0.284 C 
BRANCH  19  20
HETATM   20  C5  UNL     1      19.780  -8.799 -28.818  1.00  0.00     0.097 C 
BRANCH  20  21
HETATM   21  C6  UNL     1      20.976  -9.588 -29.165  1.00  0.00     0.008 C 
HETATM   22  C7  UNL     1      20.773 -10.866 -29.984  1.00  0.00     0.065 C 
HETATM   23  N2  UNL     1      22.145  -9.274 -28.850  1.00  0.00    -0.278 N 
ATOM     24  H2  UNL     1      22.298  -8.416 -28.319  1.00  0.00     0.193 HD
BRANCH  23  25
HETATM   25  O3  UNL     1      23.242 -10.049 -29.198  1.00  0.00    -0.290 OA
ATOM     26  H3  UNL     1      23.553 -10.764 -28.655  1.00  0.00     0.244 HD
ENDBRANCH  23  25
ENDBRANCH  20  21
ENDBRANCH  19  20
BRANCH  19  27
HETATM   27  C8  UNL     1      17.913  -7.535 -30.015  1.00  0.00     0.253 C 
HETATM   28  O4  UNL     1      17.130  -7.945 -29.139  1.00  0.00    -0.271 OA
HETATM   29  N3  UNL     1      17.425  -6.968 -31.195  1.00  0.00    -0.333 N 
ATOM     30  H3  UNL     1      18.156  -6.675 -31.842  1.00  0.00     0.168 HD
BRANCH  29  31
HETATM   31  C9  UNL     1      16.124  -6.725 -31.663  1.00  0.00    -0.011 C 
HETATM   32  C10 UNL     1      15.972  -5.406 -32.320  1.00  0.00     0.052 C 
HETATM   33  C11 UNL     1      15.829  -5.371 -33.824  1.00  0.00     0.006 C 
HETATM   34  C12 UNL     1      14.734  -6.341 -34.207  1.00  0.00     0.001 C 
HETATM   35  C13 UNL     1      15.335  -7.726 -33.868  1.00  0.00     0.006 C 
HETATM   36  C14 UNL     1      15.421  -7.842 -32.392  1.00  0.00     0.052 C 
ENDBRANCH  29  31
ENDBRANCH  19  27
ENDBRANCH   1  19
TORSDOF 11
ENDMDL
MODEL 4
REMARK VINA RESULT: -8.237178169      2.827      3.672
REMARK  11 active torsions:
REMARK  status: ('A' for Active; 'I' for Inactive)
REMARK    1  A    between atoms: O1_2  and  C2_3 
REMARK    2  A    between atoms: C2_3  and  C3_5 
REMARK    3  A    between atoms: C3_5  and  N1_6 
REMARK    4  A    between atoms: C3_5  and  C15_27 
REMARK    5  A    between atoms: N1_6  and  C4_9 
REMARK    6  A    between atoms: C4_9  and  C5_10 
REMARK    7  A    between atoms: C4_9  and  C8_17 
REMARK    8  A    between atoms: C5_10  and  C6_11 
REMARK    9  A    between atoms: N2_13  and  O3_15 
REMARK       I    between atoms: C8_17  and  N3_19 
REMARK   10  A    between atoms: N3_19  and  C9_21 
REMARK   11  A    between atoms: C16_30  and  N5_31 
ROOT
HETATM    1  N1  UNL     1      19.952  -6.468 -28.903  1.00  0.00    -0.042 N 
ATOM      2  H11 UNL     1      19.205  -5.860 -28.568  1.00  0.00     0.279 HD
ATOM      3  H12 UNL     1      20.318  -6.775 -28.002  1.00  0.00     0.279 HD
ENDROOT
BRANCH   1   4
HETATM    4  C3  UNL     1      20.928  -5.741 -29.649  1.00  0.00     0.353 C 
BRANCH   4   5
HETATM    5  C2  UNL     1      20.373  -4.601 -30.350  1.00  0.00     0.297 C 
HETATM    6  O2  UNL     1      19.668  -3.790 -29.648  1.00  0.00    -0.262 OA
BRANCH   5   7
HETATM    7  O1  UNL     1      20.512  -4.271 -31.690  1.00  0.00    -0.325 OA
HETATM    8  C1  UNL     1      19.383  -4.442 -32.565  1.00  0.00     0.213 C 
ENDBRANCH   5   7
ENDBRANCH   4   5
BRANCH   4   9
HETATM    9  C15 UNL     1      22.090  -5.442 -28.766  1.00  0.00     0.131 A 
HETATM   10  N4  UNL     1      22.731  -4.305 -28.872  1.00  0.00    -0.323 N 
HETATM   11  C16 UNL     1      23.764  -4.070 -28.095  1.00  0.00     0.160 A 
ATOM     12  H4  UNL     1      22.430  -3.607 -29.552  1.00  0.00     0.169 HD
HETATM   13  S1  UNL     1      23.850  -5.497 -27.165  1.00  0.00     0.024 SA
HETATM   14  N6  UNL     1      22.541  -6.308 -27.840  1.00  0.00    -0.311 N 
ATOM     15  H6  UNL     1      22.178  -7.232 -27.605  1.00  0.00     0.175 HD
BRANCH  11  16
HETATM   16  N5  UNL     1      24.507  -2.985 -28.068  1.00  0.00    -0.379 N 
ATOM     17  H52 UNL     1      25.478  -2.837 -28.346  1.00  0.00     0.158 HD
ATOM     18  H51 UNL     1      24.233  -2.059 -27.739  1.00  0.00     0.158 HD
ENDBRANCH  11  16
ENDBRANCH   4   9
ENDBRANCH   1   4
BRANCH   1  19
HETATM   19  C4  UNL     1      19.421  -7.602 -29.691  1.00  0.00     0.284 C 
BRANCH  19  20
HETATM   20  C5  UNL     1      19.713  -8.829 -28.920  1.00  0.00     0.097 C 
BRANCH  20  21
HETATM   21  C6  UNL     1      20.929  -9.598 -29.244  1.00  0.00     0.008 C 
HETATM   22  C7  UNL     1      20.760 -10.896 -30.039  1.00  0.00     0.065 C 
HETATM   23  N2  UNL     1      22.089  -9.251 -28.929  1.00  0.00    -0.278 N 
ATOM     24  H2  UNL     1      22.219  -8.380 -28.414  1.00  0.00     0.193 HD
BRANCH  23  25
HETATM   25  O3  UNL     1      23.205 -10.008 -29.255  1.00  0.00    -0.290 OA
ATOM     26  H3  UNL     1      23.911  -9.669 -29.792  1.00  0.00     0.244 HD
ENDBRANCH  23  25
ENDBRANCH  20  21
ENDBRANCH  19  20
BRANCH  19  27
HETATM   27  C8  UNL     1      18.009  -7.220 -29.931  1.00  0.00     0.253 C 
HETATM   28  O4  UNL     1      17.343  -6.939 -28.918  1.00  0.00    -0.271 OA
HETATM   29  N3  UNL     1      17.422  -7.189 -31.198  1.00  0.00    -0.333 N 
ATOM     30  H3  UNL     1      18.059  -7.445 -31.952  1.00  0.00     0.168 HD
BRANCH  29  31
HETATM   31  C9  UNL     1      16.125  -6.876 -31.636  1.00  0.00    -0.011 C 
HETATM   32  C10 UNL     1      16.003  -5.505 -32.183  1.00  0.00     0.052 C 
HETATM   33  C11 UNL     1      15.854  -5.344 -33.678  1.00  0.00     0.006 C 
HETATM   34  C12 UNL     1      14.732  -6.253 -34.130  1.00  0.00     0.001 C 
HETATM   35  C13 UNL     1      15.299  -7.675 -33.909  1.00  0.00     0.006 C 
HETATM   36  C14 UNL     1      15.389  -7.912 -32.447  1.00  0.00     0.052 C 
ENDBRANCH  29  31
ENDBRANCH  19  27
ENDBRANCH   1  19
TORSDOF 11
ENDMDL
MODEL 5
REMARK VINA RESULT: -8.194947775      0.813      1.294
REMARK  11 active torsions:
REMARK  status: ('A' for Active; 'I' for Inactive)
REMARK    1  A    between atoms: O1_2  and  C2_3 
REMARK    2  A    between atoms: C2_3  and  C3_5 
REMARK    3  A    between atoms: C3_5  and  N1_6 
REMARK    4  A    between atoms: C3_5  and  C15_27 
REMARK    5  A    between atoms: N1_6  and  C4_9 
REMARK    6  A    between atoms: C4_9  and  C5_10 
REMARK    7  A    between atoms: C4_9  and  C8_17 
REMARK    8  A    between atoms: C5_10  and  C6_11 
REMARK    9  A    between atoms: N2_13  and  O3_15 
REMARK       I    between atoms: C8_17  and  N3_19 
REMARK   10  A    between atoms: N3_19  and  C9_21 
REMARK   11  A    between atoms: C16_30  and  N5_31 
ROOT
HETATM    1  N1  UNL     1      21.891  -6.718 -27.292  1.00  0.00    -0.042 N 
ATOM      2  H11 UNL     1      21.215  -5.962 -27.399  1.00  0.00     0.279 HD
ATOM      3  H12 UNL     1      21.542  -7.115 -26.419  1.00  0.00     0.279 HD
ENDROOT
BRANCH   1   4
HETATM    4  C3  UNL     1      23.221  -6.220 -27.150  1.00  0.00     0.353 C 
BRANCH   4   5
HETATM    5  C2  UNL     1      23.811  -5.810 -28.408  1.00  0.00     0.297 C 
HETATM    6  O2  UNL     1      25.074  -6.001 -28.532  1.00  0.00    -0.262 OA
BRANCH   5   7
HETATM    7  O1  UNL     1      23.180  -5.237 -29.502  1.00  0.00    -0.325 OA
HETATM    8  C1  UNL     1      23.446  -3.858 -29.810  1.00  0.00     0.213 C 
ENDBRANCH   5   7
ENDBRANCH   4   5
BRANCH   4   9
HETATM    9  C15 UNL     1      23.242  -5.193 -26.072  1.00  0.00     0.131 A 
HETATM   10  N4  UNL     1      23.505  -3.940 -26.351  1.00  0.00    -0.323 N 
HETATM   11  C16 UNL     1      23.537  -3.054 -25.382  1.00  0.00     0.160 A 
ATOM     12  H4  UNL     1      23.685  -3.655 -27.314  1.00  0.00     0.169 HD
HETATM   13  S1  UNL     1      23.178  -4.003 -24.012  1.00  0.00     0.024 SA
HETATM   14  N6  UNL     1      23.008  -5.489 -24.780  1.00  0.00    -0.311 N 
ATOM     15  H6  UNL     1      22.783  -6.394 -24.367  1.00  0.00     0.175 HD
BRANCH  11  16
HETATM   16  N5  UNL     1      23.776  -1.765 -25.492  1.00  0.00    -0.379 N 
ATOM     17  H52 UNL     1      24.322  -1.247 -26.181  1.00  0.00     0.158 HD
ATOM     18  H51 UNL     1      23.450  -1.023 -24.871  1.00  0.00     0.158 HD
ENDBRANCH  11  16
ENDBRANCH   4   9
ENDBRANCH   1   4
BRANCH   1  19
HETATM   19  C4  UNL     1      21.805  -7.689 -28.405  1.00  0.00     0.284 C 
BRANCH  19  20
HETATM   20  C5  UNL     1      21.739  -9.033 -27.792  1.00  0.00     0.097 C 
BRANCH  20  21
HETATM   21  C6  UNL     1      22.728 -10.047 -28.198  1.00  0.00     0.008 C 
HETATM   22  C7  UNL     1      24.183  -9.598 -28.362  1.00  0.00     0.065 C 
HETATM   23  N2  UNL     1      22.462 -11.253 -28.398  1.00  0.00    -0.278 N 
ATOM     24  H2  UNL     1      21.500 -11.571 -28.277  1.00  0.00     0.193 HD
BRANCH  23  25
HETATM   25  O3  UNL     1      23.427 -12.174 -28.781  1.00  0.00    -0.290 OA
ATOM     26  H3  UNL     1      23.361 -13.098 -28.570  1.00  0.00     0.244 HD
ENDBRANCH  23  25
ENDBRANCH  20  21
ENDBRANCH  19  20
BRANCH  19  27
HETATM   27  C8  UNL     1      20.652  -7.200 -29.197  1.00  0.00     0.253 C 
HETATM   28  O4  UNL     1      20.062  -8.055 -29.883  1.00  0.00    -0.271 OA
HETATM   29  N3  UNL     1      20.239  -5.865 -29.216  1.00  0.00    -0.333 N 
ATOM     30  H3  UNL     1      20.799  -5.254 -28.622  1.00  0.00     0.168 HD
BRANCH  29  31
HETATM   31  C9  UNL     1      19.202  -5.203 -29.893  1.00  0.00    -0.011 C 
HETATM   32  C10 UNL     1      19.451  -5.050 -31.345  1.00  0.00     0.052 C 
HETATM   33  C11 UNL     1      18.658  -5.911 -32.300  1.00  0.00     0.006 C 
HETATM   34  C12 UNL     1      17.195  -5.769 -31.943  1.00  0.00     0.001 C 
HETATM   35  C13 UNL     1      17.086  -6.454 -30.559  1.00  0.00     0.006 C 
HETATM   36  C14 UNL     1      17.785  -5.601 -29.568  1.00  0.00     0.052 C 
ENDBRANCH  29  31
ENDBRANCH  19  27
ENDBRANCH   1  19
TORSDOF 11
ENDMDL
