MODEL 1
REMARK VINA RESULT: -8.929075721      0.000      0.000
REMARK  11 active torsions:
REMARK  status: ('A' for Active; 'I' for Inactive)
REMARK    1  A    between atoms: C3_6  and  N3_7 
REMARK    2  A    between atoms: C4_11  and  C5_12 
REMARK    3  A    between atoms: C5_12  and  C6_14 
REMARK    4  A    between atoms: C6_14  and  C7_15 
REMARK    5  A    between atoms: C6_14  and  O2_21 
REMARK    6  A    between atoms: C7_15  and  C8_16 
REMARK    7  A    between atoms: O2_21  and  C13_22 
REMARK       I    between atoms: C13_22  and  N4_24 
REMARK    8  A    between atoms: N4_24  and  C14_26 
REMARK    9  A    between atoms: C14_26  and  C15_27 
REMARK   10  A    between atoms: C14_26  and  C16_30 
REMARK   11  A    between atoms: C15_27  and  O4_28 
ROOT
HETATM    1  N1  UNL     1      16.410  -8.751 -29.849  1.00  0.00    -0.190 NA
HETATM    2  C1  UNL     1      17.556  -8.768 -29.600  1.00  0.00     0.119 C 
HETATM    3  C2  UNL     1      18.998  -8.774 -29.264  1.00  0.00     0.137 A 
HETATM    4  N2  UNL     1      19.575  -9.902 -28.896  1.00  0.00    -0.327 N 
ATOM      5  H2  UNL     1      19.032 -10.762 -28.818  1.00  0.00     0.168 HD
HETATM    6  C3  UNL     1      20.877  -9.895 -28.628  1.00  0.00     0.144 A 
HETATM    7  S1  UNL     1      21.313  -8.276 -28.894  1.00  0.00    -0.048 SA
HETATM    8  C4  UNL     1      19.755  -7.653 -29.352  1.00  0.00     0.094 A 
ENDROOT
BRANCH   8   9
HETATM    9  C5  UNL     1      19.494  -6.256 -29.680  1.00  0.00     0.198 C 
HETATM   10  O1  UNL     1      18.974  -5.554 -28.729  1.00  0.00    -0.289 OA
BRANCH   9  11
HETATM   11  C6  UNL     1      19.736  -5.538 -30.918  1.00  0.00     0.209 C 
BRANCH  11  12
HETATM   12  C7  UNL     1      18.520  -5.160 -31.691  1.00  0.00     0.045 C 
BRANCH  12  13
HETATM   13  C8  UNL     1      18.010  -3.777 -31.616  1.00  0.00    -0.012 C 
HETATM   14  C9  UNL     1      16.746  -3.501 -30.908  1.00  0.00     0.005 C 
HETATM   15  C10 UNL     1      15.951  -2.497 -31.739  1.00  0.00     0.000 C 
HETATM   16  C11 UNL     1      16.779  -2.188 -32.958  1.00  0.00     0.000 C 
HETATM   17  C12 UNL     1      17.697  -3.379 -33.078  1.00  0.00     0.005 C 
ENDBRANCH  12  13
ENDBRANCH  11  12
BRANCH  11  18
HETATM   18  O2  UNL     1      20.395  -4.266 -30.532  1.00  0.00    -0.291 OA
BRANCH  18  19
HETATM   19  C13 UNL     1      21.738  -4.264 -30.199  1.00  0.00     0.362 C 
HETATM   20  O3  UNL     1      22.532  -3.873 -31.118  1.00  0.00    -0.238 OA
HETATM   21  N4  UNL     1      22.233  -4.661 -28.935  1.00  0.00    -0.320 N 
ATOM     22  H4  UNL     1      21.558  -4.965 -28.233  1.00  0.00     0.165 HD
BRANCH  21  23
HETATM   23  C14 UNL     1      23.628  -4.665 -28.572  1.00  0.00     0.211 C 
BRANCH  23  24
HETATM   24  C15 UNL     1      23.928  -3.356 -27.867  1.00  0.00     0.200 C 
BRANCH  24  25
HETATM   25  O4  UNL     1      25.067  -3.529 -27.064  1.00  0.00    -0.398 OA
ATOM     26  H4  UNL     1      25.378  -2.675 -26.790  1.00  0.00     0.209 HD
ENDBRANCH  24  25
ENDBRANCH  23  24
BRANCH  23  27
HETATM   27  C16 UNL     1      24.017  -5.774 -27.715  1.00  0.00     0.199 C 
HETATM   28  O5  UNL     1      24.966  -6.525 -28.027  1.00  0.00    -0.646 OA
HETATM   29  O6  UNL     1      23.340  -6.013 -26.538  1.00  0.00    -0.646 OA
ENDBRANCH  23  27
ENDBRANCH  21  23
ENDBRANCH  18  19
ENDBRANCH  11  18
ENDBRANCH   9  11
ENDBRANCH   8   9
BRANCH   6  30
HETATM   30  N3  UNL     1      21.657 -10.873 -28.251  1.00  0.00    -0.380 N 
ATOM     31  H32 UNL     1      21.387 -11.726 -27.762  1.00  0.00     0.158 HD
ATOM     32  H31 UNL     1      22.665 -10.984 -28.364  1.00  0.00     0.158 HD
ENDBRANCH   6  30
TORSDOF 11
ENDMDL
MODEL 2
REMARK VINA RESULT: -8.832907051      0.964      1.481
REMARK  11 active torsions:
REMARK  status: ('A' for Active; 'I' for Inactive)
REMARK    1  A    between atoms: C3_6  and  N3_7 
REMARK    2  A    between atoms: C4_11  and  C5_12 
REMARK    3  A    between atoms: C5_12  and  C6_14 
REMARK    4  A    between atoms: C6_14  and  C7_15 
REMARK    5  A    between atoms: C6_14  and  O2_21 
REMARK    6  A    between atoms: C7_15  and  C8_16 
REMARK    7  A    between atoms: O2_21  and  C13_22 
REMARK       I    between atoms: C13_22  and  N4_24 
REMARK    8  A    between atoms: N4_24  and  C14_26 
REMARK    9  A    between atoms: C14_26  and  C15_27 
REMARK   10  A    between atoms: C14_26  and  C16_30 
REMARK   11  A    between atoms: C15_27  and  O4_28 
ROOT
HETATM    1  N1  UNL     1      16.403  -8.869 -29.856  1.00  0.00    -0.190 NA
HETATM    2  C1  UNL     1      17.548  -8.842 -29.601  1.00  0.00     0.119 C 
HETATM    3  C2  UNL     1      18.987  -8.792 -29.257  1.00  0.00     0.137 A 
HETATM    4  N2  UNL     1      19.598  -9.891 -28.857  1.00  0.00    -0.327 N 
ATOM      5  H2  UNL     1      19.084 -10.766 -28.761  1.00  0.00     0.168 HD
HETATM    6  C3  UNL     1      20.898  -9.834 -28.583  1.00  0.00     0.144 A 
HETATM    7  S1  UNL     1      21.281  -8.209 -28.889  1.00  0.00    -0.048 SA
HETATM    8  C4  UNL     1      19.707  -7.649 -29.370  1.00  0.00     0.094 A 
ENDROOT
BRANCH   8   9
HETATM    9  C5  UNL     1      19.402  -6.271 -29.735  1.00  0.00     0.198 C 
HETATM   10  O1  UNL     1      18.729  -5.604 -28.858  1.00  0.00    -0.289 OA
BRANCH   9  11
HETATM   11  C6  UNL     1      19.748  -5.537 -30.938  1.00  0.00     0.209 C 
BRANCH  11  12
HETATM   12  C7  UNL     1      18.600  -5.131 -31.798  1.00  0.00     0.045 C 
BRANCH  12  13
HETATM   13  C8  UNL     1      18.858  -4.535 -33.123  1.00  0.00    -0.012 C 
HETATM   14  C9  UNL     1      17.810  -3.730 -33.779  1.00  0.00     0.005 C 
HETATM   15  C10 UNL     1      17.786  -4.106 -35.258  1.00  0.00     0.000 C 
HETATM   16  C11 UNL     1      18.847  -5.155 -35.459  1.00  0.00     0.000 C 
HETATM   17  C12 UNL     1      19.040  -5.737 -34.081  1.00  0.00     0.005 C 
ENDBRANCH  12  13
ENDBRANCH  11  12
BRANCH  11  18
HETATM   18  O2  UNL     1      20.390  -4.279 -30.482  1.00  0.00    -0.291 OA
BRANCH  18  19
HETATM   19  C13 UNL     1      21.737  -4.272 -30.168  1.00  0.00     0.362 C 
HETATM   20  O3  UNL     1      22.518  -3.894 -31.102  1.00  0.00    -0.238 OA
HETATM   21  N4  UNL     1      22.249  -4.652 -28.905  1.00  0.00    -0.320 N 
ATOM     22  H4  UNL     1      21.584  -4.945 -28.190  1.00  0.00     0.165 HD
BRANCH  21  23
HETATM   23  C14 UNL     1      23.649  -4.650 -28.562  1.00  0.00     0.211 C 
BRANCH  23  24
HETATM   24  C15 UNL     1      23.950  -3.348 -27.845  1.00  0.00     0.200 C 
BRANCH  24  25
HETATM   25  O4  UNL     1      25.078  -3.534 -27.030  1.00  0.00    -0.398 OA
ATOM     26  H4  UNL     1      25.708  -4.067 -27.500  1.00  0.00     0.209 HD
ENDBRANCH  24  25
ENDBRANCH  23  24
BRANCH  23  27
HETATM   27  C16 UNL     1      24.057  -5.767 -27.723  1.00  0.00     0.199 C 
HETATM   28  O5  UNL     1      25.020  -6.494 -28.045  1.00  0.00    -0.646 OA
HETATM   29  O6  UNL     1      23.383  -6.038 -26.552  1.00  0.00    -0.646 OA
ENDBRANCH  23  27
ENDBRANCH  21  23
ENDBRANCH  18  19
ENDBRANCH  11  18
ENDBRANCH   9  11
ENDBRANCH   8   9
BRANCH   6  30
HETATM   30  N3  UNL     1      21.707 -10.776 -28.178  1.00  0.00    -0.380 N 
ATOM     31  H32 UNL     1      22.507 -10.678 -27.552  1.00  0.00     0.158 HD
ATOM     32  H31 UNL     1      21.708 -11.773 -28.397  1.00  0.00     0.158 HD
ENDBRANCH   6  30
TORSDOF 11
ENDMDL
MODEL 3
REMARK VINA RESULT: -8.747589083      1.197      1.638
REMARK  11 active torsions:
REMARK  status: ('A' for Active; 'I' for Inactive)
REMARK    1  A    between atoms: C3_6  and  N3_7 
REMARK    2  A    between atoms: C4_11  and  C5_12 
REMARK    3  A    between atoms: C5_12  and  C6_14 
REMARK    4  A    between atoms: C6_14  and  C7_15 
REMARK    5  A    between atoms: C6_14  and  O2_21 
REMARK    6  A    between atoms: C7_15  and  C8_16 
REMARK    7  A    between atoms: O2_21  and  C13_22 
REMARK       I    between atoms: C13_22  and  N4_24 
REMARK    8  A    between atoms: N4_24  and  C14_26 
REMARK    9  A    between atoms: C14_26  and  C15_27 
REMARK   10  A    between atoms: C14_26  and  C16_30 
REMARK   11  A    between atoms: C15_27  and  O4_28 
ROOT
HETATM    1  N1  UNL     1      16.374  -8.762 -29.850  1.00  0.00    -0.190 NA
HETATM    2  C1  UNL     1      17.521  -8.740 -29.604  1.00  0.00     0.119 C 
HETATM    3  C2  UNL     1      18.963  -8.697 -29.269  1.00  0.00     0.137 A 
HETATM    4  N2  UNL     1      19.573  -9.801 -28.884  1.00  0.00    -0.327 N 
ATOM      5  H2  UNL     1      19.057 -10.676 -28.791  1.00  0.00     0.168 HD
HETATM    6  C3  UNL     1      20.876  -9.751 -28.618  1.00  0.00     0.144 A 
HETATM    7  S1  UNL     1      21.262  -8.124 -28.912  1.00  0.00    -0.048 SA
HETATM    8  C4  UNL     1      19.686  -7.556 -29.378  1.00  0.00     0.094 A 
ENDROOT
BRANCH   8   9
HETATM    9  C5  UNL     1      19.382  -6.173 -29.728  1.00  0.00     0.198 C 
HETATM   10  O1  UNL     1      18.718  -5.512 -28.840  1.00  0.00    -0.289 OA
BRANCH   9  11
HETATM   11  C6  UNL     1      19.721  -5.430 -30.928  1.00  0.00     0.209 C 
BRANCH  11  12
HETATM   12  C7  UNL     1      18.566  -4.992 -31.762  1.00  0.00     0.045 C 
BRANCH  12  13
HETATM   13  C8  UNL     1      17.789  -5.997 -32.514  1.00  0.00    -0.012 C 
HETATM   14  C9  UNL     1      17.523  -5.791 -33.949  1.00  0.00     0.005 C 
HETATM   15  C10 UNL     1      16.075  -6.190 -34.221  1.00  0.00     0.000 C 
HETATM   16  C11 UNL     1      15.492  -6.637 -32.907  1.00  0.00     0.000 C 
HETATM   17  C12 UNL     1      16.378  -5.977 -31.880  1.00  0.00     0.005 C 
ENDBRANCH  12  13
ENDBRANCH  11  12
BRANCH  11  18
HETATM   18  O2  UNL     1      20.394  -4.190 -30.466  1.00  0.00    -0.291 OA
BRANCH  18  19
HETATM   19  C13 UNL     1      21.741  -4.218 -30.152  1.00  0.00     0.362 C 
HETATM   20  O3  UNL     1      22.534  -3.921 -31.105  1.00  0.00    -0.238 OA
HETATM   21  N4  UNL     1      22.240  -4.548 -28.870  1.00  0.00    -0.320 N 
ATOM     22  H4  UNL     1      21.565  -4.777 -28.141  1.00  0.00     0.165 HD
BRANCH  21  23
HETATM   23  C14 UNL     1      23.639  -4.582 -28.527  1.00  0.00     0.211 C 
BRANCH  23  24
HETATM   24  C15 UNL     1      23.969  -3.295 -27.796  1.00  0.00     0.200 C 
BRANCH  24  25
HETATM   25  O4  UNL     1      25.145  -3.488 -27.053  1.00  0.00    -0.398 OA
ATOM     26  H4  UNL     1      25.274  -2.737 -26.486  1.00  0.00     0.209 HD
ENDBRANCH  24  25
ENDBRANCH  23  24
BRANCH  23  27
HETATM   27  C16 UNL     1      24.022  -5.717 -27.700  1.00  0.00     0.199 C 
HETATM   28  O5  UNL     1      24.980  -6.452 -28.022  1.00  0.00    -0.646 OA
HETATM   29  O6  UNL     1      23.329  -5.998 -26.543  1.00  0.00    -0.646 OA
ENDBRANCH  23  27
ENDBRANCH  21  23
ENDBRANCH  18  19
ENDBRANCH  11  18
ENDBRANCH   9  11
ENDBRANCH   8   9
BRANCH   6  30
HETATM   30  N3  UNL     1      21.685 -10.699 -28.227  1.00  0.00    -0.380 N 
ATOM     31  H32 UNL     1      21.818 -11.615 -28.657  1.00  0.00     0.158 HD
ATOM     32  H31 UNL     1      22.330 -10.721 -27.436  1.00  0.00     0.158 HD
ENDBRANCH   6  30
TORSDOF 11
ENDMDL
MODEL 4
REMARK VINA RESULT: -8.676846558      3.000      5.240
REMARK  11 active torsions:
REMARK  status: ('A' for Active; 'I' for Inactive)
REMARK    1  A    between atoms: C3_6  and  N3_7 
REMARK    2  A    between atoms: C4_11  and  C5_12 
REMARK    3  A    between atoms: C5_12  and  C6_14 
REMARK    4  A    between atoms: C6_14  and  C7_15 
REMARK    5  A    between atoms: C6_14  and  O2_21 
REMARK    6  A    between atoms: C7_15  and  C8_16 
REMARK    7  A    between atoms: O2_21  and  C13_22 
REMARK       I    between atoms: C13_22  and  N4_24 
REMARK    8  A    between atoms: N4_24  and  C14_26 
REMARK    9  A    between atoms: C14_26  and  C15_27 
REMARK   10  A    between atoms: C14_26  and  C16_30 
REMARK   11  A    between atoms: C15_27  and  O4_28 
ROOT
HETATM    1  N1  UNL     1      21.841  -5.753 -28.820  1.00  0.00    -0.190 NA
HETATM    2  C1  UNL     1      21.466  -6.862 -28.901  1.00  0.00     0.119 C 
HETATM    3  C2  UNL     1      20.985  -8.257 -29.030  1.00  0.00     0.137 A 
HETATM    4  N2  UNL     1      21.856  -9.247 -29.021  1.00  0.00    -0.327 N 
ATOM      5  H2  UNL     1      22.856  -9.061 -28.950  1.00  0.00     0.168 HD
HETATM    6  C3  UNL     1      21.403 -10.495 -29.106  1.00  0.00     0.144 A 
HETATM    7  S1  UNL     1      19.721 -10.285 -29.202  1.00  0.00    -0.048 SA
HETATM    8  C4  UNL     1      19.665  -8.549 -29.128  1.00  0.00     0.094 A 
ENDROOT
BRANCH   8   9
HETATM    9  C5  UNL     1      18.438  -7.764 -29.202  1.00  0.00     0.198 C 
HETATM   10  O1  UNL     1      17.475  -8.171 -28.446  1.00  0.00    -0.289 OA
BRANCH   9  11
HETATM   11  C6  UNL     1      18.144  -6.587 -29.999  1.00  0.00     0.209 C 
BRANCH  11  12
HETATM   12  C7  UNL     1      16.766  -6.520 -30.563  1.00  0.00     0.045 C 
BRANCH  12  13
HETATM   13  C8  UNL     1      16.575  -6.577 -32.026  1.00  0.00    -0.012 C 
HETATM   14  C9  UNL     1      15.903  -5.463 -32.719  1.00  0.00     0.005 C 
HETATM   15  C10 UNL     1      14.953  -6.059 -33.756  1.00  0.00     0.000 C 
HETATM   16  C11 UNL     1      15.081  -7.556 -33.655  1.00  0.00     0.000 C 
HETATM   17  C12 UNL     1      15.625  -7.775 -32.265  1.00  0.00     0.005 C 
ENDBRANCH  12  13
ENDBRANCH  11  12
BRANCH  11  18
HETATM   18  O2  UNL     1      18.274  -5.427 -29.082  1.00  0.00    -0.291 OA
BRANCH  18  19
HETATM   19  C13 UNL     1      18.375  -4.150 -29.604  1.00  0.00     0.362 C 
HETATM   20  O3  UNL     1      19.556  -3.764 -29.890  1.00  0.00    -0.238 OA
HETATM   21  N4  UNL     1      17.264  -3.301 -29.820  1.00  0.00    -0.320 N 
ATOM     22  H4  UNL     1      16.339  -3.656 -29.576  1.00  0.00     0.165 HD
BRANCH  21  23
HETATM   23  C14 UNL     1      17.352  -1.968 -30.362  1.00  0.00     0.211 C 
BRANCH  23  24
HETATM   24  C15 UNL     1      17.127  -2.061 -31.859  1.00  0.00     0.200 C 
BRANCH  24  25
HETATM   25  O4  UNL     1      18.353  -2.353 -32.480  1.00  0.00    -0.398 OA
ATOM     26  H4  UNL     1      18.622  -1.599 -32.991  1.00  0.00     0.209 HD
ENDBRANCH  24  25
ENDBRANCH  23  24
BRANCH  23  27
HETATM   27  C16 UNL     1      16.400  -1.029 -29.790  1.00  0.00     0.199 C 
HETATM   28  O5  UNL     1      16.672  -0.391 -28.750  1.00  0.00    -0.646 OA
HETATM   29  O6  UNL     1      15.176  -0.828 -30.391  1.00  0.00    -0.646 OA
ENDBRANCH  23  27
ENDBRANCH  21  23
ENDBRANCH  18  19
ENDBRANCH  11  18
ENDBRANCH   9  11
ENDBRANCH   8   9
BRANCH   6  30
HETATM   30  N3  UNL     1      22.063 -11.623 -29.115  1.00  0.00    -0.380 N 
ATOM     31  H32 UNL     1      22.425 -12.134 -28.310  1.00  0.00     0.158 HD
ATOM     32  H31 UNL     1      22.343 -12.207 -29.903  1.00  0.00     0.158 HD
ENDBRANCH   6  30
TORSDOF 11
ENDMDL
MODEL 5
REMARK VINA RESULT: -8.670880503      2.517      5.140
REMARK  11 active torsions:
REMARK  status: ('A' for Active; 'I' for Inactive)
REMARK    1  A    between atoms: C3_6  and  N3_7 
REMARK    2  A    between atoms: C4_11  and  C5_12 
REMARK    3  A    between atoms: C5_12  and  C6_14 
REMARK    4  A    between atoms: C6_14  and  C7_15 
REMARK    5  A    between atoms: C6_14  and  O2_21 
REMARK    6  A    between atoms: C7_15  and  C8_16 
REMARK    7  A    between atoms: O2_21  and  C13_22 
REMARK       I    between atoms: C13_22  and  N4_24 
REMARK    8  A    between atoms: N4_24  and  C14_26 
REMARK    9  A    between atoms: C14_26  and  C15_27 
REMARK   10  A    between atoms: C14_26  and  C16_30 
REMARK   11  A    between atoms: C15_27  and  O4_28 
ROOT
HETATM    1  N1  UNL     1      16.234  -7.307 -31.716  1.00  0.00    -0.190 NA
HETATM    2  C1  UNL     1      16.360  -6.158 -31.514  1.00  0.00     0.119 C 
HETATM    3  C2  UNL     1      16.548  -4.710 -31.268  1.00  0.00     0.137 A 
HETATM    4  N2  UNL     1      15.918  -3.835 -32.029  1.00  0.00    -0.327 N 
ATOM      5  H2  UNL     1      15.324  -4.146 -32.797  1.00  0.00     0.168 HD
HETATM    6  C3  UNL     1      16.073  -2.539 -31.773  1.00  0.00     0.144 A 
HETATM    7  S1  UNL     1      17.123  -2.536 -30.440  1.00  0.00    -0.048 SA
HETATM    8  C4  UNL     1      17.329  -4.254 -30.259  1.00  0.00     0.094 A 
ENDROOT
BRANCH   8   9
HETATM    9  C5  UNL     1      18.183  -4.877 -29.255  1.00  0.00     0.198 C 
HETATM   10  O1  UNL     1      17.733  -4.840 -28.046  1.00  0.00    -0.289 OA
BRANCH   9  11
HETATM   11  C6  UNL     1      19.466  -5.537 -29.417  1.00  0.00     0.209 C 
BRANCH  11  12
HETATM   12  C7  UNL     1      19.420  -6.888 -30.046  1.00  0.00     0.045 C 
BRANCH  12  13
HETATM   13  C8  UNL     1      19.648  -8.085 -29.214  1.00  0.00    -0.012 C 
HETATM   14  C9  UNL     1      20.676  -9.065 -29.611  1.00  0.00     0.005 C 
HETATM   15  C10 UNL     1      20.105 -10.463 -29.386  1.00  0.00     0.000 C 
HETATM   16  C11 UNL     1      18.711 -10.283 -28.846  1.00  0.00     0.000 C 
HETATM   17  C12 UNL     1      18.331  -8.894 -29.294  1.00  0.00     0.005 C 
ENDBRANCH  12  13
ENDBRANCH  11  12
BRANCH  11  18
HETATM   18  O2  UNL     1      20.256  -4.679 -30.335  1.00  0.00    -0.291 OA
BRANCH  18  19
HETATM   19  C13 UNL     1      21.613  -4.513 -30.119  1.00  0.00     0.362 C 
HETATM   20  O3  UNL     1      22.258  -3.965 -31.072  1.00  0.00    -0.238 OA
HETATM   21  N4  UNL     1      22.272  -4.912 -28.933  1.00  0.00    -0.320 N 
ATOM     22  H4  UNL     1      21.712  -5.345 -28.199  1.00  0.00     0.165 HD
BRANCH  21  23
HETATM   23  C14 UNL     1      23.683  -4.746 -28.692  1.00  0.00     0.211 C 
BRANCH  23  24
HETATM   24  C15 UNL     1      23.873  -3.459 -27.912  1.00  0.00     0.200 C 
BRANCH  24  25
HETATM   25  O4  UNL     1      25.018  -3.586 -27.108  1.00  0.00    -0.398 OA
ATOM     26  H4  UNL     1      25.528  -2.788 -27.178  1.00  0.00     0.209 HD
ENDBRANCH  24  25
ENDBRANCH  23  24
BRANCH  23  27
HETATM   27  C16 UNL     1      24.296  -5.846 -27.964  1.00  0.00     0.199 C 
HETATM   28  O5  UNL     1      25.340  -6.391 -28.382  1.00  0.00    -0.646 OA
HETATM   29  O6  UNL     1      23.730  -6.305 -26.794  1.00  0.00    -0.646 OA
ENDBRANCH  23  27
ENDBRANCH  21  23
ENDBRANCH  18  19
ENDBRANCH  11  18
ENDBRANCH   9  11
ENDBRANCH   8   9
BRANCH   6  30
HETATM   30  N3  UNL     1      15.558  -1.502 -32.379  1.00  0.00    -0.380 N 
ATOM     31  H32 UNL     1      15.540  -1.317 -33.382  1.00  0.00     0.158 HD
ATOM     32  H31 UNL     1      15.084  -0.688 -31.987  1.00  0.00     0.158 HD
ENDBRANCH   6  30
TORSDOF 11
ENDMDL
