MODEL 1
REMARK VINA RESULT: -7.341703742      0.000      0.000
REMARK  10 active torsions:
REMARK  status: ('A' for Active; 'I' for Inactive)
REMARK    1  A    between atoms: S1_2  and  C2_3 
REMARK    2  A    between atoms: C2_3  and  N1_4 
REMARK    3  A    between atoms: N1_4  and  C3_7 
REMARK    4  A    between atoms: C3_7  and  C4_8 
REMARK    5  A    between atoms: C3_7  and  C6_11 
REMARK    6  A    between atoms: C6_11  and  C7_13 
REMARK    7  A    between atoms: C7_13  and  N2_15 
REMARK       I    between atoms: N2_15  and  C8_17 
REMARK       I    between atoms: C8_17  and  N3_19 
REMARK    8  A    between atoms: N3_19  and  C9_21 
REMARK    9  A    between atoms: C12_24  and  N4_25 
REMARK   10  A    between atoms: C14_29  and  O6_30 
ROOT
HETATM    1  N2  UNL     1      17.892  -4.282 -30.971  1.00  0.00    -0.322 N 
ATOM      2  H2  UNL     1      17.183  -4.458 -30.259  1.00  0.00     0.165 HD
HETATM    3  C8  UNL     1      19.233  -4.853 -30.853  1.00  0.00     0.322 C 
HETATM    4  O3  UNL     1      20.059  -4.616 -31.753  1.00  0.00    -0.247 OA
HETATM    5  N3  UNL     1      19.431  -5.625 -29.702  1.00  0.00    -0.306 N 
ATOM      6  H3  UNL     1      18.643  -5.717 -29.062  1.00  0.00     0.171 HD
ENDROOT
BRANCH   1   7
HETATM    7  C7  UNL     1      17.603  -3.473 -32.110  1.00  0.00     0.231 C 
HETATM    8  S2  UNL     1      16.689  -1.990 -31.668  1.00  0.00    -0.061 SA
BRANCH   7   9
HETATM    9  C6  UNL     1      17.008  -4.293 -33.192  1.00  0.00     0.198 C 
HETATM   10  O2  UNL     1      17.682  -4.528 -34.194  1.00  0.00    -0.292 OA
BRANCH   9  11
HETATM   11  C3  UNL     1      15.617  -4.799 -33.041  1.00  0.00     0.327 C 
BRANCH  11  12
HETATM   12  N1  UNL     1      14.774  -4.399 -34.137  1.00  0.00    -0.049 N 
ATOM     13  H12 UNL     1      14.197  -5.178 -34.457  1.00  0.00     0.279 HD
ATOM     14  H11 UNL     1      15.323  -4.242 -34.983  1.00  0.00     0.279 HD
BRANCH  12  15
HETATM   15  C2  UNL     1      13.981  -3.275 -33.833  1.00  0.00     0.307 C 
BRANCH  15  16
HETATM   16  S1  UNL     1      12.370  -3.320 -34.712  1.00  0.00    -0.146 SA
HETATM   17  C1  UNL     1      11.544  -4.859 -34.279  1.00  0.00     0.091 C 
ENDBRANCH  15  16
ENDBRANCH  12  15
ENDBRANCH  11  12
BRANCH  11  18
HETATM   18  C4  UNL     1      15.640  -6.240 -32.755  1.00  0.00     0.161 C 
HETATM   19  C5  UNL     1      14.907  -7.213 -33.634  1.00  0.00     0.093 C 
HETATM   20  O1  UNL     1      16.228  -6.714 -31.822  1.00  0.00    -0.296 OA
ENDBRANCH  11  18
ENDBRANCH   9  11
ENDBRANCH   7   9
ENDBRANCH   1   7
BRANCH   5  21
HETATM   21  C9  UNL     1      20.617  -6.281 -29.353  1.00  0.00     0.069 A 
HETATM   22  C10 UNL     1      20.686  -7.637 -29.226  1.00  0.00     0.035 A 
HETATM   23  C11 UNL     1      21.904  -8.250 -28.857  1.00  0.00     0.038 A 
HETATM   24  C12 UNL     1      23.029  -7.495 -28.622  1.00  0.00     0.105 A 
HETATM   25  C13 UNL     1      22.983  -6.130 -28.744  1.00  0.00     0.075 A 
HETATM   26  C14 UNL     1      21.771  -5.541 -29.109  1.00  0.00     0.094 A 
BRANCH  24  27
HETATM   27  N4  UNL     1      24.267  -8.098 -28.253  1.00  0.00    -0.116 N 
HETATM   28  O4  UNL     1      24.332  -9.323 -28.134  1.00  0.00    -0.532 OA
HETATM   29  O5  UNL     1      25.397  -7.353 -28.022  1.00  0.00    -0.532 OA
ENDBRANCH  24  27
BRANCH  26  30
HETATM   30  O6  UNL     1      21.762  -4.184 -29.221  1.00  0.00    -0.358 OA
ATOM     31  H6  UNL     1      21.583  -3.637 -28.465  1.00  0.00     0.217 HD
ENDBRANCH  26  30
ENDBRANCH   5  21
TORSDOF 10
ENDMDL
MODEL 2
REMARK VINA RESULT: -7.328488871      0.685      1.276
REMARK  10 active torsions:
REMARK  status: ('A' for Active; 'I' for Inactive)
REMARK    1  A    between atoms: S1_2  and  C2_3 
REMARK    2  A    between atoms: C2_3  and  N1_4 
REMARK    3  A    between atoms: N1_4  and  C3_7 
REMARK    4  A    between atoms: C3_7  and  C4_8 
REMARK    5  A    between atoms: C3_7  and  C6_11 
REMARK    6  A    between atoms: C6_11  and  C7_13 
REMARK    7  A    between atoms: C7_13  and  N2_15 
REMARK       I    between atoms: N2_15  and  C8_17 
REMARK       I    between atoms: C8_17  and  N3_19 
REMARK    8  A    between atoms: N3_19  and  C9_21 
REMARK    9  A    between atoms: C12_24  and  N4_25 
REMARK   10  A    between atoms: C14_29  and  O6_30 
ROOT
HETATM    1  N2  UNL     1      17.878  -4.335 -30.998  1.00  0.00    -0.322 N 
ATOM      2  H2  UNL     1      17.176  -4.524 -30.282  1.00  0.00     0.165 HD
HETATM    3  C8  UNL     1      19.236  -4.861 -30.877  1.00  0.00     0.322 C 
HETATM    4  O3  UNL     1      20.052  -4.609 -31.781  1.00  0.00    -0.247 OA
HETATM    5  N3  UNL     1      19.462  -5.612 -29.716  1.00  0.00    -0.306 N 
ATOM      6  H3  UNL     1      18.678  -5.721 -29.073  1.00  0.00     0.171 HD
ENDROOT
BRANCH   1   7
HETATM    7  C7  UNL     1      17.561  -3.550 -32.146  1.00  0.00     0.231 C 
HETATM    8  S2  UNL     1      16.553  -2.122 -31.728  1.00  0.00    -0.061 SA
BRANCH   7   9
HETATM    9  C6  UNL     1      17.034  -4.409 -33.233  1.00  0.00     0.198 C 
HETATM   10  O2  UNL     1      17.763  -4.665 -34.189  1.00  0.00    -0.292 OA
BRANCH   9  11
HETATM   11  C3  UNL     1      15.642  -4.927 -33.142  1.00  0.00     0.327 C 
BRANCH  11  12
HETATM   12  N1  UNL     1      14.855  -4.572 -34.293  1.00  0.00    -0.049 N 
ATOM     13  H12 UNL     1      14.445  -5.401 -34.724  1.00  0.00     0.279 HD
ATOM     14  H11 UNL     1      15.451  -4.263 -35.062  1.00  0.00     0.279 HD
BRANCH  12  15
HETATM   15  C2  UNL     1      13.867  -3.612 -34.002  1.00  0.00     0.307 C 
BRANCH  15  16
HETATM   16  S1  UNL     1      13.928  -2.197 -35.171  1.00  0.00    -0.146 SA
HETATM   17  C1  UNL     1      15.654  -1.755 -35.418  1.00  0.00     0.091 C 
ENDBRANCH  15  16
ENDBRANCH  12  15
ENDBRANCH  11  12
BRANCH  11  18
HETATM   18  C4  UNL     1      15.666  -6.359 -32.811  1.00  0.00     0.161 C 
HETATM   19  C5  UNL     1      14.999  -7.368 -33.701  1.00  0.00     0.093 C 
HETATM   20  O1  UNL     1      16.202  -6.796 -31.829  1.00  0.00    -0.296 OA
ENDBRANCH  11  18
ENDBRANCH   9  11
ENDBRANCH   7   9
ENDBRANCH   1   7
BRANCH   5  21
HETATM   21  C9  UNL     1      20.669  -6.225 -29.362  1.00  0.00     0.069 A 
HETATM   22  C10 UNL     1      20.772  -7.573 -29.178  1.00  0.00     0.035 A 
HETATM   23  C11 UNL     1      22.011  -8.142 -28.806  1.00  0.00     0.038 A 
HETATM   24  C12 UNL     1      23.121  -7.352 -28.627  1.00  0.00     0.105 A 
HETATM   25  C13 UNL     1      23.042  -5.996 -28.807  1.00  0.00     0.075 A 
HETATM   26  C14 UNL     1      21.810  -5.450 -29.174  1.00  0.00     0.094 A 
BRANCH  24  27
HETATM   27  N4  UNL     1      24.380  -7.911 -28.256  1.00  0.00    -0.116 N 
HETATM   28  O4  UNL     1      25.346  -7.164 -28.083  1.00  0.00    -0.532 OA
HETATM   29  O5  UNL     1      24.554  -9.262 -28.087  1.00  0.00    -0.532 OA
ENDBRANCH  24  27
BRANCH  26  30
HETATM   30  O6  UNL     1      21.768  -4.099 -29.344  1.00  0.00    -0.358 OA
ATOM     31  H6  UNL     1      21.439  -3.534 -28.655  1.00  0.00     0.217 HD
ENDBRANCH  26  30
ENDBRANCH   5  21
TORSDOF 10
ENDMDL
MODEL 3
REMARK VINA RESULT: -7.326375613      1.844      2.351
REMARK  10 active torsions:
REMARK  status: ('A' for Active; 'I' for Inactive)
REMARK    1  A    between atoms: S1_2  and  C2_3 
REMARK    2  A    between atoms: C2_3  and  N1_4 
REMARK    3  A    between atoms: N1_4  and  C3_7 
REMARK    4  A    between atoms: C3_7  and  C4_8 
REMARK    5  A    between atoms: C3_7  and  C6_11 
REMARK    6  A    between atoms: C6_11  and  C7_13 
REMARK    7  A    between atoms: C7_13  and  N2_15 
REMARK       I    between atoms: N2_15  and  C8_17 
REMARK       I    between atoms: C8_17  and  N3_19 
REMARK    8  A    between atoms: N3_19  and  C9_21 
REMARK    9  A    between atoms: C12_24  and  N4_25 
REMARK   10  A    between atoms: C14_29  and  O6_30 
ROOT
HETATM    1  N2  UNL     1      17.670  -4.153 -31.500  1.00  0.00    -0.322 N 
ATOM      2  H2  UNL     1      17.039  -4.069 -30.704  1.00  0.00     0.165 HD
HETATM    3  C8  UNL     1      19.001  -4.740 -31.346  1.00  0.00     0.322 C 
HETATM    4  O3  UNL     1      19.730  -4.828 -32.350  1.00  0.00    -0.247 OA
HETATM    5  N3  UNL     1      19.303  -5.146 -30.040  1.00  0.00    -0.306 N 
ATOM      6  H3  UNL     1      18.587  -4.999 -29.329  1.00  0.00     0.171 HD
ENDROOT
BRANCH   1   7
HETATM    7  C7  UNL     1      17.282  -3.702 -32.797  1.00  0.00     0.231 C 
HETATM    8  S2  UNL     1      17.111  -1.915 -32.865  1.00  0.00    -0.061 SA
BRANCH   7   9
HETATM    9  C6  UNL     1      16.115  -4.475 -33.287  1.00  0.00     0.198 C 
HETATM   10  O2  UNL     1      14.994  -3.980 -33.189  1.00  0.00    -0.292 OA
BRANCH   9  11
HETATM   11  C3  UNL     1      16.331  -5.826 -33.874  1.00  0.00     0.327 C 
BRANCH  11  12
HETATM   12  N1  UNL     1      17.660  -5.978 -34.407  1.00  0.00    -0.049 N 
ATOM     13  H12 UNL     1      18.126  -6.789 -33.999  1.00  0.00     0.279 HD
ATOM     14  H11 UNL     1      18.278  -5.242 -34.065  1.00  0.00     0.279 HD
BRANCH  12  15
HETATM   15  C2  UNL     1      17.678  -6.040 -35.814  1.00  0.00     0.307 C 
BRANCH  15  16
HETATM   16  S1  UNL     1      18.252  -4.461 -36.556  1.00  0.00    -0.146 SA
HETATM   17  C1  UNL     1      16.826  -3.377 -36.725  1.00  0.00     0.091 C 
ENDBRANCH  15  16
ENDBRANCH  12  15
ENDBRANCH  11  12
BRANCH  11  18
HETATM   18  C4  UNL     1      15.913  -6.857 -32.915  1.00  0.00     0.161 C 
HETATM   19  C5  UNL     1      15.188  -8.090 -33.374  1.00  0.00     0.093 C 
HETATM   20  O1  UNL     1      16.116  -6.776 -31.734  1.00  0.00    -0.296 OA
ENDBRANCH  11  18
ENDBRANCH   9  11
ENDBRANCH   7   9
ENDBRANCH   1   7
BRANCH   5  21
HETATM   21  C9  UNL     1      20.502  -5.736 -29.626  1.00  0.00     0.069 A 
HETATM   22  C10 UNL     1      20.568  -7.036 -29.216  1.00  0.00     0.035 A 
HETATM   23  C11 UNL     1      21.801  -7.580 -28.792  1.00  0.00     0.038 A 
HETATM   24  C12 UNL     1      22.943  -6.816 -28.788  1.00  0.00     0.105 A 
HETATM   25  C13 UNL     1      22.901  -5.508 -29.196  1.00  0.00     0.075 A 
HETATM   26  C14 UNL     1      21.675  -4.985 -29.611  1.00  0.00     0.094 A 
BRANCH  24  27
HETATM   27  N4  UNL     1      24.196  -7.351 -28.368  1.00  0.00    -0.116 N 
HETATM   28  O4  UNL     1      25.142  -6.587 -28.162  1.00  0.00    -0.532 OA
HETATM   29  O5  UNL     1      24.387  -8.698 -28.187  1.00  0.00    -0.532 OA
ENDBRANCH  24  27
BRANCH  26  30
HETATM   30  O6  UNL     1      21.670  -3.683 -30.011  1.00  0.00    -0.358 OA
ATOM     31  H6  UNL     1      22.405  -3.114 -29.815  1.00  0.00     0.217 HD
ENDBRANCH  26  30
ENDBRANCH   5  21
TORSDOF 10
ENDMDL
MODEL 4
REMARK VINA RESULT: -7.311624360      1.449      1.892
REMARK  10 active torsions:
REMARK  status: ('A' for Active; 'I' for Inactive)
REMARK    1  A    between atoms: S1_2  and  C2_3 
REMARK    2  A    between atoms: C2_3  and  N1_4 
REMARK    3  A    between atoms: N1_4  and  C3_7 
REMARK    4  A    between atoms: C3_7  and  C4_8 
REMARK    5  A    between atoms: C3_7  and  C6_11 
REMARK    6  A    between atoms: C6_11  and  C7_13 
REMARK    7  A    between atoms: C7_13  and  N2_15 
REMARK       I    between atoms: N2_15  and  C8_17 
REMARK       I    between atoms: C8_17  and  N3_19 
REMARK    8  A    between atoms: N3_19  and  C9_21 
REMARK    9  A    between atoms: C12_24  and  N4_25 
REMARK   10  A    between atoms: C14_29  and  O6_30 
ROOT
HETATM    1  N2  UNL     1      17.622  -3.829 -32.213  1.00  0.00    -0.322 N 
ATOM      2  H2  UNL     1      16.973  -3.616 -31.456  1.00  0.00     0.165 HD
HETATM    3  C8  UNL     1      18.960  -4.347 -31.934  1.00  0.00     0.322 C 
HETATM    4  O3  UNL     1      19.710  -4.600 -32.894  1.00  0.00    -0.247 OA
HETATM    5  N3  UNL     1      19.245  -4.503 -30.572  1.00  0.00    -0.306 N 
ATOM      6  H3  UNL     1      18.512  -4.246 -29.911  1.00  0.00     0.171 HD
ENDROOT
BRANCH   1   7
HETATM    7  C7  UNL     1      17.249  -3.630 -33.576  1.00  0.00     0.231 C 
HETATM    8  S2  UNL     1      16.383  -2.074 -33.817  1.00  0.00    -0.061 SA
BRANCH   7   9
HETATM    9  C6  UNL     1      16.564  -4.832 -34.108  1.00  0.00     0.198 C 
HETATM   10  O2  UNL     1      17.007  -5.363 -35.124  1.00  0.00    -0.292 OA
BRANCH   9  11
HETATM   11  C3  UNL     1      15.361  -5.355 -33.406  1.00  0.00     0.327 C 
BRANCH  11  12
HETATM   12  N1  UNL     1      14.202  -5.375 -34.259  1.00  0.00    -0.049 N 
ATOM     13  H12 UNL     1      13.654  -6.223 -34.110  1.00  0.00     0.279 HD
ATOM     14  H11 UNL     1      14.468  -5.518 -35.234  1.00  0.00     0.279 HD
BRANCH  12  15
HETATM   15  C2  UNL     1      13.401  -4.225 -34.118  1.00  0.00     0.307 C 
BRANCH  15  16
HETATM   16  S1  UNL     1      11.624  -4.595 -34.395  1.00  0.00    -0.146 SA
HETATM   17  C1  UNL     1      10.948  -3.307 -35.452  1.00  0.00     0.091 C 
ENDBRANCH  15  16
ENDBRANCH  12  15
ENDBRANCH  11  12
BRANCH  11  18
HETATM   18  C4  UNL     1      15.684  -6.629 -32.748  1.00  0.00     0.161 C 
HETATM   19  C5  UNL     1      15.235  -7.936 -33.337  1.00  0.00     0.093 C 
HETATM   20  O1  UNL     1      16.305  -6.699 -31.723  1.00  0.00    -0.296 OA
ENDBRANCH  11  18
ENDBRANCH   9  11
ENDBRANCH   7   9
ENDBRANCH   1   7
BRANCH   5  21
HETATM   21  C9  UNL     1      20.447  -4.981 -30.038  1.00  0.00     0.069 A 
HETATM   22  C10 UNL     1      21.611  -4.275 -30.127  1.00  0.00     0.035 A 
HETATM   23  C11 UNL     1      22.802  -4.808 -29.584  1.00  0.00     0.038 A 
HETATM   24  C12 UNL     1      22.805  -6.034 -28.963  1.00  0.00     0.105 A 
HETATM   25  C13 UNL     1      21.646  -6.761 -28.862  1.00  0.00     0.075 A 
HETATM   26  C14 UNL     1      20.479  -6.220 -29.404  1.00  0.00     0.094 A 
BRANCH  24  27
HETATM   27  N4  UNL     1      23.996  -6.585 -28.406  1.00  0.00    -0.116 N 
HETATM   28  O4  UNL     1      24.983  -5.862 -28.253  1.00  0.00    -0.532 OA
HETATM   29  O5  UNL     1      24.082  -7.903 -28.033  1.00  0.00    -0.532 OA
ENDBRANCH  24  27
BRANCH  26  30
HETATM   30  O6  UNL     1      19.347  -6.968 -29.285  1.00  0.00    -0.358 OA
ATOM     31  H6  UNL     1      18.606  -6.649 -28.783  1.00  0.00     0.217 HD
ENDBRANCH  26  30
ENDBRANCH   5  21
TORSDOF 10
ENDMDL
MODEL 5
REMARK VINA RESULT: -7.283408933      3.757      8.668
REMARK  10 active torsions:
REMARK  status: ('A' for Active; 'I' for Inactive)
REMARK    1  A    between atoms: S1_2  and  C2_3 
REMARK    2  A    between atoms: C2_3  and  N1_4 
REMARK    3  A    between atoms: N1_4  and  C3_7 
REMARK    4  A    between atoms: C3_7  and  C4_8 
REMARK    5  A    between atoms: C3_7  and  C6_11 
REMARK    6  A    between atoms: C6_11  and  C7_13 
REMARK    7  A    between atoms: C7_13  and  N2_15 
REMARK       I    between atoms: N2_15  and  C8_17 
REMARK       I    between atoms: C8_17  and  N3_19 
REMARK    8  A    between atoms: N3_19  and  C9_21 
REMARK    9  A    between atoms: C12_24  and  N4_25 
REMARK   10  A    between atoms: C14_29  and  O6_30 
ROOT
HETATM    1  N2  UNL     1      19.215  -8.772 -29.054  1.00  0.00    -0.322 N 
ATOM      2  H2  UNL     1      18.540  -9.112 -28.370  1.00  0.00     0.165 HD
HETATM    3  C8  UNL     1      18.955  -7.560 -29.829  1.00  0.00     0.322 C 
HETATM    4  O3  UNL     1      19.814  -7.181 -30.645  1.00  0.00    -0.247 OA
HETATM    5  N3  UNL     1      17.726  -6.950 -29.549  1.00  0.00    -0.306 N 
ATOM      6  H3  UNL     1      17.134  -7.395 -28.848  1.00  0.00     0.171 HD
ENDROOT
BRANCH   1   7
HETATM    7  C7  UNL     1      20.442  -9.464 -29.282  1.00  0.00     0.231 C 
HETATM    8  S2  UNL     1      20.191 -11.233 -29.471  1.00  0.00    -0.061 SA
BRANCH   7   9
HETATM    9  C6  UNL     1      21.457  -9.065 -28.278  1.00  0.00     0.198 C 
HETATM   10  O2  UNL     1      21.424  -9.586 -27.165  1.00  0.00    -0.292 OA
BRANCH   9  11
HETATM   11  C3  UNL     1      22.478  -8.045 -28.641  1.00  0.00     0.327 C 
BRANCH  11  12
HETATM   12  N1  UNL     1      22.232  -6.780 -28.000  1.00  0.00    -0.049 N 
ATOM     13  H12 UNL     1      22.972  -6.558 -27.334  1.00  0.00     0.279 HD
ATOM     14  H11 UNL     1      21.443  -6.844 -27.356  1.00  0.00     0.279 HD
BRANCH  12  15
HETATM   15  C2  UNL     1      22.049  -5.730 -28.921  1.00  0.00     0.307 C 
BRANCH  15  16
HETATM   16  S1  UNL     1      23.459  -4.555 -28.902  1.00  0.00    -0.146 SA
HETATM   17  C1  UNL     1      23.888  -4.229 -27.186  1.00  0.00     0.091 C 
ENDBRANCH  15  16
ENDBRANCH  12  15
ENDBRANCH  11  12
BRANCH  11  18
HETATM   18  C4  UNL     1      23.825  -8.600 -28.446  1.00  0.00     0.161 C 
HETATM   19  C5  UNL     1      24.928  -7.762 -27.863  1.00  0.00     0.093 C 
HETATM   20  O1  UNL     1      24.120  -9.726 -28.739  1.00  0.00    -0.296 OA
ENDBRANCH  11  18
ENDBRANCH   9  11
ENDBRANCH   7   9
ENDBRANCH   1   7
BRANCH   5  21
HETATM   21  C9  UNL     1      17.237  -5.783 -30.148  1.00  0.00     0.069 A 
HETATM   22  C10 UNL     1      16.551  -5.805 -31.327  1.00  0.00     0.035 A 
HETATM   23  C11 UNL     1      16.091  -4.597 -31.898  1.00  0.00     0.038 A 
HETATM   24  C12 UNL     1      16.326  -3.393 -31.278  1.00  0.00     0.105 A 
HETATM   25  C13 UNL     1      17.012  -3.346 -30.092  1.00  0.00     0.075 A 
HETATM   26  C14 UNL     1      17.460  -4.549 -29.542  1.00  0.00     0.094 A 
BRANCH  24  27
HETATM   27  N4  UNL     1      15.864  -2.165 -31.838  1.00  0.00    -0.116 N 
HETATM   28  O4  UNL     1      16.121  -1.902 -33.015  1.00  0.00    -0.532 OA
HETATM   29  O5  UNL     1      15.141  -1.258 -31.104  1.00  0.00    -0.532 OA
ENDBRANCH  24  27
BRANCH  26  30
HETATM   30  O6  UNL     1      18.138  -4.466 -28.364  1.00  0.00    -0.358 OA
ATOM     31  H6  UNL     1      18.590  -5.223 -28.011  1.00  0.00     0.217 HD
ENDBRANCH  26  30
ENDBRANCH   5  21
TORSDOF 10
ENDMDL
