MODEL 1
REMARK VINA RESULT: -7.825477960      0.000      0.000
REMARK  12 active torsions:
REMARK  status: ('A' for Active; 'I' for Inactive)
REMARK    1  A    between atoms: C3_4  and  C4_5 
REMARK    2  A    between atoms: C4_5  and  C5_6 
REMARK    3  A    between atoms: C5_6  and  C6_7 
REMARK    4  A    between atoms: C6_7  and  O2_8 
REMARK    5  A    between atoms: O2_8  and  C7_9 
REMARK    6  A    between atoms: C8_13  and  O3_14 
REMARK    7  A    between atoms: C9_16  and  C10_17 
REMARK    8  A    between atoms: C10_17  and  O4_18 
REMARK    9  A    between atoms: O4_18  and  C11_19 
REMARK   10  A    between atoms: C17_26  and  O6_27 
REMARK   11  A    between atoms: C18_29  and  O7_30 
REMARK   12  A    between atoms: C19_32  and  O8_33 
ROOT
HETATM    1  C7  UNL     1      18.025  -3.927 -29.413  1.00  0.00     0.472 C 
HETATM    2  N1  UNL     1      19.055  -3.300 -30.226  1.00  0.00     0.004 N 
ATOM      3  H11 UNL     1      19.351  -2.372 -29.924  1.00  0.00     0.286 HD
ATOM      4  H12 UNL     1      18.761  -2.998 -31.155  1.00  0.00     0.286 HD
HETATM    5  C8  UNL     1      20.094  -4.340 -30.195  1.00  0.00     0.355 C 
HETATM    6  C9  UNL     1      19.269  -5.595 -30.241  1.00  0.00     0.206 C 
HETATM    7  O5  UNL     1      17.991  -5.266 -29.793  1.00  0.00    -0.327 OA
ENDROOT
BRANCH   1   8
HETATM    8  O2  UNL     1      16.845  -3.266 -29.655  1.00  0.00    -0.339 OA
BRANCH   8   9
HETATM    9  C6  UNL     1      17.211  -1.943 -30.078  1.00  0.00     0.172 C 
BRANCH   9  10
HETATM   10  C5  UNL     1      16.222  -1.531 -31.083  1.00  0.00     0.029 C 
BRANCH  10  11
HETATM   11  C4  UNL     1      15.735  -2.518 -32.068  1.00  0.00     0.036 C 
BRANCH  11  12
HETATM   12  C3  UNL     1      14.355  -2.555 -32.558  1.00  0.00     0.153 C 
HETATM   13  O1  UNL     1      14.356  -3.399 -33.693  1.00  0.00    -0.376 OA
HETATM   14  C2  UNL     1      14.581  -2.825 -34.884  1.00  0.00     0.149 C 
HETATM   15  C1  UNL     1      13.637  -3.471 -35.911  1.00  0.00     0.042 C 
HETATM   16  C19 UNL     1      14.583  -1.363 -35.034  1.00  0.00     0.178 C 
HETATM   17  C18 UNL     1      14.005  -0.543 -33.935  1.00  0.00     0.180 C 
HETATM   18  C17 UNL     1      13.534  -1.364 -32.772  1.00  0.00     0.178 C 
BRANCH  16  19
HETATM   19  O8  UNL     1      15.876  -0.865 -35.331  1.00  0.00    -0.390 OA
ATOM     20  H8  UNL     1      16.449  -0.896 -34.575  1.00  0.00     0.210 HD
ENDBRANCH  16  19
BRANCH  17  21
HETATM   21  O7  UNL     1      12.861   0.169 -34.383  1.00  0.00    -0.390 OA
ATOM     22  H7  UNL     1      13.118   0.568 -35.206  1.00  0.00     0.210 HD
ENDBRANCH  17  21
BRANCH  18  23
HETATM   23  O6  UNL     1      12.209  -1.846 -33.049  1.00  0.00    -0.390 OA
ATOM     24  H6  UNL     1      11.646  -1.448 -32.395  1.00  0.00     0.210 HD
ENDBRANCH  18  23
ENDBRANCH  11  12
ENDBRANCH  10  11
ENDBRANCH   9  10
ENDBRANCH   8   9
ENDBRANCH   1   8
BRANCH   5  25
HETATM   25  O3  UNL     1      20.867  -4.162 -31.325  1.00  0.00    -0.368 OA
ATOM     26  H3  UNL     1      20.842  -4.981 -31.805  1.00  0.00     0.212 HD
ENDBRANCH   5  25
BRANCH   6  27
HETATM   27  C10 UNL     1      19.111  -6.031 -31.692  1.00  0.00     0.204 C 
BRANCH  27  28
HETATM   28  O4  UNL     1      18.094  -5.309 -32.274  1.00  0.00    -0.383 OA
BRANCH  28  29
HETATM   29  C11 UNL     1      17.312  -6.156 -33.034  1.00  0.00     0.121 C 
HETATM   30  C12 UNL     1      15.982  -6.373 -32.334  1.00  0.00     0.032 C 
HETATM   31  C13 UNL     1      15.149  -7.334 -33.147  1.00  0.00     0.002 C 
HETATM   32  C14 UNL     1      14.921  -6.798 -34.553  1.00  0.00     0.000 C 
HETATM   33  C15 UNL     1      16.305  -6.659 -35.199  1.00  0.00     0.002 C 
HETATM   34  C16 UNL     1      17.033  -5.591 -34.416  1.00  0.00     0.032 C 
ENDBRANCH  28  29
ENDBRANCH  27  28
ENDBRANCH   6  27
TORSDOF 12
ENDMDL
MODEL 2
REMARK VINA RESULT: -7.765754180      3.241      5.426
REMARK  12 active torsions:
REMARK  status: ('A' for Active; 'I' for Inactive)
REMARK    1  A    between atoms: C3_4  and  C4_5 
REMARK    2  A    between atoms: C4_5  and  C5_6 
REMARK    3  A    between atoms: C5_6  and  C6_7 
REMARK    4  A    between atoms: C6_7  and  O2_8 
REMARK    5  A    between atoms: O2_8  and  C7_9 
REMARK    6  A    between atoms: C8_13  and  O3_14 
REMARK    7  A    between atoms: C9_16  and  C10_17 
REMARK    8  A    between atoms: C10_17  and  O4_18 
REMARK    9  A    between atoms: O4_18  and  C11_19 
REMARK   10  A    between atoms: C17_26  and  O6_27 
REMARK   11  A    between atoms: C18_29  and  O7_30 
REMARK   12  A    between atoms: C19_32  and  O8_33 
ROOT
HETATM    1  C7  UNL     1      20.334  -4.499 -30.051  1.00  0.00     0.472 C 
HETATM    2  N1  UNL     1      21.289  -4.189 -31.104  1.00  0.00     0.004 N 
ATOM      3  H11 UNL     1      20.963  -3.536 -31.816  1.00  0.00     0.286 HD
ATOM      4  H12 UNL     1      21.481  -4.945 -31.761  1.00  0.00     0.286 HD
HETATM    5  C8  UNL     1      22.435  -3.736 -30.303  1.00  0.00     0.355 C 
HETATM    6  C9  UNL     1      22.364  -4.660 -29.119  1.00  0.00     0.206 C 
HETATM    7  O5  UNL     1      21.056  -5.135 -29.045  1.00  0.00    -0.327 OA
ENDROOT
BRANCH   1   8
HETATM    8  O2  UNL     1      19.355  -5.292 -30.599  1.00  0.00    -0.339 OA
BRANCH   8   9
HETATM    9  C6  UNL     1      18.663  -5.890 -29.493  1.00  0.00     0.172 C 
BRANCH   9  10
HETATM   10  C5  UNL     1      17.235  -5.899 -29.841  1.00  0.00     0.029 C 
BRANCH  10  11
HETATM   11  C4  UNL     1      16.836  -5.961 -31.261  1.00  0.00     0.036 C 
BRANCH  11  12
HETATM   12  C3  UNL     1      16.174  -4.859 -31.962  1.00  0.00     0.153 C 
HETATM   13  O1  UNL     1      16.117  -5.228 -33.326  1.00  0.00    -0.376 OA
HETATM   14  C2  UNL     1      17.151  -4.871 -34.101  1.00  0.00     0.149 C 
HETATM   15  C1  UNL     1      16.594  -4.408 -35.458  1.00  0.00     0.042 C 
HETATM   16  C19 UNL     1      18.175  -3.934 -33.618  1.00  0.00     0.178 C 
HETATM   17  C18 UNL     1      17.875  -3.133 -32.400  1.00  0.00     0.180 C 
HETATM   18  C17 UNL     1      16.539  -3.453 -31.799  1.00  0.00     0.178 C 
BRANCH  16  19
HETATM   19  O8  UNL     1      19.429  -4.569 -33.439  1.00  0.00    -0.390 OA
ATOM     20  H8  UNL     1      19.565  -4.834 -32.537  1.00  0.00     0.210 HD
ENDBRANCH  16  19
BRANCH  17  21
HETATM   21  O7  UNL     1      17.830  -1.747 -32.706  1.00  0.00    -0.390 OA
ATOM     22  H7  UNL     1      17.214  -1.666 -33.425  1.00  0.00     0.210 HD
ENDBRANCH  17  21
BRANCH  18  23
HETATM   23  O6  UNL     1      15.527  -2.702 -32.487  1.00  0.00    -0.390 OA
ATOM     24  H6  UNL     1      15.946  -2.352 -33.265  1.00  0.00     0.210 HD
ENDBRANCH  18  23
ENDBRANCH  11  12
ENDBRANCH  10  11
ENDBRANCH   9  10
ENDBRANCH   8   9
ENDBRANCH   1   8
BRANCH   5  25
HETATM   25  O3  UNL     1      23.562  -3.936 -31.075  1.00  0.00    -0.368 OA
ATOM     26  H3  UNL     1      24.252  -4.215 -30.484  1.00  0.00     0.212 HD
ENDBRANCH   5  25
BRANCH   6  27
HETATM   27  C10 UNL     1      23.243  -5.874 -29.386  1.00  0.00     0.204 C 
BRANCH  27  28
HETATM   28  O4  UNL     1      23.201  -6.714 -28.296  1.00  0.00    -0.383 OA
BRANCH  28  29
HETATM   29  C11 UNL     1      22.943  -8.001 -28.723  1.00  0.00     0.121 C 
HETATM   30  C12 UNL     1      23.719  -8.980 -27.860  1.00  0.00     0.032 C 
HETATM   31  C13 UNL     1      23.468 -10.383 -28.359  1.00  0.00     0.002 C 
HETATM   32  C14 UNL     1      21.982 -10.713 -28.322  1.00  0.00     0.000 C 
HETATM   33  C15 UNL     1      21.288  -9.714 -29.254  1.00  0.00     0.002 C 
HETATM   34  C16 UNL     1      21.468  -8.351 -28.626  1.00  0.00     0.032 C 
ENDBRANCH  28  29
ENDBRANCH  27  28
ENDBRANCH   6  27
TORSDOF 12
ENDMDL
MODEL 3
REMARK VINA RESULT: -7.706251223      4.100      6.675
REMARK  12 active torsions:
REMARK  status: ('A' for Active; 'I' for Inactive)
REMARK    1  A    between atoms: C3_4  and  C4_5 
REMARK    2  A    between atoms: C4_5  and  C5_6 
REMARK    3  A    between atoms: C5_6  and  C6_7 
REMARK    4  A    between atoms: C6_7  and  O2_8 
REMARK    5  A    between atoms: O2_8  and  C7_9 
REMARK    6  A    between atoms: C8_13  and  O3_14 
REMARK    7  A    between atoms: C9_16  and  C10_17 
REMARK    8  A    between atoms: C10_17  and  O4_18 
REMARK    9  A    between atoms: O4_18  and  C11_19 
REMARK   10  A    between atoms: C17_26  and  O6_27 
REMARK   11  A    between atoms: C18_29  and  O7_30 
REMARK   12  A    between atoms: C19_32  and  O8_33 
ROOT
HETATM    1  C7  UNL     1      23.483  -4.889 -27.608  1.00  0.00     0.472 C 
HETATM    2  N1  UNL     1      24.535  -5.560 -28.354  1.00  0.00     0.004 N 
ATOM      3  H11 UNL     1      25.419  -5.056 -28.420  1.00  0.00     0.286 HD
ATOM      4  H12 UNL     1      24.393  -5.618 -29.362  1.00  0.00     0.286 HD
HETATM    5  C8  UNL     1      24.589  -6.847 -27.646  1.00  0.00     0.355 C 
HETATM    6  C9  UNL     1      23.137  -7.085 -27.335  1.00  0.00     0.206 C 
HETATM    7  O5  UNL     1      22.499  -5.846 -27.374  1.00  0.00    -0.327 OA
ENDROOT
BRANCH   1   8
HETATM    8  O2  UNL     1      23.041  -3.835 -28.371  1.00  0.00    -0.339 OA
BRANCH   8   9
HETATM    9  C6  UNL     1      23.299  -4.198 -29.736  1.00  0.00     0.172 C 
BRANCH   9  10
HETATM   10  C5  UNL     1      22.061  -3.940 -30.484  1.00  0.00     0.029 C 
BRANCH  10  11
HETATM   11  C4  UNL     1      20.858  -4.745 -30.193  1.00  0.00     0.036 C 
BRANCH  11  12
HETATM   12  C3  UNL     1      19.739  -4.890 -31.127  1.00  0.00     0.153 C 
HETATM   13  O1  UNL     1      18.968  -3.708 -31.015  1.00  0.00    -0.376 OA
HETATM   14  C2  UNL     1      17.984  -3.702 -30.105  1.00  0.00     0.149 C 
HETATM   15  C1  UNL     1      16.770  -2.987 -30.720  1.00  0.00     0.042 C 
HETATM   16  C19 UNL     1      17.566  -4.939 -29.430  1.00  0.00     0.178 C 
HETATM   17  C18 UNL     1      18.009  -6.238 -30.005  1.00  0.00     0.180 C 
HETATM   18  C17 UNL     1      18.892  -6.079 -31.207  1.00  0.00     0.178 C 
BRANCH  16  19
HETATM   19  O8  UNL     1      17.894  -4.924 -28.051  1.00  0.00    -0.390 OA
ATOM     20  H8  UNL     1      18.435  -4.176 -27.825  1.00  0.00     0.210 HD
ENDBRANCH  16  19
BRANCH  17  21
HETATM   21  O7  UNL     1      16.897  -6.999 -30.451  1.00  0.00    -0.390 OA
ATOM     22  H7  UNL     1      16.395  -7.196 -29.669  1.00  0.00     0.210 HD
ENDBRANCH  17  21
BRANCH  18  23
HETATM   23  O6  UNL     1      18.068  -5.897 -32.369  1.00  0.00    -0.390 OA
ATOM     24  H6  UNL     1      17.226  -5.598 -32.046  1.00  0.00     0.210 HD
ENDBRANCH  18  23
ENDBRANCH  11  12
ENDBRANCH  10  11
ENDBRANCH   9  10
ENDBRANCH   8   9
ENDBRANCH   1   8
BRANCH   5  25
HETATM   25  O3  UNL     1      25.107  -7.768 -28.534  1.00  0.00    -0.368 OA
ATOM     26  H3  UNL     1      26.027  -7.868 -28.319  1.00  0.00     0.212 HD
ENDBRANCH   5  25
BRANCH   6  27
HETATM   27  C10 UNL     1      22.522  -7.915 -28.453  1.00  0.00     0.204 C 
BRANCH  27  28
HETATM   28  O4  UNL     1      21.171  -7.661 -28.518  1.00  0.00    -0.383 OA
BRANCH  28  29
HETATM   29  C11 UNL     1      20.536  -8.723 -29.129  1.00  0.00     0.121 C 
HETATM   30  C12 UNL     1      21.516  -9.871 -29.286  1.00  0.00     0.032 C 
HETATM   31  C13 UNL     1      20.829 -11.013 -29.995  1.00  0.00     0.002 C 
HETATM   32  C14 UNL     1      19.603 -11.472 -29.218  1.00  0.00     0.000 C 
HETATM   33  C15 UNL     1      18.650 -10.272 -29.154  1.00  0.00     0.002 C 
HETATM   34  C16 UNL     1      19.349  -9.220 -28.322  1.00  0.00     0.032 C 
ENDBRANCH  28  29
ENDBRANCH  27  28
ENDBRANCH   6  27
TORSDOF 12
ENDMDL
MODEL 4
REMARK VINA RESULT: -7.615955643      3.155      5.470
REMARK  12 active torsions:
REMARK  status: ('A' for Active; 'I' for Inactive)
REMARK    1  A    between atoms: C3_4  and  C4_5 
REMARK    2  A    between atoms: C4_5  and  C5_6 
REMARK    3  A    between atoms: C5_6  and  C6_7 
REMARK    4  A    between atoms: C6_7  and  O2_8 
REMARK    5  A    between atoms: O2_8  and  C7_9 
REMARK    6  A    between atoms: C8_13  and  O3_14 
REMARK    7  A    between atoms: C9_16  and  C10_17 
REMARK    8  A    between atoms: C10_17  and  O4_18 
REMARK    9  A    between atoms: O4_18  and  C11_19 
REMARK   10  A    between atoms: C17_26  and  O6_27 
REMARK   11  A    between atoms: C18_29  and  O7_30 
REMARK   12  A    between atoms: C19_32  and  O8_33 
ROOT
HETATM    1  C7  UNL     1      20.268  -4.021 -30.375  1.00  0.00     0.472 C 
HETATM    2  N1  UNL     1      21.399  -4.052 -31.290  1.00  0.00     0.004 N 
ATOM      3  H11 UNL     1      21.301  -3.482 -32.130  1.00  0.00     0.286 HD
ATOM      4  H12 UNL     1      21.534  -4.928 -31.795  1.00  0.00     0.286 HD
HETATM    5  C8  UNL     1      22.489  -3.666 -30.383  1.00  0.00     0.355 C 
HETATM    6  C9  UNL     1      22.084  -4.356 -29.109  1.00  0.00     0.206 C 
HETATM    7  O5  UNL     1      20.713  -4.592 -29.186  1.00  0.00    -0.327 OA
ENDROOT
BRANCH   1   8
HETATM    8  O2  UNL     1      19.242  -4.723 -30.961  1.00  0.00    -0.339 OA
BRANCH   8   9
HETATM    9  C6  UNL     1      18.456  -5.253 -29.882  1.00  0.00     0.172 C 
BRANCH   9  10
HETATM   10  C5  UNL     1      17.051  -4.962 -30.198  1.00  0.00     0.029 C 
BRANCH  10  11
HETATM   11  C4  UNL     1      16.734  -3.935 -31.210  1.00  0.00     0.036 C 
BRANCH  11  12
HETATM   12  C3  UNL     1      15.887  -4.188 -32.378  1.00  0.00     0.153 C 
HETATM   13  O1  UNL     1      15.720  -5.591 -32.456  1.00  0.00    -0.376 OA
HETATM   14  C2  UNL     1      16.620  -6.276 -33.175  1.00  0.00     0.149 C 
HETATM   15  C1  UNL     1      15.873  -7.363 -33.964  1.00  0.00     0.042 C 
HETATM   16  C19 UNL     1      17.587  -5.585 -34.040  1.00  0.00     0.178 C 
HETATM   17  C18 UNL     1      17.340  -4.154 -34.366  1.00  0.00     0.180 C 
HETATM   18  C17 UNL     1      16.119  -3.599 -33.696  1.00  0.00     0.178 C 
BRANCH  16  19
HETATM   19  O8  UNL     1      18.912  -5.711 -33.555  1.00  0.00    -0.390 OA
ATOM     20  H8  UNL     1      19.387  -6.403 -34.000  1.00  0.00     0.210 HD
ENDBRANCH  16  19
BRANCH  17  21
HETATM   21  O7  UNL     1      17.117  -3.985 -35.758  1.00  0.00    -0.390 OA
ATOM     22  H7  UNL     1      17.698  -4.603 -36.185  1.00  0.00     0.210 HD
ENDBRANCH  17  21
BRANCH  18  23
HETATM   23  O6  UNL     1      14.964  -3.932 -34.483  1.00  0.00    -0.390 OA
ATOM     24  H6  UNL     1      14.907  -3.263 -35.155  1.00  0.00     0.210 HD
ENDBRANCH  18  23
ENDBRANCH  11  12
ENDBRANCH  10  11
ENDBRANCH   9  10
ENDBRANCH   8   9
ENDBRANCH   1   8
BRANCH   5  25
HETATM   25  O3  UNL     1      23.653  -4.174 -30.923  1.00  0.00    -0.368 OA
ATOM     26  H3  UNL     1      23.432  -5.012 -31.313  1.00  0.00     0.212 HD
ENDBRANCH   5  25
BRANCH   6  27
HETATM   27  C10 UNL     1      22.748  -5.725 -29.057  1.00  0.00     0.204 C 
BRANCH  27  28
HETATM   28  O4  UNL     1      21.874  -6.634 -28.504  1.00  0.00    -0.383 OA
BRANCH  28  29
HETATM   29  C11 UNL     1      22.298  -7.913 -28.800  1.00  0.00     0.121 C 
HETATM   30  C12 UNL     1      23.468  -8.274 -27.902  1.00  0.00     0.032 C 
HETATM   31  C13 UNL     1      23.956  -9.657 -28.261  1.00  0.00     0.002 C 
HETATM   32  C14 UNL     1      22.841 -10.681 -28.106  1.00  0.00     0.000 C 
HETATM   33  C15 UNL     1      21.730 -10.270 -29.080  1.00  0.00     0.002 C 
HETATM   34  C16 UNL     1      21.202  -8.943 -28.585  1.00  0.00     0.032 C 
ENDBRANCH  28  29
ENDBRANCH  27  28
ENDBRANCH   6  27
TORSDOF 12
ENDMDL
MODEL 5
REMARK VINA RESULT: -7.596349464      1.685      5.907
REMARK  12 active torsions:
REMARK  status: ('A' for Active; 'I' for Inactive)
REMARK    1  A    between atoms: C3_4  and  C4_5 
REMARK    2  A    between atoms: C4_5  and  C5_6 
REMARK    3  A    between atoms: C5_6  and  C6_7 
REMARK    4  A    between atoms: C6_7  and  O2_8 
REMARK    5  A    between atoms: O2_8  and  C7_9 
REMARK    6  A    between atoms: C8_13  and  O3_14 
REMARK    7  A    between atoms: C9_16  and  C10_17 
REMARK    8  A    between atoms: C10_17  and  O4_18 
REMARK    9  A    between atoms: O4_18  and  C11_19 
REMARK   10  A    between atoms: C17_26  and  O6_27 
REMARK   11  A    between atoms: C18_29  and  O7_30 
REMARK   12  A    between atoms: C19_32  and  O8_33 
ROOT
HETATM    1  C7  UNL     1      15.064  -1.491 -32.223  1.00  0.00     0.472 C 
HETATM    2  N1  UNL     1      13.620  -1.667 -32.250  1.00  0.00     0.004 N 
ATOM      3  H11 UNL     1      13.109  -1.238 -31.479  1.00  0.00     0.286 HD
ATOM      4  H12 UNL     1      13.288  -2.612 -32.058  1.00  0.00     0.286 HD
HETATM    5  C8  UNL     1      13.310  -1.144 -33.589  1.00  0.00     0.355 C 
HETATM    6  C9  UNL     1      14.492  -1.623 -34.384  1.00  0.00     0.206 C 
HETATM    7  O5  UNL     1      15.526  -1.866 -33.482  1.00  0.00    -0.327 OA
ENDROOT
BRANCH   1   8
HETATM    8  O2  UNL     1      15.559  -2.276 -31.210  1.00  0.00    -0.339 OA
BRANCH   8   9
HETATM    9  C6  UNL     1      16.427  -1.429 -30.440  1.00  0.00     0.172 C 
BRANCH   9  10
HETATM   10  C5  UNL     1      17.676  -2.175 -30.238  1.00  0.00     0.029 C 
BRANCH  10  11
HETATM   11  C4  UNL     1      17.737  -3.220 -29.196  1.00  0.00     0.036 C 
BRANCH  11  12
HETATM   12  C3  UNL     1      17.590  -4.650 -29.478  1.00  0.00     0.153 C 
HETATM   13  O1  UNL     1      18.696  -5.293 -28.874  1.00  0.00    -0.376 OA
HETATM   14  C2  UNL     1      19.803  -5.436 -29.617  1.00  0.00     0.149 C 
HETATM   15  C1  UNL     1      20.387  -6.830 -29.339  1.00  0.00     0.042 C 
HETATM   16  C19 UNL     1      19.789  -5.161 -31.061  1.00  0.00     0.178 C 
HETATM   17  C18 UNL     1      18.471  -5.051 -31.742  1.00  0.00     0.180 C 
HETATM   18  C17 UNL     1      17.309  -5.194 -30.806  1.00  0.00     0.178 C 
BRANCH  16  19
HETATM   19  O8  UNL     1      20.559  -4.017 -31.387  1.00  0.00    -0.390 OA
ATOM     20  H8  UNL     1      20.679  -3.928 -32.325  1.00  0.00     0.210 HD
ENDBRANCH  16  19
BRANCH  17  21
HETATM   21  O7  UNL     1      18.311  -6.085 -32.703  1.00  0.00    -0.390 OA
ATOM     22  H7  UNL     1      17.378  -6.129 -32.874  1.00  0.00     0.210 HD
ENDBRANCH  17  21
BRANCH  18  23
HETATM   23  O6  UNL     1      17.040  -6.591 -30.607  1.00  0.00    -0.390 OA
ATOM     24  H6  UNL     1      16.135  -6.721 -30.866  1.00  0.00     0.210 HD
ENDBRANCH  18  23
ENDBRANCH  11  12
ENDBRANCH  10  11
ENDBRANCH   9  10
ENDBRANCH   8   9
ENDBRANCH   1   8
BRANCH   5  25
HETATM   25  O3  UNL     1      12.124  -1.732 -33.979  1.00  0.00    -0.368 OA
ATOM     26  H3  UNL     1      11.603  -1.052 -34.389  1.00  0.00     0.212 HD
ENDBRANCH   5  25
BRANCH   6  27
HETATM   27  C10 UNL     1      14.152  -2.968 -35.013  1.00  0.00     0.204 C 
BRANCH  27  28
HETATM   28  O4  UNL     1      14.021  -3.913 -34.021  1.00  0.00    -0.383 OA
BRANCH  28  29
HETATM   29  C11 UNL     1      14.324  -5.158 -34.535  1.00  0.00     0.121 C 
HETATM   30  C12 UNL     1      15.306  -5.001 -35.682  1.00  0.00     0.032 C 
HETATM   31  C13 UNL     1      15.599  -6.361 -36.269  1.00  0.00     0.002 C 
HETATM   32  C14 UNL     1      16.171  -7.295 -35.211  1.00  0.00     0.000 C 
HETATM   33  C15 UNL     1      15.099  -7.435 -34.124  1.00  0.00     0.002 C 
HETATM   34  C16 UNL     1      14.952  -6.069 -33.495  1.00  0.00     0.032 C 
ENDBRANCH  28  29
ENDBRANCH  27  28
ENDBRANCH   6  27
TORSDOF 12
ENDMDL
