MODEL 1
REMARK VINA RESULT: -8.556214560      0.000      0.000
REMARK  11 active torsions:
REMARK  status: ('A' for Active; 'I' for Inactive)
REMARK    1  A    between atoms: C2_2  and  O1_3 
REMARK    2  A    between atoms: O1_3  and  C3_4 
REMARK    3  A    between atoms: C3_4  and  C4_6 
REMARK       I    between atoms: N1_11  and  C9_13 
REMARK    4  A    between atoms: C9_13  and  C10_15 
REMARK    5  A    between atoms: C10_15  and  S1_16 
REMARK    6  A    between atoms: S1_16  and  C11_17 
REMARK    7  A    between atoms: C11_17  and  C12_18 
REMARK    8  A    between atoms: C12_18  and  C13_19 
REMARK    9  A    between atoms: C13_19  and  O4_20 
REMARK   10  A    between atoms: O4_20  and  N2_21 
REMARK   11  A    between atoms: C17_27  and  C18_28 
REMARK       I    between atoms: C18_28  and  N4_30 
ROOT
HETATM    1  N2  UNL     1      20.418  -2.894  19.869  1.00  0.00    -0.261 N 
ATOM      2  H2  UNL     1      20.155  -2.847  18.884  1.00  0.00     0.195 HD
HETATM    3  C14 UNL     1      21.280  -3.784  20.268  1.00  0.00     0.108 C 
HETATM    4  C15 UNL     1      21.867  -4.716  19.276  1.00  0.00     0.083 C 
HETATM    5  C16 UNL     1      21.656  -3.863  21.646  1.00  0.00     0.114 C 
HETATM    6  N3  UNL     1      21.958  -3.918  22.764  1.00  0.00    -0.190 NA
ENDROOT
BRANCH   1   7
HETATM    7  O4  UNL     1      19.857  -2.015  20.776  1.00  0.00    -0.280 OA
BRANCH   7   8
HETATM    8  C13 UNL     1      18.458  -2.082  21.054  1.00  0.00     0.202 C 
BRANCH   8   9
HETATM    9  C12 UNL     1      17.954  -3.448  20.622  1.00  0.00     0.039 C 
BRANCH   9  10
HETATM   10  C11 UNL     1      16.442  -3.341  20.392  1.00  0.00     0.076 C 
BRANCH  10  11
HETATM   11  S1  UNL     1      15.994  -4.097  18.813  1.00  0.00    -0.160 SA
BRANCH  11  12
HETATM   12  C10 UNL     1      16.820  -3.187  17.503  1.00  0.00     0.176 C 
BRANCH  12  13
HETATM   13  C9  UNL     1      17.779  -4.080  16.743  1.00  0.00     0.231 C 
HETATM   14  N1  UNL     1      17.359  -4.534  15.510  1.00  0.00    -0.333 N 
HETATM   15  C8  UNL     1      17.685  -5.517  14.793  1.00  0.00     0.007 C 
ATOM     16  H1  UNL     1      16.634  -3.952  15.092  1.00  0.00     0.168 HD
HETATM   17  C7  UNL     1      18.697  -6.490  15.177  1.00  0.00     0.087 C 
HETATM   18  C17 UNL     1      17.008  -5.726  13.495  1.00  0.00     0.138 C 
HETATM   19  C5  UNL     1      19.334  -7.125  13.965  1.00  0.00    -0.066 C 
HETATM   20  C4  UNL     1      19.098  -6.710  12.730  1.00  0.00     0.024 C 
HETATM   21  C6  UNL     1      20.276  -8.234  14.287  1.00  0.00     0.044 C 
HETATM   22  C19 UNL     1      18.138  -5.599  12.448  1.00  0.00     0.040 C 
HETATM   23  C20 UNL     1      17.551  -5.636  11.075  1.00  0.00     0.016 C 
HETATM   24  O3  UNL     1      18.876  -4.334  17.294  1.00  0.00    -0.272 OA
BRANCH  20  25
HETATM   25  C3  UNL     1      19.809  -7.383  11.635  1.00  0.00     0.289 C 
HETATM   26  O2  UNL     1      19.446  -8.544  11.264  1.00  0.00    -0.260 OA
BRANCH  25  27
HETATM   27  O1  UNL     1      20.869  -6.863  10.941  1.00  0.00    -0.318 OA
BRANCH  27  28
HETATM   28  C2  UNL     1      20.792  -6.658   9.549  1.00  0.00     0.174 C 
HETATM   29  C1  UNL     1      21.712  -7.559   8.767  1.00  0.00     0.034 C 
ENDBRANCH  27  28
ENDBRANCH  25  27
ENDBRANCH  20  25
BRANCH  18  30
HETATM   30  C18 UNL     1      15.891  -4.833  13.216  1.00  0.00     0.295 C 
HETATM   31  O5  UNL     1      16.142  -3.578  13.176  1.00  0.00    -0.266 OA
HETATM   32  N4  UNL     1      14.558  -5.228  12.984  1.00  0.00    -0.077 N 
HETATM   33  O6  UNL     1      14.250  -6.427  13.025  1.00  0.00    -0.529 OA
HETATM   34  O7  UNL     1      13.563  -4.309  12.716  1.00  0.00    -0.529 OA
ENDBRANCH  18  30
ENDBRANCH  12  13
ENDBRANCH  11  12
ENDBRANCH  10  11
ENDBRANCH   9  10
ENDBRANCH   8   9
ENDBRANCH   7   8
ENDBRANCH   1   7
TORSDOF 11
ENDMDL
MODEL 2
REMARK VINA RESULT: -8.495843015      3.514      9.267
REMARK  11 active torsions:
REMARK  status: ('A' for Active; 'I' for Inactive)
REMARK    1  A    between atoms: C2_2  and  O1_3 
REMARK    2  A    between atoms: O1_3  and  C3_4 
REMARK    3  A    between atoms: C3_4  and  C4_6 
REMARK       I    between atoms: N1_11  and  C9_13 
REMARK    4  A    between atoms: C9_13  and  C10_15 
REMARK    5  A    between atoms: C10_15  and  S1_16 
REMARK    6  A    between atoms: S1_16  and  C11_17 
REMARK    7  A    between atoms: C11_17  and  C12_18 
REMARK    8  A    between atoms: C12_18  and  C13_19 
REMARK    9  A    between atoms: C13_19  and  O4_20 
REMARK   10  A    between atoms: O4_20  and  N2_21 
REMARK   11  A    between atoms: C17_27  and  C18_28 
REMARK       I    between atoms: C18_28  and  N4_30 
ROOT
HETATM    1  N2  UNL     1      14.177  -3.029  10.974  1.00  0.00    -0.261 N 
ATOM      2  H2  UNL     1      13.306  -2.502  10.910  1.00  0.00     0.195 HD
HETATM    3  C14 UNL     1      14.722  -3.516   9.896  1.00  0.00     0.108 C 
HETATM    4  C15 UNL     1      14.061  -3.290   8.589  1.00  0.00     0.083 C 
HETATM    5  C16 UNL     1      15.942  -4.258   9.971  1.00  0.00     0.114 C 
HETATM    6  N3  UNL     1      16.933  -4.856  10.040  1.00  0.00    -0.190 NA
ENDROOT
BRANCH   1   7
HETATM    7  O4  UNL     1      14.777  -3.227  12.204  1.00  0.00    -0.280 OA
BRANCH   7   8
HETATM    8  C13 UNL     1      14.308  -4.271  13.059  1.00  0.00     0.202 C 
BRANCH   8   9
HETATM    9  C12 UNL     1      15.499  -4.835  13.814  1.00  0.00     0.039 C 
BRANCH   9  10
HETATM   10  C11 UNL     1      16.720  -3.968  13.485  1.00  0.00     0.076 C 
BRANCH  10  11
HETATM   11  S1  UNL     1      17.602  -3.529  15.000  1.00  0.00    -0.160 SA
BRANCH  11  12
HETATM   12  C10 UNL     1      16.674  -4.175  16.395  1.00  0.00     0.176 C 
BRANCH  12  13
HETATM   13  C9  UNL     1      17.456  -5.253  17.115  1.00  0.00     0.231 C 
HETATM   14  N1  UNL     1      17.965  -4.928  18.354  1.00  0.00    -0.333 N 
HETATM   15  C8  UNL     1      18.910  -5.386  19.050  1.00  0.00     0.007 C 
ATOM     16  H1  UNL     1      17.474  -4.154  18.802  1.00  0.00     0.168 HD
HETATM   17  C7  UNL     1      19.756  -6.492  18.624  1.00  0.00     0.087 C 
HETATM   18  C17 UNL     1      19.206  -4.780  20.366  1.00  0.00     0.138 C 
HETATM   19  C5  UNL     1      20.323  -7.236  19.808  1.00  0.00    -0.066 C 
HETATM   20  C4  UNL     1      19.948  -6.992  21.056  1.00  0.00     0.024 C 
HETATM   21  C6  UNL     1      21.314  -8.288  19.445  1.00  0.00     0.044 C 
HETATM   22  C19 UNL     1      18.958  -5.920  21.379  1.00  0.00     0.040 C 
HETATM   23  C20 UNL     1      19.074  -5.385  22.769  1.00  0.00     0.016 C 
HETATM   24  O3  UNL     1      17.577  -6.354  16.528  1.00  0.00    -0.272 OA
BRANCH  20  25
HETATM   25  C3  UNL     1      20.544  -7.810  22.120  1.00  0.00     0.289 C 
HETATM   26  O2  UNL     1      21.640  -7.451  22.656  1.00  0.00    -0.260 OA
BRANCH  25  27
HETATM   27  O1  UNL     1      20.014  -8.970  22.618  1.00  0.00    -0.318 OA
BRANCH  27  28
HETATM   28  C2  UNL     1      20.736 -10.179  22.560  1.00  0.00     0.174 C 
HETATM   29  C1  UNL     1      20.056 -11.235  21.727  1.00  0.00     0.034 C 
ENDBRANCH  27  28
ENDBRANCH  25  27
ENDBRANCH  20  25
BRANCH  18  30
HETATM   30  C18 UNL     1      18.451  -3.577  20.689  1.00  0.00     0.295 C 
HETATM   31  O5  UNL     1      17.193  -3.712  20.884  1.00  0.00    -0.266 OA
HETATM   32  N4  UNL     1      18.982  -2.276  20.807  1.00  0.00    -0.077 N 
HETATM   33  O6  UNL     1      20.189  -2.080  20.614  1.00  0.00    -0.529 OA
HETATM   34  O7  UNL     1      18.189  -1.193  21.129  1.00  0.00    -0.529 OA
ENDBRANCH  18  30
ENDBRANCH  12  13
ENDBRANCH  11  12
ENDBRANCH  10  11
ENDBRANCH   9  10
ENDBRANCH   8   9
ENDBRANCH   7   8
ENDBRANCH   1   7
TORSDOF 11
ENDMDL
MODEL 3
REMARK VINA RESULT: -8.353141107      3.489      9.325
REMARK  11 active torsions:
REMARK  status: ('A' for Active; 'I' for Inactive)
REMARK    1  A    between atoms: C2_2  and  O1_3 
REMARK    2  A    between atoms: O1_3  and  C3_4 
REMARK    3  A    between atoms: C3_4  and  C4_6 
REMARK       I    between atoms: N1_11  and  C9_13 
REMARK    4  A    between atoms: C9_13  and  C10_15 
REMARK    5  A    between atoms: C10_15  and  S1_16 
REMARK    6  A    between atoms: S1_16  and  C11_17 
REMARK    7  A    between atoms: C11_17  and  C12_18 
REMARK    8  A    between atoms: C12_18  and  C13_19 
REMARK    9  A    between atoms: C13_19  and  O4_20 
REMARK   10  A    between atoms: O4_20  and  N2_21 
REMARK   11  A    between atoms: C17_27  and  C18_28 
REMARK       I    between atoms: C18_28  and  N4_30 
ROOT
HETATM    1  N2  UNL     1      15.966  -4.171   9.908  1.00  0.00    -0.261 N 
ATOM      2  H2  UNL     1      16.455  -4.300   9.022  1.00  0.00     0.195 HD
HETATM    3  C14 UNL     1      14.740  -3.733   9.916  1.00  0.00     0.108 C 
HETATM    4  C15 UNL     1      14.074  -3.431   8.627  1.00  0.00     0.083 C 
HETATM    5  C16 UNL     1      14.043  -3.546  11.151  1.00  0.00     0.114 C 
HETATM    6  N3  UNL     1      13.485  -3.401  12.157  1.00  0.00    -0.190 NA
ENDROOT
BRANCH   1   7
HETATM    7  O4  UNL     1      16.607  -4.460  11.099  1.00  0.00    -0.280 OA
BRANCH   7   8
HETATM    8  C13 UNL     1      17.311  -5.695  11.240  1.00  0.00     0.202 C 
BRANCH   8   9
HETATM    9  C12 UNL     1      17.545  -5.939  12.721  1.00  0.00     0.039 C 
BRANCH   9  10
HETATM   10  C11 UNL     1      16.540  -5.086  13.505  1.00  0.00     0.076 C 
BRANCH  10  11
HETATM   11  S1  UNL     1      17.409  -3.959  14.617  1.00  0.00    -0.160 SA
BRANCH  11  12
HETATM   12  C10 UNL     1      16.762  -4.199  16.275  1.00  0.00     0.176 C 
BRANCH  12  13
HETATM   13  C9  UNL     1      17.536  -5.273  17.010  1.00  0.00     0.231 C 
HETATM   14  N1  UNL     1      18.021  -4.944  18.258  1.00  0.00    -0.333 N 
HETATM   15  C8  UNL     1      18.955  -5.398  18.971  1.00  0.00     0.007 C 
ATOM     16  H1  UNL     1      17.518  -4.173  18.696  1.00  0.00     0.168 HD
HETATM   17  C7  UNL     1      19.814  -6.499  18.562  1.00  0.00     0.087 C 
HETATM   18  C17 UNL     1      19.223  -4.789  20.293  1.00  0.00     0.138 C 
HETATM   19  C5  UNL     1      20.363  -7.239  19.757  1.00  0.00    -0.066 C 
HETATM   20  C4  UNL     1      19.963  -6.997  20.997  1.00  0.00     0.024 C 
HETATM   21  C6  UNL     1      21.366  -8.287  19.413  1.00  0.00     0.044 C 
HETATM   22  C19 UNL     1      18.962  -5.930  21.302  1.00  0.00     0.040 C 
HETATM   23  C20 UNL     1      19.049  -5.394  22.693  1.00  0.00     0.016 C 
HETATM   24  O3  UNL     1      17.674  -6.373  16.425  1.00  0.00    -0.272 OA
BRANCH  20  25
HETATM   25  C3  UNL     1      20.543  -7.811  22.073  1.00  0.00     0.289 C 
HETATM   26  O2  UNL     1      21.653  -7.474  22.595  1.00  0.00    -0.260 OA
BRANCH  25  27
HETATM   27  O1  UNL     1      19.984  -8.946  22.597  1.00  0.00    -0.318 OA
BRANCH  27  28
HETATM   28  C2  UNL     1      20.704 -10.158  22.634  1.00  0.00     0.174 C 
HETATM   29  C1  UNL     1      20.155 -11.200  21.695  1.00  0.00     0.034 C 
ENDBRANCH  27  28
ENDBRANCH  25  27
ENDBRANCH  20  25
BRANCH  18  30
HETATM   30  C18 UNL     1      18.455  -3.590  20.601  1.00  0.00     0.295 C 
HETATM   31  O5  UNL     1      17.189  -3.725  20.737  1.00  0.00    -0.266 OA
HETATM   32  N4  UNL     1      18.983  -2.292  20.764  1.00  0.00    -0.077 N 
HETATM   33  O6  UNL     1      20.197  -2.096  20.629  1.00  0.00    -0.529 OA
HETATM   34  O7  UNL     1      18.177  -1.213  21.067  1.00  0.00    -0.529 OA
ENDBRANCH  18  30
ENDBRANCH  12  13
ENDBRANCH  11  12
ENDBRANCH  10  11
ENDBRANCH   9  10
ENDBRANCH   8   9
ENDBRANCH   7   8
ENDBRANCH   1   7
TORSDOF 11
ENDMDL
MODEL 4
REMARK VINA RESULT: -8.195080740      3.311      9.210
REMARK  11 active torsions:
REMARK  status: ('A' for Active; 'I' for Inactive)
REMARK    1  A    between atoms: C2_2  and  O1_3 
REMARK    2  A    between atoms: O1_3  and  C3_4 
REMARK    3  A    between atoms: C3_4  and  C4_6 
REMARK       I    between atoms: N1_11  and  C9_13 
REMARK    4  A    between atoms: C9_13  and  C10_15 
REMARK    5  A    between atoms: C10_15  and  S1_16 
REMARK    6  A    between atoms: S1_16  and  C11_17 
REMARK    7  A    between atoms: C11_17  and  C12_18 
REMARK    8  A    between atoms: C12_18  and  C13_19 
REMARK    9  A    between atoms: C13_19  and  O4_20 
REMARK   10  A    between atoms: O4_20  and  N2_21 
REMARK   11  A    between atoms: C17_27  and  C18_28 
REMARK       I    between atoms: C18_28  and  N4_30 
ROOT
HETATM    1  N2  UNL     1      14.158  -2.861  10.968  1.00  0.00    -0.261 N 
ATOM      2  H2  UNL     1      13.320  -2.283  10.896  1.00  0.00     0.195 HD
HETATM    3  C14 UNL     1      14.674  -3.392   9.897  1.00  0.00     0.108 C 
HETATM    4  C15 UNL     1      14.031  -3.143   8.586  1.00  0.00     0.083 C 
HETATM    5  C16 UNL     1      15.848  -4.206   9.985  1.00  0.00     0.114 C 
HETATM    6  N3  UNL     1      16.801  -4.861  10.064  1.00  0.00    -0.190 NA
ENDROOT
BRANCH   1   7
HETATM    7  O4  UNL     1      14.742  -3.079  12.202  1.00  0.00    -0.280 OA
BRANCH   7   8
HETATM    8  C13 UNL     1      14.294  -4.166  13.013  1.00  0.00     0.202 C 
BRANCH   8   9
HETATM    9  C12 UNL     1      15.516  -4.891  13.550  1.00  0.00     0.039 C 
BRANCH   9  10
HETATM   10  C11 UNL     1      16.656  -3.872  13.665  1.00  0.00     0.076 C 
BRANCH  10  11
HETATM   11  S1  UNL     1      17.407  -3.956  15.307  1.00  0.00    -0.160 SA
BRANCH  11  12
HETATM   12  C10 UNL     1      17.363  -5.665  15.855  1.00  0.00     0.176 C 
BRANCH  12  13
HETATM   13  C9  UNL     1      18.543  -5.978  16.751  1.00  0.00     0.231 C 
HETATM   14  N1  UNL     1      18.540  -5.406  18.006  1.00  0.00    -0.333 N 
HETATM   15  C8  UNL     1      19.446  -5.142  18.840  1.00  0.00     0.007 C 
ATOM     16  H1  UNL     1      17.609  -5.141  18.325  1.00  0.00     0.168 HD
HETATM   17  C7  UNL     1      20.855  -5.429  18.611  1.00  0.00     0.087 C 
HETATM   18  C17 UNL     1      19.089  -4.497  20.122  1.00  0.00     0.138 C 
HETATM   19  C5  UNL     1      21.592  -5.630  19.912  1.00  0.00    -0.066 C 
HETATM   20  C4  UNL     1      20.976  -5.696  21.083  1.00  0.00     0.024 C 
HETATM   21  C6  UNL     1      23.066  -5.782  19.756  1.00  0.00     0.044 C 
HETATM   22  C19 UNL     1      19.495  -5.529  21.198  1.00  0.00     0.040 C 
HETATM   23  C20 UNL     1      19.039  -5.055  22.539  1.00  0.00     0.016 C 
HETATM   24  O3  UNL     1      19.428  -6.732  16.281  1.00  0.00    -0.272 OA
BRANCH  20  25
HETATM   25  C3  UNL     1      21.799  -5.935  22.276  1.00  0.00     0.289 C 
HETATM   26  O2  UNL     1      22.452  -4.975  22.797  1.00  0.00    -0.260 OA
BRANCH  25  27
HETATM   27  O1  UNL     1      21.940  -7.138  22.913  1.00  0.00    -0.318 OA
BRANCH  27  28
HETATM   28  C2  UNL     1      21.748  -8.351  22.222  1.00  0.00     0.174 C 
HETATM   29  C1  UNL     1      20.409  -8.984  22.499  1.00  0.00     0.034 C 
ENDBRANCH  27  28
ENDBRANCH  25  27
ENDBRANCH  20  25
BRANCH  18  30
HETATM   30  C18 UNL     1      17.701  -4.077  20.251  1.00  0.00     0.295 C 
HETATM   31  O5  UNL     1      16.803  -4.982  20.124  1.00  0.00    -0.266 OA
HETATM   32  N4  UNL     1      17.256  -2.763  20.504  1.00  0.00    -0.077 N 
HETATM   33  O6  UNL     1      18.076  -1.843  20.620  1.00  0.00    -0.529 OA
HETATM   34  O7  UNL     1      15.914  -2.460  20.621  1.00  0.00    -0.529 OA
ENDBRANCH  18  30
ENDBRANCH  12  13
ENDBRANCH  11  12
ENDBRANCH  10  11
ENDBRANCH   9  10
ENDBRANCH   8   9
ENDBRANCH   7   8
ENDBRANCH   1   7
TORSDOF 11
ENDMDL
MODEL 5
REMARK VINA RESULT: -8.069287670      2.895      9.064
REMARK  11 active torsions:
REMARK  status: ('A' for Active; 'I' for Inactive)
REMARK    1  A    between atoms: C2_2  and  O1_3 
REMARK    2  A    between atoms: O1_3  and  C3_4 
REMARK    3  A    between atoms: C3_4  and  C4_6 
REMARK       I    between atoms: N1_11  and  C9_13 
REMARK    4  A    between atoms: C9_13  and  C10_15 
REMARK    5  A    between atoms: C10_15  and  S1_16 
REMARK    6  A    between atoms: S1_16  and  C11_17 
REMARK    7  A    between atoms: C11_17  and  C12_18 
REMARK    8  A    between atoms: C12_18  and  C13_19 
REMARK    9  A    between atoms: C13_19  and  O4_20 
REMARK   10  A    between atoms: O4_20  and  N2_21 
REMARK   11  A    between atoms: C17_27  and  C18_28 
REMARK       I    between atoms: C18_28  and  N4_30 
ROOT
HETATM    1  N2  UNL     1      16.192  -4.481  10.142  1.00  0.00    -0.261 N 
ATOM      2  H2  UNL     1      16.663  -4.800   9.295  1.00  0.00     0.195 HD
HETATM    3  C14 UNL     1      15.007  -3.948  10.065  1.00  0.00     0.108 C 
HETATM    4  C15 UNL     1      14.360  -3.817   8.739  1.00  0.00     0.083 C 
HETATM    5  C16 UNL     1      14.337  -3.495  11.245  1.00  0.00     0.114 C 
HETATM    6  N3  UNL     1      13.799  -3.133  12.206  1.00  0.00    -0.190 NA
ENDROOT
BRANCH   1   7
HETATM    7  O4  UNL     1      16.815  -4.614  11.370  1.00  0.00    -0.280 OA
BRANCH   7   8
HETATM    8  C13 UNL     1      17.130  -5.916  11.865  1.00  0.00     0.202 C 
BRANCH   8   9
HETATM    9  C12 UNL     1      17.514  -5.786  13.329  1.00  0.00     0.039 C 
BRANCH   9  10
HETATM   10  C11 UNL     1      16.244  -5.459  14.123  1.00  0.00     0.076 C 
BRANCH  10  11
HETATM   11  S1  UNL     1      16.366  -3.810  14.849  1.00  0.00    -0.160 SA
BRANCH  11  12
HETATM   12  C10 UNL     1      15.376  -3.782  16.346  1.00  0.00     0.176 C 
BRANCH  12  13
HETATM   13  C9  UNL     1      16.159  -3.202  17.505  1.00  0.00     0.231 C 
HETATM   14  N1  UNL     1      17.353  -3.818  17.818  1.00  0.00    -0.333 N 
HETATM   15  C8  UNL     1      18.056  -3.864  18.862  1.00  0.00     0.007 C 
ATOM     16  H1  UNL     1      17.749  -4.347  17.041  1.00  0.00     0.168 HD
HETATM   17  C7  UNL     1      17.698  -3.188  20.100  1.00  0.00     0.087 C 
HETATM   18  C17 UNL     1      19.309  -4.649  18.861  1.00  0.00     0.138 C 
HETATM   19  C5  UNL     1      18.923  -2.859  20.919  1.00  0.00    -0.066 C 
HETATM   20  C4  UNL     1      20.156  -3.027  20.464  1.00  0.00     0.024 C 
HETATM   21  C6  UNL     1      18.619  -2.297  22.265  1.00  0.00     0.044 C 
HETATM   22  C19 UNL     1      20.419  -3.603  19.111  1.00  0.00     0.040 C 
HETATM   23  C20 UNL     1      21.756  -4.255  18.976  1.00  0.00     0.016 C 
HETATM   24  O3  UNL     1      15.661  -2.209  18.087  1.00  0.00    -0.272 OA
BRANCH  20  25
HETATM   25  C3  UNL     1      21.267  -2.633  21.341  1.00  0.00     0.289 C 
HETATM   26  O2  UNL     1      21.942  -1.589  21.076  1.00  0.00    -0.260 OA
BRANCH  25  27
HETATM   27  O1  UNL     1      21.665  -3.305  22.465  1.00  0.00    -0.318 OA
BRANCH  27  28
HETATM   28  C2  UNL     1      21.843  -4.704  22.448  1.00  0.00     0.174 C 
HETATM   29  C1  UNL     1      20.665  -5.456  23.011  1.00  0.00     0.034 C 
ENDBRANCH  27  28
ENDBRANCH  25  27
ENDBRANCH  20  25
BRANCH  18  30
HETATM   30  C18 UNL     1      19.554  -5.443  17.664  1.00  0.00     0.295 C 
HETATM   31  O5  UNL     1      19.433  -4.850  16.535  1.00  0.00    -0.266 OA
HETATM   32  N4  UNL     1      19.914  -6.806  17.637  1.00  0.00    -0.077 N 
HETATM   33  O6  UNL     1      20.031  -7.437  18.696  1.00  0.00    -0.529 OA
HETATM   34  O7  UNL     1      20.138  -7.476  16.451  1.00  0.00    -0.529 OA
ENDBRANCH  18  30
ENDBRANCH  12  13
ENDBRANCH  11  12
ENDBRANCH  10  11
ENDBRANCH   9  10
ENDBRANCH   8   9
ENDBRANCH   7   8
ENDBRANCH   1   7
TORSDOF 11
ENDMDL
