MODEL 1
REMARK VINA RESULT: -8.219421711      0.000      0.000
REMARK  12 active torsions:
REMARK  status: ('A' for Active; 'I' for Inactive)
REMARK    1  A    between atoms: C3_5  and  C4_6 
REMARK    2  A    between atoms: C5_7  and  C7_10 
REMARK       I    between atoms: C7_10  and  N3_12 
REMARK    3  A    between atoms: N3_12  and  C8_14 
REMARK    4  A    between atoms: C8_14  and  C9_15 
REMARK    5  A    between atoms: C12_19  and  S2_20 
REMARK    6  A    between atoms: S2_20  and  C13_21 
REMARK    7  A    between atoms: C13_21  and  C14_22 
REMARK    8  A    between atoms: C14_22  and  O3_24 
REMARK    9  A    between atoms: O3_24  and  C15_25 
REMARK   10  A    between atoms: C15_25  and  C17_27 
REMARK   11  A    between atoms: C17_27  and  O4_28 
REMARK   12  A    between atoms: O4_28  and  S3_29 
ROOT
HETATM    1  C4  UNL     1      17.145  -4.761  14.722  1.00  0.00     0.065 C 
HETATM    2  C5  UNL     1      16.121  -3.980  14.981  1.00  0.00     0.114 C 
HETATM    3  C6  UNL     1      15.954  -3.331  16.249  1.00  0.00     0.105 C 
HETATM    4  N2  UNL     1      15.802  -2.801  17.261  1.00  0.00    -0.191 NA
ENDROOT
BRANCH   2   5
HETATM    5  C7  UNL     1      15.114  -3.769  13.953  1.00  0.00     0.262 C 
HETATM    6  O1  UNL     1      13.902  -3.788  14.263  1.00  0.00    -0.267 OA
HETATM    7  N3  UNL     1      15.476  -3.544  12.597  1.00  0.00    -0.356 N 
ATOM      8  H3  UNL     1      16.469  -3.533  12.364  1.00  0.00     0.162 HD
BRANCH   7   9
HETATM    9  C8  UNL     1      14.537  -3.331  11.540  1.00  0.00     0.126 C 
BRANCH   9  10
HETATM   10  C9  UNL     1      14.828  -4.152  10.299  1.00  0.00    -0.005 C 
HETATM   11  C10 UNL     1      16.306  -4.482  10.201  1.00  0.00     0.011 C 
HETATM   12  C11 UNL     1      14.462  -3.262   9.106  1.00  0.00     0.011 C 
ENDBRANCH   9  10
ENDBRANCH   7   9
ENDBRANCH   2   5
BRANCH   1  13
HETATM   13  C3  UNL     1      18.140  -4.954  15.807  1.00  0.00     0.077 A 
HETATM   14  N1  UNL     1      18.804  -4.022  16.477  1.00  0.00    -0.353 N 
HETATM   15  C2  UNL     1      19.652  -4.372  17.394  1.00  0.00     0.030 A 
ATOM     16  H1  UNL     1      18.648  -3.035  16.273  1.00  0.00     0.166 HD
HETATM   17  C1  UNL     1      20.449  -3.368  18.210  1.00  0.00     0.070 C 
HETATM   18  C12 UNL     1      19.817  -5.716  17.624  1.00  0.00     0.066 A 
HETATM   19  S1  UNL     1      18.732  -6.398  16.497  1.00  0.00    -0.063 SA
BRANCH  18  20
HETATM   20  S2  UNL     1      20.921  -6.491  18.828  1.00  0.00    -0.111 SA
BRANCH  20  21
HETATM   21  C13 UNL     1      20.022  -7.288  20.157  1.00  0.00     0.191 C 
BRANCH  21  22
HETATM   22  C14 UNL     1      19.241  -6.374  21.006  1.00  0.00     0.268 C 
HETATM   23  O2  UNL     1      18.969  -6.721  22.175  1.00  0.00    -0.264 OA
BRANCH  22  24
HETATM   24  O3  UNL     1      18.767  -5.123  20.608  1.00  0.00    -0.314 OA
BRANCH  24  25
HETATM   25  C15 UNL     1      17.400  -4.811  20.793  1.00  0.00     0.153 C 
HETATM   26  C16 UNL     1      16.649  -5.304  19.571  1.00  0.00     0.042 C 
BRANCH  25  27
HETATM   27  C17 UNL     1      17.122  -3.357  20.956  1.00  0.00     0.222 C 
BRANCH  27  28
HETATM   28  O4  UNL     1      17.516  -3.006  22.265  1.00  0.00    -0.273 OA
BRANCH  28  29
HETATM   29  S3  UNL     1      18.871  -2.020  22.235  1.00  0.00     0.261 S 
HETATM   30  C18 UNL     1      20.309  -2.890  22.848  1.00  0.00     0.194 C 
HETATM   31  O5  UNL     1      19.128  -1.431  20.887  1.00  0.00    -0.199 OA
HETATM   32  O6  UNL     1      18.600  -0.871  23.188  1.00  0.00    -0.199 OA
ENDBRANCH  28  29
ENDBRANCH  27  28
ENDBRANCH  25  27
ENDBRANCH  24  25
ENDBRANCH  22  24
ENDBRANCH  21  22
ENDBRANCH  20  21
ENDBRANCH  18  20
ENDBRANCH   1  13
TORSDOF 12
ENDMDL
MODEL 2
REMARK VINA RESULT: -8.075834819      3.002      4.566
REMARK  12 active torsions:
REMARK  status: ('A' for Active; 'I' for Inactive)
REMARK    1  A    between atoms: C3_5  and  C4_6 
REMARK    2  A    between atoms: C5_7  and  C7_10 
REMARK       I    between atoms: C7_10  and  N3_12 
REMARK    3  A    between atoms: N3_12  and  C8_14 
REMARK    4  A    between atoms: C8_14  and  C9_15 
REMARK    5  A    between atoms: C12_19  and  S2_20 
REMARK    6  A    between atoms: S2_20  and  C13_21 
REMARK    7  A    between atoms: C13_21  and  C14_22 
REMARK    8  A    between atoms: C14_22  and  O3_24 
REMARK    9  A    between atoms: O3_24  and  C15_25 
REMARK   10  A    between atoms: C15_25  and  C17_27 
REMARK   11  A    between atoms: C17_27  and  O4_28 
REMARK   12  A    between atoms: O4_28  and  S3_29 
ROOT
HETATM    1  C4  UNL     1      18.168  -5.121  13.843  1.00  0.00     0.065 C 
HETATM    2  C5  UNL     1      17.427  -5.455  12.810  1.00  0.00     0.114 C 
HETATM    3  C6  UNL     1      16.001  -5.566  12.895  1.00  0.00     0.105 C 
HETATM    4  N2  UNL     1      14.853  -5.661  12.942  1.00  0.00    -0.191 NA
ENDROOT
BRANCH   2   5
HETATM    5  C7  UNL     1      18.073  -5.732  11.537  1.00  0.00     0.262 C 
HETATM    6  O1  UNL     1      17.445  -5.542  10.471  1.00  0.00    -0.267 OA
HETATM    7  N3  UNL     1      19.407  -6.218  11.473  1.00  0.00    -0.356 N 
ATOM      8  H3  UNL     1      19.903  -6.367  12.352  1.00  0.00     0.162 HD
BRANCH   7   9
HETATM    9  C8  UNL     1      20.099  -6.510  10.256  1.00  0.00     0.126 C 
BRANCH   9  10
HETATM   10  C9  UNL     1      20.977  -5.373   9.772  1.00  0.00    -0.005 C 
HETATM   11  C10 UNL     1      20.338  -4.658   8.596  1.00  0.00     0.011 C 
HETATM   12  C11 UNL     1      22.277  -6.020   9.282  1.00  0.00     0.011 C 
ENDBRANCH   9  10
ENDBRANCH   7   9
ENDBRANCH   2   5
BRANCH   1  13
HETATM   13  C3  UNL     1      17.464  -4.861  15.124  1.00  0.00     0.077 A 
HETATM   14  N1  UNL     1      16.577  -3.911  15.386  1.00  0.00    -0.353 N 
HETATM   15  C2  UNL     1      16.065  -3.819  16.574  1.00  0.00     0.030 A 
ATOM     16  H1  UNL     1      16.298  -3.255  14.656  1.00  0.00     0.166 HD
HETATM   17  C1  UNL     1      15.040  -2.764  16.954  1.00  0.00     0.070 C 
HETATM   18  C12 UNL     1      16.480  -4.732  17.513  1.00  0.00     0.066 A 
HETATM   19  S1  UNL     1      17.588  -5.672  16.620  1.00  0.00    -0.063 SA
BRANCH  18  20
HETATM   20  S2  UNL     1      15.944  -4.846  19.236  1.00  0.00    -0.111 SA
BRANCH  20  21
HETATM   21  C13 UNL     1      17.158  -4.173  20.369  1.00  0.00     0.191 C 
BRANCH  21  22
HETATM   22  C14 UNL     1      17.155  -2.706  20.473  1.00  0.00     0.268 C 
HETATM   23  O2  UNL     1      16.131  -2.078  20.130  1.00  0.00    -0.264 OA
BRANCH  22  24
HETATM   24  O3  UNL     1      18.225  -1.936  20.934  1.00  0.00    -0.314 OA
BRANCH  24  25
HETATM   25  C15 UNL     1      18.985  -2.398  22.034  1.00  0.00     0.153 C 
HETATM   26  C16 UNL     1      18.847  -1.375  23.146  1.00  0.00     0.042 C 
BRANCH  25  27
HETATM   27  C17 UNL     1      20.434  -2.578  21.743  1.00  0.00     0.222 C 
BRANCH  27  28
HETATM   28  O4  UNL     1      20.703  -1.881  20.545  1.00  0.00    -0.273 OA
BRANCH  28  29
HETATM   29  S3  UNL     1      21.465  -2.880  19.434  1.00  0.00     0.261 S 
HETATM   30  C18 UNL     1      20.302  -3.485  18.218  1.00  0.00     0.194 C 
HETATM   31  O5  UNL     1      22.642  -2.231  18.784  1.00  0.00    -0.199 OA
HETATM   32  O6  UNL     1      21.978  -4.082  20.205  1.00  0.00    -0.199 OA
ENDBRANCH  28  29
ENDBRANCH  27  28
ENDBRANCH  25  27
ENDBRANCH  24  25
ENDBRANCH  22  24
ENDBRANCH  21  22
ENDBRANCH  20  21
ENDBRANCH  18  20
ENDBRANCH   1  13
TORSDOF 12
ENDMDL
MODEL 3
REMARK VINA RESULT: -8.011329695      2.096      3.636
REMARK  12 active torsions:
REMARK  status: ('A' for Active; 'I' for Inactive)
REMARK    1  A    between atoms: C3_5  and  C4_6 
REMARK    2  A    between atoms: C5_7  and  C7_10 
REMARK       I    between atoms: C7_10  and  N3_12 
REMARK    3  A    between atoms: N3_12  and  C8_14 
REMARK    4  A    between atoms: C8_14  and  C9_15 
REMARK    5  A    between atoms: C12_19  and  S2_20 
REMARK    6  A    between atoms: S2_20  and  C13_21 
REMARK    7  A    between atoms: C13_21  and  C14_22 
REMARK    8  A    between atoms: C14_22  and  O3_24 
REMARK    9  A    between atoms: O3_24  and  C15_25 
REMARK   10  A    between atoms: C15_25  and  C17_27 
REMARK   11  A    between atoms: C17_27  and  O4_28 
REMARK   12  A    between atoms: O4_28  and  S3_29 
ROOT
HETATM    1  C4  UNL     1      15.406  -3.784  15.318  1.00  0.00     0.065 C 
HETATM    2  C5  UNL     1      15.707  -4.488  14.250  1.00  0.00     0.114 C 
HETATM    3  C6  UNL     1      16.856  -5.343  14.195  1.00  0.00     0.105 C 
HETATM    4  N2  UNL     1      17.775  -6.036  14.130  1.00  0.00    -0.191 NA
ENDROOT
BRANCH   2   5
HETATM    5  C7  UNL     1      14.853  -4.393  13.077  1.00  0.00     0.262 C 
HETATM    6  O1  UNL     1      14.017  -5.295  12.845  1.00  0.00    -0.267 OA
HETATM    7  N3  UNL     1      14.948  -3.294  12.180  1.00  0.00    -0.356 N 
ATOM      8  H3  UNL     1      15.636  -2.569  12.385  1.00  0.00     0.162 HD
BRANCH   7   9
HETATM    9  C8  UNL     1      14.141  -3.139  11.010  1.00  0.00     0.126 C 
BRANCH   9  10
HETATM   10  C9  UNL     1      14.945  -3.050   9.728  1.00  0.00    -0.005 C 
HETATM   11  C10 UNL     1      14.046  -3.183   8.513  1.00  0.00     0.011 C 
HETATM   12  C11 UNL     1      15.900  -4.249   9.743  1.00  0.00     0.011 C 
ENDBRANCH   9  10
ENDBRANCH   7   9
ENDBRANCH   2   5
BRANCH   1  13
HETATM   13  C3  UNL     1      16.315  -3.906  16.486  1.00  0.00     0.077 A 
HETATM   14  N1  UNL     1      17.631  -3.749  16.513  1.00  0.00    -0.353 N 
HETATM   15  C2  UNL     1      18.275  -3.906  17.627  1.00  0.00     0.030 A 
ATOM     16  H1  UNL     1      18.135  -3.506  15.660  1.00  0.00     0.166 HD
HETATM   17  C1  UNL     1      19.780  -3.739  17.744  1.00  0.00     0.070 C 
HETATM   18  C12 UNL     1      17.540  -4.232  18.741  1.00  0.00     0.066 A 
HETATM   19  S1  UNL     1      15.957  -4.293  18.109  1.00  0.00    -0.063 SA
BRANCH  18  20
HETATM   20  S2  UNL     1      18.162  -4.511  20.417  1.00  0.00    -0.111 SA
BRANCH  20  21
HETATM   21  C13 UNL     1      17.910  -3.090  21.478  1.00  0.00     0.191 C 
BRANCH  21  22
HETATM   22  C14 UNL     1      19.079  -2.208  21.613  1.00  0.00     0.268 C 
HETATM   23  O2  UNL     1      19.249  -1.590  22.686  1.00  0.00    -0.264 OA
BRANCH  22  24
HETATM   24  O3  UNL     1      20.039  -1.997  20.622  1.00  0.00    -0.314 OA
BRANCH  24  25
HETATM   25  C15 UNL     1      21.391  -2.313  20.891  1.00  0.00     0.153 C 
HETATM   26  C16 UNL     1      22.228  -1.733  19.766  1.00  0.00     0.042 C 
BRANCH  25  27
HETATM   27  C17 UNL     1      21.673  -3.773  20.976  1.00  0.00     0.222 C 
BRANCH  27  28
HETATM   28  O4  UNL     1      21.952  -4.060  22.330  1.00  0.00    -0.273 OA
BRANCH  28  29
HETATM   29  S3  UNL     1      21.463  -5.615  22.721  1.00  0.00     0.261 S 
HETATM   30  C18 UNL     1      21.206  -6.594  21.246  1.00  0.00     0.194 C 
HETATM   31  O5  UNL     1      22.397  -6.295  23.667  1.00  0.00    -0.199 OA
HETATM   32  O6  UNL     1      20.121  -5.491  23.418  1.00  0.00    -0.199 OA
ENDBRANCH  28  29
ENDBRANCH  27  28
ENDBRANCH  25  27
ENDBRANCH  24  25
ENDBRANCH  22  24
ENDBRANCH  21  22
ENDBRANCH  20  21
ENDBRANCH  18  20
ENDBRANCH   1  13
TORSDOF 12
ENDMDL
MODEL 4
REMARK VINA RESULT: -7.992798021      3.615      5.120
REMARK  12 active torsions:
REMARK  status: ('A' for Active; 'I' for Inactive)
REMARK    1  A    between atoms: C3_5  and  C4_6 
REMARK    2  A    between atoms: C5_7  and  C7_10 
REMARK       I    between atoms: C7_10  and  N3_12 
REMARK    3  A    between atoms: N3_12  and  C8_14 
REMARK    4  A    between atoms: C8_14  and  C9_15 
REMARK    5  A    between atoms: C12_19  and  S2_20 
REMARK    6  A    between atoms: S2_20  and  C13_21 
REMARK    7  A    between atoms: C13_21  and  C14_22 
REMARK    8  A    between atoms: C14_22  and  O3_24 
REMARK    9  A    between atoms: O3_24  and  C15_25 
REMARK   10  A    between atoms: C15_25  and  C17_27 
REMARK   11  A    between atoms: C17_27  and  O4_28 
REMARK   12  A    between atoms: O4_28  and  S3_29 
ROOT
HETATM    1  C4  UNL     1      18.856  -6.357  13.235  1.00  0.00     0.065 C 
HETATM    2  C5  UNL     1      18.833  -6.383  11.922  1.00  0.00     0.114 C 
HETATM    3  C6  UNL     1      17.822  -5.712  11.159  1.00  0.00     0.105 C 
HETATM    4  N2  UNL     1      17.018  -5.179  10.527  1.00  0.00    -0.191 NA
ENDROOT
BRANCH   2   5
HETATM    5  C7  UNL     1      19.862  -7.127  11.211  1.00  0.00     0.262 C 
HETATM    6  O1  UNL     1      20.056  -8.332  11.486  1.00  0.00    -0.267 OA
HETATM    7  N3  UNL     1      20.660  -6.512  10.208  1.00  0.00    -0.356 N 
ATOM      8  H3  UNL     1      20.489  -5.528   9.998  1.00  0.00     0.162 HD
BRANCH   7   9
HETATM    9  C8  UNL     1      21.687  -7.184   9.474  1.00  0.00     0.126 C 
BRANCH   9  10
HETATM   10  C9  UNL     1      22.531  -6.253   8.625  1.00  0.00    -0.005 C 
HETATM   11  C10 UNL     1      23.707  -5.714   9.416  1.00  0.00     0.011 C 
HETATM   12  C11 UNL     1      21.623  -5.073   8.260  1.00  0.00     0.011 C 
ENDBRANCH   9  10
ENDBRANCH   7   9
ENDBRANCH   2   5
BRANCH   1  13
HETATM   13  C3  UNL     1      17.777  -5.595  13.914  1.00  0.00     0.077 A 
HETATM   14  N1  UNL     1      16.574  -5.294  13.444  1.00  0.00    -0.353 N 
HETATM   15  C2  UNL     1      15.753  -4.605  14.174  1.00  0.00     0.030 A 
ATOM     16  H1  UNL     1      16.296  -5.604  12.513  1.00  0.00     0.166 HD
HETATM   17  C1  UNL     1      14.357  -4.222  13.713  1.00  0.00     0.070 C 
HETATM   18  C12 UNL     1      16.186  -4.219  15.419  1.00  0.00     0.066 A 
HETATM   19  S1  UNL     1      17.759  -4.877  15.462  1.00  0.00    -0.063 SA
BRANCH  18  20
HETATM   20  S2  UNL     1      15.267  -3.258  16.645  1.00  0.00    -0.111 SA
BRANCH  20  21
HETATM   21  C13 UNL     1      15.271  -4.037  18.258  1.00  0.00     0.191 C 
BRANCH  21  22
HETATM   22  C14 UNL     1      16.584  -4.074  18.921  1.00  0.00     0.268 C 
HETATM   23  O2  UNL     1      17.441  -3.220  18.611  1.00  0.00    -0.264 OA
BRANCH  22  24
HETATM   24  O3  UNL     1      16.962  -5.003  19.892  1.00  0.00    -0.314 OA
BRANCH  24  25
HETATM   25  C15 UNL     1      18.189  -4.830  20.573  1.00  0.00     0.153 C 
HETATM   26  C16 UNL     1      18.956  -6.135  20.473  1.00  0.00     0.042 C 
BRANCH  25  27
HETATM   27  C17 UNL     1      18.045  -4.483  22.014  1.00  0.00     0.222 C 
BRANCH  27  28
HETATM   28  O4  UNL     1      17.633  -3.135  22.074  1.00  0.00    -0.273 OA
BRANCH  28  29
HETATM   29  S3  UNL     1      18.958  -2.110  22.152  1.00  0.00     0.261 S 
HETATM   30  C18 UNL     1      20.379  -2.955  22.836  1.00  0.00     0.194 C 
HETATM   31  O5  UNL     1      19.281  -1.482  20.837  1.00  0.00    -0.199 OA
HETATM   32  O6  UNL     1      18.593  -0.993  23.112  1.00  0.00    -0.199 OA
ENDBRANCH  28  29
ENDBRANCH  27  28
ENDBRANCH  25  27
ENDBRANCH  24  25
ENDBRANCH  22  24
ENDBRANCH  21  22
ENDBRANCH  20  21
ENDBRANCH  18  20
ENDBRANCH   1  13
TORSDOF 12
ENDMDL
MODEL 5
REMARK VINA RESULT: -7.960218241      3.584      5.161
REMARK  12 active torsions:
REMARK  status: ('A' for Active; 'I' for Inactive)
REMARK    1  A    between atoms: C3_5  and  C4_6 
REMARK    2  A    between atoms: C5_7  and  C7_10 
REMARK       I    between atoms: C7_10  and  N3_12 
REMARK    3  A    between atoms: N3_12  and  C8_14 
REMARK    4  A    between atoms: C8_14  and  C9_15 
REMARK    5  A    between atoms: C12_19  and  S2_20 
REMARK    6  A    between atoms: S2_20  and  C13_21 
REMARK    7  A    between atoms: C13_21  and  C14_22 
REMARK    8  A    between atoms: C14_22  and  O3_24 
REMARK    9  A    between atoms: O3_24  and  C15_25 
REMARK   10  A    between atoms: C15_25  and  C17_27 
REMARK   11  A    between atoms: C17_27  and  O4_28 
REMARK   12  A    between atoms: O4_28  and  S3_29 
ROOT
HETATM    1  C4  UNL     1      18.773  -6.373  13.560  1.00  0.00     0.065 C 
HETATM    2  C5  UNL     1      18.638  -6.405  12.254  1.00  0.00     0.114 C 
HETATM    3  C6  UNL     1      17.598  -5.692  11.572  1.00  0.00     0.105 C 
HETATM    4  N2  UNL     1      16.769  -5.127  11.006  1.00  0.00    -0.191 NA
ENDROOT
BRANCH   2   5
HETATM    5  C7  UNL     1      19.569  -7.199  11.466  1.00  0.00     0.262 C 
HETATM    6  O1  UNL     1      19.833  -8.371  11.817  1.00  0.00    -0.267 OA
HETATM    7  N3  UNL     1      20.191  -6.671  10.302  1.00  0.00    -0.356 N 
ATOM      8  H3  UNL     1      19.965  -5.714  10.032  1.00  0.00     0.162 HD
BRANCH   7   9
HETATM    9  C8  UNL     1      21.114  -7.397   9.485  1.00  0.00     0.126 C 
BRANCH   9  10
HETATM   10  C9  UNL     1      21.945  -6.510   8.578  1.00  0.00    -0.005 C 
HETATM   11  C10 UNL     1      23.164  -5.979   9.308  1.00  0.00     0.011 C 
HETATM   12  C11 UNL     1      21.052  -5.318   8.217  1.00  0.00     0.011 C 
ENDBRANCH   9  10
ENDBRANCH   7   9
ENDBRANCH   2   5
BRANCH   1  13
HETATM   13  C3  UNL     1      17.792  -5.558  14.321  1.00  0.00     0.077 A 
HETATM   14  N1  UNL     1      16.581  -5.177  13.937  1.00  0.00    -0.353 N 
HETATM   15  C2  UNL     1      15.855  -4.451  14.730  1.00  0.00     0.030 A 
ATOM     16  H1  UNL     1      16.222  -5.454  13.023  1.00  0.00     0.166 HD
HETATM   17  C1  UNL     1      14.457  -3.977  14.370  1.00  0.00     0.070 C 
HETATM   18  C12 UNL     1      16.394  -4.113  15.947  1.00  0.00     0.066 A 
HETATM   19  S1  UNL     1      17.922  -4.866  15.874  1.00  0.00    -0.063 SA
BRANCH  18  20
HETATM   20  S2  UNL     1      15.620  -3.118  17.245  1.00  0.00    -0.111 SA
BRANCH  20  21
HETATM   21  C13 UNL     1      15.943  -3.770  18.882  1.00  0.00     0.191 C 
BRANCH  21  22
HETATM   22  C14 UNL     1      16.095  -2.751  19.932  1.00  0.00     0.268 C 
HETATM   23  O2  UNL     1      15.575  -1.628  19.763  1.00  0.00    -0.264 OA
BRANCH  22  24
HETATM   24  O3  UNL     1      16.789  -2.936  21.129  1.00  0.00    -0.314 OA
BRANCH  24  25
HETATM   25  C15 UNL     1      18.137  -3.360  21.089  1.00  0.00     0.153 C 
HETATM   26  C16 UNL     1      18.228  -4.665  21.858  1.00  0.00     0.042 C 
BRANCH  25  27
HETATM   27  C17 UNL     1      19.100  -2.396  21.691  1.00  0.00     0.222 C 
BRANCH  27  28
HETATM   28  O4  UNL     1      19.676  -1.670  20.626  1.00  0.00    -0.273 OA
BRANCH  28  29
HETATM   29  S3  UNL     1      21.126  -2.363  20.149  1.00  0.00     0.261 S 
HETATM   30  C18 UNL     1      20.885  -3.449  18.748  1.00  0.00     0.194 C 
HETATM   31  O5  UNL     1      22.189  -1.352  19.875  1.00  0.00    -0.199 OA
HETATM   32  O6  UNL     1      21.603  -3.221  21.306  1.00  0.00    -0.199 OA
ENDBRANCH  28  29
ENDBRANCH  27  28
ENDBRANCH  25  27
ENDBRANCH  24  25
ENDBRANCH  22  24
ENDBRANCH  21  22
ENDBRANCH  20  21
ENDBRANCH  18  20
ENDBRANCH   1  13
TORSDOF 12
ENDMDL
