MODEL 1
REMARK VINA RESULT: -8.338631521      0.000      0.000
REMARK  13 active torsions:
REMARK  status: ('A' for Active; 'I' for Inactive)
REMARK    1  A    between atoms: C2_2  and  C3_3 
REMARK    2  A    between atoms: C2_2  and  C16_21 
REMARK    3  A    between atoms: C3_3  and  C4_4 
REMARK    4  A    between atoms: C7_7  and  C8_8 
REMARK    5  A    between atoms: C8_8  and  O2_10 
REMARK    6  A    between atoms: O2_10  and  C9_11 
REMARK    7  A    between atoms: C11_13  and  S1_14 
REMARK    8  A    between atoms: S1_14  and  S2_15 
REMARK    9  A    between atoms: C14_18  and  O3_19 
REMARK   10  A    between atoms: C16_21  and  O4_22 
REMARK   11  A    between atoms: C16_21  and  O5_24 
REMARK   12  A    between atoms: O5_24  and  C17_25 
REMARK   13  A    between atoms: C17_25  and  C18_26 
REMARK       I    between atoms: C18_26  and  N1_28 
ROOT
HETATM    1  C4  UNL     1      18.033  -3.813  17.047  1.00  0.00     0.041 C 
HETATM    2  C5  UNL     1      18.113  -3.211  15.657  1.00  0.00    -0.022 C 
HETATM    3  C6  UNL     1      17.766  -3.948  14.650  1.00  0.00    -0.016 C 
HETATM    4  C7  UNL     1      17.290  -5.327  14.655  1.00  0.00     0.111 C 
HETATM    5  C13 UNL     1      17.361  -5.984  16.012  1.00  0.00     0.051 C 
HETATM    6  C14 UNL     1      18.403  -5.254  16.814  1.00  0.00     0.130 C 
ENDROOT
BRANCH   1   7
HETATM    7  C3  UNL     1      16.649  -3.530  17.486  1.00  0.00     0.049 C 
BRANCH   7   8
HETATM    8  C2  UNL     1      16.285  -3.791  18.885  1.00  0.00    -0.035 C 
HETATM    9  C1  UNL     1      15.717  -4.910  19.324  1.00  0.00     0.019 C 
BRANCH   8  10
HETATM   10  C16 UNL     1      16.528  -2.729  19.906  1.00  0.00     0.287 C 
BRANCH  10  11
HETATM   11  O4  UNL     1      15.478  -1.775  19.805  1.00  0.00    -0.367 OA
ATOM     12  H4  UNL     1      14.676  -2.189  20.102  1.00  0.00     0.213 HD
ENDBRANCH  10  11
BRANCH  10  13
HETATM   13  O5  UNL     1      16.458  -3.218  21.214  1.00  0.00    -0.348 OA
BRANCH  13  14
HETATM   14  C17 UNL     1      17.628  -3.531  21.808  1.00  0.00     0.274 C 
BRANCH  14  15
HETATM   15  C18 UNL     1      18.760  -2.597  21.650  1.00  0.00     0.253 C 
HETATM   16  O6  UNL     1      18.776  -1.393  21.963  1.00  0.00    -0.270 OA
HETATM   17  N1  UNL     1      19.985  -3.113  21.077  1.00  0.00    -0.239 N 
HETATM   18  C19 UNL     1      20.441  -4.378  20.579  1.00  0.00     0.320 A 
HETATM   19  C20 UNL     1      21.271  -2.613  20.749  1.00  0.00     0.373 A 
HETATM   20  O7  UNL     1      21.675  -3.808  20.173  1.00  0.00    -0.283 OA
HETATM   21  O8  UNL     1      21.809  -1.491  20.932  1.00  0.00    -0.238 OA
ENDBRANCH  14  15
ENDBRANCH  13  14
ENDBRANCH  10  13
ENDBRANCH   8  10
ENDBRANCH   7   8
ENDBRANCH   1   7
BRANCH   6  22
HETATM   22  O3  UNL     1      18.845  -5.948  17.900  1.00  0.00    -0.390 OA
HETATM   23  C15 UNL     1      19.984  -6.677  17.589  1.00  0.00     0.202 C 
ENDBRANCH   6  22
BRANCH   4  24
HETATM   24  C8  UNL     1      18.110  -6.131  13.725  1.00  0.00     0.271 C 
HETATM   25  O1  UNL     1      19.235  -6.518  14.117  1.00  0.00    -0.264 OA
BRANCH  24  26
HETATM   26  O2  UNL     1      17.705  -6.473  12.458  1.00  0.00    -0.283 OA
BRANCH  26  27
HETATM   27  C9  UNL     1      18.023  -5.791  11.307  1.00  0.00     0.059 C 
HETATM   28  C10 UNL     1      19.372  -5.939  10.725  1.00  0.00     0.077 C 
HETATM   29  C11 UNL     1      17.127  -5.018  10.737  1.00  0.00     0.089 C 
BRANCH  29  30
HETATM   30  S1  UNL     1      15.505  -4.838  11.435  1.00  0.00    -0.067 SA
BRANCH  30  31
HETATM   31  S2  UNL     1      14.438  -3.311  10.414  1.00  0.00    -0.098 SA
HETATM   32  C12 UNL     1      14.428  -3.545   8.637  1.00  0.00     0.103 C 
ENDBRANCH  30  31
ENDBRANCH  29  30
ENDBRANCH  26  27
ENDBRANCH  24  26
ENDBRANCH   4  24
TORSDOF 13
ENDMDL
MODEL 2
REMARK VINA RESULT: -8.306254345      1.338      1.685
REMARK  13 active torsions:
REMARK  status: ('A' for Active; 'I' for Inactive)
REMARK    1  A    between atoms: C2_2  and  C3_3 
REMARK    2  A    between atoms: C2_2  and  C16_21 
REMARK    3  A    between atoms: C3_3  and  C4_4 
REMARK    4  A    between atoms: C7_7  and  C8_8 
REMARK    5  A    between atoms: C8_8  and  O2_10 
REMARK    6  A    between atoms: O2_10  and  C9_11 
REMARK    7  A    between atoms: C11_13  and  S1_14 
REMARK    8  A    between atoms: S1_14  and  S2_15 
REMARK    9  A    between atoms: C14_18  and  O3_19 
REMARK   10  A    between atoms: C16_21  and  O4_22 
REMARK   11  A    between atoms: C16_21  and  O5_24 
REMARK   12  A    between atoms: O5_24  and  C17_25 
REMARK   13  A    between atoms: C17_25  and  C18_26 
REMARK       I    between atoms: C18_26  and  N1_28 
ROOT
HETATM    1  C4  UNL     1      18.074  -3.834  17.073  1.00  0.00     0.041 C 
HETATM    2  C5  UNL     1      18.096  -3.259  15.670  1.00  0.00    -0.022 C 
HETATM    3  C6  UNL     1      17.754  -4.029  14.687  1.00  0.00    -0.016 C 
HETATM    4  C7  UNL     1      17.333  -5.426  14.732  1.00  0.00     0.111 C 
HETATM    5  C13 UNL     1      17.464  -6.051  16.099  1.00  0.00     0.051 C 
HETATM    6  C14 UNL     1      18.495  -5.264  16.859  1.00  0.00     0.130 C 
ENDROOT
BRANCH   1   7
HETATM    7  C3  UNL     1      16.692  -3.597  17.541  1.00  0.00     0.049 C 
BRANCH   7   8
HETATM    8  C2  UNL     1      16.377  -3.823  18.958  1.00  0.00    -0.035 C 
HETATM    9  C1  UNL     1      15.826  -4.931  19.444  1.00  0.00     0.019 C 
BRANCH   8  10
HETATM   10  C16 UNL     1      16.656  -2.737  19.945  1.00  0.00     0.287 C 
BRANCH  10  11
HETATM   11  O4  UNL     1      15.516  -1.888  19.995  1.00  0.00    -0.367 OA
ATOM     12  H4  UNL     1      14.747  -2.435  20.101  1.00  0.00     0.213 HD
ENDBRANCH  10  11
BRANCH  10  13
HETATM   13  O5  UNL     1      16.812  -3.223  21.246  1.00  0.00    -0.348 OA
BRANCH  13  14
HETATM   14  C17 UNL     1      18.061  -3.205  21.755  1.00  0.00     0.274 C 
BRANCH  14  15
HETATM   15  C18 UNL     1      18.677  -4.492  22.134  1.00  0.00     0.253 C 
HETATM   16  O6  UNL     1      18.103  -5.592  22.216  1.00  0.00    -0.270 OA
HETATM   17  N1  UNL     1      20.090  -4.497  22.445  1.00  0.00    -0.239 N 
HETATM   18  C19 UNL     1      21.143  -3.524  22.493  1.00  0.00     0.320 A 
HETATM   19  C20 UNL     1      21.065  -5.449  22.840  1.00  0.00     0.373 A 
HETATM   20  O7  UNL     1      22.056  -4.490  22.987  1.00  0.00    -0.283 OA
HETATM   21  O8  UNL     1      21.010  -6.697  22.990  1.00  0.00    -0.238 OA
ENDBRANCH  14  15
ENDBRANCH  13  14
ENDBRANCH  10  13
ENDBRANCH   8  10
ENDBRANCH   7   8
ENDBRANCH   1   7
BRANCH   6  22
HETATM   22  O3  UNL     1      18.991  -5.917  17.948  1.00  0.00    -0.390 OA
HETATM   23  C15 UNL     1      19.857  -5.100  18.660  1.00  0.00     0.202 C 
ENDBRANCH   6  22
BRANCH   4  24
HETATM   24  C8  UNL     1      18.162  -6.216  13.797  1.00  0.00     0.271 C 
HETATM   25  O1  UNL     1      19.288  -6.599  14.189  1.00  0.00    -0.264 OA
BRANCH  24  26
HETATM   26  O2  UNL     1      17.763  -6.548  12.525  1.00  0.00    -0.283 OA
BRANCH  26  27
HETATM   27  C9  UNL     1      18.090  -5.859  11.381  1.00  0.00     0.059 C 
HETATM   28  C10 UNL     1      19.443  -6.001  10.809  1.00  0.00     0.077 C 
HETATM   29  C11 UNL     1      17.196  -5.085  10.808  1.00  0.00     0.089 C 
BRANCH  29  30
HETATM   30  S1  UNL     1      15.568  -4.914  11.492  1.00  0.00    -0.067 SA
BRANCH  30  31
HETATM   31  S2  UNL     1      14.498  -3.398  10.457  1.00  0.00    -0.098 SA
HETATM   32  C12 UNL     1      14.474  -3.659   8.684  1.00  0.00     0.103 C 
ENDBRANCH  30  31
ENDBRANCH  29  30
ENDBRANCH  26  27
ENDBRANCH  24  26
ENDBRANCH   4  24
TORSDOF 13
ENDMDL
MODEL 3
REMARK VINA RESULT: -8.300309189      4.021      9.033
REMARK  13 active torsions:
REMARK  status: ('A' for Active; 'I' for Inactive)
REMARK    1  A    between atoms: C2_2  and  C3_3 
REMARK    2  A    between atoms: C2_2  and  C16_21 
REMARK    3  A    between atoms: C3_3  and  C4_4 
REMARK    4  A    between atoms: C7_7  and  C8_8 
REMARK    5  A    between atoms: C8_8  and  O2_10 
REMARK    6  A    between atoms: O2_10  and  C9_11 
REMARK    7  A    between atoms: C11_13  and  S1_14 
REMARK    8  A    between atoms: S1_14  and  S2_15 
REMARK    9  A    between atoms: C14_18  and  O3_19 
REMARK   10  A    between atoms: C16_21  and  O4_22 
REMARK   11  A    between atoms: C16_21  and  O5_24 
REMARK   12  A    between atoms: O5_24  and  C17_25 
REMARK   13  A    between atoms: C17_25  and  C18_26 
REMARK       I    between atoms: C18_26  and  N1_28 
ROOT
HETATM    1  C4  UNL     1      18.044  -6.290  15.398  1.00  0.00     0.041 C 
HETATM    2  C5  UNL     1      16.709  -5.630  15.107  1.00  0.00    -0.022 C 
HETATM    3  C6  UNL     1      16.524  -4.416  15.518  1.00  0.00    -0.016 C 
HETATM    4  C7  UNL     1      17.448  -3.554  16.248  1.00  0.00     0.111 C 
HETATM    5  C13 UNL     1      18.712  -4.255  16.681  1.00  0.00     0.051 C 
HETATM    6  C14 UNL     1      18.414  -5.727  16.745  1.00  0.00     0.130 C 
ENDROOT
BRANCH   1   7
HETATM    7  C3  UNL     1      18.893  -5.912  14.248  1.00  0.00     0.049 C 
BRANCH   7   8
HETATM    8  C2  UNL     1      19.457  -6.977  13.406  1.00  0.00    -0.035 C 
HETATM    9  C1  UNL     1      20.053  -8.071  13.868  1.00  0.00     0.019 C 
BRANCH   8  10
HETATM   10  C16 UNL     1      19.399  -6.832  11.921  1.00  0.00     0.287 C 
BRANCH  10  11
HETATM   11  O4  UNL     1      18.679  -7.942  11.400  1.00  0.00    -0.367 OA
ATOM     12  H4  UNL     1      19.302  -8.528  10.987  1.00  0.00     0.213 HD
ENDBRANCH  10  11
BRANCH  10  13
HETATM   13  O5  UNL     1      18.678  -5.703  11.521  1.00  0.00    -0.348 OA
BRANCH  13  14
HETATM   14  C17 UNL     1      17.346  -5.856  11.372  1.00  0.00     0.274 C 
BRANCH  14  15
HETATM   15  C18 UNL     1      16.628  -4.904  10.502  1.00  0.00     0.253 C 
HETATM   16  O6  UNL     1      17.049  -4.408   9.441  1.00  0.00    -0.270 OA
HETATM   17  N1  UNL     1      15.299  -4.494  10.901  1.00  0.00    -0.239 N 
HETATM   18  C19 UNL     1      14.415  -4.776  11.995  1.00  0.00     0.320 A 
HETATM   19  C20 UNL     1      14.280  -3.641  10.406  1.00  0.00     0.373 A 
HETATM   20  O7  UNL     1      13.470  -3.833  11.515  1.00  0.00    -0.283 OA
HETATM   21  O8  UNL     1      14.185  -2.972   9.344  1.00  0.00    -0.238 OA
ENDBRANCH  14  15
ENDBRANCH  13  14
ENDBRANCH  10  13
ENDBRANCH   8  10
ENDBRANCH   7   8
ENDBRANCH   1   7
BRANCH   6  22
HETATM   22  O3  UNL     1      19.321  -6.440  17.469  1.00  0.00    -0.390 OA
HETATM   23  C15 UNL     1      19.966  -5.627  18.390  1.00  0.00     0.202 C 
ENDBRANCH   6  22
BRANCH   4  24
HETATM   24  C8  UNL     1      16.782  -3.042  17.463  1.00  0.00     0.271 C 
HETATM   25  O1  UNL     1      15.633  -2.556  17.344  1.00  0.00    -0.264 OA
BRANCH  24  26
HETATM   26  O2  UNL     1      17.355  -3.068  18.712  1.00  0.00    -0.283 OA
BRANCH  26  27
HETATM   27  C9  UNL     1      16.967  -3.881  19.751  1.00  0.00     0.059 C 
HETATM   28  C10 UNL     1      16.010  -4.975  19.499  1.00  0.00     0.077 C 
HETATM   29  C11 UNL     1      17.452  -3.676  20.955  1.00  0.00     0.089 C 
BRANCH  29  30
HETATM   30  S1  UNL     1      18.603  -2.361  21.261  1.00  0.00    -0.067 SA
BRANCH  30  31
HETATM   31  S2  UNL     1      20.588  -3.119  21.276  1.00  0.00    -0.098 SA
HETATM   32  C12 UNL     1      21.171  -3.495  22.929  1.00  0.00     0.103 C 
ENDBRANCH  30  31
ENDBRANCH  29  30
ENDBRANCH  26  27
ENDBRANCH  24  26
ENDBRANCH   4  24
TORSDOF 13
ENDMDL
MODEL 4
REMARK VINA RESULT: -8.255413628      2.004      2.747
REMARK  13 active torsions:
REMARK  status: ('A' for Active; 'I' for Inactive)
REMARK    1  A    between atoms: C2_2  and  C3_3 
REMARK    2  A    between atoms: C2_2  and  C16_21 
REMARK    3  A    between atoms: C3_3  and  C4_4 
REMARK    4  A    between atoms: C7_7  and  C8_8 
REMARK    5  A    between atoms: C8_8  and  O2_10 
REMARK    6  A    between atoms: O2_10  and  C9_11 
REMARK    7  A    between atoms: C11_13  and  S1_14 
REMARK    8  A    between atoms: S1_14  and  S2_15 
REMARK    9  A    between atoms: C14_18  and  O3_19 
REMARK   10  A    between atoms: C16_21  and  O4_22 
REMARK   11  A    between atoms: C16_21  and  O5_24 
REMARK   12  A    between atoms: O5_24  and  C17_25 
REMARK   13  A    between atoms: C17_25  and  C18_26 
REMARK       I    between atoms: C18_26  and  N1_28 
ROOT
HETATM    1  C4  UNL     1      17.873  -3.888  16.525  1.00  0.00     0.041 C 
HETATM    2  C5  UNL     1      17.995  -3.104  15.233  1.00  0.00    -0.022 C 
HETATM    3  C6  UNL     1      17.540  -3.640  14.146  1.00  0.00    -0.016 C 
HETATM    4  C7  UNL     1      16.899  -4.940  13.973  1.00  0.00     0.111 C 
HETATM    5  C13 UNL     1      16.920  -5.791  15.219  1.00  0.00     0.051 C 
HETATM    6  C14 UNL     1      18.059  -5.314  16.075  1.00  0.00     0.130 C 
ENDROOT
BRANCH   1   7
HETATM    7  C3  UNL     1      16.543  -3.512  17.053  1.00  0.00     0.049 C 
BRANCH   7   8
HETATM    8  C2  UNL     1      16.194  -3.897  18.427  1.00  0.00    -0.035 C 
HETATM    9  C1  UNL     1      15.573  -5.023  18.763  1.00  0.00     0.019 C 
BRANCH   8  10
HETATM   10  C16 UNL     1      16.519  -2.962  19.546  1.00  0.00     0.287 C 
BRANCH  10  11
HETATM   11  O4  UNL     1      15.530  -1.940  19.563  1.00  0.00    -0.367 OA
ATOM     12  H4  UNL     1      14.793  -2.254  20.075  1.00  0.00     0.213 HD
ENDBRANCH  10  11
BRANCH  10  13
HETATM   13  O5  UNL     1      16.436  -3.578  20.798  1.00  0.00    -0.348 OA
BRANCH  13  14
HETATM   14  C17 UNL     1      17.488  -3.412  21.626  1.00  0.00     0.274 C 
BRANCH  14  15
HETATM   15  C18 UNL     1      18.585  -2.527  21.188  1.00  0.00     0.253 C 
HETATM   16  O6  UNL     1      18.511  -1.304  20.976  1.00  0.00    -0.270 OA
HETATM   17  N1  UNL     1      19.889  -3.121  20.979  1.00  0.00    -0.239 N 
HETATM   18  C19 UNL     1      20.456  -4.434  21.086  1.00  0.00     0.320 A 
HETATM   19  C20 UNL     1      21.178  -2.686  20.579  1.00  0.00     0.373 A 
HETATM   20  O7  UNL     1      21.699  -3.972  20.582  1.00  0.00    -0.283 OA
HETATM   21  O8  UNL     1      21.640  -1.544  20.325  1.00  0.00    -0.238 OA
ENDBRANCH  14  15
ENDBRANCH  13  14
ENDBRANCH  10  13
ENDBRANCH   8  10
ENDBRANCH   7   8
ENDBRANCH   1   7
BRANCH   6  22
HETATM   22  O3  UNL     1      18.437  -6.205  17.034  1.00  0.00    -0.390 OA
HETATM   23  C15 UNL     1      19.517  -5.721  17.758  1.00  0.00     0.202 C 
ENDBRANCH   6  22
BRANCH   4  24
HETATM   24  C8  UNL     1      17.596  -5.690  12.908  1.00  0.00     0.271 C 
HETATM   25  O1  UNL     1      16.898  -6.293  12.060  1.00  0.00    -0.264 OA
BRANCH  24  26
HETATM   26  O2  UNL     1      18.964  -5.763  12.800  1.00  0.00    -0.283 OA
BRANCH  26  27
HETATM   27  C9  UNL     1      19.697  -6.922  12.709  1.00  0.00     0.059 C 
HETATM   28  C10 UNL     1      19.777  -7.825  13.874  1.00  0.00     0.077 C 
HETATM   29  C11 UNL     1      20.316  -7.216  11.588  1.00  0.00     0.089 C 
BRANCH  29  30
HETATM   30  S1  UNL     1      20.221  -6.133  10.185  1.00  0.00    -0.067 SA
BRANCH  30  31
HETATM   31  S2  UNL     1      21.852  -6.495   8.873  1.00  0.00    -0.098 SA
HETATM   32  C12 UNL     1      23.316  -5.561   9.317  1.00  0.00     0.103 C 
ENDBRANCH  30  31
ENDBRANCH  29  30
ENDBRANCH  26  27
ENDBRANCH  24  26
ENDBRANCH   4  24
TORSDOF 13
ENDMDL
MODEL 5
REMARK VINA RESULT: -8.243493068      4.133      9.145
REMARK  13 active torsions:
REMARK  status: ('A' for Active; 'I' for Inactive)
REMARK    1  A    between atoms: C2_2  and  C3_3 
REMARK    2  A    between atoms: C2_2  and  C16_21 
REMARK    3  A    between atoms: C3_3  and  C4_4 
REMARK    4  A    between atoms: C7_7  and  C8_8 
REMARK    5  A    between atoms: C8_8  and  O2_10 
REMARK    6  A    between atoms: O2_10  and  C9_11 
REMARK    7  A    between atoms: C11_13  and  S1_14 
REMARK    8  A    between atoms: S1_14  and  S2_15 
REMARK    9  A    between atoms: C14_18  and  O3_19 
REMARK   10  A    between atoms: C16_21  and  O4_22 
REMARK   11  A    between atoms: C16_21  and  O5_24 
REMARK   12  A    between atoms: O5_24  and  C17_25 
REMARK   13  A    between atoms: C17_25  and  C18_26 
REMARK       I    between atoms: C18_26  and  N1_28 
ROOT
HETATM    1  C4  UNL     1      17.952  -4.462  15.945  1.00  0.00     0.041 C 
HETATM    2  C5  UNL     1      19.131  -4.456  16.899  1.00  0.00    -0.022 C 
HETATM    3  C6  UNL     1      18.900  -4.646  18.158  1.00  0.00    -0.016 C 
HETATM    4  C7  UNL     1      17.621  -4.876  18.823  1.00  0.00     0.111 C 
HETATM    5  C13 UNL     1      16.431  -4.722  17.907  1.00  0.00     0.051 C 
HETATM    6  C14 UNL     1      16.851  -3.842  16.764  1.00  0.00     0.130 C 
ENDROOT
BRANCH   1   7
HETATM    7  C3  UNL     1      17.799  -5.883  15.566  1.00  0.00     0.049 C 
BRANCH   7   8
HETATM    8  C2  UNL     1      18.782  -6.481  14.652  1.00  0.00    -0.035 C 
HETATM    9  C1  UNL     1      19.715  -7.357  15.011  1.00  0.00     0.019 C 
BRANCH   8  10
HETATM   10  C16 UNL     1      18.779  -6.069  13.217  1.00  0.00     0.287 C 
BRANCH  10  11
HETATM   11  O4  UNL     1      19.089  -7.214  12.432  1.00  0.00    -0.367 OA
ATOM     12  H4  UNL     1      19.121  -6.946  11.521  1.00  0.00     0.213 HD
ENDBRANCH  10  11
BRANCH  10  13
HETATM   13  O5  UNL     1      17.517  -5.654  12.782  1.00  0.00    -0.348 OA
BRANCH  13  14
HETATM   14  C17 UNL     1      17.149  -6.033  11.541  1.00  0.00     0.274 C 
BRANCH  14  15
HETATM   15  C18 UNL     1      16.729  -4.987  10.588  1.00  0.00     0.253 C 
HETATM   16  O6  UNL     1      17.394  -4.543   9.635  1.00  0.00    -0.270 OA
HETATM   17  N1  UNL     1      15.416  -4.404  10.761  1.00  0.00    -0.239 N 
HETATM   18  C19 UNL     1      14.321  -4.573  11.673  1.00  0.00     0.320 A 
HETATM   19  C20 UNL     1      14.623  -3.417  10.121  1.00  0.00     0.373 A 
HETATM   20  O7  UNL     1      13.610  -3.507  11.065  1.00  0.00    -0.283 OA
HETATM   21  O8  UNL     1      14.807  -2.734   9.081  1.00  0.00    -0.238 OA
ENDBRANCH  14  15
ENDBRANCH  13  14
ENDBRANCH  10  13
ENDBRANCH   8  10
ENDBRANCH   7   8
ENDBRANCH   1   7
BRANCH   6  22
HETATM   22  O3  UNL     1      15.806  -3.311  16.068  1.00  0.00    -0.390 OA
HETATM   23  C15 UNL     1      14.795  -2.907  16.928  1.00  0.00     0.202 C 
ENDBRANCH   6  22
BRANCH   4  24
HETATM   24  C8  UNL     1      17.464  -3.908  19.928  1.00  0.00     0.271 C 
HETATM   25  O1  UNL     1      16.319  -3.451  20.151  1.00  0.00    -0.264 OA
BRANCH  24  26
HETATM   26  O2  UNL     1      18.504  -3.482  20.718  1.00  0.00    -0.283 OA
BRANCH  26  27
HETATM   27  C9  UNL     1      19.129  -4.232  21.687  1.00  0.00     0.059 C 
HETATM   28  C10 UNL     1      18.445  -5.416  22.242  1.00  0.00     0.077 C 
HETATM   29  C11 UNL     1      20.326  -3.889  22.106  1.00  0.00     0.089 C 
BRANCH  29  30
HETATM   30  S1  UNL     1      21.150  -2.466  21.440  1.00  0.00    -0.067 SA
BRANCH  30  31
HETATM   31  S2  UNL     1      21.915  -2.906  19.507  1.00  0.00    -0.098 SA
HETATM   32  C12 UNL     1      22.755  -1.509  18.762  1.00  0.00     0.103 C 
ENDBRANCH  30  31
ENDBRANCH  29  30
ENDBRANCH  26  27
ENDBRANCH  24  26
ENDBRANCH   4  24
TORSDOF 13
ENDMDL
