MODEL 1
REMARK VINA RESULT: -7.209518377      0.000      0.000
REMARK  14 active torsions:
REMARK  status: ('A' for Active; 'I' for Inactive)
REMARK    1  A    between atoms: S1_2  and  C2_3 
REMARK    2  A    between atoms: C2_3  and  C3_4 
REMARK    3  A    between atoms: C3_4  and  O1_5 
REMARK    4  A    between atoms: C3_4  and  C4_7 
REMARK    5  A    between atoms: C4_7  and  O2_8 
REMARK    6  A    between atoms: O2_8  and  C5_9 
REMARK    7  A    between atoms: C5_9  and  C6_10 
REMARK    8  A    between atoms: C6_10  and  C7_11 
REMARK    9  A    between atoms: C7_11  and  S2_12 
REMARK   10  A    between atoms: S2_12  and  C8_13 
REMARK   11  A    between atoms: C10_17  and  C11_18 
REMARK   12  A    between atoms: C11_18  and  O5_19 
REMARK   13  A    between atoms: O5_19  and  C12_20 
REMARK   14  A    between atoms: C12_20  and  C13_22 
ROOT
HETATM    1  C6  UNL     1      18.247  -4.024  16.890  1.00  0.00     0.120 C 
HETATM    2  O4  UNL     1      17.605  -3.186  15.927  1.00  0.00    -0.364 OA
HETATM    3  C10 UNL     1      16.580  -3.931  15.460  1.00  0.00     0.178 C 
HETATM    4  C17 UNL     1      16.998  -5.393  15.489  1.00  0.00     0.188 C 
HETATM    5  O7  UNL     1      17.267  -5.892  14.225  1.00  0.00    -0.345 OA
HETATM    6  C18 UNL     1      18.638  -6.130  14.159  1.00  0.00     0.158 C 
HETATM    7  C19 UNL     1      18.879  -7.483  14.752  1.00  0.00     0.078 C 
HETATM    8  C20 UNL     1      19.183  -6.046  12.767  1.00  0.00     0.078 C 
HETATM    9  O8  UNL     1      19.185  -5.097  14.939  1.00  0.00    -0.345 OA
HETATM   10  C21 UNL     1      18.422  -5.255  16.101  1.00  0.00     0.194 C 
ENDROOT
BRANCH   1  11
HETATM   11  C5  UNL     1      17.264  -4.213  18.030  1.00  0.00     0.209 C 
BRANCH  11  12
HETATM   12  O2  UNL     1      17.049  -3.002  18.706  1.00  0.00    -0.386 OA
BRANCH  12  13
HETATM   13  C4  UNL     1      17.144  -3.328  20.068  1.00  0.00     0.200 C 
BRANCH  13  14
HETATM   14  C3  UNL     1      18.349  -2.740  20.721  1.00  0.00     0.151 C 
BRANCH  14  15
HETATM   15  C2  UNL     1      18.809  -3.508  21.926  1.00  0.00     0.107 C 
BRANCH  15  16
HETATM   16  S1  UNL     1      20.477  -3.017  22.441  1.00  0.00    -0.171 SA
HETATM   17  C1  UNL     1      21.586  -4.453  22.484  1.00  0.00     0.089 C 
ENDBRANCH  15  16
ENDBRANCH  14  15
BRANCH  14  18
HETATM   18  O1  UNL     1      18.182  -1.390  20.984  1.00  0.00    -0.393 OA
ATOM     19  H1  UNL     1      17.408  -1.030  20.567  1.00  0.00     0.210 HD
ENDBRANCH  14  18
ENDBRANCH  13  14
ENDBRANCH  12  13
ENDBRANCH  11  12
ENDBRANCH   1  11
BRANCH   1  20
HETATM   20  C7  UNL     1      19.507  -3.381  17.346  1.00  0.00     0.125 C 
BRANCH  20  21
HETATM   21  S2  UNL     1      20.580  -4.392  18.305  1.00  0.00    -0.090 SA
BRANCH  21  22
HETATM   22  C8  UNL     1      22.126  -3.745  18.819  1.00  0.00     0.182 C 
HETATM   23  C9  UNL     1      22.275  -2.250  19.124  1.00  0.00     0.104 C 
HETATM   24  O3  UNL     1      23.107  -4.453  18.941  1.00  0.00    -0.286 OA
ENDBRANCH  21  22
ENDBRANCH  20  21
ENDBRANCH   1  20
BRANCH   3  25
HETATM   25  C11 UNL     1      16.111  -3.657  14.058  1.00  0.00     0.213 C 
BRANCH  25  26
HETATM   26  O5  UNL     1      14.795  -3.880  13.760  1.00  0.00    -0.316 OA
BRANCH  26  27
HETATM   27  C12 UNL     1      14.191  -4.526  12.727  1.00  0.00     0.283 C 
HETATM   28  O6  UNL     1      13.900  -5.737  12.907  1.00  0.00    -0.260 OA
BRANCH  27  29
HETATM   29  C13 UNL     1      13.866  -3.908  11.443  1.00  0.00     0.084 C 
HETATM   30  C14 UNL     1      14.683  -3.916  10.420  1.00  0.00    -0.082 C 
HETATM   31  C15 UNL     1      16.006  -4.562  10.512  1.00  0.00     0.043 C 
HETATM   32  C16 UNL     1      14.291  -3.270   9.144  1.00  0.00     0.043 C 
ENDBRANCH  27  29
ENDBRANCH  26  27
ENDBRANCH  25  26
ENDBRANCH   3  25
TORSDOF 14
ENDMDL
MODEL 2
REMARK VINA RESULT: -7.049976992      1.352      1.546
REMARK  14 active torsions:
REMARK  status: ('A' for Active; 'I' for Inactive)
REMARK    1  A    between atoms: S1_2  and  C2_3 
REMARK    2  A    between atoms: C2_3  and  C3_4 
REMARK    3  A    between atoms: C3_4  and  O1_5 
REMARK    4  A    between atoms: C3_4  and  C4_7 
REMARK    5  A    between atoms: C4_7  and  O2_8 
REMARK    6  A    between atoms: O2_8  and  C5_9 
REMARK    7  A    between atoms: C5_9  and  C6_10 
REMARK    8  A    between atoms: C6_10  and  C7_11 
REMARK    9  A    between atoms: C7_11  and  S2_12 
REMARK   10  A    between atoms: S2_12  and  C8_13 
REMARK   11  A    between atoms: C10_17  and  C11_18 
REMARK   12  A    between atoms: C11_18  and  O5_19 
REMARK   13  A    between atoms: O5_19  and  C12_20 
REMARK   14  A    between atoms: C12_20  and  C13_22 
ROOT
HETATM    1  C6  UNL     1      18.163  -4.136  17.012  1.00  0.00     0.120 C 
HETATM    2  O4  UNL     1      17.519  -3.279  16.068  1.00  0.00    -0.364 OA
HETATM    3  C10 UNL     1      16.522  -4.032  15.554  1.00  0.00     0.178 C 
HETATM    4  C17 UNL     1      16.976  -5.483  15.539  1.00  0.00     0.188 C 
HETATM    5  O7  UNL     1      17.281  -5.929  14.263  1.00  0.00    -0.345 OA
HETATM    6  C18 UNL     1      18.658  -6.131  14.216  1.00  0.00     0.158 C 
HETATM    7  C19 UNL     1      18.922  -7.499  14.765  1.00  0.00     0.078 C 
HETATM    8  C20 UNL     1      19.227  -5.984  12.839  1.00  0.00     0.078 C 
HETATM    9  O8  UNL     1      19.164  -5.115  15.043  1.00  0.00    -0.345 OA
HETATM   10  C21 UNL     1      18.383  -5.333  16.183  1.00  0.00     0.194 C 
ENDROOT
BRANCH   1  11
HETATM   11  C5  UNL     1      17.163  -4.390  18.125  1.00  0.00     0.209 C 
BRANCH  11  12
HETATM   12  O2  UNL     1      17.082  -3.282  18.982  1.00  0.00    -0.386 OA
BRANCH  12  13
HETATM   13  C4  UNL     1      16.574  -3.794  20.186  1.00  0.00     0.200 C 
BRANCH  13  14
HETATM   14  C3  UNL     1      17.324  -3.314  21.382  1.00  0.00     0.151 C 
BRANCH  14  15
HETATM   15  C2  UNL     1      18.483  -2.423  21.041  1.00  0.00     0.107 C 
BRANCH  15  16
HETATM   16  S1  UNL     1      19.756  -2.451  22.332  1.00  0.00    -0.171 SA
HETATM   17  C1  UNL     1      21.372  -2.893  21.634  1.00  0.00     0.089 C 
ENDBRANCH  15  16
ENDBRANCH  14  15
BRANCH  14  18
HETATM   18  O1  UNL     1      17.686  -4.360  22.215  1.00  0.00    -0.393 OA
ATOM     19  H1  UNL     1      17.105  -5.107  22.134  1.00  0.00     0.210 HD
ENDBRANCH  14  18
ENDBRANCH  13  14
ENDBRANCH  12  13
ENDBRANCH  11  12
ENDBRANCH   1  11
BRANCH   1  20
HETATM   20  C7  UNL     1      19.398  -3.480  17.516  1.00  0.00     0.125 C 
BRANCH  20  21
HETATM   21  S2  UNL     1      20.608  -4.552  18.207  1.00  0.00    -0.090 SA
BRANCH  21  22
HETATM   22  C8  UNL     1      20.088  -5.868  19.241  1.00  0.00     0.182 C 
HETATM   23  C9  UNL     1      20.210  -7.321  18.764  1.00  0.00     0.104 C 
HETATM   24  O3  UNL     1      19.620  -5.668  20.345  1.00  0.00    -0.286 OA
ENDBRANCH  21  22
ENDBRANCH  20  21
ENDBRANCH   1  20
BRANCH   3  25
HETATM   25  C11 UNL     1      16.073  -3.719  14.153  1.00  0.00     0.213 C 
BRANCH  25  26
HETATM   26  O5  UNL     1      14.761  -3.931  13.830  1.00  0.00    -0.316 OA
BRANCH  26  27
HETATM   27  C12 UNL     1      14.171  -4.557  12.778  1.00  0.00     0.283 C 
HETATM   28  O6  UNL     1      13.892  -5.776  12.925  1.00  0.00    -0.260 OA
BRANCH  27  29
HETATM   29  C13 UNL     1      13.847  -3.912  11.507  1.00  0.00     0.084 C 
HETATM   30  C14 UNL     1      14.657  -3.913  10.479  1.00  0.00    -0.082 C 
HETATM   31  C15 UNL     1      15.970  -4.583  10.549  1.00  0.00     0.043 C 
HETATM   32  C16 UNL     1      14.267  -3.238   9.217  1.00  0.00     0.043 C 
ENDBRANCH  27  29
ENDBRANCH  26  27
ENDBRANCH  25  26
ENDBRANCH   3  25
TORSDOF 14
ENDMDL
MODEL 3
REMARK VINA RESULT: -7.007394247      2.737      8.809
REMARK  14 active torsions:
REMARK  status: ('A' for Active; 'I' for Inactive)
REMARK    1  A    between atoms: S1_2  and  C2_3 
REMARK    2  A    between atoms: C2_3  and  C3_4 
REMARK    3  A    between atoms: C3_4  and  O1_5 
REMARK    4  A    between atoms: C3_4  and  C4_7 
REMARK    5  A    between atoms: C4_7  and  O2_8 
REMARK    6  A    between atoms: O2_8  and  C5_9 
REMARK    7  A    between atoms: C5_9  and  C6_10 
REMARK    8  A    between atoms: C6_10  and  C7_11 
REMARK    9  A    between atoms: C7_11  and  S2_12 
REMARK   10  A    between atoms: S2_12  and  C8_13 
REMARK   11  A    between atoms: C10_17  and  C11_18 
REMARK   12  A    between atoms: C11_18  and  O5_19 
REMARK   13  A    between atoms: O5_19  and  C12_20 
REMARK   14  A    between atoms: C12_20  and  C13_22 
ROOT
HETATM    1  C6  UNL     1      17.973  -4.683  15.965  1.00  0.00     0.120 C 
HETATM    2  O4  UNL     1      19.275  -4.277  16.390  1.00  0.00    -0.364 OA
HETATM    3  C10 UNL     1      19.614  -5.173  17.342  1.00  0.00     0.178 C 
HETATM    4  C17 UNL     1      18.348  -5.613  18.059  1.00  0.00     0.188 C 
HETATM    5  O7  UNL     1      18.244  -5.071  19.330  1.00  0.00    -0.345 OA
HETATM    6  C18 UNL     1      17.188  -4.162  19.305  1.00  0.00     0.158 C 
HETATM    7  C19 UNL     1      15.930  -4.943  19.527  1.00  0.00     0.078 C 
HETATM    8  C20 UNL     1      17.330  -3.068  20.316  1.00  0.00     0.078 C 
HETATM    9  O8  UNL     1      17.259  -3.617  18.012  1.00  0.00    -0.345 OA
HETATM   10  C21 UNL     1      17.289  -4.799  17.263  1.00  0.00     0.194 C 
ENDROOT
BRANCH   1  11
HETATM   11  C5  UNL     1      18.136  -6.030  15.284  1.00  0.00     0.209 C 
BRANCH  11  12
HETATM   12  O2  UNL     1      18.675  -5.875  13.999  1.00  0.00    -0.386 OA
BRANCH  12  13
HETATM   13  C4  UNL     1      19.218  -7.130  13.682  1.00  0.00     0.200 C 
BRANCH  13  14
HETATM   14  C3  UNL     1      19.096  -7.464  12.234  1.00  0.00     0.151 C 
BRANCH  14  15
HETATM   15  C2  UNL     1      20.333  -7.149  11.442  1.00  0.00     0.107 C 
BRANCH  15  16
HETATM   16  S1  UNL     1      20.803  -8.521  10.353  1.00  0.00    -0.171 SA
HETATM   17  C1  UNL     1      21.505  -7.898   8.800  1.00  0.00     0.089 C 
ENDBRANCH  15  16
ENDBRANCH  14  15
BRANCH  14  18
HETATM   18  O1  UNL     1      17.954  -6.915  11.675  1.00  0.00    -0.393 OA
ATOM     19  H1  UNL     1      17.239  -7.538  11.622  1.00  0.00     0.210 HD
ENDBRANCH  14  18
ENDBRANCH  13  14
ENDBRANCH  12  13
ENDBRANCH  11  12
ENDBRANCH   1  11
BRANCH   1  20
HETATM   20  C7  UNL     1      17.411  -3.661  15.042  1.00  0.00     0.125 C 
BRANCH  20  21
HETATM   21  S2  UNL     1      15.749  -3.924  14.529  1.00  0.00    -0.090 SA
BRANCH  21  22
HETATM   22  C8  UNL     1      15.447  -4.753  13.015  1.00  0.00     0.182 C 
HETATM   23  C9  UNL     1      14.238  -5.686  12.872  1.00  0.00     0.104 C 
HETATM   24  O3  UNL     1      16.179  -4.617  12.053  1.00  0.00    -0.286 OA
ENDBRANCH  21  22
ENDBRANCH  20  21
ENDBRANCH   1  20
BRANCH   3  25
HETATM   25  C11 UNL     1      20.566  -4.716  18.412  1.00  0.00     0.213 C 
BRANCH  25  26
HETATM   26  O5  UNL     1      20.785  -3.374  18.555  1.00  0.00    -0.316 OA
BRANCH  26  27
HETATM   27  C12 UNL     1      21.402  -2.649  19.525  1.00  0.00     0.283 C 
HETATM   28  O6  UNL     1      22.496  -2.106  19.220  1.00  0.00    -0.260 OA
BRANCH  27  29
HETATM   29  C13 UNL     1      20.881  -2.466  20.879  1.00  0.00     0.084 C 
HETATM   30  C14 UNL     1      21.112  -3.310  21.853  1.00  0.00    -0.082 C 
HETATM   31  C15 UNL     1      21.930  -4.518  21.631  1.00  0.00     0.043 C 
HETATM   32  C16 UNL     1      20.553  -3.064  23.204  1.00  0.00     0.043 C 
ENDBRANCH  27  29
ENDBRANCH  26  27
ENDBRANCH  25  26
ENDBRANCH   3  25
TORSDOF 14
ENDMDL
MODEL 4
REMARK VINA RESULT: -6.968265078      1.617      1.878
REMARK  14 active torsions:
REMARK  status: ('A' for Active; 'I' for Inactive)
REMARK    1  A    between atoms: S1_2  and  C2_3 
REMARK    2  A    between atoms: C2_3  and  C3_4 
REMARK    3  A    between atoms: C3_4  and  O1_5 
REMARK    4  A    between atoms: C3_4  and  C4_7 
REMARK    5  A    between atoms: C4_7  and  O2_8 
REMARK    6  A    between atoms: O2_8  and  C5_9 
REMARK    7  A    between atoms: C5_9  and  C6_10 
REMARK    8  A    between atoms: C6_10  and  C7_11 
REMARK    9  A    between atoms: C7_11  and  S2_12 
REMARK   10  A    between atoms: S2_12  and  C8_13 
REMARK   11  A    between atoms: C10_17  and  C11_18 
REMARK   12  A    between atoms: C11_18  and  O5_19 
REMARK   13  A    between atoms: O5_19  and  C12_20 
REMARK   14  A    between atoms: C12_20  and  C13_22 
ROOT
HETATM    1  C6  UNL     1      19.110  -4.497  18.024  1.00  0.00     0.120 C 
HETATM    2  O4  UNL     1      19.021  -3.841  16.759  1.00  0.00    -0.364 OA
HETATM    3  C10 UNL     1      18.061  -4.518  16.093  1.00  0.00     0.178 C 
HETATM    4  C17 UNL     1      18.102  -5.971  16.539  1.00  0.00     0.188 C 
HETATM    5  O7  UNL     1      18.643  -6.805  15.574  1.00  0.00    -0.345 OA
HETATM    6  C18 UNL     1      19.870  -7.254  16.058  1.00  0.00     0.158 C 
HETATM    7  C19 UNL     1      19.591  -8.436  16.935  1.00  0.00     0.078 C 
HETATM    8  C20 UNL     1      20.839  -7.604  14.972  1.00  0.00     0.078 C 
HETATM    9  O8  UNL     1      20.356  -6.153  16.783  1.00  0.00    -0.345 OA
HETATM   10  C21 UNL     1      19.244  -5.898  17.593  1.00  0.00     0.194 C 
ENDROOT
BRANCH   1  11
HETATM   11  C5  UNL     1      17.795  -4.245  18.740  1.00  0.00     0.209 C 
BRANCH  11  12
HETATM   12  O2  UNL     1      17.856  -3.059  19.487  1.00  0.00    -0.386 OA
BRANCH  12  13
HETATM   13  C4  UNL     1      17.040  -3.295  20.604  1.00  0.00     0.200 C 
BRANCH  13  14
HETATM   14  C3  UNL     1      17.769  -3.141  21.896  1.00  0.00     0.151 C 
BRANCH  14  15
HETATM   15  C2  UNL     1      18.814  -4.196  22.120  1.00  0.00     0.107 C 
BRANCH  15  16
HETATM   16  S1  UNL     1      20.387  -3.479  22.668  1.00  0.00    -0.171 SA
HETATM   17  C1  UNL     1      21.762  -4.616  22.337  1.00  0.00     0.089 C 
ENDBRANCH  15  16
ENDBRANCH  14  15
BRANCH  14  18
HETATM   18  O1  UNL     1      16.897  -3.022  22.966  1.00  0.00    -0.393 OA
ATOM     19  H1  UNL     1      17.349  -2.902  23.793  1.00  0.00     0.210 HD
ENDBRANCH  14  18
ENDBRANCH  13  14
ENDBRANCH  12  13
ENDBRANCH  11  12
ENDBRANCH   1  11
BRANCH   1  20
HETATM   20  C7  UNL     1      20.267  -3.956  18.785  1.00  0.00     0.125 C 
BRANCH  20  21
HETATM   21  S2  UNL     1      21.179  -2.680  17.988  1.00  0.00    -0.090 SA
BRANCH  21  22
HETATM   22  C8  UNL     1      22.194  -1.629  18.955  1.00  0.00     0.182 C 
HETATM   23  C9  UNL     1      23.375  -0.889  18.313  1.00  0.00     0.104 C 
HETATM   24  O3  UNL     1      21.996  -1.464  20.143  1.00  0.00    -0.286 OA
ENDBRANCH  21  22
ENDBRANCH  20  21
ENDBRANCH   1  20
BRANCH   3  25
HETATM   25  C11 UNL     1      18.144  -4.537  14.592  1.00  0.00     0.213 C 
BRANCH  25  26
HETATM   26  O5  UNL     1      17.118  -3.982  13.878  1.00  0.00    -0.316 OA
BRANCH  26  27
HETATM   27  C12 UNL     1      16.006  -4.521  13.311  1.00  0.00     0.283 C 
HETATM   28  O6  UNL     1      15.679  -5.676  13.687  1.00  0.00    -0.260 OA
BRANCH  27  29
HETATM   29  C13 UNL     1      15.182  -3.850  12.307  1.00  0.00     0.084 C 
HETATM   30  C14 UNL     1      15.378  -3.981  11.020  1.00  0.00    -0.082 C 
HETATM   31  C15 UNL     1      16.466  -4.832  10.501  1.00  0.00     0.043 C 
HETATM   32  C16 UNL     1      14.505  -3.271  10.054  1.00  0.00     0.043 C 
ENDBRANCH  27  29
ENDBRANCH  26  27
ENDBRANCH  25  26
ENDBRANCH   3  25
TORSDOF 14
ENDMDL
MODEL 5
REMARK VINA RESULT: -6.880434251      2.307      4.168
REMARK  14 active torsions:
REMARK  status: ('A' for Active; 'I' for Inactive)
REMARK    1  A    between atoms: S1_2  and  C2_3 
REMARK    2  A    between atoms: C2_3  and  C3_4 
REMARK    3  A    between atoms: C3_4  and  O1_5 
REMARK    4  A    between atoms: C3_4  and  C4_7 
REMARK    5  A    between atoms: C4_7  and  O2_8 
REMARK    6  A    between atoms: O2_8  and  C5_9 
REMARK    7  A    between atoms: C5_9  and  C6_10 
REMARK    8  A    between atoms: C6_10  and  C7_11 
REMARK    9  A    between atoms: C7_11  and  S2_12 
REMARK   10  A    between atoms: S2_12  and  C8_13 
REMARK   11  A    between atoms: C10_17  and  C11_18 
REMARK   12  A    between atoms: C11_18  and  O5_19 
REMARK   13  A    between atoms: O5_19  and  C12_20 
REMARK   14  A    between atoms: C12_20  and  C13_22 
ROOT
HETATM    1  C6  UNL     1      19.699  -5.126  18.615  1.00  0.00     0.120 C 
HETATM    2  O4  UNL     1      19.128  -5.762  17.471  1.00  0.00    -0.364 OA
HETATM    3  C10 UNL     1      18.406  -4.793  16.870  1.00  0.00     0.178 C 
HETATM    4  C17 UNL     1      17.875  -3.855  17.943  1.00  0.00     0.188 C 
HETATM    5  O7  UNL     1      16.518  -4.020  18.165  1.00  0.00    -0.345 OA
HETATM    6  C18 UNL     1      16.372  -4.574  19.435  1.00  0.00     0.158 C 
HETATM    7  C19 UNL     1      16.403  -3.443  20.416  1.00  0.00     0.078 C 
HETATM    8  C20 UNL     1      15.122  -5.383  19.584  1.00  0.00     0.078 C 
HETATM    9  O8  UNL     1      17.492  -5.415  19.552  1.00  0.00    -0.345 OA
HETATM   10  C21 UNL     1      18.500  -4.510  19.208  1.00  0.00     0.194 C 
ENDROOT
BRANCH   1  11
HETATM   11  C5  UNL     1      20.676  -4.086  18.095  1.00  0.00     0.209 C 
BRANCH  11  12
HETATM   12  O2  UNL     1      21.743  -3.916  18.989  1.00  0.00    -0.386 OA
BRANCH  12  13
HETATM   13  C4  UNL     1      21.737  -2.547  19.300  1.00  0.00     0.200 C 
BRANCH  13  14
HETATM   14  C3  UNL     1      21.333  -2.275  20.710  1.00  0.00     0.151 C 
BRANCH  14  15
HETATM   15  C2  UNL     1      21.568  -3.436  21.632  1.00  0.00     0.107 C 
BRANCH  15  16
HETATM   16  S1  UNL     1      20.084  -3.844  22.593  1.00  0.00    -0.171 SA
HETATM   17  C1  UNL     1      20.161  -5.552  23.202  1.00  0.00     0.089 C 
ENDBRANCH  15  16
ENDBRANCH  14  15
BRANCH  14  18
HETATM   18  O1  UNL     1      20.038  -1.789  20.787  1.00  0.00    -0.393 OA
ATOM     19  H1  UNL     1      19.975  -0.877  20.530  1.00  0.00     0.210 HD
ENDBRANCH  14  18
ENDBRANCH  13  14
ENDBRANCH  12  13
ENDBRANCH  11  12
ENDBRANCH   1  11
BRANCH   1  20
HETATM   20  C7  UNL     1      20.374  -6.142  19.465  1.00  0.00     0.125 C 
BRANCH  20  21
HETATM   21  S2  UNL     1      20.876  -7.615  18.645  1.00  0.00    -0.090 SA
BRANCH  21  22
HETATM   22  C8  UNL     1      20.400  -9.164  19.312  1.00  0.00     0.182 C 
HETATM   23  C9  UNL     1      19.946 -10.299  18.385  1.00  0.00     0.104 C 
HETATM   24  O3  UNL     1      20.412  -9.377  20.509  1.00  0.00    -0.286 OA
ENDBRANCH  21  22
ENDBRANCH  20  21
ENDBRANCH   1  20
BRANCH   3  25
HETATM   25  C11 UNL     1      17.214  -5.222  16.061  1.00  0.00     0.213 C 
BRANCH  25  26
HETATM   26  O5  UNL     1      16.975  -4.590  14.872  1.00  0.00    -0.316 OA
BRANCH  26  27
HETATM   27  C12 UNL     1      15.895  -3.914  14.399  1.00  0.00     0.283 C 
HETATM   28  O6  UNL     1      15.093  -3.455  15.254  1.00  0.00    -0.260 OA
BRANCH  27  29
HETATM   29  C13 UNL     1      15.612  -3.695  12.982  1.00  0.00     0.084 C 
HETATM   30  C14 UNL     1      14.847  -4.488  12.275  1.00  0.00    -0.082 C 
HETATM   31  C15 UNL     1      14.215  -5.673  12.886  1.00  0.00     0.043 C 
HETATM   32  C16 UNL     1      14.601  -4.207  10.840  1.00  0.00     0.043 C 
ENDBRANCH  27  29
ENDBRANCH  26  27
ENDBRANCH  25  26
ENDBRANCH   3  25
TORSDOF 14
ENDMDL
