MODEL 1
REMARK VINA RESULT: -9.741771353      0.000      0.000
REMARK  6 active torsions:
REMARK  status: ('A' for Active; 'I' for Inactive)
REMARK    1  A    between atoms: C2_2  and  C3_4 
REMARK    2  A    between atoms: C3_4  and  C4_5 
REMARK       I    between atoms: C4_5  and  N1_7 
REMARK    3  A    between atoms: N1_7  and  C6_9 
REMARK    4  A    between atoms: C6_9  and  C7_10 
REMARK    5  A    between atoms: C11_15  and  C12_16 
REMARK       I    between atoms: C12_16  and  N2_18 
REMARK    6  A    between atoms: N2_18  and  C13_20 
ROOT
HETATM    1  C7  UNL     1      11.599  21.849   5.414  1.00  0.00    -0.018 A 
HETATM    2  C8  UNL     1      12.825  21.508   6.046  1.00  0.00     0.028 A 
HETATM    3  C9  UNL     1      13.747  20.750   5.452  1.00  0.00     0.042 A 
HETATM    4  C10 UNL     1      15.003  20.450   6.081  1.00  0.00     0.201 A 
HETATM    5  O3  UNL     1      15.182  20.910   7.208  1.00  0.00    -0.286 OA
HETATM    6  C11 UNL     1      15.946  19.690   5.436  1.00  0.00     0.098 A 
HETATM    7  C18 UNL     1      15.646  19.222   4.164  1.00  0.00     0.109 A 
HETATM    8  N3  UNL     1      14.493  19.481   3.540  1.00  0.00    -0.364 N 
ATOM      9  H3  UNL     1      14.311  19.116   2.606  1.00  0.00     0.165 HD
HETATM   10  C19 UNL     1      13.581  20.232   4.173  1.00  0.00     0.048 A 
HETATM   11  C20 UNL     1      12.344  20.582   3.574  1.00  0.00     0.054 A 
HETATM   12  C21 UNL     1      11.398  21.362   4.181  1.00  0.00     0.044 A 
HETATM   13 CL1  UNL     1       9.868  21.670   3.315  1.00  0.00    -0.084 Cl
ENDROOT
BRANCH   1  14
HETATM   14  C6  UNL     1      10.816  22.951   6.034  1.00  0.00     0.165 C 
BRANCH  14  15
HETATM   15  N1  UNL     1      11.446  24.250   5.991  1.00  0.00    -0.351 N 
HETATM   16  C4  UNL     1      10.888  25.241   6.905  1.00  0.00     0.235 C 
HETATM   17  O2  UNL     1      11.727  25.776   7.715  1.00  0.00    -0.272 OA
HETATM   18  C5  UNL     1      12.708  24.572   5.448  1.00  0.00     0.153 C 
BRANCH  16  19
HETATM   19  C3  UNL     1       9.494  25.665   6.902  1.00  0.00     0.101 C 
HETATM   20  C22 UNL     1       9.384  26.839   7.913  1.00  0.00     0.027 C 
HETATM   21  C23 UNL     1       8.627  26.297   9.079  1.00  0.00     0.002 C 
HETATM   22  C24 UNL     1       8.880  24.798   9.037  1.00  0.00     0.002 C 
HETATM   23  C25 UNL     1       8.642  24.531   7.569  1.00  0.00     0.027 C 
BRANCH  19  24
HETATM   24  C2  UNL     1       8.770  26.057   5.737  1.00  0.00     0.141 C 
HETATM   25  C1  UNL     1       8.333  25.143   4.639  1.00  0.00     0.092 C 
HETATM   26  O1  UNL     1       8.434  27.260   5.570  1.00  0.00    -0.297 OA
ENDBRANCH  19  24
ENDBRANCH  16  19
ENDBRANCH  14  15
ENDBRANCH   1  14
BRANCH   6  27
HETATM   27  C12 UNL     1      17.291  19.462   5.944  1.00  0.00     0.261 C 
HETATM   28  O4  UNL     1      18.272  19.467   5.130  1.00  0.00    -0.267 OA
HETATM   29  N2  UNL     1      17.458  19.265   7.295  1.00  0.00    -0.330 N 
ATOM     30  H2  UNL     1      16.560  19.253   7.779  1.00  0.00     0.168 HD
BRANCH  29  31
HETATM   31  C13 UNL     1      18.539  19.075   8.207  1.00  0.00    -0.006 C 
HETATM   32  C14 UNL     1      18.823  20.324   8.951  1.00  0.00     0.078 C 
HETATM   33  C15 UNL     1      19.710  20.081  10.168  1.00  0.00     0.173 C 
HETATM   34  O5  UNL     1      18.981  19.174  10.974  1.00  0.00    -0.390 OA
HETATM   35  C16 UNL     1      19.122  17.939  10.383  1.00  0.00     0.173 C 
HETATM   36  C17 UNL     1      18.643  17.827   8.957  1.00  0.00     0.078 C 
ENDBRANCH  29  31
ENDBRANCH   6  27
TORSDOF 6
ENDMDL
MODEL 2
REMARK VINA RESULT: -9.702276807      2.114      9.299
REMARK  6 active torsions:
REMARK  status: ('A' for Active; 'I' for Inactive)
REMARK    1  A    between atoms: C2_2  and  C3_4 
REMARK    2  A    between atoms: C3_4  and  C4_5 
REMARK       I    between atoms: C4_5  and  N1_7 
REMARK    3  A    between atoms: N1_7  and  C6_9 
REMARK    4  A    between atoms: C6_9  and  C7_10 
REMARK    5  A    between atoms: C11_15  and  C12_16 
REMARK       I    between atoms: C12_16  and  N2_18 
REMARK    6  A    between atoms: N2_18  and  C13_20 
ROOT
HETATM    1  C7  UNL     1      14.716  20.499   5.698  1.00  0.00    -0.018 A 
HETATM    2  C8  UNL     1      13.666  21.343   6.148  1.00  0.00     0.028 A 
HETATM    3  C9  UNL     1      12.866  21.997   5.305  1.00  0.00     0.042 A 
HETATM    4  C10 UNL     1      11.778  22.811   5.769  1.00  0.00     0.201 A 
HETATM    5  O3  UNL     1      11.628  22.894   6.987  1.00  0.00    -0.286 OA
HETATM    6  C11 UNL     1      10.952  23.451   4.879  1.00  0.00     0.098 A 
HETATM    7  C18 UNL     1      11.205  23.290   3.523  1.00  0.00     0.109 A 
HETATM    8  N3  UNL     1      12.204  22.539   3.049  1.00  0.00    -0.364 N 
ATOM      9  H3  UNL     1      12.357  22.448   2.045  1.00  0.00     0.165 HD
HETATM   10  C19 UNL     1      12.999  21.909   3.924  1.00  0.00     0.048 A 
HETATM   11  C20 UNL     1      14.062  21.067   3.509  1.00  0.00     0.054 A 
HETATM   12  C21 UNL     1      14.882  20.393   4.372  1.00  0.00     0.044 A 
HETATM   13 CL1  UNL     1      16.210  19.413   3.692  1.00  0.00    -0.084 Cl
ENDROOT
BRANCH   1  14
HETATM   14  C6  UNL     1      15.311  19.583   6.708  1.00  0.00     0.165 C 
BRANCH  14  15
HETATM   15  N1  UNL     1      15.732  20.216   7.936  1.00  0.00    -0.351 N 
HETATM   16  C4  UNL     1      17.098  20.729   7.934  1.00  0.00     0.235 C 
HETATM   17  O2  UNL     1      17.219  21.973   8.219  1.00  0.00    -0.272 OA
HETATM   18  C5  UNL     1      14.910  20.693   8.979  1.00  0.00     0.153 C 
BRANCH  16  19
HETATM   19  C3  UNL     1      18.279  19.912   7.683  1.00  0.00     0.101 C 
HETATM   20  C22 UNL     1      18.298  18.811   8.780  1.00  0.00     0.027 C 
HETATM   21  C23 UNL     1      19.430  19.164   9.685  1.00  0.00     0.002 C 
HETATM   22  C24 UNL     1      19.599  20.666   9.521  1.00  0.00     0.002 C 
HETATM   23  C25 UNL     1      19.544  20.775   8.015  1.00  0.00     0.027 C 
BRANCH  19  24
HETATM   24  C2  UNL     1      18.567  19.264   6.446  1.00  0.00     0.141 C 
HETATM   25  C1  UNL     1      18.519  17.789   6.208  1.00  0.00     0.092 C 
HETATM   26  O1  UNL     1      18.883  19.939   5.431  1.00  0.00    -0.297 OA
ENDBRANCH  19  24
ENDBRANCH  16  19
ENDBRANCH  14  15
ENDBRANCH   1  14
BRANCH   6  27
HETATM   27  C12 UNL     1       9.749  24.175   5.264  1.00  0.00     0.261 C 
HETATM   28  O4  UNL     1       8.700  24.063   4.547  1.00  0.00    -0.267 OA
HETATM   29  N2  UNL     1       9.781  24.943   6.403  1.00  0.00    -0.330 N 
ATOM     30  H2  UNL     1      10.712  24.945   6.820  1.00  0.00     0.168 HD
BRANCH  29  31
HETATM   31  C13 UNL     1       8.872  25.738   7.165  1.00  0.00    -0.006 C 
HETATM   32  C14 UNL     1       9.582  26.447   8.255  1.00  0.00     0.078 C 
HETATM   33  C15 UNL     1       8.741  27.566   8.860  1.00  0.00     0.173 C 
HETATM   34  O5  UNL     1       8.475  28.445   7.782  1.00  0.00    -0.390 OA
HETATM   35  C16 UNL     1       7.489  27.845   7.032  1.00  0.00     0.173 C 
HETATM   36  C17 UNL     1       7.811  26.476   6.485  1.00  0.00     0.078 C 
ENDBRANCH  29  31
ENDBRANCH   6  27
TORSDOF 6
ENDMDL
MODEL 3
REMARK VINA RESULT: -9.690502883      3.054      5.019
REMARK  6 active torsions:
REMARK  status: ('A' for Active; 'I' for Inactive)
REMARK    1  A    between atoms: C2_2  and  C3_4 
REMARK    2  A    between atoms: C3_4  and  C4_5 
REMARK       I    between atoms: C4_5  and  N1_7 
REMARK    3  A    between atoms: N1_7  and  C6_9 
REMARK    4  A    between atoms: C6_9  and  C7_10 
REMARK    5  A    between atoms: C11_15  and  C12_16 
REMARK       I    between atoms: C12_16  and  N2_18 
REMARK    6  A    between atoms: N2_18  and  C13_20 
ROOT
HETATM    1  C7  UNL     1      10.292  23.954   5.658  1.00  0.00    -0.018 A 
HETATM    2  C8  UNL     1      11.190  22.911   5.305  1.00  0.00     0.028 A 
HETATM    3  C9  UNL     1      12.378  22.762   5.892  1.00  0.00     0.042 A 
HETATM    4  C10 UNL     1      13.257  21.677   5.561  1.00  0.00     0.201 A 
HETATM    5  O3  UNL     1      12.872  20.897   4.691  1.00  0.00    -0.286 OA
HETATM    6  C11 UNL     1      14.463  21.532   6.200  1.00  0.00     0.098 A 
HETATM    7  C18 UNL     1      14.803  22.466   7.169  1.00  0.00     0.109 A 
HETATM    8  N3  UNL     1      14.013  23.488   7.511  1.00  0.00    -0.364 N 
ATOM      9  H3  UNL     1      14.301  24.154   8.228  1.00  0.00     0.165 HD
HETATM   10  C19 UNL     1      12.833  23.617   6.890  1.00  0.00     0.048 A 
HETATM   11  C20 UNL     1      11.919  24.652   7.212  1.00  0.00     0.054 A 
HETATM   12  C21 UNL     1      10.698  24.804   6.612  1.00  0.00     0.044 A 
HETATM   13 CL1  UNL     1       9.683  26.192   7.093  1.00  0.00    -0.084 Cl
ENDROOT
BRANCH   1  14
HETATM   14  C6  UNL     1       8.891  23.817   5.178  1.00  0.00     0.165 C 
BRANCH  14  15
HETATM   15  N1  UNL     1       8.751  23.566   3.763  1.00  0.00    -0.351 N 
HETATM   16  C4  UNL     1       8.633  24.759   2.930  1.00  0.00     0.235 C 
HETATM   17  O2  UNL     1       9.498  24.859   1.987  1.00  0.00    -0.272 OA
HETATM   18  C5  UNL     1       9.049  22.374   3.070  1.00  0.00     0.153 C 
BRANCH  16  19
HETATM   19  C3  UNL     1       7.593  25.767   3.086  1.00  0.00     0.101 C 
HETATM   20  C22 UNL     1       6.236  25.011   3.076  1.00  0.00     0.027 C 
HETATM   21  C23 UNL     1       5.590  25.360   1.778  1.00  0.00     0.002 C 
HETATM   22  C24 UNL     1       6.746  25.718   0.857  1.00  0.00     0.002 C 
HETATM   23  C25 UNL     1       7.542  26.619   1.772  1.00  0.00     0.027 C 
BRANCH  19  24
HETATM   24  C2  UNL     1       7.531  26.707   4.158  1.00  0.00     0.141 C 
HETATM   25  C1  UNL     1       6.485  26.738   5.224  1.00  0.00     0.092 C 
HETATM   26  O1  UNL     1       8.410  27.602   4.273  1.00  0.00    -0.297 OA
ENDBRANCH  19  24
ENDBRANCH  16  19
ENDBRANCH  14  15
ENDBRANCH   1  14
BRANCH   6  27
HETATM   27  C12 UNL     1      15.343  20.386   6.023  1.00  0.00     0.261 C 
HETATM   28  O4  UNL     1      16.019  19.962   7.018  1.00  0.00    -0.267 OA
HETATM   29  N2  UNL     1      15.400  19.786   4.788  1.00  0.00    -0.330 N 
ATOM     30  H2  UNL     1      14.826  20.286   4.109  1.00  0.00     0.168 HD
BRANCH  29  31
HETATM   31  C13 UNL     1      16.039  18.657   4.192  1.00  0.00    -0.006 C 
HETATM   32  C14 UNL     1      15.887  18.686   2.718  1.00  0.00     0.078 C 
HETATM   33  C15 UNL     1      16.838  17.719   2.021  1.00  0.00     0.173 C 
HETATM   34  O5  UNL     1      18.133  18.148   2.397  1.00  0.00    -0.390 OA
HETATM   35  C16 UNL     1      18.323  17.708   3.688  1.00  0.00     0.173 C 
HETATM   36  C17 UNL     1      17.325  18.197   4.709  1.00  0.00     0.078 C 
ENDBRANCH  29  31
ENDBRANCH   6  27
TORSDOF 6
ENDMDL
MODEL 4
REMARK VINA RESULT: -9.540906798      2.779     10.350
REMARK  6 active torsions:
REMARK  status: ('A' for Active; 'I' for Inactive)
REMARK    1  A    between atoms: C2_2  and  C3_4 
REMARK    2  A    between atoms: C3_4  and  C4_5 
REMARK       I    between atoms: C4_5  and  N1_7 
REMARK    3  A    between atoms: N1_7  and  C6_9 
REMARK    4  A    between atoms: C6_9  and  C7_10 
REMARK    5  A    between atoms: C11_15  and  C12_16 
REMARK       I    between atoms: C12_16  and  N2_18 
REMARK    6  A    between atoms: N2_18  and  C13_20 
ROOT
HETATM    1  C7  UNL     1      12.709  21.660   6.607  1.00  0.00    -0.018 A 
HETATM    2  C8  UNL     1      11.681  22.268   5.837  1.00  0.00     0.028 A 
HETATM    3  C9  UNL     1      10.985  23.316   6.277  1.00  0.00     0.042 A 
HETATM    4  C10 UNL     1       9.981  23.952   5.472  1.00  0.00     0.201 A 
HETATM    5  O3  UNL     1       9.777  23.470   4.359  1.00  0.00    -0.286 OA
HETATM    6  C11 UNL     1       9.298  25.047   5.939  1.00  0.00     0.098 A 
HETATM    7  C18 UNL     1       9.606  25.514   7.209  1.00  0.00     0.109 A 
HETATM    8  N3  UNL     1      10.536  24.955   7.989  1.00  0.00    -0.364 N 
ATOM      9  H3  UNL     1      10.731  25.328   8.918  1.00  0.00     0.165 HD
HETATM   10  C19 UNL     1      11.205  23.893   7.523  1.00  0.00     0.048 A 
HETATM   11  C20 UNL     1      12.230  23.257   8.270  1.00  0.00     0.054 A 
HETATM   12  C21 UNL     1      12.947  22.183   7.818  1.00  0.00     0.044 A 
HETATM   13 CL1  UNL     1      14.169  21.462   8.901  1.00  0.00    -0.084 Cl
ENDROOT
BRANCH   1  14
HETATM   14  C6  UNL     1      13.619  20.730   5.886  1.00  0.00     0.165 C 
BRANCH  14  15
HETATM   15  N1  UNL     1      14.458  21.347   4.887  1.00  0.00    -0.351 N 
HETATM   16  C4  UNL     1      15.100  20.422   3.957  1.00  0.00     0.235 C 
HETATM   17  O2  UNL     1      14.871  20.645   2.715  1.00  0.00    -0.272 OA
HETATM   18  C5  UNL     1      14.465  22.701   4.491  1.00  0.00     0.153 C 
BRANCH  16  19
HETATM   19  C3  UNL     1      15.986  19.339   4.362  1.00  0.00     0.101 C 
HETATM   20  C22 UNL     1      16.556  18.720   3.056  1.00  0.00     0.027 C 
HETATM   21  C23 UNL     1      15.908  17.382   2.928  1.00  0.00     0.002 C 
HETATM   22  C24 UNL     1      14.603  17.513   3.698  1.00  0.00     0.002 C 
HETATM   23  C25 UNL     1      15.104  18.187   4.954  1.00  0.00     0.027 C 
BRANCH  19  24
HETATM   24  C2  UNL     1      17.085  19.485   5.260  1.00  0.00     0.141 C 
HETATM   25  C1  UNL     1      16.977  19.782   6.720  1.00  0.00     0.092 C 
HETATM   26  O1  UNL     1      18.268  19.352   4.847  1.00  0.00    -0.297 OA
ENDBRANCH  19  24
ENDBRANCH  16  19
ENDBRANCH  14  15
ENDBRANCH   1  14
BRANCH   6  27
HETATM   27  C12 UNL     1       8.372  25.830   5.133  1.00  0.00     0.261 C 
HETATM   28  O4  UNL     1       8.428  27.103   5.183  1.00  0.00    -0.267 OA
HETATM   29  N2  UNL     1       7.476  25.165   4.330  1.00  0.00    -0.330 N 
ATOM     30  H2  UNL     1       7.550  24.155   4.453  1.00  0.00     0.168 HD
BRANCH  29  31
HETATM   31  C13 UNL     1       6.472  25.496   3.371  1.00  0.00    -0.006 C 
HETATM   32  C14 UNL     1       6.927  25.165   2.000  1.00  0.00     0.078 C 
HETATM   33  C15 UNL     1       5.779  25.163   0.996  1.00  0.00     0.173 C 
HETATM   34  O5  UNL     1       4.879  24.182   1.474  1.00  0.00    -0.390 OA
HETATM   35  C16 UNL     1       4.210  24.758   2.531  1.00  0.00     0.173 C 
HETATM   36  C17 UNL     1       5.067  25.241   3.675  1.00  0.00     0.078 C 
ENDBRANCH  29  31
ENDBRANCH   6  27
TORSDOF 6
ENDMDL
MODEL 5
REMARK VINA RESULT: -9.480453868      0.801      1.140
REMARK  6 active torsions:
REMARK  status: ('A' for Active; 'I' for Inactive)
REMARK    1  A    between atoms: C2_2  and  C3_4 
REMARK    2  A    between atoms: C3_4  and  C4_5 
REMARK       I    between atoms: C4_5  and  N1_7 
REMARK    3  A    between atoms: N1_7  and  C6_9 
REMARK    4  A    between atoms: C6_9  and  C7_10 
REMARK    5  A    between atoms: C11_15  and  C12_16 
REMARK       I    between atoms: C12_16  and  N2_18 
REMARK    6  A    between atoms: N2_18  and  C13_20 
ROOT
HETATM    1  C7  UNL     1      11.084  22.131   5.355  1.00  0.00    -0.018 A 
HETATM    2  C8  UNL     1      12.205  21.840   6.176  1.00  0.00     0.028 A 
HETATM    3  C9  UNL     1      13.166  20.995   5.800  1.00  0.00     0.042 A 
HETATM    4  C10 UNL     1      14.319  20.744   6.619  1.00  0.00     0.201 A 
HETATM    5  O3  UNL     1      14.370  21.332   7.698  1.00  0.00    -0.286 OA
HETATM    6  C11 UNL     1      15.306  19.891   6.195  1.00  0.00     0.098 A 
HETATM    7  C18 UNL     1      15.153  19.280   4.958  1.00  0.00     0.109 A 
HETATM    8  N3  UNL     1      14.099  19.488   4.163  1.00  0.00    -0.364 N 
ATOM      9  H3  UNL     1      14.023  19.018   3.262  1.00  0.00     0.165 HD
HETATM   10  C19 UNL     1      13.144  20.330   4.580  1.00  0.00     0.048 A 
HETATM   11  C20 UNL     1      12.007  20.635   3.788  1.00  0.00     0.054 A 
HETATM   12  C21 UNL     1      11.022  21.503   4.171  1.00  0.00     0.044 A 
HETATM   13 CL1  UNL     1       9.627  21.740   3.083  1.00  0.00    -0.084 Cl
ENDROOT
BRANCH   1  14
HETATM   14  C6  UNL     1      10.270  23.317   5.734  1.00  0.00     0.165 C 
BRANCH  14  15
HETATM   15  N1  UNL     1      11.011  24.549   5.868  1.00  0.00    -0.351 N 
HETATM   16  C4  UNL     1      10.559  25.432   6.940  1.00  0.00     0.235 C 
HETATM   17  O2  UNL     1      11.456  25.763   7.794  1.00  0.00    -0.272 OA
HETATM   18  C5  UNL     1      12.287  24.844   5.342  1.00  0.00     0.153 C 
BRANCH  16  19
HETATM   19  C3  UNL     1       9.208  25.966   7.044  1.00  0.00     0.101 C 
HETATM   20  C22 UNL     1       9.250  27.071   8.135  1.00  0.00     0.027 C 
HETATM   21  C23 UNL     1       8.511  26.511   9.304  1.00  0.00     0.002 C 
HETATM   22  C24 UNL     1       8.633  25.003   9.149  1.00  0.00     0.002 C 
HETATM   23  C25 UNL     1       8.298  24.861   7.682  1.00  0.00     0.027 C 
BRANCH  19  24
HETATM   24  C2  UNL     1       8.461  26.497   5.951  1.00  0.00     0.141 C 
HETATM   25  C1  UNL     1       8.028  25.731   4.743  1.00  0.00     0.092 C 
HETATM   26  O1  UNL     1       8.097  27.704   5.954  1.00  0.00    -0.297 OA
ENDBRANCH  19  24
ENDBRANCH  16  19
ENDBRANCH  14  15
ENDBRANCH   1  14
BRANCH   6  27
HETATM   27  C12 UNL     1      16.566  19.694   6.898  1.00  0.00     0.261 C 
HETATM   28  O4  UNL     1      17.642  19.571   6.223  1.00  0.00    -0.267 OA
HETATM   29  N2  UNL     1      16.554  19.667   8.272  1.00  0.00    -0.330 N 
ATOM     30  H2  UNL     1      15.602  19.739   8.634  1.00  0.00     0.168 HD
BRANCH  29  31
HETATM   31  C13 UNL     1      17.503  19.567   9.333  1.00  0.00    -0.006 C 
HETATM   32  C14 UNL     1      17.830  18.148   9.611  1.00  0.00     0.078 C 
HETATM   33  C15 UNL     1      19.081  18.002  10.471  1.00  0.00     0.173 C 
HETATM   34  O5  UNL     1      20.113  18.614   9.719  1.00  0.00    -0.390 OA
HETATM   35  C16 UNL     1      19.937  19.972   9.862  1.00  0.00     0.173 C 
HETATM   36  C17 UNL     1      18.606  20.521   9.412  1.00  0.00     0.078 C 
ENDBRANCH  29  31
ENDBRANCH   6  27
TORSDOF 6
ENDMDL
