MODEL 1
REMARK VINA RESULT: -10.696545734      0.000      0.000
REMARK  7 active torsions:
REMARK  status: ('A' for Active; 'I' for Inactive)
REMARK    1  A    between atoms: C3_4  and  C4_5 
REMARK    2  A    between atoms: N1_8  and  C7_9 
REMARK    3  A    between atoms: N2_12  and  C10_13 
REMARK    4  A    between atoms: C10_13  and  C11_14 
REMARK    5  A    between atoms: C12_17  and  N4_18 
REMARK    6  A    between atoms: N4_18  and  C13_20 
REMARK    7  A    between atoms: C13_20  and  C14_21 
ROOT
HETATM    1  C7  UNL     1      12.969  21.737   6.194  1.00  0.00     0.226 C 
HETATM    2  C8  UNL     1      14.172  22.436   5.694  1.00  0.00     0.055 C 
HETATM    3  C9  UNL     1      14.701  21.849   4.358  1.00  0.00     0.124 C 
HETATM    4  N2  UNL     1      14.712  20.468   4.391  1.00  0.00    -0.388 N 
HETATM    5  C22 UNL     1      13.583  19.773   4.928  1.00  0.00     0.124 C 
HETATM    6  C23 UNL     1      12.434  20.782   5.165  1.00  0.00     0.055 C 
ENDROOT
BRANCH   4   7
HETATM    7  C10 UNL     1      15.496  19.729   3.505  1.00  0.00     0.117 C 
BRANCH   7   8
HETATM    8  C11 UNL     1      16.673  19.144   4.213  1.00  0.00     0.087 A 
HETATM    9  N3  UNL     1      17.384  19.816   5.179  1.00  0.00    -0.189 N 
HETATM   10  C12 UNL     1      18.536  19.297   5.644  1.00  0.00     0.678 A 
ATOM     11  H3  UNL     1      17.040  20.705   5.543  1.00  0.00     0.184 HD
HETATM   12  N5  UNL     1      18.919  18.125   5.134  1.00  0.00    -0.200 N 
HETATM   13  C20 UNL     1      18.271  17.420   4.190  1.00  0.00     0.132 A 
ATOM     14  H5  UNL     1      19.786  17.725   5.495  1.00  0.00     0.183 HD
HETATM   15  C21 UNL     1      17.116  17.945   3.713  1.00  0.00     0.078 A 
HETATM   16 CL1  UNL     1      16.180  17.054   2.519  1.00  0.00    -0.080 Cl
BRANCH  10  17
HETATM   17  N4  UNL     1      19.298  19.987   6.429  1.00  0.00    -0.226 N 
ATOM     18  H4  UNL     1      20.240  20.180   6.088  1.00  0.00     0.177 HD
BRANCH  17  19
HETATM   19  C13 UNL     1      18.976  20.505   7.706  1.00  0.00     0.142 C 
BRANCH  19  20
HETATM   20  C14 UNL     1      18.239  19.556   8.608  1.00  0.00     0.004 C 
HETATM   21  C15 UNL     1      18.922  19.645   9.992  1.00  0.00     0.006 C 
HETATM   22  C16 UNL     1      18.254  18.771  10.967  1.00  0.00     0.000 C 
HETATM   23  C17 UNL     1      16.906  18.258  10.628  1.00  0.00     0.000 C 
HETATM   24  C18 UNL     1      16.072  19.270   9.916  1.00  0.00     0.000 C 
HETATM   25  C19 UNL     1      16.825  19.978   8.833  1.00  0.00     0.006 C 
ENDBRANCH  19  20
ENDBRANCH  17  19
ENDBRANCH  10  17
ENDBRANCH   7   8
ENDBRANCH   4   7
BRANCH   1  26
HETATM   26  N1  UNL     1      11.988  22.693   6.609  1.00  0.00     0.093 N 
HETATM   27  C6  UNL     1      12.200  23.215   7.947  1.00  0.00     0.273 C 
HETATM   28  C5  UNL     1      11.472  24.506   8.006  1.00  0.00     0.039 C 
HETATM   29  C4  UNL     1       9.950  24.184   7.841  1.00  0.00     0.022 C 
HETATM   30  C25 UNL     1       9.765  23.536   6.539  1.00  0.00     0.039 C 
HETATM   31  C24 UNL     1      10.634  22.277   6.400  1.00  0.00     0.273 C 
BRANCH  29  32
HETATM   32  C3  UNL     1       9.271  25.506   7.934  1.00  0.00    -0.047 A 
HETATM   33  C2  UNL     1       8.807  26.029   6.717  1.00  0.00     0.081 A 
HETATM   34  C1  UNL     1       8.094  27.226   6.711  1.00  0.00     0.245 A 
HETATM   35  O1  UNL     1       7.666  27.720   5.643  1.00  0.00    -0.268 OA
HETATM   36  N6  UNL     1       7.852  27.869   7.863  1.00  0.00    -0.334 N 
HETATM   37  C27 UNL     1       8.295  27.372   9.046  1.00  0.00     0.092 A 
ATOM     38  H6  UNL     1       7.328  28.744   7.849  1.00  0.00     0.168 HD
HETATM   39  C26 UNL     1       9.002  26.192   9.068  1.00  0.00     0.025 A 
ENDBRANCH  29  32
ENDBRANCH   1  26
TORSDOF 7
ENDMDL
MODEL 2
REMARK VINA RESULT: -10.683646347      1.413      2.180
REMARK  7 active torsions:
REMARK  status: ('A' for Active; 'I' for Inactive)
REMARK    1  A    between atoms: C3_4  and  C4_5 
REMARK    2  A    between atoms: N1_8  and  C7_9 
REMARK    3  A    between atoms: N2_12  and  C10_13 
REMARK    4  A    between atoms: C10_13  and  C11_14 
REMARK    5  A    between atoms: C12_17  and  N4_18 
REMARK    6  A    between atoms: N4_18  and  C13_20 
REMARK    7  A    between atoms: C13_20  and  C14_21 
ROOT
HETATM    1  C7  UNL     1      12.521  21.774   4.040  1.00  0.00     0.226 C 
HETATM    2  C8  UNL     1      12.274  20.382   4.471  1.00  0.00     0.055 C 
HETATM    3  C9  UNL     1      13.543  19.492   4.397  1.00  0.00     0.124 C 
HETATM    4  N2  UNL     1      14.228  19.699   3.215  1.00  0.00    -0.388 N 
HETATM    5  C22 UNL     1      14.426  21.037   2.748  1.00  0.00     0.124 C 
HETATM    6  C23 UNL     1      13.991  22.028   3.854  1.00  0.00     0.055 C 
ENDROOT
BRANCH   4   7
HETATM    7  C10 UNL     1      15.145  18.764   2.735  1.00  0.00     0.117 C 
BRANCH   7   8
HETATM    8  C11 UNL     1      16.263  18.584   3.706  1.00  0.00     0.087 A 
HETATM    9  N3  UNL     1      16.417  19.355   4.834  1.00  0.00    -0.189 N 
HETATM   10  C12 UNL     1      17.543  19.255   5.565  1.00  0.00     0.678 A 
ATOM     11  H3  UNL     1      15.680  20.002   5.116  1.00  0.00     0.184 HD
HETATM   12  N5  UNL     1      18.459  18.379   5.146  1.00  0.00    -0.200 N 
HETATM   13  C20 UNL     1      18.370  17.599   4.055  1.00  0.00     0.132 A 
ATOM     14  H5  UNL     1      19.307  18.295   5.706  1.00  0.00     0.183 HD
HETATM   15  C21 UNL     1      17.241  17.705   3.312  1.00  0.00     0.078 A 
HETATM   16 CL1  UNL     1      17.025  16.674   1.902  1.00  0.00    -0.080 Cl
BRANCH  10  17
HETATM   17  N4  UNL     1      17.775  20.083   6.531  1.00  0.00    -0.226 N 
ATOM     18  H4  UNL     1      18.399  20.861   6.317  1.00  0.00     0.177 HD
BRANCH  17  19
HETATM   19  C13 UNL     1      17.263  20.035   7.849  1.00  0.00     0.142 C 
BRANCH  19  20
HETATM   20  C14 UNL     1      15.873  20.579   8.011  1.00  0.00     0.004 C 
HETATM   21  C15 UNL     1      15.509  20.419   9.505  1.00  0.00     0.006 C 
HETATM   22  C16 UNL     1      14.167  20.953   9.781  1.00  0.00     0.000 C 
HETATM   23  C17 UNL     1      13.550  21.837   8.763  1.00  0.00     0.000 C 
HETATM   24  C18 UNL     1      14.543  22.748   8.122  1.00  0.00     0.000 C 
HETATM   25  C19 UNL     1      15.807  22.044   7.739  1.00  0.00     0.006 C 
ENDBRANCH  19  20
ENDBRANCH  17  19
ENDBRANCH  10  17
ENDBRANCH   7   8
ENDBRANCH   4   7
BRANCH   1  26
HETATM   26  N1  UNL     1      11.927  22.685   4.971  1.00  0.00     0.093 N 
HETATM   27  C6  UNL     1      12.821  23.738   5.418  1.00  0.00     0.273 C 
HETATM   28  C5  UNL     1      11.952  24.835   5.910  1.00  0.00     0.039 C 
HETATM   29  C4  UNL     1      11.180  24.286   7.156  1.00  0.00     0.022 C 
HETATM   30  C25 UNL     1      10.380  23.137   6.720  1.00  0.00     0.039 C 
HETATM   31  C24 UNL     1      11.249  22.054   6.062  1.00  0.00     0.273 C 
BRANCH  29  32
HETATM   32  C3  UNL     1      10.348  25.430   7.621  1.00  0.00    -0.047 A 
HETATM   33  C2  UNL     1       9.534  26.017   6.641  1.00  0.00     0.081 A 
HETATM   34  C1  UNL     1       8.664  27.047   6.996  1.00  0.00     0.245 A 
HETATM   35  O1  UNL     1       7.923  27.591   6.147  1.00  0.00    -0.268 OA
HETATM   36  N6  UNL     1       8.608  27.469   8.268  1.00  0.00    -0.334 N 
HETATM   37  C27 UNL     1       9.391  26.908   9.225  1.00  0.00     0.092 A 
ATOM     38  H6  UNL     1       7.969  28.222   8.519  1.00  0.00     0.168 HD
HETATM   39  C26 UNL     1      10.256  25.892   8.889  1.00  0.00     0.025 A 
ENDBRANCH  29  32
ENDBRANCH   1  26
TORSDOF 7
ENDMDL
MODEL 3
REMARK VINA RESULT: -10.551624926      4.508     10.936
REMARK  7 active torsions:
REMARK  status: ('A' for Active; 'I' for Inactive)
REMARK    1  A    between atoms: C3_4  and  C4_5 
REMARK    2  A    between atoms: N1_8  and  C7_9 
REMARK    3  A    between atoms: N2_12  and  C10_13 
REMARK    4  A    between atoms: C10_13  and  C11_14 
REMARK    5  A    between atoms: C12_17  and  N4_18 
REMARK    6  A    between atoms: N4_18  and  C13_20 
REMARK    7  A    between atoms: C13_20  and  C14_21 
ROOT
HETATM    1  C7  UNL     1      11.806  22.556   5.323  1.00  0.00     0.226 C 
HETATM    2  C8  UNL     1      12.311  23.911   5.020  1.00  0.00     0.055 C 
HETATM    3  C9  UNL     1      12.081  24.915   6.182  1.00  0.00     0.124 C 
HETATM    4  N2  UNL     1      10.807  24.793   6.701  1.00  0.00    -0.388 N 
HETATM    5  C22 UNL     1      10.275  23.487   6.944  1.00  0.00     0.124 C 
HETATM    6  C23 UNL     1      11.401  22.441   6.766  1.00  0.00     0.055 C 
ENDROOT
BRANCH   4   7
HETATM    7  C10 UNL     1      10.228  25.817   7.451  1.00  0.00     0.117 C 
BRANCH   7   8
HETATM    8  C11 UNL     1       9.028  26.361   6.750  1.00  0.00     0.087 A 
HETATM    9  N3  UNL     1       8.928  26.451   5.382  1.00  0.00    -0.189 N 
HETATM   10  C12 UNL     1       7.895  27.115   4.829  1.00  0.00     0.678 A 
ATOM     11  H3  UNL     1       9.633  26.016   4.787  1.00  0.00     0.184 HD
HETATM   12  N5  UNL     1       7.003  27.648   5.666  1.00  0.00    -0.200 N 
HETATM   13  C20 UNL     1       7.044  27.597   7.009  1.00  0.00     0.132 A 
ATOM     14  H5  UNL     1       6.214  28.141   5.247  1.00  0.00     0.183 HD
HETATM   15  C21 UNL     1       8.088  26.938   7.567  1.00  0.00     0.078 A 
HETATM   16 CL1  UNL     1       8.182  26.776   9.318  1.00  0.00    -0.080 Cl
BRANCH  10  17
HETATM   17  N4  UNL     1       7.870  27.348   3.557  1.00  0.00    -0.226 N 
ATOM     18  H4  UNL     1       7.932  28.327   3.277  1.00  0.00     0.177 HD
BRANCH  17  19
HETATM   19  C13 UNL     1       7.766  26.402   2.509  1.00  0.00     0.142 C 
BRANCH  19  20
HETATM   20  C14 UNL     1       8.164  25.002   2.877  1.00  0.00     0.004 C 
HETATM   21  C15 UNL     1       7.111  24.065   2.243  1.00  0.00     0.006 C 
HETATM   22  C16 UNL     1       7.424  22.655   2.519  1.00  0.00     0.000 C 
HETATM   23  C17 UNL     1       8.789  22.330   2.999  1.00  0.00     0.000 C 
HETATM   24  C18 UNL     1       9.839  23.160   2.339  1.00  0.00     0.000 C 
HETATM   25  C19 UNL     1       9.467  24.608   2.267  1.00  0.00     0.006 C 
ENDBRANCH  19  20
ENDBRANCH  17  19
ENDBRANCH  10  17
ENDBRANCH   7   8
ENDBRANCH   4   7
BRANCH   1  26
HETATM   26  N1  UNL     1      12.785  21.578   4.956  1.00  0.00     0.093 N 
HETATM   27  C6  UNL     1      12.391  20.740   3.837  1.00  0.00     0.273 C 
HETATM   28  C5  UNL     1      13.647  20.193   3.270  1.00  0.00     0.039 C 
HETATM   29  C4  UNL     1      14.288  19.278   4.366  1.00  0.00     0.022 C 
HETATM   30  C25 UNL     1      14.561  20.109   5.543  1.00  0.00     0.039 C 
HETATM   31  C24 UNL     1      13.293  20.811   6.052  1.00  0.00     0.273 C 
BRANCH  29  32
HETATM   32  C3  UNL     1      15.524  18.740   3.735  1.00  0.00    -0.047 A 
HETATM   33  C2  UNL     1      16.565  18.430   4.624  1.00  0.00     0.081 A 
HETATM   34  C1  UNL     1      17.736  17.851   4.137  1.00  0.00     0.245 A 
HETATM   35  O1  UNL     1      18.683  17.562   4.902  1.00  0.00    -0.268 OA
HETATM   36  N6  UNL     1      17.862  17.593   2.827  1.00  0.00    -0.334 N 
HETATM   37  C27 UNL     1      16.861  17.888   1.958  1.00  0.00     0.092 A 
ATOM     38  H6  UNL     1      18.721  17.169   2.478  1.00  0.00     0.168 HD
HETATM   39  C26 UNL     1      15.700  18.461   2.424  1.00  0.00     0.025 A 
ENDBRANCH  29  32
ENDBRANCH   1  26
TORSDOF 7
ENDMDL
MODEL 4
REMARK VINA RESULT: -10.455942030      2.200      4.432
REMARK  7 active torsions:
REMARK  status: ('A' for Active; 'I' for Inactive)
REMARK    1  A    between atoms: C3_4  and  C4_5 
REMARK    2  A    between atoms: N1_8  and  C7_9 
REMARK    3  A    between atoms: N2_12  and  C10_13 
REMARK    4  A    between atoms: C10_13  and  C11_14 
REMARK    5  A    between atoms: C12_17  and  N4_18 
REMARK    6  A    between atoms: N4_18  and  C13_20 
REMARK    7  A    between atoms: C13_20  and  C14_21 
ROOT
HETATM    1  C7  UNL     1      14.852  22.093   7.159  1.00  0.00     0.226 C 
HETATM    2  C8  UNL     1      14.456  20.725   7.555  1.00  0.00     0.055 C 
HETATM    3  C9  UNL     1      15.361  20.132   8.668  1.00  0.00     0.124 C 
HETATM    4  N2  UNL     1      16.696  20.378   8.409  1.00  0.00    -0.388 N 
HETATM    5  C22 UNL     1      17.092  21.679   7.965  1.00  0.00     0.124 C 
HETATM    6  C23 UNL     1      15.891  22.646   8.094  1.00  0.00     0.055 C 
ENDROOT
BRANCH   4   7
HETATM    7  C10 UNL     1      17.703  19.627   9.016  1.00  0.00     0.117 C 
BRANCH   7   8
HETATM    8  C11 UNL     1      18.271  18.641   8.051  1.00  0.00     0.087 A 
HETATM    9  N3  UNL     1      17.958  18.626   6.713  1.00  0.00    -0.189 N 
HETATM   10  C12 UNL     1      18.367  17.602   5.941  1.00  0.00     0.678 A 
ATOM     11  H3  UNL     1      17.416  19.389   6.305  1.00  0.00     0.184 HD
HETATM   12  N5  UNL     1      19.083  16.646   6.536  1.00  0.00    -0.200 N 
HETATM   13  C20 UNL     1      19.421  16.601   7.837  1.00  0.00     0.132 A 
ATOM     14  H5  UNL     1      19.403  15.875   5.949  1.00  0.00     0.183 HD
HETATM   15  C21 UNL     1      19.001  17.626   8.617  1.00  0.00     0.078 A 
HETATM   16 CL1  UNL     1      19.454  17.670  10.318  1.00  0.00    -0.080 Cl
BRANCH  10  17
HETATM   17  N4  UNL     1      17.947  17.488   4.722  1.00  0.00    -0.226 N 
ATOM     18  H4  UNL     1      18.653  17.577   3.992  1.00  0.00     0.177 HD
BRANCH  17  19
HETATM   19  C13 UNL     1      16.621  17.255   4.287  1.00  0.00     0.142 C 
BRANCH  19  20
HETATM   20  C14 UNL     1      15.866  18.482   3.863  1.00  0.00     0.004 C 
HETATM   21  C15 UNL     1      15.483  18.271   2.380  1.00  0.00     0.006 C 
HETATM   22  C16 UNL     1      14.708  19.411   1.869  1.00  0.00     0.000 C 
HETATM   23  C17 UNL     1      14.124  20.351   2.855  1.00  0.00     0.000 C 
HETATM   24  C18 UNL     1      13.615  19.655   4.074  1.00  0.00     0.000 C 
HETATM   25  C19 UNL     1      14.573  18.628   4.592  1.00  0.00     0.006 C 
ENDBRANCH  19  20
ENDBRANCH  17  19
ENDBRANCH  10  17
ENDBRANCH   7   8
ENDBRANCH   4   7
BRANCH   1  26
HETATM   26  N1  UNL     1      13.694  22.931   7.079  1.00  0.00     0.093 N 
HETATM   27  C6  UNL     1      12.572  22.463   7.873  1.00  0.00     0.273 C 
HETATM   28  C5  UNL     1      11.709  23.647   8.103  1.00  0.00     0.039 C 
HETATM   29  C4  UNL     1      11.166  24.100   6.707  1.00  0.00     0.022 C 
HETATM   30  C25 UNL     1      12.318  24.446   5.867  1.00  0.00     0.039 C 
HETATM   31  C24 UNL     1      13.306  23.275   5.745  1.00  0.00     0.273 C 
BRANCH  29  32
HETATM   32  C3  UNL     1      10.292  25.269   7.001  1.00  0.00    -0.047 A 
HETATM   33  C2  UNL     1       9.575  25.773   5.905  1.00  0.00     0.081 A 
HETATM   34  C1  UNL     1       8.673  26.818   6.095  1.00  0.00     0.245 A 
HETATM   35  O1  UNL     1       8.018  27.291   5.139  1.00  0.00    -0.268 OA
HETATM   36  N6  UNL     1       8.494  27.335   7.319  1.00  0.00    -0.334 N 
HETATM   37  C27 UNL     1       9.181  26.855   8.387  1.00  0.00     0.092 A 
ATOM     38  H6  UNL     1       7.831  28.099   7.450  1.00  0.00     0.168 HD
HETATM   39  C26 UNL     1      10.076  25.824   8.215  1.00  0.00     0.025 A 
ENDBRANCH  29  32
ENDBRANCH   1  26
TORSDOF 7
ENDMDL
MODEL 5
REMARK VINA RESULT: -10.422125964      1.143      1.676
REMARK  7 active torsions:
REMARK  status: ('A' for Active; 'I' for Inactive)
REMARK    1  A    between atoms: C3_4  and  C4_5 
REMARK    2  A    between atoms: N1_8  and  C7_9 
REMARK    3  A    between atoms: N2_12  and  C10_13 
REMARK    4  A    between atoms: C10_13  and  C11_14 
REMARK    5  A    between atoms: C12_17  and  N4_18 
REMARK    6  A    between atoms: N4_18  and  C13_20 
REMARK    7  A    between atoms: C13_20  and  C14_21 
ROOT
HETATM    1  C7  UNL     1      12.885  21.837   5.771  1.00  0.00     0.226 C 
HETATM    2  C8  UNL     1      13.925  22.532   4.984  1.00  0.00     0.055 C 
HETATM    3  C9  UNL     1      14.396  21.716   3.750  1.00  0.00     0.124 C 
HETATM    4  N2  UNL     1      14.600  20.390   4.078  1.00  0.00    -0.388 N 
HETATM    5  C22 UNL     1      13.635  19.715   4.891  1.00  0.00     0.124 C 
HETATM    6  C23 UNL     1      12.387  20.617   5.048  1.00  0.00     0.055 C 
ENDROOT
BRANCH   4   7
HETATM    7  C10 UNL     1      15.387  19.559   3.281  1.00  0.00     0.117 C 
BRANCH   7   8
HETATM    8  C11 UNL     1      16.561  19.055   4.053  1.00  0.00     0.087 A 
HETATM    9  N3  UNL     1      17.133  19.746   5.094  1.00  0.00    -0.189 N 
HETATM   10  C12 UNL     1      18.294  19.316   5.625  1.00  0.00     0.678 A 
ATOM     11  H3  UNL     1      16.681  20.582   5.464  1.00  0.00     0.184 HD
HETATM   12  N5  UNL     1      18.823  18.209   5.101  1.00  0.00    -0.200 N 
HETATM   13  C20 UNL     1      18.315  17.490   4.084  1.00  0.00     0.132 A 
ATOM     14  H5  UNL     1      19.697  17.876   5.510  1.00  0.00     0.183 HD
HETATM   15  C21 UNL     1      17.152  17.927   3.542  1.00  0.00     0.078 A 
HETATM   16 CL1  UNL     1      16.394  17.007   2.248  1.00  0.00    -0.080 Cl
BRANCH  10  17
HETATM   17  N4  UNL     1      18.928  20.038   6.491  1.00  0.00    -0.226 N 
ATOM     18  H4  UNL     1      19.836  20.400   6.198  1.00  0.00     0.177 HD
BRANCH  17  19
HETATM   19  C13 UNL     1      18.508  20.384   7.797  1.00  0.00     0.142 C 
BRANCH  19  20
HETATM   20  C14 UNL     1      17.021  20.485   7.979  1.00  0.00     0.004 C 
HETATM   21  C15 UNL     1      16.693  19.785   9.318  1.00  0.00     0.006 C 
HETATM   22  C16 UNL     1      15.254  19.853   9.611  1.00  0.00     0.000 C 
HETATM   23  C17 UNL     1      14.437  20.825   8.846  1.00  0.00     0.000 C 
HETATM   24  C18 UNL     1      15.158  22.108   8.599  1.00  0.00     0.000 C 
HETATM   25  C19 UNL     1      16.569  21.897   8.147  1.00  0.00     0.006 C 
ENDBRANCH  19  20
ENDBRANCH  17  19
ENDBRANCH  10  17
ENDBRANCH   7   8
ENDBRANCH   4   7
BRANCH   1  26
HETATM   26  N1  UNL     1      11.827  22.747   6.090  1.00  0.00     0.093 N 
HETATM   27  C6  UNL     1      11.752  23.095   7.498  1.00  0.00     0.273 C 
HETATM   28  C5  UNL     1      11.012  24.378   7.566  1.00  0.00     0.039 C 
HETATM   29  C4  UNL     1       9.560  24.099   7.053  1.00  0.00     0.022 C 
HETATM   30  C25 UNL     1       9.655  23.621   5.670  1.00  0.00     0.039 C 
HETATM   31  C24 UNL     1      10.551  22.377   5.557  1.00  0.00     0.273 C 
BRANCH  29  32
HETATM   32  C3  UNL     1       8.859  25.408   7.168  1.00  0.00    -0.047 A 
HETATM   33  C2  UNL     1       8.600  25.837   8.478  1.00  0.00     0.081 A 
HETATM   34  C1  UNL     1       8.014  27.084   8.690  1.00  0.00     0.245 A 
HETATM   35  O1  UNL     1       7.770  27.498   9.846  1.00  0.00    -0.268 OA
HETATM   36  N6  UNL     1       7.705  27.866   7.645  1.00  0.00    -0.334 N 
HETATM   37  C27 UNL     1       7.952  27.462   6.373  1.00  0.00     0.092 A 
ATOM     38  H6  UNL     1       7.277  28.778   7.809  1.00  0.00     0.168 HD
HETATM   39  C26 UNL     1       8.528  26.232   6.148  1.00  0.00     0.025 A 
ENDBRANCH  29  32
ENDBRANCH   1  26
TORSDOF 7
ENDMDL
