MODEL 1
REMARK VINA RESULT: -10.062219560      0.000      0.000
REMARK  10 active torsions:
REMARK  status: ('A' for Active; 'I' for Inactive)
REMARK    1  A    between atoms: N1_1  and  C1_4 
REMARK    2  A    between atoms: C2_7  and  N3_8 
REMARK    3  A    between atoms: N3_8  and  C3_10 
REMARK    4  A    between atoms: C4_19  and  N9_20 
REMARK    5  A    between atoms: N9_20  and  O1_22 
REMARK    6  A    between atoms: C5_24  and  O2_25 
REMARK    7  A    between atoms: C6_27  and  N10_28 
REMARK       I    between atoms: N10_28  and  C7_30 
REMARK    8  A    between atoms: C7_30  and  C8_32 
REMARK    9  A    between atoms: C8_32  and  C9_33 
REMARK   10  A    between atoms: C10_36  and  C11_37 
ROOT
HETATM    1  C1  UNL     1      34.199   0.441 -13.258  1.00  0.00     0.144 C 
HETATM    2  N2  UNL     1      35.092  -0.473 -12.830  1.00  0.00    -0.174 N 
ATOM      3  H2  UNL     1      34.767  -1.435 -12.730  1.00  0.00     0.186 HD
HETATM    4  C2  UNL     1      36.389  -0.220 -12.522  1.00  0.00     0.700 C 
HETATM    5  N8  UNL     1      37.262   0.654 -13.065  1.00  0.00    -0.171 N 
ATOM      6  H8  UNL     1      38.257   0.493 -12.905  1.00  0.00     0.186 HD
HETATM    7  C4  UNL     1      36.911   1.725 -13.804  1.00  0.00     0.176 C 
HETATM    8  C5  UNL     1      35.660   2.287 -14.036  1.00  0.00     0.143 C 
HETATM    9  C6  UNL     1      34.426   1.688 -13.791  1.00  0.00     0.117 C 
ENDROOT
BRANCH   9  10
HETATM   10  N10 UNL     1      33.283   2.460 -14.136  1.00  0.00    -0.321 N 
HETATM   11  C7  UNL     1      33.011   2.654 -15.517  1.00  0.00     0.230 C 
HETATM   12  O3  UNL     1      33.734   2.173 -16.408  1.00  0.00    -0.273 OA
ATOM     13  H10 UNL     1      32.680   2.861 -13.416  1.00  0.00     0.169 HD
BRANCH  11  14
HETATM   14  C8  UNL     1      31.820   3.459 -15.874  1.00  0.00     0.189 C 
BRANCH  14  15
HETATM   15  C9  UNL     1      31.407   4.232 -14.677  1.00  0.00     0.157 A 
HETATM   16  N11 UNL     1      31.456   5.557 -14.446  1.00  0.00    -0.320 N 
HETATM   17  C10 UNL     1      30.976   5.833 -13.220  1.00  0.00     0.174 A 
ATOM     18  H11 UNL     1      31.805   6.251 -15.105  1.00  0.00     0.169 HD
HETATM   19  N16 UNL     1      30.632   4.630 -12.709  1.00  0.00    -0.240 N 
HETATM   20  O4  UNL     1      30.898   3.706 -13.590  1.00  0.00    -0.222 OA
ATOM     21  H16 UNL     1      30.231   4.471 -11.785  1.00  0.00     0.196 HD
BRANCH  17  22
HETATM   22  C11 UNL     1      30.855   7.139 -12.584  1.00  0.00     0.178 A 
HETATM   23  N12 UNL     1      29.810   7.981 -12.605  1.00  0.00    -0.267 N 
HETATM   24  N13 UNL     1      30.104   9.081 -11.893  1.00  0.00    -0.007 NA
ATOM     25  H12 UNL     1      28.927   7.811 -13.088  1.00  0.00     0.185 HD
HETATM   26  N14 UNL     1      31.331   8.929 -11.427  1.00  0.00    -0.007 NA
HETATM   27  N15 UNL     1      31.795   7.749 -11.843  1.00  0.00    -0.267 N 
ATOM     28  H15 UNL     1      32.718   7.370 -11.633  1.00  0.00     0.185 HD
ENDBRANCH  17  22
ENDBRANCH  14  15
ENDBRANCH  11  14
ENDBRANCH   9  10
BRANCH   1  29
HETATM   29  N1  UNL     1      32.979   0.102 -13.152  1.00  0.00    -0.383 N 
ATOM     30  H12 UNL     1      32.634  -0.531 -13.873  1.00  0.00     0.157 HD
ATOM     31  H11 UNL     1      32.482   0.502 -12.357  1.00  0.00     0.157 HD
ENDBRANCH   1  29
BRANCH   8  32
HETATM   32  O2  UNL     1      35.616   3.570 -14.560  1.00  0.00    -0.355 OA
ATOM     33  H2  UNL     1      34.768   3.916 -14.811  1.00  0.00     0.218 HD
ENDBRANCH   8  32
BRANCH   7  34
HETATM   34  N9  UNL     1      37.888   2.313 -14.380  1.00  0.00    -0.250 N 
ATOM     35  H9  UNL     1      37.886   2.384 -15.398  1.00  0.00     0.196 HD
BRANCH  34  36
HETATM   36  O1  UNL     1      38.931   2.846 -13.691  1.00  0.00    -0.288 OA
ATOM     37  H1  UNL     1      39.361   3.651 -13.956  1.00  0.00     0.244 HD
ENDBRANCH  34  36
ENDBRANCH   7  34
BRANCH   4  38
HETATM   38  N3  UNL     1      36.967  -0.981 -11.453  1.00  0.00    -0.020 N 
ATOM     39  H3  UNL     1      37.741  -1.620 -11.631  1.00  0.00     0.203 HD
BRANCH  38  40
HETATM   40  C3  UNL     1      36.488  -0.843 -10.257  1.00  0.00     0.722 A 
HETATM   41  N4  UNL     1      35.965   0.248  -9.667  1.00  0.00    -0.116 N 
HETATM   42  N5  UNL     1      35.592  -0.053  -8.422  1.00  0.00     0.006 NA
ATOM     43  H4  UNL     1      35.868   1.164 -10.105  1.00  0.00     0.202 HD
HETATM   44  N6  UNL     1      35.888  -1.339  -8.243  1.00  0.00     0.006 NA
HETATM   45  N7  UNL     1      36.430  -1.829  -9.345  1.00  0.00    -0.116 N 
ATOM     46  H7  UNL     1      36.748  -2.789  -9.479  1.00  0.00     0.202 HD
ENDBRANCH  38  40
ENDBRANCH   4  38
TORSDOF 10
ENDMDL
MODEL 2
REMARK VINA RESULT: -9.683809934      3.046      8.740
REMARK  10 active torsions:
REMARK  status: ('A' for Active; 'I' for Inactive)
REMARK    1  A    between atoms: N1_1  and  C1_4 
REMARK    2  A    between atoms: C2_7  and  N3_8 
REMARK    3  A    between atoms: N3_8  and  C3_10 
REMARK    4  A    between atoms: C4_19  and  N9_20 
REMARK    5  A    between atoms: N9_20  and  O1_22 
REMARK    6  A    between atoms: C5_24  and  O2_25 
REMARK    7  A    between atoms: C6_27  and  N10_28 
REMARK       I    between atoms: N10_28  and  C7_30 
REMARK    8  A    between atoms: C7_30  and  C8_32 
REMARK    9  A    between atoms: C8_32  and  C9_33 
REMARK   10  A    between atoms: C10_36  and  C11_37 
ROOT
HETATM    1  C1  UNL     1      35.319   3.515 -17.100  1.00  0.00     0.144 C 
HETATM    2  N2  UNL     1      34.527   4.005 -18.074  1.00  0.00    -0.174 N 
ATOM      3  H2  UNL     1      34.884   3.973 -19.029  1.00  0.00     0.186 HD
HETATM    4  C2  UNL     1      33.293   4.537 -17.889  1.00  0.00     0.700 C 
HETATM    5  N8  UNL     1      32.324   4.215 -17.006  1.00  0.00    -0.171 N 
ATOM      6  H8  UNL     1      31.373   4.520 -17.213  1.00  0.00     0.186 HD
HETATM    7  C4  UNL     1      32.528   3.519 -15.870  1.00  0.00     0.176 C 
HETATM    8  C5  UNL     1      33.712   3.136 -15.250  1.00  0.00     0.143 C 
HETATM    9  C6  UNL     1      34.982   3.128 -15.824  1.00  0.00     0.117 C 
ENDROOT
BRANCH   9  10
HETATM   10  N10 UNL     1      36.036   2.668 -14.989  1.00  0.00    -0.321 N 
HETATM   11  C7  UNL     1      36.420   1.305 -15.103  1.00  0.00     0.230 C 
HETATM   12  O3  UNL     1      35.865   0.525 -15.899  1.00  0.00    -0.273 OA
ATOM     13  H10 UNL     1      36.501   3.295 -14.332  1.00  0.00     0.169 HD
BRANCH  11  14
HETATM   14  C8  UNL     1      37.519   0.828 -14.233  1.00  0.00     0.189 C 
BRANCH  14  15
HETATM   15  C9  UNL     1      36.974   0.625 -12.868  1.00  0.00     0.157 A 
HETATM   16  N11 UNL     1      37.134  -0.406 -12.018  1.00  0.00    -0.320 N 
HETATM   17  C10 UNL     1      36.461  -0.177 -10.877  1.00  0.00     0.174 A 
ATOM     18  H11 UNL     1      37.686  -1.241 -12.212  1.00  0.00     0.169 HD
HETATM   19  N16 UNL     1      35.883   1.031 -11.057  1.00  0.00    -0.240 N 
HETATM   20  O4  UNL     1      36.204   1.479 -12.239  1.00  0.00    -0.222 OA
ATOM     21  H16 UNL     1      35.293   1.514 -10.380  1.00  0.00     0.196 HD
BRANCH  17  22
HETATM   22  C11 UNL     1      36.373  -1.041  -9.706  1.00  0.00     0.178 A 
HETATM   23  N12 UNL     1      35.477  -1.001  -8.707  1.00  0.00    -0.267 N 
HETATM   24  N13 UNL     1      35.748  -1.972  -7.821  1.00  0.00    -0.007 NA
ATOM     25  H12 UNL     1      34.709  -0.334  -8.634  1.00  0.00     0.185 HD
HETATM   26  N14 UNL     1      36.811  -2.620  -8.263  1.00  0.00    -0.007 NA
HETATM   27  N15 UNL     1      37.199  -2.059  -9.410  1.00  0.00    -0.267 N 
ATOM     28  H15 UNL     1      37.995  -2.356  -9.973  1.00  0.00     0.185 HD
ENDBRANCH  17  22
ENDBRANCH  14  15
ENDBRANCH  11  14
ENDBRANCH   9  10
BRANCH   1  29
HETATM   29  N1  UNL     1      36.546   3.394 -17.405  1.00  0.00    -0.383 N 
ATOM     30  H12 UNL     1      36.855   2.448 -17.627  1.00  0.00     0.157 HD
ATOM     31  H11 UNL     1      37.086   4.260 -17.393  1.00  0.00     0.157 HD
ENDBRANCH   1  29
BRANCH   8  32
HETATM   32  O2  UNL     1      33.643   2.717 -13.930  1.00  0.00    -0.355 OA
ATOM     33  H2  UNL     1      33.746   3.374 -13.252  1.00  0.00     0.218 HD
ENDBRANCH   8  32
BRANCH   7  34
HETATM   34  N9  UNL     1      31.457   3.158 -15.273  1.00  0.00    -0.250 N 
ATOM     35  H9  UNL     1      31.093   2.220 -15.444  1.00  0.00     0.196 HD
BRANCH  34  36
HETATM   36  O1  UNL     1      30.785   3.973 -14.419  1.00  0.00    -0.288 OA
ATOM     37  H1  UNL     1      29.942   4.355 -14.633  1.00  0.00     0.244 HD
ENDBRANCH  34  36
ENDBRANCH   7  34
BRANCH   4  38
HETATM   38  N3  UNL     1      32.913   5.620 -18.750  1.00  0.00    -0.020 N 
ATOM     39  H3  UNL     1      32.411   5.441 -19.619  1.00  0.00     0.203 HD
BRANCH  38  40
HETATM   40  C3  UNL     1      33.219   6.831 -18.404  1.00  0.00     0.722 A 
HETATM   41  N4  UNL     1      34.400   7.471 -18.489  1.00  0.00    -0.116 N 
HETATM   42  N5  UNL     1      34.271   8.712 -18.017  1.00  0.00     0.006 NA
ATOM     43  H4  UNL     1      35.262   7.069 -18.859  1.00  0.00     0.202 HD
HETATM   44  N6  UNL     1      33.000   8.838 -17.637  1.00  0.00     0.006 NA
HETATM   45  N7  UNL     1      32.354   7.708 -17.866  1.00  0.00    -0.116 N 
ATOM     46  H7  UNL     1      31.369   7.532 -17.668  1.00  0.00     0.202 HD
ENDBRANCH  38  40
ENDBRANCH   4  38
TORSDOF 10
ENDMDL
MODEL 3
REMARK VINA RESULT: -9.489902646      2.549      4.568
REMARK  10 active torsions:
REMARK  status: ('A' for Active; 'I' for Inactive)
REMARK    1  A    between atoms: N1_1  and  C1_4 
REMARK    2  A    between atoms: C2_7  and  N3_8 
REMARK    3  A    between atoms: N3_8  and  C3_10 
REMARK    4  A    between atoms: C4_19  and  N9_20 
REMARK    5  A    between atoms: N9_20  and  O1_22 
REMARK    6  A    between atoms: C5_24  and  O2_25 
REMARK    7  A    between atoms: C6_27  and  N10_28 
REMARK       I    between atoms: N10_28  and  C7_30 
REMARK    8  A    between atoms: C7_30  and  C8_32 
REMARK    9  A    between atoms: C8_32  and  C9_33 
REMARK   10  A    between atoms: C10_36  and  C11_37 
ROOT
HETATM    1  C1  UNL     1      35.769   1.812 -15.984  1.00  0.00     0.144 C 
HETATM    2  N2  UNL     1      37.089   1.553 -15.888  1.00  0.00    -0.174 N 
ATOM      3  H2  UNL     1      37.726   2.182 -16.376  1.00  0.00     0.186 HD
HETATM    4  C2  UNL     1      37.638   0.524 -15.196  1.00  0.00     0.700 C 
HETATM    5  N8  UNL     1      37.250  -0.062 -14.044  1.00  0.00    -0.171 N 
ATOM      6  H8  UNL     1      37.942  -0.609 -13.532  1.00  0.00     0.186 HD
HETATM    7  C4  UNL     1      36.009   0.025 -13.524  1.00  0.00     0.176 C 
HETATM    8  C5  UNL     1      34.838   0.538 -14.071  1.00  0.00     0.143 C 
HETATM    9  C6  UNL     1      34.740   1.362 -15.191  1.00  0.00     0.117 C 
ENDROOT
BRANCH   9  10
HETATM   10  N10 UNL     1      33.426   1.776 -15.541  1.00  0.00    -0.321 N 
HETATM   11  C7  UNL     1      32.853   2.845 -14.801  1.00  0.00     0.230 C 
HETATM   12  O3  UNL     1      33.463   3.412 -13.876  1.00  0.00    -0.273 OA
ATOM     13  H10 UNL     1      32.913   1.322 -16.298  1.00  0.00     0.169 HD
BRANCH  11  14
HETATM   14  C8  UNL     1      31.485   3.276 -15.168  1.00  0.00     0.189 C 
BRANCH  14  15
HETATM   15  C9  UNL     1      31.064   4.338 -14.221  1.00  0.00     0.157 A 
HETATM   16  N11 UNL     1      31.198   5.674 -14.307  1.00  0.00    -0.320 N 
HETATM   17  C10 UNL     1      30.672   6.265 -13.220  1.00  0.00     0.174 A 
ATOM     18  H11 UNL     1      31.635   6.167 -15.085  1.00  0.00     0.169 HD
HETATM   19  N16 UNL     1      30.211   5.244 -12.465  1.00  0.00    -0.240 N 
HETATM   20  O4  UNL     1      30.456   4.121 -13.081  1.00  0.00    -0.222 OA
ATOM     21  H16 UNL     1      29.747   5.336 -11.561  1.00  0.00     0.196 HD
BRANCH  17  22
HETATM   22  C11 UNL     1      30.613   7.691 -12.922  1.00  0.00     0.178 A 
HETATM   23  N12 UNL     1      29.688   8.355 -12.212  1.00  0.00    -0.267 N 
HETATM   24  N13 UNL     1      30.002   9.660 -12.174  1.00  0.00    -0.007 NA
ATOM     25  H12 UNL     1      28.872   7.933 -11.770  1.00  0.00     0.185 HD
HETATM   26  N14 UNL     1      31.122   9.814 -12.858  1.00  0.00    -0.007 NA
HETATM   27  N15 UNL     1      31.501   8.619 -13.317  1.00  0.00    -0.267 N 
ATOM     28  H15 UNL     1      32.332   8.439 -13.879  1.00  0.00     0.185 HD
ENDBRANCH  17  22
ENDBRANCH  14  15
ENDBRANCH  11  14
ENDBRANCH   9  10
BRANCH   1  29
HETATM   29  N1  UNL     1      35.432   2.577 -16.940  1.00  0.00    -0.383 N 
ATOM     30  H12 UNL     1      35.172   3.527 -16.674  1.00  0.00     0.157 HD
ATOM     31  H11 UNL     1      35.459   2.155 -17.868  1.00  0.00     0.157 HD
ENDBRANCH   1  29
BRANCH   8  32
HETATM   32  O2  UNL     1      33.640   0.207 -13.457  1.00  0.00    -0.355 OA
ATOM     33  H2  UNL     1      32.910   0.806 -13.561  1.00  0.00     0.218 HD
ENDBRANCH   8  32
BRANCH   7  34
HETATM   34  N9  UNL     1      35.900  -0.440 -12.339  1.00  0.00    -0.250 N 
ATOM     35  H9  UNL     1      36.026  -1.442 -12.192  1.00  0.00     0.196 HD
BRANCH  34  36
HETATM   36  O1  UNL     1      35.623   0.347 -11.266  1.00  0.00    -0.288 OA
ATOM     37  H1  UNL     1      35.543   0.002 -10.385  1.00  0.00     0.244 HD
ENDBRANCH  34  36
ENDBRANCH   7  34
BRANCH   4  38
HETATM   38  N3  UNL     1      38.828  -0.066 -15.738  1.00  0.00    -0.020 N 
ATOM     39  H3  UNL     1      39.432  -0.645 -15.156  1.00  0.00     0.203 HD
BRANCH  38  40
HETATM   40  C3  UNL     1      39.122   0.150 -16.982  1.00  0.00     0.722 A 
HETATM   41  N4  UNL     1      38.429   0.825 -17.918  1.00  0.00    -0.116 N 
HETATM   42  N5  UNL     1      39.099   0.802 -19.072  1.00  0.00     0.006 NA
ATOM     43  H4  UNL     1      37.531   1.285 -17.769  1.00  0.00     0.202 HD
HETATM   44  N6  UNL     1      40.213   0.107 -18.845  1.00  0.00     0.006 NA
HETATM   45  N7  UNL     1      40.239  -0.293 -17.585  1.00  0.00    -0.116 N 
ATOM     46  H7  UNL     1      40.978  -0.842 -17.147  1.00  0.00     0.202 HD
ENDBRANCH  38  40
ENDBRANCH   4  38
TORSDOF 10
ENDMDL
MODEL 4
REMARK VINA RESULT: -9.451811614      4.085      9.210
REMARK  10 active torsions:
REMARK  status: ('A' for Active; 'I' for Inactive)
REMARK    1  A    between atoms: N1_1  and  C1_4 
REMARK    2  A    between atoms: C2_7  and  N3_8 
REMARK    3  A    between atoms: N3_8  and  C3_10 
REMARK    4  A    between atoms: C4_19  and  N9_20 
REMARK    5  A    between atoms: N9_20  and  O1_22 
REMARK    6  A    between atoms: C5_24  and  O2_25 
REMARK    7  A    between atoms: C6_27  and  N10_28 
REMARK       I    between atoms: N10_28  and  C7_30 
REMARK    8  A    between atoms: C7_30  and  C8_32 
REMARK    9  A    between atoms: C8_32  and  C9_33 
REMARK   10  A    between atoms: C10_36  and  C11_37 
ROOT
HETATM    1  C1  UNL     1      32.836   4.117 -16.710  1.00  0.00     0.144 C 
HETATM    2  N2  UNL     1      31.743   4.146 -15.921  1.00  0.00    -0.174 N 
ATOM      3  H2  UNL     1      30.850   4.356 -16.366  1.00  0.00     0.186 HD
HETATM    4  C2  UNL     1      31.734   3.918 -14.584  1.00  0.00     0.700 C 
HETATM    5  N8  UNL     1      32.484   3.083 -13.834  1.00  0.00    -0.171 N 
ATOM      6  H8  UNL     1      32.135   2.834 -12.908  1.00  0.00     0.186 HD
HETATM    7  C4  UNL     1      33.661   2.555 -14.223  1.00  0.00     0.176 C 
HETATM    8  C5  UNL     1      34.454   2.844 -15.329  1.00  0.00     0.143 C 
HETATM    9  C6  UNL     1      34.065   3.551 -16.465  1.00  0.00     0.117 C 
ENDROOT
BRANCH   9  10
HETATM   10  N10 UNL     1      35.055   3.695 -17.474  1.00  0.00    -0.321 N 
HETATM   11  C7  UNL     1      35.001   2.808 -18.583  1.00  0.00     0.230 C 
HETATM   12  O3  UNL     1      34.125   1.929 -18.685  1.00  0.00    -0.273 OA
ATOM     13  H10 UNL     1      35.779   4.411 -17.406  1.00  0.00     0.169 HD
BRANCH  11  14
HETATM   14  C8  UNL     1      36.033   2.960 -19.633  1.00  0.00     0.189 C 
BRANCH  14  15
HETATM   15  C9  UNL     1      37.183   2.092 -19.282  1.00  0.00     0.157 A 
HETATM   16  N11 UNL     1      38.141   1.567 -20.068  1.00  0.00    -0.320 N 
HETATM   17  C10 UNL     1      38.997   0.835 -19.334  1.00  0.00     0.174 A 
ATOM     18  H11 UNL     1      38.209   1.705 -21.076  1.00  0.00     0.169 HD
HETATM   19  N16 UNL     1      38.529   0.930 -18.069  1.00  0.00    -0.240 N 
HETATM   20  O4  UNL     1      37.460   1.676 -18.070  1.00  0.00    -0.222 OA
ATOM     21  H16 UNL     1      38.944   0.489 -17.248  1.00  0.00     0.196 HD
BRANCH  17  22
HETATM   22  C11 UNL     1      40.168   0.102 -19.798  1.00  0.00     0.178 A 
HETATM   23  N12 UNL     1      41.085  -0.551 -19.067  1.00  0.00    -0.267 N 
HETATM   24  N13 UNL     1      42.005  -1.094 -19.880  1.00  0.00    -0.007 NA
ATOM     25  H12 UNL     1      41.082  -0.624 -18.049  1.00  0.00     0.185 HD
HETATM   26  N14 UNL     1      41.667  -0.781 -21.118  1.00  0.00    -0.007 NA
HETATM   27  N15 UNL     1      40.549  -0.052 -21.077  1.00  0.00    -0.267 N 
ATOM     28  H15 UNL     1      40.061   0.327 -21.888  1.00  0.00     0.185 HD
ENDBRANCH  17  22
ENDBRANCH  14  15
ENDBRANCH  11  14
ENDBRANCH   9  10
BRANCH   1  29
HETATM   29  N1  UNL     1      32.710   4.693 -17.835  1.00  0.00    -0.383 N 
ATOM     30  H12 UNL     1      32.394   4.100 -18.602  1.00  0.00     0.157 HD
ATOM     31  H11 UNL     1      32.941   5.686 -17.846  1.00  0.00     0.157 HD
ENDBRANCH   1  29
BRANCH   8  32
HETATM   32  O2  UNL     1      35.766   2.394 -15.317  1.00  0.00    -0.355 OA
ATOM     33  H2  UNL     1      35.913   1.466 -15.178  1.00  0.00     0.218 HD
ENDBRANCH   8  32
BRANCH   7  34
HETATM   34  N9  UNL     1      34.114   1.646 -13.449  1.00  0.00    -0.250 N 
ATOM     35  H9  UNL     1      33.655   0.735 -13.442  1.00  0.00     0.196 HD
BRANCH  34  36
HETATM   36  O1  UNL     1      35.184   1.844 -12.635  1.00  0.00    -0.288 OA
ATOM     37  H1  UNL     1      36.079   1.721 -12.927  1.00  0.00     0.244 HD
ENDBRANCH  34  36
ENDBRANCH   7  34
BRANCH   4  38
HETATM   38  N3  UNL     1      30.791   4.662 -13.801  1.00  0.00    -0.020 N 
ATOM     39  H3  UNL     1      30.010   4.192 -13.344  1.00  0.00     0.203 HD
BRANCH  38  40
HETATM   40  C3  UNL     1      30.948   5.943 -13.684  1.00  0.00     0.722 A 
HETATM   41  N4  UNL     1      31.113   6.874 -14.642  1.00  0.00    -0.116 N 
HETATM   42  N5  UNL     1      31.239   8.078 -14.079  1.00  0.00     0.006 NA
ATOM     43  H4  UNL     1      31.137   6.689 -15.645  1.00  0.00     0.202 HD
HETATM   44  N6  UNL     1      31.153   7.886 -12.764  1.00  0.00     0.006 NA
HETATM   45  N7  UNL     1      30.977   6.600 -12.512  1.00  0.00    -0.116 N 
ATOM     46  H7  UNL     1      30.879   6.180 -11.587  1.00  0.00     0.202 HD
ENDBRANCH  38  40
ENDBRANCH   4  38
TORSDOF 10
ENDMDL
MODEL 5
REMARK VINA RESULT: -9.410414315      4.288      9.135
REMARK  10 active torsions:
REMARK  status: ('A' for Active; 'I' for Inactive)
REMARK    1  A    between atoms: N1_1  and  C1_4 
REMARK    2  A    between atoms: C2_7  and  N3_8 
REMARK    3  A    between atoms: N3_8  and  C3_10 
REMARK    4  A    between atoms: C4_19  and  N9_20 
REMARK    5  A    between atoms: N9_20  and  O1_22 
REMARK    6  A    between atoms: C5_24  and  O2_25 
REMARK    7  A    between atoms: C6_27  and  N10_28 
REMARK       I    between atoms: N10_28  and  C7_30 
REMARK    8  A    between atoms: C7_30  and  C8_32 
REMARK    9  A    between atoms: C8_32  and  C9_33 
REMARK   10  A    between atoms: C10_36  and  C11_37 
ROOT
HETATM    1  C1  UNL     1      35.160   2.998 -15.215  1.00  0.00     0.144 C 
HETATM    2  N2  UNL     1      33.936   3.529 -15.017  1.00  0.00    -0.174 N 
ATOM      3  H2  UNL     1      33.791   4.065 -14.162  1.00  0.00     0.186 HD
HETATM    4  C2  UNL     1      32.884   3.410 -15.864  1.00  0.00     0.700 C 
HETATM    5  N8  UNL     1      32.847   3.352 -17.213  1.00  0.00    -0.171 N 
ATOM      6  H8  UNL     1      31.961   3.562 -17.673  1.00  0.00     0.186 HD
HETATM    7  C4  UNL     1      33.900   3.037 -17.992  1.00  0.00     0.176 C 
HETATM    8  C5  UNL     1      35.155   2.544 -17.652  1.00  0.00     0.143 C 
HETATM    9  C6  UNL     1      35.726   2.539 -16.381  1.00  0.00     0.117 C 
ENDROOT
BRANCH   9  10
HETATM   10  N10 UNL     1      37.037   1.998 -16.292  1.00  0.00    -0.321 N 
HETATM   11  C7  UNL     1      37.165   0.641 -15.891  1.00  0.00     0.230 C 
HETATM   12  O3  UNL     1      36.176  -0.066 -15.622  1.00  0.00    -0.273 OA
ATOM     13  H10 UNL     1      37.858   2.565 -16.510  1.00  0.00     0.169 HD
BRANCH  11  14
HETATM   14  C8  UNL     1      38.532   0.079 -15.800  1.00  0.00     0.189 C 
BRANCH  14  15
HETATM   15  C9  UNL     1      39.149   0.141 -17.147  1.00  0.00     0.157 A 
HETATM   16  N11 UNL     1      38.715   0.744 -18.269  1.00  0.00    -0.320 N 
HETATM   17  C10 UNL     1      39.590   0.548 -19.271  1.00  0.00     0.174 A 
ATOM     18  H11 UNL     1      37.848   1.273 -18.349  1.00  0.00     0.169 HD
HETATM   19  N16 UNL     1      40.576  -0.196 -18.723  1.00  0.00    -0.240 N 
HETATM   20  O4  UNL     1      40.289  -0.420 -17.471  1.00  0.00    -0.222 OA
ATOM     21  H16 UNL     1      41.409  -0.529 -19.209  1.00  0.00     0.196 HD
BRANCH  17  22
HETATM   22  C11 UNL     1      39.497   1.031 -20.643  1.00  0.00     0.178 A 
HETATM   23  N12 UNL     1      38.815   2.089 -21.109  1.00  0.00    -0.267 N 
HETATM   24  N13 UNL     1      38.991   2.188 -22.436  1.00  0.00    -0.007 NA
ATOM     25  H12 UNL     1      38.250   2.720 -20.541  1.00  0.00     0.185 HD
HETATM   26  N14 UNL     1      39.782   1.195 -22.802  1.00  0.00    -0.007 NA
HETATM   27  N15 UNL     1      40.094   0.485 -21.716  1.00  0.00    -0.267 N 
ATOM     28  H15 UNL     1      40.691  -0.341 -21.703  1.00  0.00     0.185 HD
ENDBRANCH  17  22
ENDBRANCH  14  15
ENDBRANCH  11  14
ENDBRANCH   9  10
BRANCH   1  29
HETATM   29  N1  UNL     1      35.889   2.910 -14.178  1.00  0.00    -0.383 N 
ATOM     30  H12 UNL     1      35.469   3.251 -13.313  1.00  0.00     0.157 HD
ATOM     31  H11 UNL     1      36.814   2.507 -14.327  1.00  0.00     0.157 HD
ENDBRANCH   1  29
BRANCH   8  32
HETATM   32  O2  UNL     1      35.930   1.997 -18.664  1.00  0.00    -0.355 OA
ATOM     33  H2  UNL     1      36.645   1.425 -18.414  1.00  0.00     0.218 HD
ENDBRANCH   8  32
BRANCH   7  34
HETATM   34  N9  UNL     1      33.707   3.224 -19.241  1.00  0.00    -0.250 N 
ATOM     35  H9  UNL     1      33.909   4.142 -19.636  1.00  0.00     0.196 HD
BRANCH  34  36
HETATM   36  O1  UNL     1      33.244   2.247 -20.064  1.00  0.00    -0.288 OA
ATOM     37  H1  UNL     1      32.327   2.166 -20.298  1.00  0.00     0.244 HD
ENDBRANCH  34  36
ENDBRANCH   7  34
BRANCH   4  38
HETATM   38  N3  UNL     1      31.578   3.330 -15.276  1.00  0.00    -0.020 N 
ATOM     39  H3  UNL     1      30.956   2.553 -15.497  1.00  0.00     0.203 HD
BRANCH  38  40
HETATM   40  C3  UNL     1      31.203   4.262 -14.458  1.00  0.00     0.722 A 
HETATM   41  N4  UNL     1      30.986   4.197 -13.131  1.00  0.00    -0.116 N 
HETATM   42  N5  UNL     1      30.609   5.396 -12.681  1.00  0.00     0.006 NA
ATOM     43  H4  UNL     1      31.093   3.360 -12.557  1.00  0.00     0.202 HD
HETATM   44  N6  UNL     1      30.593   6.205 -13.739  1.00  0.00     0.006 NA
HETATM   45  N7  UNL     1      30.951   5.532 -14.819  1.00  0.00    -0.116 N 
ATOM     46  H7  UNL     1      31.023   5.911 -15.763  1.00  0.00     0.202 HD
ENDBRANCH  38  40
ENDBRANCH   4  38
TORSDOF 10
ENDMDL
