MODEL 1
REMARK VINA RESULT: -9.214574901      0.000      0.000
REMARK  10 active torsions:
REMARK  status: ('A' for Active; 'I' for Inactive)
REMARK    1  A    between atoms: N1_1  and  N2_4 
REMARK    2  A    between atoms: N2_4  and  N3_5 
REMARK    3  A    between atoms: N3_5  and  C1_7 
REMARK    4  A    between atoms: C3_13  and  C4_14 
REMARK       I    between atoms: C4_14  and  N6_16 
REMARK    5  A    between atoms: N6_16  and  C5_18 
REMARK    6  A    between atoms: C6_21  and  N8_22 
REMARK    7  A    between atoms: C7_27  and  N10_28 
REMARK    8  A    between atoms: C8_35  and  C9_36 
REMARK    9  A    between atoms: C9_36  and  N13_37 
REMARK   10  A    between atoms: C9_36  and  C10_41 
ROOT
HETATM    1  C1  UNL     1      35.265   3.135 -17.586  1.00  0.00     0.245 C 
HETATM    2  N4  UNL     1      36.675   3.324 -17.610  1.00  0.00    -0.025 NA
HETATM    3  O1  UNL     1      36.717   3.836 -18.968  1.00  0.00    -0.161 OA
HETATM    4  N5  UNL     1      35.720   4.827 -18.904  1.00  0.00    -0.243 N 
ATOM      5  H5  UNL     1      35.723   5.697 -19.436  1.00  0.00     0.196 HD
HETATM    6  C2  UNL     1      34.804   4.473 -18.074  1.00  0.00     0.121 C 
HETATM    7  C3  UNL     1      33.624   5.066 -17.487  1.00  0.00     0.131 C 
HETATM    8  N12 UNL     1      33.039   4.524 -16.444  1.00  0.00    -0.350 N 
ATOM      9  H12 UNL     1      32.220   4.972 -16.034  1.00  0.00     0.166 HD
HETATM   10  C8  UNL     1      33.544   3.303 -15.873  1.00  0.00     0.074 C 
HETATM   11  C11 UNL     1      34.576   2.671 -16.396  1.00  0.00     0.104 C 
HETATM   12  N15 UNL     1      35.030   1.470 -15.805  1.00  0.00    -0.100 NA
ENDROOT
BRANCH   7  13
HETATM   13  C4  UNL     1      33.031   6.269 -18.003  1.00  0.00     0.288 C 
HETATM   14  O2  UNL     1      32.734   7.219 -17.191  1.00  0.00    -0.265 OA
HETATM   15  N6  UNL     1      32.746   6.485 -19.354  1.00  0.00    -0.153 N 
ATOM     16  H6  UNL     1      32.961   5.764 -20.042  1.00  0.00     0.187 HD
BRANCH  15  17
HETATM   17  C5  UNL     1      32.149   7.730 -19.777  1.00  0.00     0.702 A 
HETATM   18  N7  UNL     1      31.026   7.783 -20.501  1.00  0.00    -0.154 N 
HETATM   19  C6  UNL     1      30.442   8.902 -20.913  1.00  0.00     0.278 A 
ATOM     20  H7  UNL     1      30.585   6.899 -20.755  1.00  0.00     0.187 HD
HETATM   21  N9  UNL     1      31.029  10.065 -20.572  1.00  0.00    -0.155 N 
HETATM   22  C7  UNL     1      32.161  10.079 -19.846  1.00  0.00     0.693 A 
ATOM     23  H9  UNL     1      30.611  10.947 -20.869  1.00  0.00     0.187 HD
HETATM   24  N11 UNL     1      32.709   8.915 -19.456  1.00  0.00    -0.022 N 
ATOM     25  H11 UNL     1      33.566   8.928 -18.905  1.00  0.00     0.203 HD
BRANCH  19  26
HETATM   26  N8  UNL     1      29.239   8.878 -21.685  1.00  0.00    -0.078 N 
HETATM   27  O3  UNL     1      28.270   9.577 -21.341  1.00  0.00    -0.529 OA
HETATM   28  O4  UNL     1      29.129   8.102 -22.795  1.00  0.00    -0.529 OA
ENDBRANCH  19  26
BRANCH  22  29
HETATM   29  N10 UNL     1      32.689  11.209 -19.543  1.00  0.00    -0.234 N 
ATOM     30 2H10 UNL     1      33.201  11.763 -20.229  1.00  0.00     0.174 HD
ATOM     31 1H10 UNL     1      32.592  11.558 -18.589  1.00  0.00     0.174 HD
ENDBRANCH  22  29
ENDBRANCH  15  17
ENDBRANCH   7  13
BRANCH   1  32
HETATM   32  N3  UNL     1      35.015   2.162 -18.700  1.00  0.00    -0.212 N 
ATOM     33  H3  UNL     1      35.782   1.635 -19.118  1.00  0.00     0.200 HD
BRANCH  32  34
HETATM   34  N2  UNL     1      33.850   2.015 -19.099  1.00  0.00    -0.246 NA
BRANCH  34  35
HETATM   35  N1  UNL     1      32.810   1.970 -19.752  1.00  0.00    -0.261 N 
ATOM     36  H12 UNL     1      33.249   2.405 -20.563  1.00  0.00     0.193 HD
ATOM     37  H11 UNL     1      31.857   1.828 -20.088  1.00  0.00     0.193 HD
ENDBRANCH  34  35
ENDBRANCH  32  34
ENDBRANCH   1  32
BRANCH  10  38
HETATM   38  C9  UNL     1      32.847   2.782 -14.696  1.00  0.00     0.323 C 
BRANCH  38  39
HETATM   39  N13 UNL     1      33.759   2.782 -13.553  1.00  0.00    -0.061 N 
ATOM     40 3H13 UNL     1      34.294   1.917 -13.485  1.00  0.00     0.275 HD
ATOM     41 2H13 UNL     1      34.539   3.426 -13.682  1.00  0.00     0.275 HD
ATOM     42 1H13 UNL     1      33.233   2.979 -12.702  1.00  0.00     0.275 HD
ENDBRANCH  38  39
BRANCH  38  43
HETATM   43  C10 UNL     1      31.584   3.416 -14.324  1.00  0.00     0.267 C 
HETATM   44  N14 UNL     1      31.419   3.926 -13.018  1.00  0.00    -0.060 NA
HETATM   45  O5  UNL     1      30.652   3.520 -15.138  1.00  0.00    -0.274 OA
ENDBRANCH  38  43
ENDBRANCH  10  38
TORSDOF 10
ENDMDL
MODEL 2
REMARK VINA RESULT: -9.025969107      1.391      1.995
REMARK  10 active torsions:
REMARK  status: ('A' for Active; 'I' for Inactive)
REMARK    1  A    between atoms: N1_1  and  N2_4 
REMARK    2  A    between atoms: N2_4  and  N3_5 
REMARK    3  A    between atoms: N3_5  and  C1_7 
REMARK    4  A    between atoms: C3_13  and  C4_14 
REMARK       I    between atoms: C4_14  and  N6_16 
REMARK    5  A    between atoms: N6_16  and  C5_18 
REMARK    6  A    between atoms: C6_21  and  N8_22 
REMARK    7  A    between atoms: C7_27  and  N10_28 
REMARK    8  A    between atoms: C8_35  and  C9_36 
REMARK    9  A    between atoms: C9_36  and  N13_37 
REMARK   10  A    between atoms: C9_36  and  C10_41 
ROOT
HETATM    1  C1  UNL     1      35.269   3.215 -17.627  1.00  0.00     0.245 C 
HETATM    2  N4  UNL     1      36.667   3.480 -17.658  1.00  0.00    -0.025 NA
HETATM    3  O1  UNL     1      36.683   3.944 -19.034  1.00  0.00    -0.161 OA
HETATM    4  N5  UNL     1      35.633   4.881 -19.005  1.00  0.00    -0.243 N 
ATOM      5  H5  UNL     1      35.590   5.730 -19.568  1.00  0.00     0.196 HD
HETATM    6  C2  UNL     1      34.737   4.508 -18.163  1.00  0.00     0.121 C 
HETATM    7  C3  UNL     1      33.525   5.057 -17.597  1.00  0.00     0.131 C 
HETATM    8  N12 UNL     1      32.969   4.522 -16.535  1.00  0.00    -0.350 N 
ATOM      9  H12 UNL     1      32.126   4.939 -16.141  1.00  0.00     0.166 HD
HETATM   10  C8  UNL     1      33.539   3.351 -15.921  1.00  0.00     0.074 C 
HETATM   11  C11 UNL     1      34.605   2.758 -16.421  1.00  0.00     0.104 C 
HETATM   12  N15 UNL     1      35.122   1.606 -15.786  1.00  0.00    -0.100 NA
ENDROOT
BRANCH   7  13
HETATM   13  C4  UNL     1      32.868   6.206 -18.156  1.00  0.00     0.288 C 
HETATM   14  O2  UNL     1      32.804   7.288 -17.466  1.00  0.00    -0.265 OA
HETATM   15  N6  UNL     1      32.280   6.234 -19.424  1.00  0.00    -0.153 N 
ATOM     16  H6  UNL     1      32.302   5.402 -20.014  1.00  0.00     0.187 HD
BRANCH  15  17
HETATM   17  C5  UNL     1      31.643   7.439 -19.900  1.00  0.00     0.702 A 
HETATM   18  N7  UNL     1      32.243   8.633 -19.871  1.00  0.00    -0.154 N 
HETATM   19  C6  UNL     1      31.697   9.767 -20.295  1.00  0.00     0.278 A 
ATOM     20  H7  UNL     1      33.190   8.677 -19.494  1.00  0.00     0.187 HD
HETATM   21  N9  UNL     1      30.446   9.700 -20.791  1.00  0.00    -0.155 N 
HETATM   22  C7  UNL     1      29.789   8.529 -20.847  1.00  0.00     0.693 A 
ATOM     23  H9  UNL     1      29.993  10.548 -21.129  1.00  0.00     0.187 HD
HETATM   24  N11 UNL     1      30.391   7.412 -20.403  1.00  0.00    -0.022 N 
ATOM     25  H11 UNL     1      29.891   6.525 -20.446  1.00  0.00     0.203 HD
BRANCH  19  26
HETATM   26  N8  UNL     1      32.404  11.008 -20.232  1.00  0.00    -0.078 N 
HETATM   27  O3  UNL     1      32.169  11.806 -19.309  1.00  0.00    -0.529 OA
HETATM   28  O4  UNL     1      33.337  11.337 -21.165  1.00  0.00    -0.529 OA
ENDBRANCH  19  26
BRANCH  22  29
HETATM   29  N10 UNL     1      28.599   8.509 -21.327  1.00  0.00    -0.234 N 
ATOM     30 2H10 UNL     1      28.392   8.854 -22.265  1.00  0.00     0.174 HD
ATOM     31 1H10 UNL     1      27.842   8.138 -20.752  1.00  0.00     0.174 HD
ENDBRANCH  22  29
ENDBRANCH  15  17
ENDBRANCH   7  13
BRANCH   1  32
HETATM   32  N3  UNL     1      35.074   2.190 -18.705  1.00  0.00    -0.212 N 
ATOM     33  H3  UNL     1      35.870   1.696 -19.108  1.00  0.00     0.200 HD
BRANCH  32  34
HETATM   34  N2  UNL     1      33.919   1.961 -19.093  1.00  0.00    -0.246 NA
BRANCH  34  35
HETATM   35  N1  UNL     1      32.843   1.936 -19.686  1.00  0.00    -0.261 N 
ATOM     36  H12 UNL     1      33.297   1.825 -20.593  1.00  0.00     0.193 HD
ATOM     37  H11 UNL     1      31.858   1.942 -19.951  1.00  0.00     0.193 HD
ENDBRANCH  34  35
ENDBRANCH  32  34
ENDBRANCH   1  32
BRANCH  10  38
HETATM   38  C9  UNL     1      32.869   2.836 -14.725  1.00  0.00     0.323 C 
BRANCH  38  39
HETATM   39  N13 UNL     1      33.780   2.923 -13.584  1.00  0.00    -0.061 N 
ATOM     40 3H13 UNL     1      33.382   3.459 -12.813  1.00  0.00     0.275 HD
ATOM     41 2H13 UNL     1      33.882   2.030 -13.103  1.00  0.00     0.275 HD
ATOM     42 1H13 UNL     1      34.675   3.299 -13.894  1.00  0.00     0.275 HD
ENDBRANCH  38  39
BRANCH  38  43
HETATM   43  C10 UNL     1      31.576   3.417 -14.373  1.00  0.00     0.267 C 
HETATM   44  N14 UNL     1      31.354   3.878 -13.057  1.00  0.00    -0.060 NA
HETATM   45  O5  UNL     1      30.666   3.517 -15.212  1.00  0.00    -0.274 OA
ENDBRANCH  38  43
ENDBRANCH  10  38
TORSDOF 10
ENDMDL
MODEL 3
REMARK VINA RESULT: -8.944171368      1.075      1.237
REMARK  10 active torsions:
REMARK  status: ('A' for Active; 'I' for Inactive)
REMARK    1  A    between atoms: N1_1  and  N2_4 
REMARK    2  A    between atoms: N2_4  and  N3_5 
REMARK    3  A    between atoms: N3_5  and  C1_7 
REMARK    4  A    between atoms: C3_13  and  C4_14 
REMARK       I    between atoms: C4_14  and  N6_16 
REMARK    5  A    between atoms: N6_16  and  C5_18 
REMARK    6  A    between atoms: C6_21  and  N8_22 
REMARK    7  A    between atoms: C7_27  and  N10_28 
REMARK    8  A    between atoms: C8_35  and  C9_36 
REMARK    9  A    between atoms: C9_36  and  N13_37 
REMARK   10  A    between atoms: C9_36  and  C10_41 
ROOT
HETATM    1  C1  UNL     1      34.938   2.996 -17.441  1.00  0.00     0.245 C 
HETATM    2  N4  UNL     1      36.349   2.894 -17.282  1.00  0.00    -0.025 NA
HETATM    3  O1  UNL     1      36.668   3.403 -18.603  1.00  0.00    -0.161 OA
HETATM    4  N5  UNL     1      35.891   4.576 -18.626  1.00  0.00    -0.243 N 
ATOM      5  H5  UNL     1      36.137   5.433 -19.120  1.00  0.00     0.196 HD
HETATM    6  C2  UNL     1      34.823   4.405 -17.931  1.00  0.00     0.121 C 
HETATM    7  C3  UNL     1      33.720   5.220 -17.474  1.00  0.00     0.131 C 
HETATM    8  N12 UNL     1      32.908   4.796 -16.533  1.00  0.00    -0.350 N 
ATOM      9  H12 UNL     1      32.149   5.397 -16.211  1.00  0.00     0.166 HD
HETATM   10  C8  UNL     1      33.079   3.490 -15.951  1.00  0.00     0.074 C 
HETATM   11  C11 UNL     1      34.022   2.668 -16.365  1.00  0.00     0.104 C 
HETATM   12  N15 UNL     1      34.146   1.393 -15.767  1.00  0.00    -0.100 NA
ENDROOT
BRANCH   7  13
HETATM   13  C4  UNL     1      33.452   6.525 -18.014  1.00  0.00     0.288 C 
HETATM   14  O2  UNL     1      32.980   7.436 -17.242  1.00  0.00    -0.265 OA
HETATM   15  N6  UNL     1      33.672   6.882 -19.347  1.00  0.00    -0.153 N 
ATOM     16  H6  UNL     1      34.045   6.196 -20.003  1.00  0.00     0.187 HD
BRANCH  15  17
HETATM   17  C5  UNL     1      33.373   8.221 -19.796  1.00  0.00     0.702 A 
HETATM   18  N7  UNL     1      32.164   8.580 -20.240  1.00  0.00    -0.154 N 
HETATM   19  C6  UNL     1      31.842   9.797 -20.663  1.00  0.00     0.278 A 
ATOM     20  H7  UNL     1      31.435   7.867 -20.254  1.00  0.00     0.187 HD
HETATM   21  N9  UNL     1      32.811  10.733 -20.640  1.00  0.00    -0.155 N 
HETATM   22  C7  UNL     1      34.048  10.434 -20.206  1.00  0.00     0.693 A 
ATOM     23  H9  UNL     1      32.604  11.680 -20.956  1.00  0.00     0.187 HD
HETATM   24  N11 UNL     1      34.317   9.185 -19.788  1.00  0.00    -0.022 N 
ATOM     25  H11 UNL     1      35.255   8.961 -19.459  1.00  0.00     0.203 HD
BRANCH  19  26
HETATM   26  N8  UNL     1      30.525  10.105 -21.123  1.00  0.00    -0.078 N 
HETATM   27  O3  UNL     1      30.327  11.140 -21.783  1.00  0.00    -0.529 OA
HETATM   28  O4  UNL     1      29.474   9.286 -20.855  1.00  0.00    -0.529 OA
ENDBRANCH  19  26
BRANCH  22  29
HETATM   29  N10 UNL     1      34.942  11.355 -20.200  1.00  0.00    -0.234 N 
ATOM     30 2H10 UNL     1      35.774  11.298 -20.787  1.00  0.00     0.174 HD
ATOM     31 1H10 UNL     1      34.813  12.162 -19.590  1.00  0.00     0.174 HD
ENDBRANCH  22  29
ENDBRANCH  15  17
ENDBRANCH   7  13
BRANCH   1  32
HETATM   32  N3  UNL     1      34.645   2.107 -18.614  1.00  0.00    -0.212 N 
ATOM     33  H3  UNL     1      35.334   1.432 -18.944  1.00  0.00     0.200 HD
BRANCH  32  34
HETATM   34  N2  UNL     1      33.542   2.217 -19.170  1.00  0.00    -0.246 NA
BRANCH  34  35
HETATM   35  N1  UNL     1      32.558   2.112 -19.898  1.00  0.00    -0.261 N 
ATOM     36  H12 UNL     1      32.701   1.110 -20.018  1.00  0.00     0.193 HD
ATOM     37  H11 UNL     1      31.722   2.269 -20.462  1.00  0.00     0.193 HD
ENDBRANCH  34  35
ENDBRANCH  32  34
ENDBRANCH   1  32
BRANCH  10  38
HETATM   38  C9  UNL     1      32.145   3.109 -14.890  1.00  0.00     0.323 C 
BRANCH  38  39
HETATM   39  N13 UNL     1      32.876   2.428 -13.822  1.00  0.00    -0.061 N 
ATOM     40 3H13 UNL     1      33.787   2.091 -14.132  1.00  0.00     0.275 HD
ATOM     41 2H13 UNL     1      33.198   3.075 -13.102  1.00  0.00     0.275 HD
ATOM     42 1H13 UNL     1      32.297   1.682 -13.439  1.00  0.00     0.275 HD
ENDBRANCH  38  39
BRANCH  38  43
HETATM   43  C10 UNL     1      31.302   4.159 -14.324  1.00  0.00     0.267 C 
HETATM   44  N14 UNL     1      30.921   4.090 -12.966  1.00  0.00    -0.060 NA
HETATM   45  O5  UNL     1      30.915   5.116 -15.014  1.00  0.00    -0.274 OA
ENDBRANCH  38  43
ENDBRANCH  10  38
TORSDOF 10
ENDMDL
MODEL 4
REMARK VINA RESULT: -8.922820364      2.256      7.459
REMARK  10 active torsions:
REMARK  status: ('A' for Active; 'I' for Inactive)
REMARK    1  A    between atoms: N1_1  and  N2_4 
REMARK    2  A    between atoms: N2_4  and  N3_5 
REMARK    3  A    between atoms: N3_5  and  C1_7 
REMARK    4  A    between atoms: C3_13  and  C4_14 
REMARK       I    between atoms: C4_14  and  N6_16 
REMARK    5  A    between atoms: N6_16  and  C5_18 
REMARK    6  A    between atoms: C6_21  and  N8_22 
REMARK    7  A    between atoms: C7_27  and  N10_28 
REMARK    8  A    between atoms: C8_35  and  C9_36 
REMARK    9  A    between atoms: C9_36  and  N13_37 
REMARK   10  A    between atoms: C9_36  and  C10_41 
ROOT
HETATM    1  C1  UNL     1      34.463   8.425 -20.706  1.00  0.00     0.245 C 
HETATM    2  N4  UNL     1      35.676   7.925 -21.258  1.00  0.00    -0.025 NA
HETATM    3  O1  UNL     1      36.439   8.043 -20.029  1.00  0.00    -0.161 OA
HETATM    4  N5  UNL     1      35.577   7.395 -19.123  1.00  0.00    -0.243 N 
ATOM      5  H5  UNL     1      35.878   6.861 -18.309  1.00  0.00     0.196 HD
HETATM    6  C2  UNL     1      34.355   7.577 -19.477  1.00  0.00     0.121 C 
HETATM    7  C3  UNL     1      33.054   7.100 -19.064  1.00  0.00     0.131 C 
HETATM    8  N12 UNL     1      31.996   7.274 -19.822  1.00  0.00    -0.350 N 
ATOM      9  H12 UNL     1      31.093   6.910 -19.520  1.00  0.00     0.166 HD
HETATM   10  C8  UNL     1      32.100   7.975 -21.076  1.00  0.00     0.074 C 
HETATM   11  C11 UNL     1      33.240   8.495 -21.484  1.00  0.00     0.104 C 
HETATM   12  N15 UNL     1      33.290   9.181 -22.719  1.00  0.00    -0.100 NA
ENDROOT
BRANCH   7  13
HETATM   13  C4  UNL     1      32.847   6.414 -17.819  1.00  0.00     0.288 C 
HETATM   14  O2  UNL     1      32.555   7.096 -16.770  1.00  0.00    -0.265 OA
HETATM   15  N6  UNL     1      32.942   5.029 -17.662  1.00  0.00    -0.153 N 
ATOM     16  H6  UNL     1      33.172   4.440 -18.462  1.00  0.00     0.187 HD
BRANCH  15  17
HETATM   17  C5  UNL     1      32.715   4.431 -16.367  1.00  0.00     0.702 A 
HETATM   18  N7  UNL     1      31.751   4.845 -15.539  1.00  0.00    -0.154 N 
HETATM   19  C6  UNL     1      31.506   4.326 -14.341  1.00  0.00     0.278 A 
ATOM     20  H7  UNL     1      31.160   5.616 -15.850  1.00  0.00     0.187 HD
HETATM   21  N9  UNL     1      32.290   3.308 -13.939  1.00  0.00    -0.155 N 
HETATM   22  C7  UNL     1      33.278   2.846 -14.725  1.00  0.00     0.693 A 
ATOM     23  H9  UNL     1      32.133   2.882 -13.026  1.00  0.00     0.187 HD
HETATM   24  N11 UNL     1      33.480   3.409 -15.929  1.00  0.00    -0.022 N 
ATOM     25  H11 UNL     1      34.229   3.057 -16.524  1.00  0.00     0.203 HD
BRANCH  19  26
HETATM   26  N8  UNL     1      30.453   4.824 -13.512  1.00  0.00    -0.078 N 
HETATM   27  O3  UNL     1      30.295   4.359 -12.370  1.00  0.00    -0.529 OA
HETATM   28  O4  UNL     1      29.616   5.803 -13.946  1.00  0.00    -0.529 OA
ENDBRANCH  19  26
BRANCH  22  29
HETATM   29  N10 UNL     1      34.002   1.874 -14.304  1.00  0.00    -0.234 N 
ATOM     30 2H10 UNL     1      34.387   1.862 -13.359  1.00  0.00     0.174 HD
ATOM     31 1H10 UNL     1      34.198   1.096 -14.934  1.00  0.00     0.174 HD
ENDBRANCH  22  29
ENDBRANCH  15  17
ENDBRANCH   7  13
BRANCH   1  32
HETATM   32  N3  UNL     1      34.822   9.807 -20.244  1.00  0.00    -0.212 N 
ATOM     33  H3  UNL     1      35.565  10.336 -20.702  1.00  0.00     0.200 HD
BRANCH  32  34
HETATM   34  N2  UNL     1      34.192  10.288 -19.291  1.00  0.00    -0.246 NA
BRANCH  34  35
HETATM   35  N1  UNL     1      33.356  10.807 -18.554  1.00  0.00    -0.261 N 
ATOM     36  H12 UNL     1      32.676  10.887 -19.310  1.00  0.00     0.193 HD
ATOM     37  H11 UNL     1      32.840  11.209 -17.771  1.00  0.00     0.193 HD
ENDBRANCH  34  35
ENDBRANCH  32  34
ENDBRANCH   1  32
BRANCH  10  38
HETATM   38  C9  UNL     1      30.876   8.102 -21.869  1.00  0.00     0.323 C 
BRANCH  38  39
HETATM   39  N13 UNL     1      30.877   7.094 -22.927  1.00  0.00    -0.061 N 
ATOM     40 3H13 UNL     1      31.744   6.556 -22.947  1.00  0.00     0.275 HD
ATOM     41 2H13 UNL     1      30.235   6.326 -22.730  1.00  0.00     0.275 HD
ATOM     42 1H13 UNL     1      30.681   7.542 -23.821  1.00  0.00     0.275 HD
ENDBRANCH  38  39
BRANCH  38  43
HETATM   43  C10 UNL     1      29.602   8.068 -21.153  1.00  0.00     0.267 C 
HETATM   44  N14 UNL     1      28.726   9.172 -21.239  1.00  0.00    -0.060 NA
HETATM   45  O5  UNL     1      29.273   7.085 -20.470  1.00  0.00    -0.274 OA
ENDBRANCH  38  43
ENDBRANCH  10  38
TORSDOF 10
ENDMDL
MODEL 5
REMARK VINA RESULT: -8.829012260      2.186      8.264
REMARK  10 active torsions:
REMARK  status: ('A' for Active; 'I' for Inactive)
REMARK    1  A    between atoms: N1_1  and  N2_4 
REMARK    2  A    between atoms: N2_4  and  N3_5 
REMARK    3  A    between atoms: N3_5  and  C1_7 
REMARK    4  A    between atoms: C3_13  and  C4_14 
REMARK       I    between atoms: C4_14  and  N6_16 
REMARK    5  A    between atoms: N6_16  and  C5_18 
REMARK    6  A    between atoms: C6_21  and  N8_22 
REMARK    7  A    between atoms: C7_27  and  N10_28 
REMARK    8  A    between atoms: C8_35  and  C9_36 
REMARK    9  A    between atoms: C9_36  and  N13_37 
REMARK   10  A    between atoms: C9_36  and  C10_41 
ROOT
HETATM    1  C1  UNL     1      30.343   8.870 -21.747  1.00  0.00     0.245 C 
HETATM    2  N4  UNL     1      29.069   9.286 -21.267  1.00  0.00    -0.025 NA
HETATM    3  O1  UNL     1      28.497   7.953 -21.238  1.00  0.00    -0.161 OA
HETATM    4  N5  UNL     1      29.494   7.256 -20.529  1.00  0.00    -0.243 N 
ATOM      5  H5  UNL     1      29.327   6.466 -19.907  1.00  0.00     0.196 HD
HETATM    6  C2  UNL     1      30.647   7.766 -20.783  1.00  0.00     0.121 C 
HETATM    7  C3  UNL     1      32.002   7.601 -20.307  1.00  0.00     0.131 C 
HETATM    8  N12 UNL     1      32.932   8.484 -20.589  1.00  0.00    -0.350 N 
ATOM      9  H12 UNL     1      33.876   8.358 -20.225  1.00  0.00     0.166 HD
HETATM   10  C8  UNL     1      32.630   9.629 -21.409  1.00  0.00     0.074 C 
HETATM   11  C11 UNL     1      31.434   9.809 -21.932  1.00  0.00     0.104 C 
HETATM   12  N15 UNL     1      31.189  10.945 -22.737  1.00  0.00    -0.100 NA
ENDROOT
BRANCH   7  13
HETATM   13  C4  UNL     1      32.404   6.478 -19.506  1.00  0.00     0.288 C 
HETATM   14  O2  UNL     1      32.026   5.298 -19.849  1.00  0.00    -0.265 OA
HETATM   15  N6  UNL     1      33.192   6.577 -18.357  1.00  0.00    -0.153 N 
ATOM     16  H6  UNL     1      33.519   7.490 -18.041  1.00  0.00     0.187 HD
BRANCH  15  17
HETATM   17  C5  UNL     1      33.546   5.388 -17.618  1.00  0.00     0.702 A 
HETATM   18  N7  UNL     1      32.717   4.808 -16.744  1.00  0.00    -0.154 N 
HETATM   19  C6  UNL     1      32.998   3.716 -16.042  1.00  0.00     0.278 A 
ATOM     20  H7  UNL     1      31.800   5.234 -16.607  1.00  0.00     0.187 HD
HETATM   21  N9  UNL     1      34.210   3.159 -16.229  1.00  0.00    -0.155 N 
HETATM   22  C7  UNL     1      35.090   3.695 -17.093  1.00  0.00     0.693 A 
ATOM     23  H9  UNL     1      34.464   2.319 -15.709  1.00  0.00     0.187 HD
HETATM   24  N11 UNL     1      34.751   4.801 -17.778  1.00  0.00    -0.022 N 
ATOM     25  H11 UNL     1      35.419   5.206 -18.433  1.00  0.00     0.203 HD
BRANCH  19  26
HETATM   26  N8  UNL     1      32.057   3.153 -15.125  1.00  0.00    -0.078 N 
HETATM   27  O3  UNL     1      30.861   3.056 -15.451  1.00  0.00    -0.529 OA
HETATM   28  O4  UNL     1      32.442   2.717 -13.897  1.00  0.00    -0.529 OA
ENDBRANCH  19  26
BRANCH  22  29
HETATM   29  N10 UNL     1      36.233   3.133 -17.242  1.00  0.00    -0.234 N 
ATOM     30 2H10 UNL     1      36.431   2.520 -18.033  1.00  0.00     0.174 HD
ATOM     31 1H10 UNL     1      36.961   3.305 -16.548  1.00  0.00     0.174 HD
ENDBRANCH  22  29
ENDBRANCH  15  17
ENDBRANCH   7  13
BRANCH   1  32
HETATM   32  N3  UNL     1      30.036   8.220 -23.063  1.00  0.00    -0.212 N 
ATOM     33  H3  UNL     1      29.233   8.515 -23.619  1.00  0.00     0.200 HD
BRANCH  32  34
HETATM   34  N2  UNL     1      30.785   7.314 -23.457  1.00  0.00    -0.246 NA
BRANCH  34  35
HETATM   35  N1  UNL     1      31.385   6.460 -24.107  1.00  0.00    -0.261 N 
ATOM     36  H12 UNL     1      30.586   5.826 -24.091  1.00  0.00     0.193 HD
ATOM     37  H11 UNL     1      32.065   5.918 -24.639  1.00  0.00     0.193 HD
ENDBRANCH  34  35
ENDBRANCH  32  34
ENDBRANCH   1  32
BRANCH  10  38
HETATM   38  C9  UNL     1      33.720  10.577 -21.652  1.00  0.00     0.323 C 
BRANCH  38  39
HETATM   39  N13 UNL     1      33.583  11.716 -20.747  1.00  0.00    -0.061 N 
ATOM     40 3H13 UNL     1      32.660  12.146 -20.804  1.00  0.00     0.275 HD
ATOM     41 2H13 UNL     1      33.549  11.430 -19.769  1.00  0.00     0.275 HD
ATOM     42 1H13 UNL     1      34.332  12.384 -20.928  1.00  0.00     0.275 HD
ENDBRANCH  38  39
BRANCH  38  43
HETATM   43  C10 UNL     1      35.086  10.061 -21.598  1.00  0.00     0.267 C 
HETATM   44  N14 UNL     1      36.032  10.683 -20.755  1.00  0.00    -0.060 NA
HETATM   45  O5  UNL     1      35.432   9.082 -22.279  1.00  0.00    -0.274 OA
ENDBRANCH  38  43
ENDBRANCH  10  38
TORSDOF 10
ENDMDL
