MODEL 1
REMARK VINA RESULT: -7.706064462      0.000      0.000
REMARK  11 active torsions:
REMARK  status: ('A' for Active; 'I' for Inactive)
REMARK    1  A    between atoms: C2_2  and  C3_3 
REMARK    2  A    between atoms: C6_8  and  O3_9 
REMARK    3  A    between atoms: O3_9  and  C7_10 
REMARK    4  A    between atoms: C7_10  and  O4_12 
REMARK    5  A    between atoms: C7_10  and  C9_14 
REMARK    6  A    between atoms: C12_17  and  C13_18 
REMARK    7  A    between atoms: C13_18  and  O5_19 
REMARK    8  A    between atoms: C13_18  and  C16_23 
REMARK    9  A    between atoms: O5_19  and  C14_20 
REMARK   10  A    between atoms: C19_26  and  O7_27 
REMARK   11  A    between atoms: C22_31  and  O8_32 
ROOT
HETATM    1  C3  UNL     1      16.107  -5.193  13.090  1.00  0.00     0.110 C 
HETATM    2  C4  UNL     1      17.259  -6.176  13.345  1.00  0.00     0.054 C 
HETATM    3  O1  UNL     1      16.058  -4.402  14.262  1.00  0.00    -0.302 OA
HETATM    4  C5  UNL     1      15.318  -3.245  14.414  1.00  0.00     0.289 C 
HETATM    5  O2  UNL     1      14.845  -2.786  15.465  1.00  0.00    -0.262 OA
HETATM    6  C6  UNL     1      15.117  -2.521  13.053  1.00  0.00     0.234 C 
HETATM    7  C12 UNL     1      16.357  -2.842  12.261  1.00  0.00     0.091 C 
HETATM    8  C22 UNL     1      16.432  -4.313  11.926  1.00  0.00     0.166 C 
ENDROOT
BRANCH   7   9
HETATM    9  C13 UNL     1      16.744  -1.900  11.195  1.00  0.00     0.174 C 
BRANCH   9  10
HETATM   10  O5  UNL     1      15.924  -2.021  10.035  1.00  0.00    -0.311 OA
BRANCH  10  11
HETATM   11  C14 UNL     1      15.278  -0.943   9.503  1.00  0.00     0.255 C 
HETATM   12  C15 UNL     1      16.010   0.023   8.622  1.00  0.00     0.126 C 
HETATM   13  O6  UNL     1      14.060  -0.786   9.774  1.00  0.00    -0.266 OA
ENDBRANCH  10  11
ENDBRANCH   9  10
BRANCH   9  14
HETATM   14  C16 UNL     1      18.126  -2.234  10.673  1.00  0.00    -0.028 A 
HETATM   15  C17 UNL     1      19.179  -2.225  11.573  1.00  0.00     0.012 A 
HETATM   16  C18 UNL     1      20.469  -2.520  11.196  1.00  0.00     0.037 A 
HETATM   17  C19 UNL     1      20.744  -2.838   9.882  1.00  0.00     0.065 A 
HETATM   18  C20 UNL     1      19.698  -2.846   8.985  1.00  0.00     0.037 A 
HETATM   19  C21 UNL     1      18.407  -2.546   9.387  1.00  0.00     0.012 A 
BRANCH  17  20
HETATM   20  O7  UNL     1      22.047  -3.139   9.485  1.00  0.00    -0.361 OA
ATOM     21  H7  UNL     1      22.240  -3.958   9.043  1.00  0.00     0.217 HD
ENDBRANCH  17  20
ENDBRANCH   9  14
ENDBRANCH   7   9
BRANCH   6  22
HETATM   22  O3  UNL     1      14.017  -3.097  12.488  1.00  0.00    -0.336 OA
BRANCH  22  23
HETATM   23  C7  UNL     1      12.781  -2.690  12.826  1.00  0.00     0.183 C 
HETATM   24  C8  UNL     1      12.015  -3.956  13.328  1.00  0.00     0.084 C 
BRANCH  23  25
HETATM   25  O4  UNL     1      12.740  -1.852  13.948  1.00  0.00    -0.362 OA
ATOM     26  H4  UNL     1      12.434  -2.278  14.740  1.00  0.00     0.213 HD
ENDBRANCH  23  25
BRANCH  23  27
HETATM   27  C9  UNL     1      11.917  -2.107  11.788  1.00  0.00    -0.032 C 
HETATM   28  C10 UNL     1      11.511  -2.793  10.730  1.00  0.00     0.019 C 
HETATM   29  C11 UNL     1      11.478  -0.688  11.899  1.00  0.00     0.048 C 
ENDBRANCH  23  27
ENDBRANCH  22  23
ENDBRANCH   6  22
BRANCH   8  30
HETATM   30  O8  UNL     1      15.669  -4.539  10.812  1.00  0.00    -0.392 OA
ATOM     31  H8  UNL     1      15.715  -3.853  10.156  1.00  0.00     0.210 HD
ENDBRANCH   8  30
BRANCH   1  32
HETATM   32  C2  UNL     1      14.901  -6.028  12.911  1.00  0.00     0.003 C 
HETATM   33  C1  UNL     1      14.289  -6.539  13.973  1.00  0.00     0.010 C 
ENDBRANCH   1  32
TORSDOF 11
ENDMDL
MODEL 2
REMARK VINA RESULT: -7.260910278      1.326      3.200
REMARK  11 active torsions:
REMARK  status: ('A' for Active; 'I' for Inactive)
REMARK    1  A    between atoms: C2_2  and  C3_3 
REMARK    2  A    between atoms: C6_8  and  O3_9 
REMARK    3  A    between atoms: O3_9  and  C7_10 
REMARK    4  A    between atoms: C7_10  and  O4_12 
REMARK    5  A    between atoms: C7_10  and  C9_14 
REMARK    6  A    between atoms: C12_17  and  C13_18 
REMARK    7  A    between atoms: C13_18  and  O5_19 
REMARK    8  A    between atoms: C13_18  and  C16_23 
REMARK    9  A    between atoms: O5_19  and  C14_20 
REMARK   10  A    between atoms: C19_26  and  O7_27 
REMARK   11  A    between atoms: C22_31  and  O8_32 
ROOT
HETATM    1  C3  UNL     1      15.821  -5.688  13.631  1.00  0.00     0.110 C 
HETATM    2  C4  UNL     1      16.534  -6.887  14.274  1.00  0.00     0.054 C 
HETATM    3  O1  UNL     1      16.064  -4.618  14.523  1.00  0.00    -0.302 OA
HETATM    4  C5  UNL     1      15.797  -3.286  14.265  1.00  0.00     0.289 C 
HETATM    5  O2  UNL     1      15.525  -2.400  15.088  1.00  0.00    -0.262 OA
HETATM    6  C6  UNL     1      15.877  -2.980  12.743  1.00  0.00     0.234 C 
HETATM    7  C12 UNL     1      16.915  -3.934  12.214  1.00  0.00     0.091 C 
HETATM    8  C22 UNL     1      16.446  -5.368  12.311  1.00  0.00     0.166 C 
ENDROOT
BRANCH   7   9
HETATM    9  C13 UNL     1      17.620  -3.551  10.977  1.00  0.00     0.174 C 
BRANCH   9  10
HETATM   10  O5  UNL     1      18.938  -3.069  11.227  1.00  0.00    -0.311 OA
BRANCH  10  11
HETATM   11  C14 UNL     1      20.025  -3.603  10.598  1.00  0.00     0.255 C 
HETATM   12  C15 UNL     1      20.323  -3.258   9.171  1.00  0.00     0.126 C 
HETATM   13  O6  UNL     1      20.762  -4.388  11.248  1.00  0.00    -0.266 OA
ENDBRANCH  10  11
ENDBRANCH   9  10
BRANCH   9  14
HETATM   14  C16 UNL     1      16.939  -2.365  10.327  1.00  0.00    -0.028 A 
HETATM   15  C17 UNL     1      17.520  -1.118  10.483  1.00  0.00     0.012 A 
HETATM   16  C18 UNL     1      16.979   0.018   9.926  1.00  0.00     0.037 A 
HETATM   17  C19 UNL     1      15.819  -0.066   9.185  1.00  0.00     0.065 A 
HETATM   18  C20 UNL     1      15.238  -1.307   9.029  1.00  0.00     0.037 A 
HETATM   19  C21 UNL     1      15.801  -2.438   9.599  1.00  0.00     0.012 A 
BRANCH  17  20
HETATM   20  O7  UNL     1      15.258   1.077   8.614  1.00  0.00    -0.361 OA
ATOM     21  H7  UNL     1      15.440   1.303   7.709  1.00  0.00     0.217 HD
ENDBRANCH  17  20
ENDBRANCH   9  14
ENDBRANCH   7   9
BRANCH   6  22
HETATM   22  O3  UNL     1      14.643  -3.277  12.243  1.00  0.00    -0.336 OA
BRANCH  22  23
HETATM   23  C7  UNL     1      13.592  -2.477  12.492  1.00  0.00     0.183 C 
HETATM   24  C8  UNL     1      12.733  -3.194  13.582  1.00  0.00     0.084 C 
BRANCH  23  25
HETATM   25  O4  UNL     1      13.927  -1.270  13.121  1.00  0.00    -0.362 OA
ATOM     26  H4  UNL     1      13.411  -0.526  12.833  1.00  0.00     0.213 HD
ENDBRANCH  23  25
BRANCH  23  27
HETATM   27  C9  UNL     1      12.653  -2.178  11.400  1.00  0.00    -0.032 C 
HETATM   28  C10 UNL     1      11.836  -3.089  10.893  1.00  0.00     0.019 C 
HETATM   29  C11 UNL     1      12.609  -0.810  10.812  1.00  0.00     0.048 C 
ENDBRANCH  23  27
ENDBRANCH  22  23
ENDBRANCH   6  22
BRANCH   8  30
HETATM   30  O8  UNL     1      15.655  -5.635  11.226  1.00  0.00    -0.392 OA
ATOM     31  H8  UNL     1      15.937  -6.378  10.705  1.00  0.00     0.210 HD
ENDBRANCH   8  30
BRANCH   1  32
HETATM   32  C2  UNL     1      14.393  -6.063  13.558  1.00  0.00     0.003 C 
HETATM   33  C1  UNL     1      13.779  -6.531  14.639  1.00  0.00     0.010 C 
ENDBRANCH   1  32
TORSDOF 11
ENDMDL
MODEL 3
REMARK VINA RESULT: -6.806379389      2.959      7.137
REMARK  11 active torsions:
REMARK  status: ('A' for Active; 'I' for Inactive)
REMARK    1  A    between atoms: C2_2  and  C3_3 
REMARK    2  A    between atoms: C6_8  and  O3_9 
REMARK    3  A    between atoms: O3_9  and  C7_10 
REMARK    4  A    between atoms: C7_10  and  O4_12 
REMARK    5  A    between atoms: C7_10  and  C9_14 
REMARK    6  A    between atoms: C12_17  and  C13_18 
REMARK    7  A    between atoms: C13_18  and  O5_19 
REMARK    8  A    between atoms: C13_18  and  C16_23 
REMARK    9  A    between atoms: O5_19  and  C14_20 
REMARK   10  A    between atoms: C19_26  and  O7_27 
REMARK   11  A    between atoms: C22_31  and  O8_32 
ROOT
HETATM    1  C3  UNL     1      15.786  -7.090  16.686  1.00  0.00     0.110 C 
HETATM    2  C4  UNL     1      14.694  -6.758  17.713  1.00  0.00     0.054 C 
HETATM    3  O1  UNL     1      15.426  -8.367  16.195  1.00  0.00    -0.302 OA
HETATM    4  C5  UNL     1      15.993  -8.990  15.099  1.00  0.00     0.289 C 
HETATM    5  O2  UNL     1      16.100 -10.209  14.897  1.00  0.00    -0.262 OA
HETATM    6  C6  UNL     1      16.523  -7.951  14.071  1.00  0.00     0.234 C 
HETATM    7  C12 UNL     1      15.598  -6.771  14.208  1.00  0.00     0.091 C 
HETATM    8  C22 UNL     1      15.744  -6.109  15.559  1.00  0.00     0.166 C 
ENDROOT
BRANCH   7   9
HETATM    9  C13 UNL     1      15.463  -5.875  13.044  1.00  0.00     0.174 C 
BRANCH   9  10
HETATM   10  O5  UNL     1      16.476  -4.872  13.006  1.00  0.00    -0.311 OA
BRANCH  10  11
HETATM   11  C14 UNL     1      16.893  -4.325  11.829  1.00  0.00     0.255 C 
HETATM   12  C15 UNL     1      17.510  -2.960  11.801  1.00  0.00     0.126 C 
HETATM   13  O6  UNL     1      16.745  -4.995  10.774  1.00  0.00    -0.266 OA
ENDBRANCH  10  11
ENDBRANCH   9  10
BRANCH   9  14
HETATM   14  C16 UNL     1      14.186  -5.069  13.145  1.00  0.00    -0.028 A 
HETATM   15  C17 UNL     1      13.004  -5.752  13.377  1.00  0.00     0.012 A 
HETATM   16  C18 UNL     1      11.793  -5.107  13.490  1.00  0.00     0.037 A 
HETATM   17  C19 UNL     1      11.734  -3.734  13.371  1.00  0.00     0.065 A 
HETATM   18  C20 UNL     1      12.909  -3.052  13.139  1.00  0.00     0.037 A 
HETATM   19  C21 UNL     1      14.116  -3.723  13.029  1.00  0.00     0.012 A 
BRANCH  17  20
HETATM   20  O7  UNL     1      10.514  -3.066  13.483  1.00  0.00    -0.361 OA
ATOM     21  H7  UNL     1       9.906  -3.046  12.753  1.00  0.00     0.217 HD
ENDBRANCH  17  20
ENDBRANCH   9  14
ENDBRANCH   7   9
BRANCH   6  22
HETATM   22  O3  UNL     1      17.783  -7.632  14.485  1.00  0.00    -0.336 OA
BRANCH  22  23
HETATM   23  C7  UNL     1      18.825  -7.725  13.640  1.00  0.00     0.183 C 
HETATM   24  C8  UNL     1      18.734  -9.133  12.970  1.00  0.00     0.084 C 
BRANCH  23  25
HETATM   25  O4  UNL     1      18.748  -6.863  12.539  1.00  0.00    -0.362 OA
ATOM     26  H4  UNL     1      17.916  -6.891  12.080  1.00  0.00     0.213 HD
ENDBRANCH  23  25
BRANCH  23  27
HETATM   27  C9  UNL     1      20.189  -7.648  14.186  1.00  0.00    -0.032 C 
HETATM   28  C10 UNL     1      21.258  -7.509  13.417  1.00  0.00     0.019 C 
HETATM   29  C11 UNL     1      20.406  -7.743  15.657  1.00  0.00     0.048 C 
ENDBRANCH  23  27
ENDBRANCH  22  23
ENDBRANCH   6  22
BRANCH   8  30
HETATM   30  O8  UNL     1      16.815  -5.257  15.505  1.00  0.00    -0.392 OA
ATOM     31  H8  UNL     1      17.371  -5.273  16.276  1.00  0.00     0.210 HD
ENDBRANCH   8  30
BRANCH   1  32
HETATM   32  C2  UNL     1      17.056  -7.103  17.442  1.00  0.00     0.003 C 
HETATM   33  C1  UNL     1      17.147  -7.804  18.565  1.00  0.00     0.010 C 
ENDBRANCH   1  32
TORSDOF 11
ENDMDL
MODEL 4
REMARK VINA RESULT: -6.745518995      3.393      6.009
REMARK  11 active torsions:
REMARK  status: ('A' for Active; 'I' for Inactive)
REMARK    1  A    between atoms: C2_2  and  C3_3 
REMARK    2  A    between atoms: C6_8  and  O3_9 
REMARK    3  A    between atoms: O3_9  and  C7_10 
REMARK    4  A    between atoms: C7_10  and  O4_12 
REMARK    5  A    between atoms: C7_10  and  C9_14 
REMARK    6  A    between atoms: C12_17  and  C13_18 
REMARK    7  A    between atoms: C13_18  and  O5_19 
REMARK    8  A    between atoms: C13_18  and  C16_23 
REMARK    9  A    between atoms: O5_19  and  C14_20 
REMARK   10  A    between atoms: C19_26  and  O7_27 
REMARK   11  A    between atoms: C22_31  and  O8_32 
ROOT
HETATM    1  C3  UNL     1      17.565  -7.885  15.298  1.00  0.00     0.110 C 
HETATM    2  C4  UNL     1      18.950  -7.760  14.645  1.00  0.00     0.054 C 
HETATM    3  O1  UNL     1      17.694  -7.189  16.523  1.00  0.00    -0.302 OA
HETATM    4  C5  UNL     1      16.649  -6.849  17.362  1.00  0.00     0.289 C 
HETATM    5  O2  UNL     1      16.689  -6.697  18.592  1.00  0.00    -0.262 OA
HETATM    6  C6  UNL     1      15.326  -6.660  16.567  1.00  0.00     0.234 C 
HETATM    7  C12 UNL     1      15.759  -6.150  15.218  1.00  0.00     0.091 C 
HETATM    8  C22 UNL     1      16.539  -7.197  14.457  1.00  0.00     0.166 C 
ENDROOT
BRANCH   7   9
HETATM    9  C13 UNL     1      14.781  -5.361  14.445  1.00  0.00     0.174 C 
BRANCH   9  10
HETATM   10  O5  UNL     1      13.777  -6.174  13.843  1.00  0.00    -0.311 OA
BRANCH  10  11
HETATM   11  C14 UNL     1      12.481  -5.759  13.757  1.00  0.00     0.255 C 
HETATM   12  C15 UNL     1      12.150  -4.406  13.205  1.00  0.00     0.126 C 
HETATM   13  O6  UNL     1      11.578  -6.541  14.153  1.00  0.00    -0.266 OA
ENDBRANCH  10  11
ENDBRANCH   9  10
BRANCH   9  14
HETATM   14  C16 UNL     1      15.454  -4.709  13.255  1.00  0.00    -0.028 A 
HETATM   15  C17 UNL     1      16.059  -3.478  13.446  1.00  0.00     0.012 A 
HETATM   16  C18 UNL     1      16.699  -2.810  12.427  1.00  0.00     0.037 A 
HETATM   17  C19 UNL     1      16.752  -3.367  11.167  1.00  0.00     0.065 A 
HETATM   18  C20 UNL     1      16.150  -4.593  10.975  1.00  0.00     0.037 A 
HETATM   19  C21 UNL     1      15.510  -5.247  12.015  1.00  0.00     0.012 A 
BRANCH  17  20
HETATM   20  O7  UNL     1      17.398  -2.702  10.125  1.00  0.00    -0.361 OA
ATOM     21  H7  UNL     1      18.346  -2.656  10.096  1.00  0.00     0.217 HD
ENDBRANCH  17  20
ENDBRANCH   9  14
ENDBRANCH   7   9
BRANCH   6  22
HETATM   22  O3  UNL     1      14.778  -7.905  16.463  1.00  0.00    -0.336 OA
BRANCH  22  23
HETATM   23  C7  UNL     1      13.616  -8.195  17.074  1.00  0.00     0.183 C 
HETATM   24  C8  UNL     1      13.604  -7.392  18.414  1.00  0.00     0.084 C 
BRANCH  23  25
HETATM   25  O4  UNL     1      12.483  -7.698  16.417  1.00  0.00    -0.362 OA
ATOM     26  H4  UNL     1      11.793  -8.339  16.292  1.00  0.00     0.213 HD
ENDBRANCH  23  25
BRANCH  23  27
HETATM   27  C9  UNL     1      13.346  -9.588  17.460  1.00  0.00    -0.032 C 
HETATM   28  C10 UNL     1      14.227 -10.561  17.281  1.00  0.00     0.019 C 
HETATM   29  C11 UNL     1      12.033  -9.950  18.064  1.00  0.00     0.048 C 
ENDBRANCH  23  27
ENDBRANCH  22  23
ENDBRANCH   6  22
BRANCH   8  30
HETATM   30  O8  UNL     1      15.647  -8.037  13.847  1.00  0.00    -0.392 OA
ATOM     31  H8  UNL     1      15.427  -8.813  14.350  1.00  0.00     0.210 HD
ENDBRANCH   8  30
BRANCH   1  32
HETATM   32  C2  UNL     1      17.337  -9.333  15.482  1.00  0.00     0.003 C 
HETATM   33  C1  UNL     1      18.157 -10.037  16.254  1.00  0.00     0.010 C 
ENDBRANCH   1  32
TORSDOF 11
ENDMDL
MODEL 5
REMARK VINA RESULT: -6.594758346      3.177      5.974
REMARK  11 active torsions:
REMARK  status: ('A' for Active; 'I' for Inactive)
REMARK    1  A    between atoms: C2_2  and  C3_3 
REMARK    2  A    between atoms: C6_8  and  O3_9 
REMARK    3  A    between atoms: O3_9  and  C7_10 
REMARK    4  A    between atoms: C7_10  and  O4_12 
REMARK    5  A    between atoms: C7_10  and  C9_14 
REMARK    6  A    between atoms: C12_17  and  C13_18 
REMARK    7  A    between atoms: C13_18  and  O5_19 
REMARK    8  A    between atoms: C13_18  and  C16_23 
REMARK    9  A    between atoms: O5_19  and  C14_20 
REMARK   10  A    between atoms: C19_26  and  O7_27 
REMARK   11  A    between atoms: C22_31  and  O8_32 
ROOT
HETATM    1  C3  UNL     1      17.934  -8.655  14.038  1.00  0.00     0.110 C 
HETATM    2  C4  UNL     1      18.724  -9.052  12.783  1.00  0.00     0.054 C 
HETATM    3  O1  UNL     1      18.825  -7.832  14.765  1.00  0.00    -0.302 OA
HETATM    4  C5  UNL     1      18.489  -7.065  15.865  1.00  0.00     0.289 C 
HETATM    5  O2  UNL     1      19.226  -6.728  16.802  1.00  0.00    -0.262 OA
HETATM    6  C6  UNL     1      16.996  -6.634  15.816  1.00  0.00     0.234 C 
HETATM    7  C12 UNL     1      16.681  -6.507  14.348  1.00  0.00     0.091 C 
HETATM    8  C22 UNL     1      16.735  -7.848  13.655  1.00  0.00     0.166 C 
ENDROOT
BRANCH   7   9
HETATM    9  C13 UNL     1      15.576  -5.608  13.967  1.00  0.00     0.174 C 
BRANCH   9  10
HETATM   10  O5  UNL     1      14.448  -6.315  13.458  1.00  0.00    -0.311 OA
BRANCH  10  11
HETATM   11  C14 UNL     1      13.205  -6.155  13.996  1.00  0.00     0.255 C 
HETATM   12  C15 UNL     1      12.290  -5.081  13.492  1.00  0.00     0.126 C 
HETATM   13  O6  UNL     1      12.852  -6.931  14.922  1.00  0.00    -0.266 OA
ENDBRANCH  10  11
ENDBRANCH   9  10
BRANCH   9  14
HETATM   14  C16 UNL     1      15.987  -4.735  12.800  1.00  0.00    -0.028 A 
HETATM   15  C17 UNL     1      16.425  -3.450  13.074  1.00  0.00     0.012 A 
HETATM   16  C18 UNL     1      16.825  -2.583  12.082  1.00  0.00     0.037 A 
HETATM   17  C19 UNL     1      16.796  -2.989  10.764  1.00  0.00     0.065 A 
HETATM   18  C20 UNL     1      16.359  -4.268  10.489  1.00  0.00     0.037 A 
HETATM   19  C21 UNL     1      15.962  -5.122  11.504  1.00  0.00     0.012 A 
BRANCH  17  20
HETATM   20  O7  UNL     1      17.198  -2.122   9.748  1.00  0.00    -0.361 OA
ATOM     21  H7  UNL     1      17.594  -1.284   9.957  1.00  0.00     0.217 HD
ENDBRANCH  17  20
ENDBRANCH   9  14
ENDBRANCH   7   9
BRANCH   6  22
HETATM   22  O3  UNL     1      16.296  -7.663  16.375  1.00  0.00    -0.336 OA
BRANCH  22  23
HETATM   23  C7  UNL     1      15.370  -7.428  17.321  1.00  0.00     0.183 C 
HETATM   24  C8  UNL     1      16.145  -7.203  18.659  1.00  0.00     0.084 C 
BRANCH  23  25
HETATM   25  O4  UNL     1      14.686  -6.215  17.164  1.00  0.00    -0.362 OA
ATOM     26  H4  UNL     1      13.784  -6.236  17.462  1.00  0.00     0.213 HD
ENDBRANCH  23  25
BRANCH  23  27
HETATM   27  C9  UNL     1      14.382  -8.474  17.622  1.00  0.00    -0.032 C 
HETATM   28  C10 UNL     1      14.469  -9.701  17.128  1.00  0.00     0.019 C 
HETATM   29  C11 UNL     1      13.219  -8.167  18.501  1.00  0.00     0.048 C 
ENDBRANCH  23  27
ENDBRANCH  22  23
ENDBRANCH   6  22
BRANCH   8  30
HETATM   30  O8  UNL     1      15.537  -8.481  13.851  1.00  0.00    -0.392 OA
ATOM     31  H8  UNL     1      14.900  -7.976  14.344  1.00  0.00     0.210 HD
ENDBRANCH   8  30
BRANCH   1  32
HETATM   32  C2  UNL     1      17.624  -9.921  14.735  1.00  0.00     0.003 C 
HETATM   33  C1  UNL     1      18.596 -10.791  14.984  1.00  0.00     0.010 C 
ENDBRANCH   1  32
TORSDOF 11
ENDMDL
