MODEL 1
REMARK VINA RESULT: -5.588088390      0.000      0.000
REMARK  8 active torsions:
REMARK  status: ('A' for Active; 'I' for Inactive)
REMARK    1  A    between atoms: O1_2  and  C2_3 
REMARK    2  A    between atoms: C8_11  and  O2_12 
REMARK    3  A    between atoms: C10_14  and  O3_15 
REMARK    4  A    between atoms: C12_17  and  O4_18 
REMARK    5  A    between atoms: C14_20  and  O5_21 
REMARK    6  A    between atoms: C17_24  and  O6_25 
REMARK    7  A    between atoms: C18_27  and  O7_28 
REMARK    8  A    between atoms: C21_32  and  O8_33 
ROOT
HETATM    1  C2  UNL     1      17.731  -3.426  10.692  1.00  0.00     0.102 A 
HETATM    2  C3  UNL     1      18.889  -3.362   9.919  1.00  0.00     0.051 A 
HETATM    3  C4  UNL     1      19.587  -2.209   9.710  1.00  0.00    -0.024 A 
HETATM    4  C5  UNL     1      20.790  -2.098   8.935  1.00  0.00    -0.008 C 
HETATM    5  C6  UNL     1      21.760  -2.936   8.839  1.00  0.00    -0.016 C 
HETATM    6  C7  UNL     1      22.031  -4.222   9.416  1.00  0.00     0.078 A 
HETATM    7  N1  UNL     1      21.863  -5.336   8.613  1.00  0.00    -0.332 N 
ATOM      8  H1  UNL     1      21.471  -5.207   7.681  1.00  0.00     0.168 HD
HETATM    9  C8  UNL     1      22.188  -6.565   8.995  1.00  0.00     0.179 A 
HETATM   10  C10 UNL     1      22.721  -6.820  10.232  1.00  0.00     0.156 A 
HETATM   11  C12 UNL     1      22.906  -5.748  11.068  1.00  0.00     0.141 A 
HETATM   12  C14 UNL     1      22.552  -4.441  10.640  1.00  0.00     0.132 A 
HETATM   13  C16 UNL     1      22.799  -2.326   7.881  1.00  0.00     0.076 C 
HETATM   14  C17 UNL     1      21.909  -1.506   7.004  1.00  0.00     0.155 C 
HETATM   15  C18 UNL     1      21.017  -0.869   8.077  1.00  0.00     0.181 C 
HETATM   16  C19 UNL     1      19.083  -1.057  10.316  1.00  0.00     0.015 A 
HETATM   17  C20 UNL     1      17.942  -1.087  11.083  1.00  0.00     0.040 A 
HETATM   18  C21 UNL     1      17.262  -2.253  11.277  1.00  0.00     0.099 A 
ENDROOT
BRANCH  15  19
HETATM   19  O7  UNL     1      19.860  -0.394   7.519  1.00  0.00    -0.388 OA
ATOM     20  H7  UNL     1      19.489  -0.993   6.881  1.00  0.00     0.210 HD
ENDBRANCH  15  19
BRANCH  12  21
HETATM   21  O5  UNL     1      22.783  -3.462  11.558  1.00  0.00    -0.351 OA
HETATM   22  C15 UNL     1      23.841  -2.553  11.422  1.00  0.00     0.210 C 
ENDBRANCH  12  21
BRANCH  14  23
HETATM   23  O6  UNL     1      22.571  -0.491   6.339  1.00  0.00    -0.392 OA
ATOM     24  H6  UNL     1      21.997   0.061   5.820  1.00  0.00     0.210 HD
ENDBRANCH  14  23
BRANCH   9  25
HETATM   25  O2  UNL     1      21.988  -7.623   8.134  1.00  0.00    -0.339 OA
HETATM   26  C9  UNL     1      22.947  -7.871   7.126  1.00  0.00     0.211 C 
ENDBRANCH   9  25
BRANCH  11  27
HETATM   27  O4  UNL     1      23.436  -5.911  12.337  1.00  0.00    -0.350 OA
HETATM   28  C13 UNL     1      22.679  -6.401  13.423  1.00  0.00     0.210 C 
ENDBRANCH  11  27
BRANCH   1  29
HETATM   29  O1  UNL     1      17.058  -4.599  10.880  1.00  0.00    -0.353 OA
HETATM   30  C1  UNL     1      17.035  -5.427  11.992  1.00  0.00     0.210 C 
ENDBRANCH   1  29
BRANCH  10  31
HETATM   31  O3  UNL     1      23.070  -8.093  10.656  1.00  0.00    -0.349 OA
HETATM   32  C11 UNL     1      24.319  -8.694  10.525  1.00  0.00     0.210 C 
ENDBRANCH  10  31
BRANCH  18  33
HETATM   33  O8  UNL     1      16.111  -2.282  12.051  1.00  0.00    -0.358 OA
ATOM     34  H8  UNL     1      16.180  -2.261  12.998  1.00  0.00     0.217 HD
ENDBRANCH  18  33
TORSDOF 8
ENDMDL
MODEL 2
REMARK VINA RESULT: -5.559157438      8.363     12.377
REMARK  8 active torsions:
REMARK  status: ('A' for Active; 'I' for Inactive)
REMARK    1  A    between atoms: O1_2  and  C2_3 
REMARK    2  A    between atoms: C8_11  and  O2_12 
REMARK    3  A    between atoms: C10_14  and  O3_15 
REMARK    4  A    between atoms: C12_17  and  O4_18 
REMARK    5  A    between atoms: C14_20  and  O5_21 
REMARK    6  A    between atoms: C17_24  and  O6_25 
REMARK    7  A    between atoms: C18_27  and  O7_28 
REMARK    8  A    between atoms: C21_32  and  O8_33 
ROOT
HETATM    1  C2  UNL     1      18.241  -8.473  19.460  1.00  0.00     0.102 A 
HETATM    2  C3  UNL     1      17.172  -7.967  18.724  1.00  0.00     0.051 A 
HETATM    3  C4  UNL     1      17.224  -7.753  17.378  1.00  0.00    -0.024 A 
HETATM    4  C5  UNL     1      16.145  -7.248  16.577  1.00  0.00    -0.008 C 
HETATM    5  C6  UNL     1      14.887  -7.482  16.691  1.00  0.00    -0.016 C 
HETATM    6  C7  UNL     1      14.094  -8.279  17.585  1.00  0.00     0.078 A 
HETATM    7  N1  UNL     1      13.389  -7.623  18.578  1.00  0.00    -0.332 N 
ATOM      8  H1  UNL     1      13.530  -6.620  18.691  1.00  0.00     0.168 HD
HETATM    9  C8  UNL     1      12.537  -8.234  19.392  1.00  0.00     0.179 A 
HETATM   10  C10 UNL     1      12.293  -9.581  19.303  1.00  0.00     0.156 A 
HETATM   11  C12 UNL     1      12.969 -10.278  18.334  1.00  0.00     0.141 A 
HETATM   12  C14 UNL     1      13.877  -9.604  17.473  1.00  0.00     0.132 A 
HETATM   13  C16 UNL     1      14.171  -6.694  15.579  1.00  0.00     0.076 C 
HETATM   14  C17 UNL     1      15.108  -5.540  15.421  1.00  0.00     0.155 C 
HETATM   15  C18 UNL     1      16.443  -6.296  15.436  1.00  0.00     0.181 C 
HETATM   16  C19 UNL     1      18.426  -8.069  16.743  1.00  0.00     0.015 A 
HETATM   17  C20 UNL     1      19.500  -8.569  17.442  1.00  0.00     0.040 A 
HETATM   18  C21 UNL     1      19.423  -8.774  18.788  1.00  0.00     0.099 A 
ENDROOT
BRANCH  15  19
HETATM   19  O7  UNL     1      17.474  -5.440  15.718  1.00  0.00    -0.388 OA
ATOM     20  H7  UNL     1      17.280  -4.542  15.477  1.00  0.00     0.210 HD
ENDBRANCH  15  19
BRANCH  12  21
HETATM   21  O5  UNL     1      14.486 -10.404  16.554  1.00  0.00    -0.351 OA
HETATM   22  C15 UNL     1      15.721 -11.017  16.807  1.00  0.00     0.210 C 
ENDBRANCH  12  21
BRANCH  14  23
HETATM   23  O6  UNL     1      14.993  -4.898  14.202  1.00  0.00    -0.392 OA
ATOM     24  H6  UNL     1      15.768  -4.404  13.959  1.00  0.00     0.210 HD
ENDBRANCH  14  23
BRANCH   9  25
HETATM   25  O2  UNL     1      11.874  -7.508  20.357  1.00  0.00    -0.339 OA
HETATM   26  C9  UNL     1      10.712  -6.791  19.992  1.00  0.00     0.211 C 
ENDBRANCH   9  25
BRANCH  11  27
HETATM   27  O4  UNL     1      12.788 -11.641  18.173  1.00  0.00    -0.350 OA
HETATM   28  C13 UNL     1      11.617 -12.194  17.612  1.00  0.00     0.210 C 
ENDBRANCH  11  27
BRANCH   1  29
HETATM   29  O1  UNL     1      18.152  -8.675  20.808  1.00  0.00    -0.353 OA
HETATM   30  C1  UNL     1      17.993  -9.862  21.508  1.00  0.00     0.210 C 
ENDBRANCH   1  29
BRANCH  10  31
HETATM   31  O3  UNL     1      11.408 -10.244  20.139  1.00  0.00    -0.349 OA
HETATM   32  C11 UNL     1      11.706 -10.814  21.374  1.00  0.00     0.210 C 
ENDBRANCH  10  31
BRANCH  18  33
HETATM   33  O8  UNL     1      20.506  -9.278  19.492  1.00  0.00    -0.358 OA
ATOM     34  H8  UNL     1      20.751  -8.889  20.323  1.00  0.00     0.217 HD
ENDBRANCH  18  33
TORSDOF 8
ENDMDL
MODEL 3
REMARK VINA RESULT: -5.427863775      4.403      7.879
REMARK  8 active torsions:
REMARK  status: ('A' for Active; 'I' for Inactive)
REMARK    1  A    between atoms: O1_2  and  C2_3 
REMARK    2  A    between atoms: C8_11  and  O2_12 
REMARK    3  A    between atoms: C10_14  and  O3_15 
REMARK    4  A    between atoms: C12_17  and  O4_18 
REMARK    5  A    between atoms: C14_20  and  O5_21 
REMARK    6  A    between atoms: C17_24  and  O6_25 
REMARK    7  A    between atoms: C18_27  and  O7_28 
REMARK    8  A    between atoms: C21_32  and  O8_33 
ROOT
HETATM    1  C2  UNL     1      17.795  -2.112  11.239  1.00  0.00     0.102 A 
HETATM    2  C3  UNL     1      16.711  -2.526  12.010  1.00  0.00     0.051 A 
HETATM    3  C4  UNL     1      15.430  -2.563  11.542  1.00  0.00    -0.024 A 
HETATM    4  C5  UNL     1      14.286  -2.994  12.294  1.00  0.00    -0.008 C 
HETATM    5  C6  UNL     1      14.207  -3.941  13.159  1.00  0.00    -0.016 C 
HETATM    6  C7  UNL     1      15.144  -4.889  13.691  1.00  0.00     0.078 A 
HETATM    7  N1  UNL     1      15.636  -4.663  14.965  1.00  0.00    -0.332 N 
ATOM      8  H1  UNL     1      15.385  -3.792  15.433  1.00  0.00     0.168 HD
HETATM    9  C8  UNL     1      16.418  -5.520  15.607  1.00  0.00     0.179 A 
HETATM   10  C10 UNL     1      16.799  -6.711  15.045  1.00  0.00     0.156 A 
HETATM   11  C12 UNL     1      16.339  -6.984  13.782  1.00  0.00     0.141 A 
HETATM   12  C14 UNL     1      15.503  -6.052  13.111  1.00  0.00     0.132 A 
HETATM   13  C16 UNL     1      12.753  -3.983  13.662  1.00  0.00     0.076 C 
HETATM   14  C17 UNL     1      12.372  -2.546  13.506  1.00  0.00     0.155 C 
HETATM   15  C18 UNL     1      12.960  -2.280  12.113  1.00  0.00     0.181 C 
HETATM   16  C19 UNL     1      15.237  -2.158  10.220  1.00  0.00     0.015 A 
HETATM   17  C20 UNL     1      16.287  -1.743   9.434  1.00  0.00     0.040 A 
HETATM   18  C21 UNL     1      17.559  -1.715   9.925  1.00  0.00     0.099 A 
ENDROOT
BRANCH  15  19
HETATM   19  O7  UNL     1      13.109  -0.935  11.906  1.00  0.00    -0.388 OA
ATOM     20  H7  UNL     1      12.829  -0.666  11.039  1.00  0.00     0.210 HD
ENDBRANCH  15  19
BRANCH  12  21
HETATM   21  O5  UNL     1      15.112  -6.435  11.864  1.00  0.00    -0.351 OA
HETATM   22  C15 UNL     1      15.683  -5.888  10.707  1.00  0.00     0.210 C 
ENDBRANCH  12  21
BRANCH  14  23
HETATM   23  O6  UNL     1      11.006  -2.341  13.439  1.00  0.00    -0.392 OA
ATOM     24  H6  UNL     1      10.684  -1.722  14.083  1.00  0.00     0.210 HD
ENDBRANCH  14  23
BRANCH   9  25
HETATM   25  O2  UNL     1      16.867  -5.218  16.875  1.00  0.00    -0.339 OA
HETATM   26  C9  UNL     1      16.371  -5.964  17.968  1.00  0.00     0.211 C 
ENDBRANCH   9  25
BRANCH  11  27
HETATM   27  O4  UNL     1      16.675  -8.161  13.134  1.00  0.00    -0.350 OA
HETATM   28  C13 UNL     1      16.459  -9.434  13.704  1.00  0.00     0.210 C 
ENDBRANCH  11  27
BRANCH   1  29
HETATM   29  O1  UNL     1      19.065  -2.089  11.741  1.00  0.00    -0.353 OA
HETATM   30  C1  UNL     1      20.213  -2.692  11.250  1.00  0.00     0.210 C 
ENDBRANCH   1  29
BRANCH  10  31
HETATM   31  O3  UNL     1      17.614  -7.627  15.694  1.00  0.00    -0.349 OA
HETATM   32  C11 UNL     1      19.005  -7.614  15.731  1.00  0.00     0.210 C 
ENDBRANCH  10  31
BRANCH  18  33
HETATM   33  O8  UNL     1      18.617  -1.297   9.132  1.00  0.00    -0.358 OA
ATOM     34  H8  UNL     1      19.046  -0.470   9.315  1.00  0.00     0.217 HD
ENDBRANCH  18  33
TORSDOF 8
ENDMDL
MODEL 4
REMARK VINA RESULT: -5.406325368      4.999      8.451
REMARK  8 active torsions:
REMARK  status: ('A' for Active; 'I' for Inactive)
REMARK    1  A    between atoms: O1_2  and  C2_3 
REMARK    2  A    between atoms: C8_11  and  O2_12 
REMARK    3  A    between atoms: C10_14  and  O3_15 
REMARK    4  A    between atoms: C12_17  and  O4_18 
REMARK    5  A    between atoms: C14_20  and  O5_21 
REMARK    6  A    between atoms: C17_24  and  O6_25 
REMARK    7  A    between atoms: C18_27  and  O7_28 
REMARK    8  A    between atoms: C21_32  and  O8_33 
ROOT
HETATM    1  C2  UNL     1      16.023  -5.444  15.228  1.00  0.00     0.102 A 
HETATM    2  C3  UNL     1      17.085  -6.208  15.707  1.00  0.00     0.051 A 
HETATM    3  C4  UNL     1      16.934  -7.218  16.611  1.00  0.00    -0.024 A 
HETATM    4  C5  UNL     1      17.995  -8.039  17.120  1.00  0.00    -0.008 C 
HETATM    5  C6  UNL     1      19.032  -8.481  16.503  1.00  0.00    -0.016 C 
HETATM    6  C7  UNL     1      19.525  -8.357  15.161  1.00  0.00     0.078 A 
HETATM    7  N1  UNL     1      20.581  -7.490  14.941  1.00  0.00    -0.332 N 
ATOM      8  H1  UNL     1      20.904  -6.913  15.717  1.00  0.00     0.168 HD
HETATM    9  C8  UNL     1      21.196  -7.372  13.771  1.00  0.00     0.179 A 
HETATM   10  C10 UNL     1      20.820  -8.113  12.680  1.00  0.00     0.156 A 
HETATM   11  C12 UNL     1      19.776  -8.987  12.845  1.00  0.00     0.141 A 
HETATM   12  C14 UNL     1      19.132  -9.098  14.106  1.00  0.00     0.132 A 
HETATM   13  C16 UNL     1      19.845  -9.314  17.510  1.00  0.00     0.076 C 
HETATM   14  C17 UNL     1      19.486  -8.621  18.785  1.00  0.00     0.155 C 
HETATM   15  C18 UNL     1      17.973  -8.474  18.573  1.00  0.00     0.181 C 
HETATM   16  C19 UNL     1      15.635  -7.467  17.055  1.00  0.00     0.015 A 
HETATM   17  C20 UNL     1      14.565  -6.729  16.603  1.00  0.00     0.040 A 
HETATM   18  C21 UNL     1      14.743  -5.724  15.698  1.00  0.00     0.099 A 
ENDROOT
BRANCH  15  19
HETATM   19  O7  UNL     1      17.464  -7.512  19.404  1.00  0.00    -0.388 OA
ATOM     20  H7  UNL     1      17.493  -7.767  20.319  1.00  0.00     0.210 HD
ENDBRANCH  15  19
BRANCH  12  21
HETATM   21  O5  UNL     1      18.110  -9.998  14.144  1.00  0.00    -0.351 OA
HETATM   22  C15 UNL     1      16.777  -9.615  13.946  1.00  0.00     0.210 C 
ENDBRANCH  12  21
BRANCH  14  23
HETATM   23  O6  UNL     1      19.685  -9.398  19.911  1.00  0.00    -0.392 OA
ATOM     24  H6  UNL     1      19.508 -10.321  19.772  1.00  0.00     0.210 HD
ENDBRANCH  14  23
BRANCH   9  25
HETATM   25  O2  UNL     1      22.241  -6.484  13.634  1.00  0.00    -0.339 OA
HETATM   26  C9  UNL     1      23.427  -6.710  14.368  1.00  0.00     0.211 C 
ENDBRANCH   9  25
BRANCH  11  27
HETATM   27  O4  UNL     1      19.327  -9.774  11.798  1.00  0.00    -0.350 OA
HETATM   28  C13 UNL     1      19.828 -11.070  11.548  1.00  0.00     0.210 C 
ENDBRANCH  11  27
BRANCH   1  29
HETATM   29  O1  UNL     1      16.213  -4.440  14.322  1.00  0.00    -0.353 OA
HETATM   30  C1  UNL     1      16.140  -4.484  12.938  1.00  0.00     0.210 C 
ENDBRANCH   1  29
BRANCH  10  31
HETATM   31  O3  UNL     1      21.445  -8.011  11.446  1.00  0.00    -0.349 OA
HETATM   32  C11 UNL     1      22.604  -8.674  11.050  1.00  0.00     0.210 C 
ENDBRANCH  10  31
BRANCH  18  33
HETATM   33  O8  UNL     1      13.664  -4.981  15.243  1.00  0.00    -0.358 OA
ATOM     34  H8  UNL     1      12.971  -5.408  14.753  1.00  0.00     0.217 HD
ENDBRANCH  18  33
TORSDOF 8
ENDMDL
MODEL 5
REMARK VINA RESULT: -5.384952874      4.805      8.249
REMARK  8 active torsions:
REMARK  status: ('A' for Active; 'I' for Inactive)
REMARK    1  A    between atoms: O1_2  and  C2_3 
REMARK    2  A    between atoms: C8_11  and  O2_12 
REMARK    3  A    between atoms: C10_14  and  O3_15 
REMARK    4  A    between atoms: C12_17  and  O4_18 
REMARK    5  A    between atoms: C14_20  and  O5_21 
REMARK    6  A    between atoms: C17_24  and  O6_25 
REMARK    7  A    between atoms: C18_27  and  O7_28 
REMARK    8  A    between atoms: C21_32  and  O8_33 
ROOT
HETATM    1  C2  UNL     1      15.703  -5.064  13.604  1.00  0.00     0.102 A 
HETATM    2  C3  UNL     1      16.494  -5.766  14.511  1.00  0.00     0.051 A 
HETATM    3  C4  UNL     1      15.982  -6.522  15.524  1.00  0.00    -0.024 A 
HETATM    4  C5  UNL     1      16.756  -7.273  16.471  1.00  0.00    -0.008 C 
HETATM    5  C6  UNL     1      17.849  -7.920  16.277  1.00  0.00    -0.016 C 
HETATM    6  C7  UNL     1      18.685  -8.150  15.133  1.00  0.00     0.078 A 
HETATM    7  N1  UNL     1      19.868  -7.436  15.045  1.00  0.00    -0.332 N 
ATOM      8  H1  UNL     1      20.052  -6.717  15.744  1.00  0.00     0.168 HD
HETATM    9  C8  UNL     1      20.774  -7.640  14.098  1.00  0.00     0.179 A 
HETATM   10  C10 UNL     1      20.599  -8.589  13.123  1.00  0.00     0.156 A 
HETATM   11  C12 UNL     1      19.442  -9.324  13.164  1.00  0.00     0.141 A 
HETATM   12  C14 UNL     1      18.484  -9.089  14.187  1.00  0.00     0.132 A 
HETATM   13  C16 UNL     1      18.256  -8.547  17.622  1.00  0.00     0.076 C 
HETATM   14  C17 UNL     1      17.674  -7.550  18.572  1.00  0.00     0.155 C 
HETATM   15  C18 UNL     1      16.301  -7.351  17.915  1.00  0.00     0.181 C 
HETATM   16  C19 UNL     1      14.590  -6.567  15.625  1.00  0.00     0.015 A 
HETATM   17  C20 UNL     1      13.782  -5.884  14.747  1.00  0.00     0.040 A 
HETATM   18  C21 UNL     1      14.319  -5.135  13.742  1.00  0.00     0.099 A 
ENDROOT
BRANCH  15  19
HETATM   19  O7  UNL     1      15.727  -6.187  18.351  1.00  0.00    -0.388 OA
ATOM     20  H7  UNL     1      15.079  -6.331  19.031  1.00  0.00     0.210 HD
ENDBRANCH  15  19
BRANCH  12  21
HETATM   21  O5  UNL     1      17.378  -9.881  14.121  1.00  0.00    -0.351 OA
HETATM   22  C15 UNL     1      17.123 -10.880  15.070  1.00  0.00     0.210 C 
ENDBRANCH  12  21
BRANCH  14  23
HETATM   23  O6  UNL     1      17.471  -8.052  19.844  1.00  0.00    -0.392 OA
ATOM     24  H6  UNL     1      16.663  -8.546  19.932  1.00  0.00     0.210 HD
ENDBRANCH  14  23
BRANCH   9  25
HETATM   25  O2  UNL     1      21.927  -6.885  14.081  1.00  0.00    -0.339 OA
HETATM   26  C9  UNL     1      22.993  -7.250  14.934  1.00  0.00     0.211 C 
ENDBRANCH   9  25
BRANCH  11  27
HETATM   27  O4  UNL     1      19.179 -10.301  12.220  1.00  0.00    -0.350 OA
HETATM   28  C13 UNL     1      19.734 -11.598  12.288  1.00  0.00     0.210 C 
ENDBRANCH  11  27
BRANCH   1  29
HETATM   29  O1  UNL     1      16.252  -4.318  12.601  1.00  0.00    -0.353 OA
HETATM   30  C1  UNL     1      16.555  -4.687  11.299  1.00  0.00     0.210 C 
ENDBRANCH   1  29
BRANCH  10  31
HETATM   31  O3  UNL     1      21.531  -8.825  12.123  1.00  0.00    -0.349 OA
HETATM   32  C11 UNL     1      21.633  -8.144  10.913  1.00  0.00     0.210 C 
ENDBRANCH  10  31
BRANCH  18  33
HETATM   33  O8  UNL     1      13.504  -4.446  12.856  1.00  0.00    -0.358 OA
ATOM     34  H8  UNL     1      12.678  -4.827  12.582  1.00  0.00     0.217 HD
ENDBRANCH  18  33
TORSDOF 8
ENDMDL
