MODEL 1
REMARK VINA RESULT: -7.350386374      0.000      0.000
REMARK  10 active torsions:
REMARK  status: ('A' for Active; 'I' for Inactive)
REMARK    1  A    between atoms: C2_2  and  C3_3 
REMARK    2  A    between atoms: C4_4  and  C5_5 
REMARK    3  A    between atoms: C6_6  and  O1_7 
REMARK    4  A    between atoms: C7_9  and  O2_10 
REMARK    5  A    between atoms: C8_12  and  O3_13 
REMARK    6  A    between atoms: C9_15  and  N1_16 
REMARK    7  A    between atoms: C14_22  and  S1_23 
REMARK    8  A    between atoms: S1_23  and  C15_24 
REMARK    9  A    between atoms: C15_24  and  C16_25 
REMARK   10  A    between atoms: C16_25  and  O4_28 
ROOT
HETATM    1  N1  UNL     1      14.951  -5.452  14.266  1.00  0.00    -0.315 N 
HETATM    2  C10 UNL     1      13.773  -6.001  14.543  1.00  0.00     0.119 A 
HETATM    3  C11 UNL     1      12.598  -5.841  13.754  1.00  0.00     0.118 C 
HETATM    4  N2  UNL     1      11.632  -5.722  13.132  1.00  0.00    -0.190 NA
HETATM    5  C12 UNL     1      13.826  -6.769  15.716  1.00  0.00     0.059 A 
HETATM    6  C13 UNL     1      15.117  -6.658  16.146  1.00  0.00     0.045 A 
HETATM    7  C14 UNL     1      15.724  -7.216  17.262  1.00  0.00     0.085 A 
HETATM    8  N3  UNL     1      17.024  -6.983  17.516  1.00  0.00    -0.346 N 
ATOM      9  H3  UNL     1      17.489  -7.383  18.331  1.00  0.00     0.167 HD
HETATM   10  C20 UNL     1      17.681  -6.198  16.644  1.00  0.00     0.182 A 
HETATM   11  N4  UNL     1      17.096  -5.653  15.560  1.00  0.00    -0.338 N 
ATOM     12  H4  UNL     1      17.652  -5.065  14.939  1.00  0.00     0.168 HD
HETATM   13  C21 UNL     1      15.788  -5.864  15.271  1.00  0.00     0.123 A 
ENDROOT
BRANCH   1  14
HETATM   14  C9  UNL     1      15.394  -4.621  13.226  1.00  0.00     0.134 C 
HETATM   15  C5  UNL     1      14.463  -3.858  12.396  1.00  0.00     0.065 C 
HETATM   16  C6  UNL     1      15.431  -3.352  11.296  1.00  0.00     0.159 C 
HETATM   17  C7  UNL     1      16.287  -4.534  10.973  1.00  0.00     0.178 C 
HETATM   18  C8  UNL     1      16.290  -5.339  12.237  1.00  0.00     0.173 C 
BRANCH  15  19
HETATM   19  C4  UNL     1      14.039  -2.553  13.031  1.00  0.00    -0.021 C 
HETATM   20  C3  UNL     1      12.909  -1.977  12.758  1.00  0.00    -0.030 C 
BRANCH  20  21
HETATM   21  C2  UNL     1      11.854  -2.438  11.826  1.00  0.00     0.022 C 
HETATM   22  C1  UNL     1      11.973  -1.801  10.466  1.00  0.00     0.009 C 
ENDBRANCH  20  21
ENDBRANCH  15  19
BRANCH  16  23
HETATM   23  O1  UNL     1      16.247  -2.410  11.934  1.00  0.00    -0.392 OA
ATOM     24  H1  UNL     1      15.912  -1.566  11.658  1.00  0.00     0.210 HD
ENDBRANCH  16  23
BRANCH  17  25
HETATM   25  O2  UNL     1      17.569  -4.118  10.650  1.00  0.00    -0.390 OA
ATOM     26  H2  UNL     1      18.129  -4.872  10.505  1.00  0.00     0.210 HD
ENDBRANCH  17  25
BRANCH  18  27
HETATM   27  O3  UNL     1      15.920  -6.634  11.975  1.00  0.00    -0.391 OA
ATOM     28  H3  UNL     1      16.278  -6.916  11.142  1.00  0.00     0.210 HD
ENDBRANCH  18  27
ENDBRANCH   1  14
BRANCH   7  29
HETATM   29  S1  UNL     1      14.759  -8.252  18.363  1.00  0.00    -0.108 SA
BRANCH  29  30
HETATM   30  C15 UNL     1      13.729  -7.202  19.414  1.00  0.00     0.118 C 
BRANCH  30  31
HETATM   31  C16 UNL     1      12.349  -7.801  19.560  1.00  0.00     0.062 C 
HETATM   32  C17 UNL     1      11.954  -8.591  18.332  1.00  0.00     0.046 C 
HETATM   33  C18 UNL     1      12.439  -8.783  20.738  1.00  0.00     0.046 C 
BRANCH  31  34
HETATM   34  O4  UNL     1      11.388  -6.881  19.882  1.00  0.00    -0.385 OA
HETATM   35  C19 UNL     1      10.108  -7.232  19.512  1.00  0.00     0.202 C 
ENDBRANCH  31  34
ENDBRANCH  30  31
ENDBRANCH  29  30
ENDBRANCH   7  29
TORSDOF 10
ENDMDL
MODEL 2
REMARK VINA RESULT: -7.066832813      3.347      8.588
REMARK  10 active torsions:
REMARK  status: ('A' for Active; 'I' for Inactive)
REMARK    1  A    between atoms: C2_2  and  C3_3 
REMARK    2  A    between atoms: C4_4  and  C5_5 
REMARK    3  A    between atoms: C6_6  and  O1_7 
REMARK    4  A    between atoms: C7_9  and  O2_10 
REMARK    5  A    between atoms: C8_12  and  O3_13 
REMARK    6  A    between atoms: C9_15  and  N1_16 
REMARK    7  A    between atoms: C14_22  and  S1_23 
REMARK    8  A    between atoms: S1_23  and  C15_24 
REMARK    9  A    between atoms: C15_24  and  C16_25 
REMARK   10  A    between atoms: C16_25  and  O4_28 
ROOT
HETATM    1  N1  UNL     1      16.019  -6.117  14.734  1.00  0.00    -0.315 N 
HETATM    2  C10 UNL     1      16.256  -6.832  13.639  1.00  0.00     0.119 A 
HETATM    3  C11 UNL     1      16.406  -8.247  13.611  1.00  0.00     0.118 C 
HETATM    4  N2  UNL     1      16.534  -9.395  13.565  1.00  0.00    -0.190 NA
HETATM    5  C12 UNL     1      16.338  -6.016  12.500  1.00  0.00     0.059 A 
HETATM    6  C13 UNL     1      16.136  -4.749  12.965  1.00  0.00     0.045 A 
HETATM    7  C14 UNL     1      16.113  -3.549  12.268  1.00  0.00     0.085 A 
HETATM    8  N3  UNL     1      15.896  -2.390  12.917  1.00  0.00    -0.346 N 
ATOM      9  H3  UNL     1      15.876  -1.498  12.424  1.00  0.00     0.167 HD
HETATM   10  C20 UNL     1      15.707  -2.467  14.246  1.00  0.00     0.182 A 
HETATM   11  N4  UNL     1      15.730  -3.629  14.927  1.00  0.00    -0.338 N 
ATOM     12  H4  UNL     1      15.579  -3.615  15.936  1.00  0.00     0.168 HD
HETATM   13  C21 UNL     1      15.945  -4.816  14.309  1.00  0.00     0.123 A 
ENDROOT
BRANCH   1  14
HETATM   14  C9  UNL     1      15.855  -6.466  16.082  1.00  0.00     0.134 C 
HETATM   15  C5  UNL     1      16.442  -7.683  16.643  1.00  0.00     0.065 C 
HETATM   16  C6  UNL     1      15.756  -7.702  18.033  1.00  0.00     0.159 C 
HETATM   17  C7  UNL     1      14.332  -7.341  17.755  1.00  0.00     0.178 C 
HETATM   18  C8  UNL     1      14.402  -6.511  16.509  1.00  0.00     0.173 C 
BRANCH  15  19
HETATM   19  C4  UNL     1      17.892  -7.511  17.039  1.00  0.00    -0.021 C 
HETATM   20  C3  UNL     1      18.752  -8.481  16.985  1.00  0.00    -0.030 C 
BRANCH  20  21
HETATM   21  C2  UNL     1      18.520  -9.879  16.555  1.00  0.00     0.022 C 
HETATM   22  C1  UNL     1      19.518 -10.334  15.521  1.00  0.00     0.009 C 
ENDBRANCH  20  21
ENDBRANCH  15  19
BRANCH  16  23
HETATM   23  O1  UNL     1      16.326  -6.633  18.735  1.00  0.00    -0.392 OA
ATOM     24  H1  UNL     1      16.821  -6.147  18.086  1.00  0.00     0.210 HD
ENDBRANCH  16  23
BRANCH  17  25
HETATM   25  O2  UNL     1      13.815  -6.604  18.810  1.00  0.00    -0.390 OA
ATOM     26  H2  UNL     1      13.562  -5.739  18.510  1.00  0.00     0.210 HD
ENDBRANCH  17  25
BRANCH  18  27
HETATM   27  O3  UNL     1      13.548  -7.011  15.559  1.00  0.00    -0.391 OA
ATOM     28  H3  UNL     1      14.009  -7.139  14.738  1.00  0.00     0.210 HD
ENDBRANCH  18  27
ENDBRANCH   1  14
BRANCH   7  29
HETATM   29  S1  UNL     1      16.375  -3.556  10.494  1.00  0.00    -0.108 SA
BRANCH  29  30
HETATM   30  C15 UNL     1      18.008  -2.872  10.133  1.00  0.00     0.118 C 
BRANCH  30  31
HETATM   31  C16 UNL     1      17.880  -1.464   9.598  1.00  0.00     0.062 C 
HETATM   32  C17 UNL     1      16.430  -1.058   9.450  1.00  0.00     0.046 C 
HETATM   33  C18 UNL     1      18.515  -0.552  10.656  1.00  0.00     0.046 C 
BRANCH  31  34
HETATM   34  O4  UNL     1      18.568  -1.261   8.432  1.00  0.00    -0.385 OA
HETATM   35  C19 UNL     1      19.937  -1.210   8.574  1.00  0.00     0.202 C 
ENDBRANCH  31  34
ENDBRANCH  30  31
ENDBRANCH  29  30
ENDBRANCH   7  29
TORSDOF 10
ENDMDL
MODEL 3
REMARK VINA RESULT: -7.066803192      3.245      7.450
REMARK  10 active torsions:
REMARK  status: ('A' for Active; 'I' for Inactive)
REMARK    1  A    between atoms: C2_2  and  C3_3 
REMARK    2  A    between atoms: C4_4  and  C5_5 
REMARK    3  A    between atoms: C6_6  and  O1_7 
REMARK    4  A    between atoms: C7_9  and  O2_10 
REMARK    5  A    between atoms: C8_12  and  O3_13 
REMARK    6  A    between atoms: C9_15  and  N1_16 
REMARK    7  A    between atoms: C14_22  and  S1_23 
REMARK    8  A    between atoms: S1_23  and  C15_24 
REMARK    9  A    between atoms: C15_24  and  C16_25 
REMARK   10  A    between atoms: C16_25  and  O4_28 
ROOT
HETATM    1  N1  UNL     1      15.975  -6.310  15.083  1.00  0.00    -0.315 N 
HETATM    2  C10 UNL     1      15.924  -6.878  13.883  1.00  0.00     0.119 A 
HETATM    3  C11 UNL     1      16.170  -8.256  13.627  1.00  0.00     0.118 C 
HETATM    4  N2  UNL     1      16.368  -9.371  13.395  1.00  0.00    -0.190 NA
HETATM    5  C12 UNL     1      15.593  -5.946  12.887  1.00  0.00     0.059 A 
HETATM    6  C13 UNL     1      15.441  -4.764  13.552  1.00  0.00     0.045 A 
HETATM    7  C14 UNL     1      15.114  -3.511  13.056  1.00  0.00     0.085 A 
HETATM    8  N3  UNL     1      15.013  -2.457  13.887  1.00  0.00    -0.346 N 
ATOM      9  H3  UNL     1      14.774  -1.527  13.543  1.00  0.00     0.167 HD
HETATM   10  C20 UNL     1      15.242  -2.689  15.191  1.00  0.00     0.182 A 
HETATM   11  N4  UNL     1      15.561  -3.904  15.677  1.00  0.00    -0.338 N 
ATOM     12  H4  UNL     1      15.723  -4.010  16.678  1.00  0.00     0.168 HD
HETATM   13  C21 UNL     1      15.673  -4.990  14.872  1.00  0.00     0.123 A 
ENDROOT
BRANCH   1  14
HETATM   14  C9  UNL     1      16.255  -6.811  16.363  1.00  0.00     0.134 C 
HETATM   15  C5  UNL     1      17.279  -7.831  16.587  1.00  0.00     0.065 C 
HETATM   16  C6  UNL     1      16.993  -8.184  18.069  1.00  0.00     0.159 C 
HETATM   17  C7  UNL     1      15.502  -8.258  18.158  1.00  0.00     0.178 C 
HETATM   18  C8  UNL     1      15.025  -7.340  17.073  1.00  0.00     0.173 C 
BRANCH  15  19
HETATM   19  C4  UNL     1      18.673  -7.255  16.691  1.00  0.00    -0.021 C 
HETATM   20  C3  UNL     1      19.625  -7.573  15.869  1.00  0.00    -0.030 C 
BRANCH  20  21
HETATM   21  C2  UNL     1      19.563  -8.509  14.723  1.00  0.00     0.022 C 
HETATM   22  C1  UNL     1      19.837  -7.826  13.409  1.00  0.00     0.009 C 
ENDBRANCH  20  21
ENDBRANCH  15  19
BRANCH  16  23
HETATM   23  O1  UNL     1      17.397  -7.058  18.796  1.00  0.00    -0.392 OA
ATOM     24  H1  UNL     1      16.685  -6.886  19.401  1.00  0.00     0.210 HD
ENDBRANCH  16  23
BRANCH  17  25
HETATM   25  O2  UNL     1      15.078  -7.814  19.401  1.00  0.00    -0.390 OA
ATOM     26  H2  UNL     1      14.176  -8.074  19.550  1.00  0.00     0.210 HD
ENDBRANCH  17  25
BRANCH  18  27
HETATM   27  O3  UNL     1      14.138  -7.993  16.256  1.00  0.00    -0.391 OA
ATOM     28  H3  UNL     1      13.267  -7.627  16.358  1.00  0.00     0.210 HD
ENDBRANCH  18  27
ENDBRANCH   1  14
BRANCH   7  29
HETATM   29  S1  UNL     1      14.826  -3.308  11.298  1.00  0.00    -0.108 SA
BRANCH  29  30
HETATM   30  C15 UNL     1      14.367  -1.591  10.967  1.00  0.00     0.118 C 
BRANCH  30  31
HETATM   31  C16 UNL     1      12.896  -1.379  11.246  1.00  0.00     0.062 C 
HETATM   32  C17 UNL     1      12.346  -0.209  10.461  1.00  0.00     0.046 C 
HETATM   33  C18 UNL     1      12.187  -2.648  10.752  1.00  0.00     0.046 C 
BRANCH  31  34
HETATM   34  O4  UNL     1      12.608  -1.255  12.578  1.00  0.00    -0.385 OA
HETATM   35  C19 UNL     1      11.539  -2.010  13.008  1.00  0.00     0.202 C 
ENDBRANCH  31  34
ENDBRANCH  30  31
ENDBRANCH  29  30
ENDBRANCH   7  29
TORSDOF 10
ENDMDL
MODEL 4
REMARK VINA RESULT: -6.984430616      3.112      7.373
REMARK  10 active torsions:
REMARK  status: ('A' for Active; 'I' for Inactive)
REMARK    1  A    between atoms: C2_2  and  C3_3 
REMARK    2  A    between atoms: C4_4  and  C5_5 
REMARK    3  A    between atoms: C6_6  and  O1_7 
REMARK    4  A    between atoms: C7_9  and  O2_10 
REMARK    5  A    between atoms: C8_12  and  O3_13 
REMARK    6  A    between atoms: C9_15  and  N1_16 
REMARK    7  A    between atoms: C14_22  and  S1_23 
REMARK    8  A    between atoms: S1_23  and  C15_24 
REMARK    9  A    between atoms: C15_24  and  C16_25 
REMARK   10  A    between atoms: C16_25  and  O4_28 
ROOT
HETATM    1  N1  UNL     1      15.367  -6.727  14.882  1.00  0.00    -0.315 N 
HETATM    2  C10 UNL     1      14.135  -6.867  15.360  1.00  0.00     0.119 A 
HETATM    3  C11 UNL     1      13.773  -7.741  16.424  1.00  0.00     0.118 C 
HETATM    4  N2  UNL     1      13.456  -8.444  17.284  1.00  0.00    -0.190 NA
HETATM    5  C12 UNL     1      13.224  -6.040  14.686  1.00  0.00     0.059 A 
HETATM    6  C13 UNL     1      13.976  -5.378  13.759  1.00  0.00     0.045 A 
HETATM    7  C14 UNL     1      13.585  -4.435  12.819  1.00  0.00     0.085 A 
HETATM    8  N3  UNL     1      14.489  -3.893  11.983  1.00  0.00    -0.346 N 
ATOM      9  H3  UNL     1      14.222  -3.199  11.285  1.00  0.00     0.167 HD
HETATM   10  C20 UNL     1      15.760  -4.312  12.112  1.00  0.00     0.182 A 
HETATM   11  N4  UNL     1      16.144  -5.227  13.022  1.00  0.00    -0.338 N 
ATOM     12  H4  UNL     1      17.126  -5.500  13.066  1.00  0.00     0.168 HD
HETATM   13  C21 UNL     1      15.263  -5.796  13.881  1.00  0.00     0.123 A 
ENDROOT
BRANCH   1  14
HETATM   14  C9  UNL     1      16.593  -7.320  15.218  1.00  0.00     0.134 C 
HETATM   15  C5  UNL     1      16.665  -8.579  15.959  1.00  0.00     0.065 C 
HETATM   16  C6  UNL     1      18.183  -8.627  16.268  1.00  0.00     0.159 C 
HETATM   17  C7  UNL     1      18.529  -7.231  16.675  1.00  0.00     0.178 C 
HETATM   18  C8  UNL     1      17.518  -6.382  15.966  1.00  0.00     0.173 C 
BRANCH  15  19
HETATM   19  C4  UNL     1      16.512  -9.795  15.073  1.00  0.00    -0.021 C 
HETATM   20  C3  UNL     1      16.057 -10.928  15.512  1.00  0.00    -0.030 C 
BRANCH  20  21
HETATM   21  C2  UNL     1      15.617 -11.261  16.887  1.00  0.00     0.022 C 
HETATM   22  C1  UNL     1      14.253 -11.901  16.913  1.00  0.00     0.009 C 
ENDBRANCH  20  21
ENDBRANCH  15  19
BRANCH  16  23
HETATM   23  O1  UNL     1      18.799  -8.864  15.033  1.00  0.00    -0.392 OA
ATOM     24  H1  UNL     1      18.184  -8.540  14.385  1.00  0.00     0.210 HD
ENDBRANCH  16  23
BRANCH  17  25
HETATM   25  O2  UNL     1      19.814  -6.919  16.258  1.00  0.00    -0.390 OA
ATOM     26  H2  UNL     1      19.927  -7.155  15.344  1.00  0.00     0.210 HD
ENDBRANCH  17  25
BRANCH  18  27
HETATM   27  O3  UNL     1      16.885  -5.555  16.859  1.00  0.00    -0.391 OA
ATOM     28  H3  UNL     1      15.944  -5.597  16.735  1.00  0.00     0.210 HD
ENDBRANCH  18  27
ENDBRANCH   1  14
BRANCH   7  29
HETATM   29  S1  UNL     1      11.862  -3.944  12.730  1.00  0.00    -0.108 SA
BRANCH  29  30
HETATM   30  C15 UNL     1      11.735  -2.168  13.042  1.00  0.00     0.118 C 
BRANCH  30  31
HETATM   31  C16 UNL     1      11.972  -1.393  11.766  1.00  0.00     0.062 C 
HETATM   32  C17 UNL     1      11.522  -2.175  10.552  1.00  0.00     0.046 C 
HETATM   33  C18 UNL     1      11.094  -0.138  11.866  1.00  0.00     0.046 C 
BRANCH  31  34
HETATM   34  O4  UNL     1      13.264  -0.964  11.623  1.00  0.00    -0.385 OA
HETATM   35  C19 UNL     1      13.723  -0.946  10.324  1.00  0.00     0.202 C 
ENDBRANCH  31  34
ENDBRANCH  30  31
ENDBRANCH  29  30
ENDBRANCH   7  29
TORSDOF 10
ENDMDL
MODEL 5
REMARK VINA RESULT: -6.933590281      2.623      4.366
REMARK  10 active torsions:
REMARK  status: ('A' for Active; 'I' for Inactive)
REMARK    1  A    between atoms: C2_2  and  C3_3 
REMARK    2  A    between atoms: C4_4  and  C5_5 
REMARK    3  A    between atoms: C6_6  and  O1_7 
REMARK    4  A    between atoms: C7_9  and  O2_10 
REMARK    5  A    between atoms: C8_12  and  O3_13 
REMARK    6  A    between atoms: C9_15  and  N1_16 
REMARK    7  A    between atoms: C14_22  and  S1_23 
REMARK    8  A    between atoms: S1_23  and  C15_24 
REMARK    9  A    between atoms: C15_24  and  C16_25 
REMARK   10  A    between atoms: C16_25  and  O4_28 
ROOT
HETATM    1  N1  UNL     1      14.216  -3.797  12.664  1.00  0.00    -0.315 N 
HETATM    2  C10 UNL     1      15.505  -3.975  12.927  1.00  0.00     0.119 A 
HETATM    3  C11 UNL     1      16.556  -3.155  12.426  1.00  0.00     0.118 C 
HETATM    4  N2  UNL     1      17.425  -2.504  12.029  1.00  0.00    -0.190 NA
HETATM    5  C12 UNL     1      15.712  -5.079  13.769  1.00  0.00     0.059 A 
HETATM    6  C13 UNL     1      14.462  -5.570  14.010  1.00  0.00     0.045 A 
HETATM    7  C14 UNL     1      14.077  -6.658  14.780  1.00  0.00     0.085 A 
HETATM    8  N3  UNL     1      12.777  -6.986  14.892  1.00  0.00    -0.346 N 
ATOM      9  H3  UNL     1      12.473  -7.782  15.453  1.00  0.00     0.167 HD
HETATM   10  C20 UNL     1      11.898  -6.213  14.229  1.00  0.00     0.182 A 
HETATM   11  N4  UNL     1      12.267  -5.158  13.480  1.00  0.00    -0.338 N 
ATOM     12  H4  UNL     1      11.548  -4.614  13.002  1.00  0.00     0.168 HD
HETATM   13  C21 UNL     1      13.566  -4.796  13.342  1.00  0.00     0.123 A 
ENDROOT
BRANCH   1  14
HETATM   14  C9  UNL     1      13.522  -2.852  11.894  1.00  0.00     0.134 C 
HETATM   15  C5  UNL     1      14.216  -1.810  11.139  1.00  0.00     0.065 C 
HETATM   16  C6  UNL     1      13.011  -0.934  10.711  1.00  0.00     0.159 C 
HETATM   17  C7  UNL     1      12.152  -0.851  11.931  1.00  0.00     0.178 C 
HETATM   18  C8  UNL     1      12.459  -2.112  12.681  1.00  0.00     0.173 C 
BRANCH  15  19
HETATM   19  C4  UNL     1      14.718  -2.288   9.795  1.00  0.00    -0.021 C 
HETATM   20  C3  UNL     1      15.594  -1.629   9.100  1.00  0.00    -0.030 C 
BRANCH  20  21
HETATM   21  C2  UNL     1      16.250  -0.347   9.444  1.00  0.00     0.022 C 
HETATM   22  C1  UNL     1      17.716  -0.341   9.095  1.00  0.00     0.009 C 
ENDBRANCH  20  21
ENDBRANCH  15  19
BRANCH  16  23
HETATM   23  O1  UNL     1      12.319  -1.704   9.768  1.00  0.00    -0.392 OA
ATOM     24  H1  UNL     1      11.709  -2.225  10.275  1.00  0.00     0.210 HD
ENDBRANCH  16  23
BRANCH  17  25
HETATM   25  O2  UNL     1      10.815  -0.805  11.569  1.00  0.00    -0.390 OA
ATOM     26  H2  UNL     1      10.331  -1.484  12.024  1.00  0.00     0.210 HD
ENDBRANCH  17  25
BRANCH  18  27
HETATM   27  O3  UNL     1      12.813  -1.821  13.974  1.00  0.00    -0.391 OA
ATOM     28  H3  UNL     1      13.682  -2.156  14.159  1.00  0.00     0.210 HD
ENDBRANCH  18  27
ENDBRANCH   1  14
BRANCH   7  29
HETATM   29  S1  UNL     1      15.329  -7.624  15.627  1.00  0.00    -0.108 SA
BRANCH  29  30
HETATM   30  C15 UNL     1      15.457  -7.059  17.339  1.00  0.00     0.118 C 
BRANCH  30  31
HETATM   31  C16 UNL     1      14.555  -7.882  18.230  1.00  0.00     0.062 C 
HETATM   32  C17 UNL     1      15.341  -8.896  19.030  1.00  0.00     0.046 C 
HETATM   33  C18 UNL     1      13.926  -6.892  19.221  1.00  0.00     0.046 C 
BRANCH  31  34
HETATM   34  O4  UNL     1      13.524  -8.480  17.556  1.00  0.00    -0.385 OA
HETATM   35  C19 UNL     1      12.325  -8.493  18.234  1.00  0.00     0.202 C 
ENDBRANCH  31  34
ENDBRANCH  30  31
ENDBRANCH  29  30
ENDBRANCH   7  29
TORSDOF 10
ENDMDL
