MODEL 1
REMARK VINA RESULT: -8.039675993      0.000      0.000
REMARK  13 active torsions:
REMARK  status: ('A' for Active; 'I' for Inactive)
REMARK    1  A    between atoms: C2_2  and  S1_3 
REMARK    2  A    between atoms: S1_3  and  N1_6 
REMARK    3  A    between atoms: N1_6  and  C3_8 
REMARK    4  A    between atoms: C3_8  and  C4_9 
REMARK    5  A    between atoms: C3_8  and  C19_40 
REMARK       I    between atoms: C4_9  and  N2_11 
REMARK    6  A    between atoms: N2_11  and  C5_13 
REMARK    7  A    between atoms: C6_18  and  C7_19 
REMARK    8  A    between atoms: C7_19  and  C8_20 
REMARK    9  A    between atoms: C8_20  and  C9_21 
REMARK   10  A    between atoms: C9_21  and  C10_22 
REMARK   11  A    between atoms: C10_22  and  C11_23 
REMARK       I    between atoms: N7_29  and  C13_31 
REMARK   12  A    between atoms: C13_31  and  C14_33 
REMARK   13  A    between atoms: C14_33  and  C15_34 
ROOT
HETATM    1  C5  UNL     1     -12.121  21.710 -19.408  1.00  0.00     0.167 A 
HETATM    2  N3  UNL     1     -12.297  20.442 -19.779  1.00  0.00    -0.279 N 
ATOM      3  H3  UNL     1     -13.230  20.029 -19.794  1.00  0.00     0.189 HD
HETATM    4  N4  UNL     1     -11.279  19.759 -20.113  1.00  0.00    -0.296 N 
ATOM      5  H4  UNL     1     -11.392  18.787 -20.400  1.00  0.00     0.187 HD
HETATM    6  C6  UNL     1     -10.070  20.305 -20.089  1.00  0.00     0.069 A 
HETATM    7  S3  UNL     1     -10.430  21.889 -19.556  1.00  0.00    -0.038 SA
ENDROOT
BRANCH   6   8
HETATM    8  C7  UNL     1      -8.753  19.658 -20.446  1.00  0.00     0.066 C 
BRANCH   8   9
HETATM    9  C8  UNL     1      -8.779  18.231 -19.944  1.00  0.00     0.007 C 
BRANCH   9  10
HETATM   10  C9  UNL     1      -7.786  17.977 -18.851  1.00  0.00     0.007 C 
BRANCH  10  11
HETATM   11  C10 UNL     1      -8.454  17.304 -17.676  1.00  0.00     0.066 C 
BRANCH  11  12
HETATM   12  C11 UNL     1      -9.571  18.173 -17.159  1.00  0.00     0.069 A 
HETATM   13  N5  UNL     1      -9.520  19.406 -16.682  1.00  0.00    -0.296 N 
HETATM   14  N6  UNL     1     -10.574  19.988 -16.288  1.00  0.00    -0.279 N 
ATOM     15  H5  UNL     1      -8.625  19.892 -16.632  1.00  0.00     0.187 HD
HETATM   16  C12 UNL     1     -11.738  19.337 -16.360  1.00  0.00     0.167 A 
ATOM     17  H6  UNL     1     -10.535  20.940 -15.921  1.00  0.00     0.189 HD
HETATM   18  N7  UNL     1     -12.937  19.742 -16.011  1.00  0.00    -0.306 N 
HETATM   19  S2  UNL     1     -11.246  17.833 -17.028  1.00  0.00    -0.038 SA
HETATM   20  C13 UNL     1     -13.036  21.054 -15.480  1.00  0.00     0.224 C 
ATOM     21  H7  UNL     1     -13.756  19.144 -16.117  1.00  0.00     0.171 HD
HETATM   22  O4  UNL     1     -13.201  21.992 -16.302  1.00  0.00    -0.273 OA
BRANCH  20  23
HETATM   23  C14 UNL     1     -12.940  21.221 -14.023  1.00  0.00     0.111 C 
BRANCH  23  24
HETATM   24  C15 UNL     1     -14.262  21.414 -13.350  1.00  0.00    -0.043 C 
HETATM   25  C16 UNL     1     -14.622  22.870 -13.318  1.00  0.00     0.015 C 
HETATM   26  C17 UNL     1     -14.087  20.961 -11.894  1.00  0.00     0.015 C 
HETATM   27  C18 UNL     1     -15.342  20.559 -13.961  1.00  0.00     0.015 C 
ENDBRANCH  23  24
ENDBRANCH  20  23
ENDBRANCH  11  12
ENDBRANCH  10  11
ENDBRANCH   9  10
ENDBRANCH   8   9
ENDBRANCH   6   8
BRANCH   1  28
HETATM   28  N2  UNL     1     -13.067  22.539 -19.037  1.00  0.00    -0.304 N 
HETATM   29  C4  UNL     1     -13.974  23.065 -19.946  1.00  0.00     0.247 C 
HETATM   30  O3  UNL     1     -13.795  23.030 -21.171  1.00  0.00    -0.271 OA
ATOM     31  H2  UNL     1     -13.138  22.804 -18.055  1.00  0.00     0.171 HD
BRANCH  29  32
HETATM   32  C3  UNL     1     -15.247  23.713 -19.439  1.00  0.00     0.188 C 
BRANCH  32  33
HETATM   33  N1  UNL     1     -15.224  23.716 -18.015  1.00  0.00    -0.305 N 
ATOM     34  H1  UNL     1     -14.346  23.666 -17.497  1.00  0.00     0.173 HD
BRANCH  33  35
HETATM   35  S1  UNL     1     -16.714  23.806 -17.223  1.00  0.00     0.227 S 
HETATM   36  O1  UNL     1     -16.703  22.744 -16.126  1.00  0.00    -0.206 OA
HETATM   37  O2  UNL     1     -17.874  23.421 -18.108  1.00  0.00    -0.206 OA
BRANCH  35  38
HETATM   38  C2  UNL     1     -17.103  25.330 -16.461  1.00  0.00     0.158 C 
HETATM   39  C1  UNL     1     -17.992  26.233 -17.252  1.00  0.00     0.023 C 
ENDBRANCH  35  38
ENDBRANCH  33  35
ENDBRANCH  32  33
BRANCH  32  40
HETATM   40  C19 UNL     1     -15.281  25.079 -20.070  1.00  0.00     0.010 C 
HETATM   41  C20 UNL     1     -14.710  26.108 -19.102  1.00  0.00     0.012 C 
HETATM   42  C21 UNL     1     -16.577  25.482 -20.670  1.00  0.00     0.012 C 
ENDBRANCH  32  40
ENDBRANCH  29  32
ENDBRANCH   1  28
TORSDOF 13
ENDMDL
MODEL 2
REMARK VINA RESULT: -7.922562596      1.442      2.011
REMARK  13 active torsions:
REMARK  status: ('A' for Active; 'I' for Inactive)
REMARK    1  A    between atoms: C2_2  and  S1_3 
REMARK    2  A    between atoms: S1_3  and  N1_6 
REMARK    3  A    between atoms: N1_6  and  C3_8 
REMARK    4  A    between atoms: C3_8  and  C4_9 
REMARK    5  A    between atoms: C3_8  and  C19_40 
REMARK       I    between atoms: C4_9  and  N2_11 
REMARK    6  A    between atoms: N2_11  and  C5_13 
REMARK    7  A    between atoms: C6_18  and  C7_19 
REMARK    8  A    between atoms: C7_19  and  C8_20 
REMARK    9  A    between atoms: C8_20  and  C9_21 
REMARK   10  A    between atoms: C9_21  and  C10_22 
REMARK   11  A    between atoms: C10_22  and  C11_23 
REMARK       I    between atoms: N7_29  and  C13_31 
REMARK   12  A    between atoms: C13_31  and  C14_33 
REMARK   13  A    between atoms: C14_33  and  C15_34 
ROOT
HETATM    1  C5  UNL     1     -11.402  21.230 -19.430  1.00  0.00     0.167 A 
HETATM    2  N3  UNL     1     -11.815  20.078 -19.960  1.00  0.00    -0.279 N 
ATOM      3  H3  UNL     1     -12.810  19.868 -20.038  1.00  0.00     0.189 HD
HETATM    4  N4  UNL     1     -10.942  19.248 -20.364  1.00  0.00    -0.296 N 
ATOM      5  H4  UNL     1     -11.236  18.361 -20.772  1.00  0.00     0.187 HD
HETATM    6  C6  UNL     1      -9.650  19.530 -20.256  1.00  0.00     0.069 A 
HETATM    7  S3  UNL     1      -9.706  21.079 -19.532  1.00  0.00    -0.038 SA
ENDROOT
BRANCH   6   8
HETATM    8  C7  UNL     1      -8.476  18.676 -20.674  1.00  0.00     0.066 C 
BRANCH   8   9
HETATM    9  C8  UNL     1      -7.610  18.441 -19.457  1.00  0.00     0.007 C 
BRANCH   9  10
HETATM   10  C9  UNL     1      -7.637  17.019 -18.985  1.00  0.00     0.007 C 
BRANCH  10  11
HETATM   11  C10 UNL     1      -7.707  16.963 -17.478  1.00  0.00     0.066 C 
BRANCH  11  12
HETATM   12  C11 UNL     1      -8.797  17.878 -16.985  1.00  0.00     0.069 A 
HETATM   13  N5  UNL     1      -8.706  18.953 -16.219  1.00  0.00    -0.296 N 
HETATM   14  N6  UNL     1      -9.743  19.607 -15.901  1.00  0.00    -0.279 N 
ATOM     15  H5  UNL     1      -7.793  19.257 -15.882  1.00  0.00     0.187 HD
HETATM   16  C12 UNL     1     -10.931  19.195 -16.349  1.00  0.00     0.167 A 
ATOM     17  H6  UNL     1      -9.672  20.437 -15.311  1.00  0.00     0.189 HD
HETATM   18  N7  UNL     1     -12.119  19.713 -16.146  1.00  0.00    -0.306 N 
HETATM   19  S2  UNL     1     -10.487  17.808 -17.261  1.00  0.00    -0.038 SA
HETATM   20  C13 UNL     1     -12.176  20.878 -15.338  1.00  0.00     0.224 C 
ATOM     21  H7  UNL     1     -12.960  19.299 -16.549  1.00  0.00     0.171 HD
HETATM   22  O4  UNL     1     -12.038  21.984 -15.920  1.00  0.00    -0.273 OA
BRANCH  20  23
HETATM   23  C14 UNL     1     -12.389  20.710 -13.893  1.00  0.00     0.111 C 
BRANCH  23  24
HETATM   24  C15 UNL     1     -13.787  21.007 -13.452  1.00  0.00    -0.043 C 
HETATM   25  C16 UNL     1     -14.003  22.490 -13.372  1.00  0.00     0.015 C 
HETATM   26  C17 UNL     1     -13.927  20.454 -12.027  1.00  0.00     0.015 C 
HETATM   27  C18 UNL     1     -14.815  20.312 -14.307  1.00  0.00     0.015 C 
ENDBRANCH  23  24
ENDBRANCH  20  23
ENDBRANCH  11  12
ENDBRANCH  10  11
ENDBRANCH   9  10
ENDBRANCH   8   9
ENDBRANCH   6   8
BRANCH   1  28
HETATM   28  N2  UNL     1     -12.177  22.184 -18.970  1.00  0.00    -0.304 N 
HETATM   29  C4  UNL     1     -13.316  22.590 -19.651  1.00  0.00     0.247 C 
HETATM   30  O3  UNL     1     -13.527  22.305 -20.837  1.00  0.00    -0.271 OA
ATOM     31  H2  UNL     1     -11.936  22.638 -18.090  1.00  0.00     0.171 HD
BRANCH  29  32
HETATM   32  C3  UNL     1     -14.361  23.417 -18.928  1.00  0.00     0.188 C 
BRANCH  32  33
HETATM   33  N1  UNL     1     -15.522  23.508 -19.748  1.00  0.00    -0.305 N 
ATOM     34  H1  UNL     1     -15.934  22.681 -20.181  1.00  0.00     0.173 HD
BRANCH  33  35
HETATM   35  S1  UNL     1     -16.185  25.046 -19.973  1.00  0.00     0.227 S 
HETATM   36  O1  UNL     1     -17.701  24.900 -19.869  1.00  0.00    -0.206 OA
HETATM   37  O2  UNL     1     -15.953  25.589 -21.362  1.00  0.00    -0.206 OA
BRANCH  35  38
HETATM   38  C2  UNL     1     -15.705  26.278 -18.829  1.00  0.00     0.158 C 
HETATM   39  C1  UNL     1     -16.813  26.864 -18.017  1.00  0.00     0.023 C 
ENDBRANCH  35  38
ENDBRANCH  33  35
ENDBRANCH  32  33
BRANCH  32  40
HETATM   40  C19 UNL     1     -14.577  22.725 -17.609  1.00  0.00     0.010 C 
HETATM   41  C20 UNL     1     -14.890  21.253 -17.843  1.00  0.00     0.012 C 
HETATM   42  C21 UNL     1     -15.520  23.393 -16.676  1.00  0.00     0.012 C 
ENDBRANCH  32  40
ENDBRANCH  29  32
ENDBRANCH   1  28
TORSDOF 13
ENDMDL
MODEL 3
REMARK VINA RESULT: -7.682869065      3.768      8.508
REMARK  13 active torsions:
REMARK  status: ('A' for Active; 'I' for Inactive)
REMARK    1  A    between atoms: C2_2  and  S1_3 
REMARK    2  A    between atoms: S1_3  and  N1_6 
REMARK    3  A    between atoms: N1_6  and  C3_8 
REMARK    4  A    between atoms: C3_8  and  C4_9 
REMARK    5  A    between atoms: C3_8  and  C19_40 
REMARK       I    between atoms: C4_9  and  N2_11 
REMARK    6  A    between atoms: N2_11  and  C5_13 
REMARK    7  A    between atoms: C6_18  and  C7_19 
REMARK    8  A    between atoms: C7_19  and  C8_20 
REMARK    9  A    between atoms: C8_20  and  C9_21 
REMARK   10  A    between atoms: C9_21  and  C10_22 
REMARK   11  A    between atoms: C10_22  and  C11_23 
REMARK       I    between atoms: N7_29  and  C13_31 
REMARK   12  A    between atoms: C13_31  and  C14_33 
REMARK   13  A    between atoms: C14_33  and  C15_34 
ROOT
HETATM    1  C5  UNL     1     -10.383  20.261 -19.329  1.00  0.00     0.167 A 
HETATM    2  N3  UNL     1     -11.572  19.943 -19.842  1.00  0.00    -0.279 N 
ATOM      3  H3  UNL     1     -11.689  19.098 -20.400  1.00  0.00     0.189 HD
HETATM    4  N4  UNL     1     -12.556  20.717 -19.619  1.00  0.00    -0.296 N 
ATOM      5  H4  UNL     1     -13.474  20.492 -20.002  1.00  0.00     0.187 HD
HETATM    6  C6  UNL     1     -12.393  21.815 -18.892  1.00  0.00     0.069 A 
HETATM    7  S3  UNL     1     -10.728  21.719 -18.513  1.00  0.00    -0.038 SA
ENDROOT
BRANCH   6   8
HETATM    8  C7  UNL     1     -13.433  22.847 -18.526  1.00  0.00     0.066 C 
BRANCH   8   9
HETATM    9  C8  UNL     1     -14.609  22.128 -17.905  1.00  0.00     0.007 C 
BRANCH   9  10
HETATM   10  C9  UNL     1     -14.560  22.111 -16.406  1.00  0.00     0.007 C 
BRANCH  10  11
HETATM   11  C10 UNL     1     -14.665  20.697 -15.889  1.00  0.00     0.066 C 
BRANCH  11  12
HETATM   12  C11 UNL     1     -13.307  20.045 -15.912  1.00  0.00     0.069 A 
HETATM   13  N5  UNL     1     -12.890  19.002 -16.610  1.00  0.00    -0.296 N 
HETATM   14  N6  UNL     1     -11.697  18.588 -16.501  1.00  0.00    -0.279 N 
ATOM     15  H5  UNL     1     -13.533  18.528 -17.243  1.00  0.00     0.187 HD
HETATM   16  C12 UNL     1     -10.867  19.221 -15.667  1.00  0.00     0.167 A 
ATOM     17  H6  UNL     1     -11.376  17.784 -17.040  1.00  0.00     0.189 HD
HETATM   18  N7  UNL     1      -9.608  18.966 -15.400  1.00  0.00    -0.306 N 
HETATM   19  S2  UNL     1     -11.887  20.453 -15.041  1.00  0.00    -0.038 SA
HETATM   20  C13 UNL     1      -9.022  17.867 -16.082  1.00  0.00     0.224 C 
ATOM     21  H7  UNL     1      -9.076  19.530 -14.737  1.00  0.00     0.171 HD
HETATM   22  O4  UNL     1      -8.506  18.101 -17.204  1.00  0.00    -0.273 OA
BRANCH  20  23
HETATM   23  C14 UNL     1      -9.061  16.549 -15.432  1.00  0.00     0.111 C 
BRANCH  23  24
HETATM   24  C15 UNL     1      -7.709  15.990 -15.123  1.00  0.00    -0.043 C 
HETATM   25  C16 UNL     1      -7.251  15.091 -16.234  1.00  0.00     0.015 C 
HETATM   26  C17 UNL     1      -7.869  15.114 -13.872  1.00  0.00     0.015 C 
HETATM   27  C18 UNL     1      -6.708  17.067 -14.792  1.00  0.00     0.015 C 
ENDBRANCH  23  24
ENDBRANCH  20  23
ENDBRANCH  11  12
ENDBRANCH  10  11
ENDBRANCH   9  10
ENDBRANCH   8   9
ENDBRANCH   6   8
BRANCH   1  28
HETATM   28  N2  UNL     1      -9.278  19.568 -19.470  1.00  0.00    -0.304 N 
HETATM   29  C4  UNL     1      -9.049  18.780 -20.588  1.00  0.00     0.247 C 
HETATM   30  O3  UNL     1      -9.948  18.447 -21.371  1.00  0.00    -0.271 OA
ATOM     31  H2  UNL     1      -8.569  19.610 -18.738  1.00  0.00     0.171 HD
BRANCH  29  32
HETATM   32  C3  UNL     1      -7.642  18.296 -20.883  1.00  0.00     0.188 C 
BRANCH  32  33
HETATM   33  N1  UNL     1      -6.816  18.577 -19.758  1.00  0.00    -0.305 N 
ATOM     34  H1  UNL     1      -7.193  18.592 -18.810  1.00  0.00     0.173 HD
BRANCH  33  35
HETATM   35  S1  UNL     1      -5.182  18.885 -20.064  1.00  0.00     0.227 S 
HETATM   36  O1  UNL     1      -4.870  20.262 -19.485  1.00  0.00    -0.206 OA
HETATM   37  O2  UNL     1      -4.874  19.017 -21.536  1.00  0.00    -0.206 OA
BRANCH  35  38
HETATM   38  C2  UNL     1      -4.034  17.762 -19.374  1.00  0.00     0.158 C 
HETATM   39  C1  UNL     1      -4.598  16.792 -18.389  1.00  0.00     0.023 C 
ENDBRANCH  35  38
ENDBRANCH  33  35
ENDBRANCH  32  33
BRANCH  32  40
HETATM   40  C19 UNL     1      -7.782  16.833 -21.210  1.00  0.00     0.010 C 
HETATM   41  C20 UNL     1      -7.655  16.006 -19.938  1.00  0.00     0.012 C 
HETATM   42  C21 UNL     1      -6.940  16.338 -22.328  1.00  0.00     0.012 C 
ENDBRANCH  32  40
ENDBRANCH  29  32
ENDBRANCH   1  28
TORSDOF 13
ENDMDL
MODEL 4
REMARK VINA RESULT: -7.657289092      3.319      9.101
REMARK  13 active torsions:
REMARK  status: ('A' for Active; 'I' for Inactive)
REMARK    1  A    between atoms: C2_2  and  S1_3 
REMARK    2  A    between atoms: S1_3  and  N1_6 
REMARK    3  A    between atoms: N1_6  and  C3_8 
REMARK    4  A    between atoms: C3_8  and  C4_9 
REMARK    5  A    between atoms: C3_8  and  C19_40 
REMARK       I    between atoms: C4_9  and  N2_11 
REMARK    6  A    between atoms: N2_11  and  C5_13 
REMARK    7  A    between atoms: C6_18  and  C7_19 
REMARK    8  A    between atoms: C7_19  and  C8_20 
REMARK    9  A    between atoms: C8_20  and  C9_21 
REMARK   10  A    between atoms: C9_21  and  C10_22 
REMARK   11  A    between atoms: C10_22  and  C11_23 
REMARK       I    between atoms: N7_29  and  C13_31 
REMARK   12  A    between atoms: C13_31  and  C14_33 
REMARK   13  A    between atoms: C14_33  and  C15_34 
ROOT
HETATM    1  C5  UNL     1     -10.256  17.982 -17.108  1.00  0.00     0.167 A 
HETATM    2  N3  UNL     1     -11.582  18.021 -17.232  1.00  0.00    -0.279 N 
ATOM      3  H3  UNL     1     -12.064  17.391 -17.873  1.00  0.00     0.189 HD
HETATM    4  N4  UNL     1     -12.233  18.859 -16.533  1.00  0.00    -0.296 N 
ATOM      5  H4  UNL     1     -13.249  18.906 -16.612  1.00  0.00     0.187 HD
HETATM    6  C6  UNL     1     -11.597  19.675 -15.702  1.00  0.00     0.069 A 
HETATM    7  S3  UNL     1      -9.973  19.200 -15.947  1.00  0.00    -0.038 SA
ENDROOT
BRANCH   6   8
HETATM    8  C7  UNL     1     -12.193  20.730 -14.800  1.00  0.00     0.066 C 
BRANCH   8   9
HETATM    9  C8  UNL     1     -12.551  20.075 -13.484  1.00  0.00     0.007 C 
BRANCH   9  10
HETATM   10  C9  UNL     1     -13.323  20.978 -12.571  1.00  0.00     0.007 C 
BRANCH  10  11
HETATM   11  C10 UNL     1     -14.808  20.783 -12.765  1.00  0.00     0.066 C 
BRANCH  11  12
HETATM   12  C11 UNL     1     -15.267  21.543 -13.982  1.00  0.00     0.069 A 
HETATM   13  N5  UNL     1     -15.826  21.090 -15.091  1.00  0.00    -0.296 N 
HETATM   14  N6  UNL     1     -16.150  21.886 -16.022  1.00  0.00    -0.279 N 
ATOM     15  H5  UNL     1     -15.998  20.091 -15.198  1.00  0.00     0.187 HD
HETATM   16  C12 UNL     1     -15.917  23.192 -15.867  1.00  0.00     0.167 A 
ATOM     17  H6  UNL     1     -16.582  21.536 -16.877  1.00  0.00     0.189 HD
HETATM   18  N7  UNL     1     -16.167  24.182 -16.690  1.00  0.00    -0.306 N 
HETATM   19  S2  UNL     1     -15.203  23.226 -14.304  1.00  0.00    -0.038 SA
HETATM   20  C13 UNL     1     -16.771  23.843 -17.929  1.00  0.00     0.224 C 
ATOM     21  H7  UNL     1     -15.939  25.148 -16.452  1.00  0.00     0.171 HD
HETATM   22  O4  UNL     1     -18.028  23.796 -17.956  1.00  0.00    -0.273 OA
BRANCH  20  23
HETATM   23  C14 UNL     1     -15.894  23.574 -19.077  1.00  0.00     0.111 C 
BRANCH  23  24
HETATM   24  C15 UNL     1     -15.601  24.784 -19.907  1.00  0.00    -0.043 C 
HETATM   25  C16 UNL     1     -16.851  25.267 -20.582  1.00  0.00     0.015 C 
HETATM   26  C17 UNL     1     -14.636  24.336 -21.013  1.00  0.00     0.015 C 
HETATM   27  C18 UNL     1     -14.909  25.864 -19.116  1.00  0.00     0.015 C 
ENDBRANCH  23  24
ENDBRANCH  20  23
ENDBRANCH  11  12
ENDBRANCH  10  11
ENDBRANCH   9  10
ENDBRANCH   8   9
ENDBRANCH   6   8
BRANCH   1  28
HETATM   28  N2  UNL     1      -9.449  17.177 -17.757  1.00  0.00    -0.304 N 
HETATM   29  C4  UNL     1      -8.429  17.662 -18.563  1.00  0.00     0.247 C 
HETATM   30  O3  UNL     1      -8.380  18.835 -18.953  1.00  0.00    -0.271 OA
ATOM     31  H2  UNL     1      -9.575  16.168 -17.668  1.00  0.00     0.171 HD
BRANCH  29  32
HETATM   32  C3  UNL     1      -7.314  16.729 -18.995  1.00  0.00     0.188 C 
BRANCH  32  33
HETATM   33  N1  UNL     1      -7.468  15.485 -18.319  1.00  0.00    -0.305 N 
ATOM     34  H1  UNL     1      -7.977  14.709 -18.742  1.00  0.00     0.173 HD
BRANCH  33  35
HETATM   35  S1  UNL     1      -6.772  15.354 -16.784  1.00  0.00     0.227 S 
HETATM   36  O1  UNL     1      -7.636  14.386 -15.981  1.00  0.00    -0.206 OA
HETATM   37  O2  UNL     1      -6.827  16.644 -16.002  1.00  0.00    -0.206 OA
BRANCH  35  38
HETATM   38  C2  UNL     1      -5.131  14.757 -16.720  1.00  0.00     0.158 C 
HETATM   39  C1  UNL     1      -4.147  15.493 -17.569  1.00  0.00     0.023 C 
ENDBRANCH  35  38
ENDBRANCH  33  35
ENDBRANCH  32  33
BRANCH  32  40
HETATM   40  C19 UNL     1      -7.419  16.646 -20.495  1.00  0.00     0.010 C 
HETATM   41  C20 UNL     1      -7.606  15.195 -20.919  1.00  0.00     0.012 C 
HETATM   42  C21 UNL     1      -6.361  17.356 -21.257  1.00  0.00     0.012 C 
ENDBRANCH  32  40
ENDBRANCH  29  32
ENDBRANCH   1  28
TORSDOF 13
ENDMDL
MODEL 5
REMARK VINA RESULT: -7.599726601      3.336      6.482
REMARK  13 active torsions:
REMARK  status: ('A' for Active; 'I' for Inactive)
REMARK    1  A    between atoms: C2_2  and  S1_3 
REMARK    2  A    between atoms: S1_3  and  N1_6 
REMARK    3  A    between atoms: N1_6  and  C3_8 
REMARK    4  A    between atoms: C3_8  and  C4_9 
REMARK    5  A    between atoms: C3_8  and  C19_40 
REMARK       I    between atoms: C4_9  and  N2_11 
REMARK    6  A    between atoms: N2_11  and  C5_13 
REMARK    7  A    between atoms: C6_18  and  C7_19 
REMARK    8  A    between atoms: C7_19  and  C8_20 
REMARK    9  A    between atoms: C8_20  and  C9_21 
REMARK   10  A    between atoms: C9_21  and  C10_22 
REMARK   11  A    between atoms: C10_22  and  C11_23 
REMARK       I    between atoms: N7_29  and  C13_31 
REMARK   12  A    between atoms: C13_31  and  C14_33 
REMARK   13  A    between atoms: C14_33  and  C15_34 
ROOT
HETATM    1  C5  UNL     1     -14.463  20.803 -17.658  1.00  0.00     0.167 A 
HETATM    2  N3  UNL     1     -14.594  19.687 -18.376  1.00  0.00    -0.279 N 
ATOM      3  H3  UNL     1     -15.455  19.496 -18.888  1.00  0.00     0.189 HD
HETATM    4  N4  UNL     1     -13.622  18.869 -18.410  1.00  0.00    -0.296 N 
ATOM      5  H4  UNL     1     -13.701  18.010 -18.954  1.00  0.00     0.187 HD
HETATM    6  C6  UNL     1     -12.507  19.127 -17.739  1.00  0.00     0.069 A 
HETATM    7  S3  UNL     1     -12.887  20.634 -17.026  1.00  0.00    -0.038 SA
ENDROOT
BRANCH   6   8
HETATM    8  C7  UNL     1     -11.258  18.281 -17.657  1.00  0.00     0.066 C 
BRANCH   8   9
HETATM    9  C8  UNL     1     -11.039  17.908 -16.207  1.00  0.00     0.007 C 
BRANCH   9  10
HETATM   10  C9  UNL     1     -10.009  18.762 -15.532  1.00  0.00     0.007 C 
BRANCH  10  11
HETATM   11  C10 UNL     1      -8.913  17.905 -14.945  1.00  0.00     0.066 C 
BRANCH  11  12
HETATM   12  C11 UNL     1      -8.033  17.378 -16.048  1.00  0.00     0.069 A 
HETATM   13  N5  UNL     1      -7.690  17.950 -17.191  1.00  0.00    -0.296 N 
HETATM   14  N6  UNL     1      -6.931  17.350 -18.009  1.00  0.00    -0.279 N 
ATOM     15  H5  UNL     1      -8.040  18.880 -17.415  1.00  0.00     0.187 HD
HETATM   16  C12 UNL     1      -6.482  16.131 -17.701  1.00  0.00     0.167 A 
ATOM     17  H6  UNL     1      -6.667  17.792 -18.890  1.00  0.00     0.189 HD
HETATM   18  N7  UNL     1      -5.696  15.338 -18.390  1.00  0.00    -0.306 N 
HETATM   19  S2  UNL     1      -7.207  15.880 -16.163  1.00  0.00    -0.038 SA
HETATM   20  C13 UNL     1      -5.247  15.822 -19.646  1.00  0.00     0.224 C 
ATOM     21  H7  UNL     1      -5.422  14.419 -18.042  1.00  0.00     0.171 HD
HETATM   22  O4  UNL     1      -4.191  16.505 -19.649  1.00  0.00    -0.273 OA
BRANCH  20  23
HETATM   23  C14 UNL     1      -6.040  15.495 -20.840  1.00  0.00     0.111 C 
BRANCH  23  24
HETATM   24  C15 UNL     1      -5.911  16.498 -21.942  1.00  0.00    -0.043 C 
HETATM   25  C16 UNL     1      -6.275  17.866 -21.445  1.00  0.00     0.015 C 
HETATM   26  C17 UNL     1      -6.947  16.116 -23.009  1.00  0.00     0.015 C 
HETATM   27  C18 UNL     1      -4.555  16.455 -22.597  1.00  0.00     0.015 C 
ENDBRANCH  23  24
ENDBRANCH  20  23
ENDBRANCH  11  12
ENDBRANCH  10  11
ENDBRANCH   9  10
ENDBRANCH   8   9
ENDBRANCH   6   8
BRANCH   1  28
HETATM   28  N2  UNL     1     -15.372  21.740 -17.525  1.00  0.00    -0.304 N 
HETATM   29  C4  UNL     1     -15.083  23.075 -17.770  1.00  0.00     0.247 C 
HETATM   30  O3  UNL     1     -13.926  23.510 -17.844  1.00  0.00    -0.271 OA
ATOM     31  H2  UNL     1     -16.314  21.480 -17.234  1.00  0.00     0.171 HD
BRANCH  29  32
HETATM   32  C3  UNL     1     -16.220  24.060 -17.959  1.00  0.00     0.188 C 
BRANCH  32  33
HETATM   33  N1  UNL     1     -16.410  24.779 -16.744  1.00  0.00    -0.305 N 
ATOM     34  H1  UNL     1     -16.044  25.723 -16.621  1.00  0.00     0.173 HD
BRANCH  33  35
HETATM   35  S1  UNL     1     -17.270  23.997 -15.517  1.00  0.00     0.227 S 
HETATM   36  O1  UNL     1     -18.144  22.939 -16.186  1.00  0.00    -0.206 OA
HETATM   37  O2  UNL     1     -18.250  24.906 -14.815  1.00  0.00    -0.206 OA
BRANCH  35  38
HETATM   38  C2  UNL     1     -16.321  23.185 -14.294  1.00  0.00     0.158 C 
HETATM   39  C1  UNL     1     -16.458  21.698 -14.260  1.00  0.00     0.023 C 
ENDBRANCH  35  38
ENDBRANCH  33  35
ENDBRANCH  32  33
BRANCH  32  40
HETATM   40  C19 UNL     1     -15.822  24.910 -19.136  1.00  0.00     0.010 C 
HETATM   41  C20 UNL     1     -15.996  26.383 -18.790  1.00  0.00     0.012 C 
HETATM   42  C21 UNL     1     -16.422  24.530 -20.440  1.00  0.00     0.012 C 
ENDBRANCH  32  40
ENDBRANCH  29  32
ENDBRANCH   1  28
TORSDOF 13
ENDMDL
