MODEL 1
REMARK VINA RESULT: -9.104988818      0.000      0.000
REMARK  13 active torsions:
REMARK  status: ('A' for Active; 'I' for Inactive)
REMARK    1  A    between atoms: C2_2  and  C3_4 
REMARK    2  A    between atoms: C3_4  and  C4_5 
REMARK    3  A    between atoms: C3_4  and  N6_39 
REMARK    4  A    between atoms: C4_5  and  C5_6 
REMARK    5  A    between atoms: C5_6  and  C6_7 
REMARK       I    between atoms: C6_7  and  N1_9 
REMARK       I    between atoms: N1_9  and  C7_11 
REMARK    6  A    between atoms: C7_11  and  C8_13 
REMARK    7  A    between atoms: C12_19  and  N3_20 
REMARK    8  A    between atoms: N3_20  and  C13_22 
REMARK    9  A    between atoms: C13_22  and  C14_23 
REMARK   10  A    between atoms: N5_30  and  C19_31 
REMARK   11  A    between atoms: N6_39  and  C26_42 
REMARK   12  A    between atoms: C26_42  and  C27_43 
REMARK   13  A    between atoms: C27_43  and  N7_44 
ROOT
HETATM    1  C8  UNL     1     -10.835  20.077 -15.957  1.00  0.00     0.101 A 
HETATM    2  C9  UNL     1     -10.518  20.642 -17.208  1.00  0.00     0.039 A 
HETATM    3  C10 UNL     1      -9.531  20.096 -17.980  1.00  0.00     0.026 A 
HETATM    4  C11 UNL     1      -9.182  20.634 -19.216  1.00  0.00     0.121 A 
HETATM    5  N2  UNL     1      -8.199  20.060 -19.919  1.00  0.00    -0.201 N 
ATOM      6  H2  UNL     1      -7.942  20.455 -20.824  1.00  0.00     0.183 HD
HETATM    7  C12 UNL     1      -7.535  18.971 -19.464  1.00  0.00     0.679 A 
HETATM    8  N4  UNL     1      -7.859  18.444 -18.281  1.00  0.00    -0.176 N 
ATOM      9  H4  UNL     1      -7.359  17.624 -17.938  1.00  0.00     0.186 HD
HETATM   10  C18 UNL     1      -8.831  18.983 -17.548  1.00  0.00     0.138 A 
HETATM   11  N5  UNL     1      -9.113  18.420 -16.357  1.00  0.00    -0.293 N 
HETATM   12  C25 UNL     1     -10.116  18.989 -15.590  1.00  0.00     0.265 A 
HETATM   13  O4  UNL     1     -10.389  18.463 -14.466  1.00  0.00    -0.267 OA
ENDROOT
BRANCH   1  14
HETATM   14  C7  UNL     1     -11.860  20.767 -15.185  1.00  0.00     0.264 C 
HETATM   15  N1  UNL     1     -12.257  20.379 -13.911  1.00  0.00    -0.290 N 
HETATM   16  C6  UNL     1     -13.230  20.938 -13.054  1.00  0.00     0.244 C 
ATOM     17  H1  UNL     1     -11.771  19.565 -13.537  1.00  0.00     0.172 HD
HETATM   18  O2  UNL     1     -13.368  20.359 -11.932  1.00  0.00    -0.269 OA
HETATM   19  O3  UNL     1     -12.407  21.790 -15.723  1.00  0.00    -0.267 OA
BRANCH  16  20
HETATM   20  C5  UNL     1     -14.039  22.083 -13.386  1.00  0.00     0.050 C 
BRANCH  20  21
HETATM   21  C4  UNL     1     -15.453  21.955 -13.761  1.00  0.00     0.073 C 
BRANCH  21  22
HETATM   22  C3  UNL     1     -16.108  22.935 -14.658  1.00  0.00     0.258 C 
BRANCH  22  23
HETATM   23  C2  UNL     1     -16.808  24.090 -14.130  1.00  0.00     0.153 C 
HETATM   24  C1  UNL     1     -16.167  24.953 -13.057  1.00  0.00     0.093 C 
HETATM   25  O1  UNL     1     -17.913  24.431 -14.489  1.00  0.00    -0.296 OA
ENDBRANCH  22  23
BRANCH  22  26
HETATM   26  N6  UNL     1     -15.101  23.440 -15.634  1.00  0.00    -0.062 N 
ATOM     27  H62 UNL     1     -14.958  24.445 -15.528  1.00  0.00     0.278 HD
ATOM     28  H61 UNL     1     -14.163  23.117 -15.396  1.00  0.00     0.278 HD
BRANCH  26  29
HETATM   29  C26 UNL     1     -15.434  23.107 -16.976  1.00  0.00     0.263 C 
BRANCH  29  30
HETATM   30  C27 UNL     1     -14.401  23.588 -17.957  1.00  0.00     0.298 C 
BRANCH  30  31
HETATM   31  N7  UNL     1     -14.127  22.580 -18.979  1.00  0.00     0.081 N 
HETATM   32  C28 UNL     1     -14.501  21.269 -18.509  1.00  0.00     0.309 C 
HETATM   33  C29 UNL     1     -12.730  22.686 -19.350  1.00  0.00     0.309 C 
ENDBRANCH  30  31
ENDBRANCH  29  30
ENDBRANCH  26  29
ENDBRANCH  22  26
ENDBRANCH  21  22
ENDBRANCH  20  21
ENDBRANCH  16  20
ENDBRANCH   1  14
BRANCH  11  34
HETATM   34  C19 UNL     1      -8.504  17.276 -15.800  1.00  0.00     0.095 C 
HETATM   35  C20 UNL     1      -8.512  16.195 -16.893  1.00  0.00     0.026 C 
HETATM   36  C21 UNL     1      -7.315  15.276 -16.727  1.00  0.00     0.002 C 
HETATM   37  C22 UNL     1      -7.353  14.840 -15.262  1.00  0.00     0.000 C 
HETATM   38  C23 UNL     1      -6.779  16.010 -14.515  1.00  0.00     0.002 C 
HETATM   39  C24 UNL     1      -7.211  17.345 -15.115  1.00  0.00     0.026 C 
ENDBRANCH  11  34
BRANCH   7  40
HETATM   40  N3  UNL     1      -6.597  18.489 -20.219  1.00  0.00    -0.225 N 
ATOM     41  H3  UNL     1      -5.633  18.564 -19.893  1.00  0.00     0.177 HD
BRANCH  40  42
HETATM   42  C13 UNL     1      -6.834  17.853 -21.492  1.00  0.00     0.146 C 
BRANCH  42  43
HETATM   43  C14 UNL     1      -6.240  16.463 -21.462  1.00  0.00    -0.035 C 
HETATM   44  C15 UNL     1      -7.291  15.511 -20.884  1.00  0.00     0.016 C 
HETATM   45  C16 UNL     1      -5.983  15.987 -22.873  1.00  0.00     0.016 C 
HETATM   46  C17 UNL     1      -4.967  16.445 -20.632  1.00  0.00     0.016 C 
ENDBRANCH  42  43
ENDBRANCH  40  42
ENDBRANCH   7  40
TORSDOF 13
ENDMDL
MODEL 2
REMARK VINA RESULT: -9.071624003      2.417      4.006
REMARK  13 active torsions:
REMARK  status: ('A' for Active; 'I' for Inactive)
REMARK    1  A    between atoms: C2_2  and  C3_4 
REMARK    2  A    between atoms: C3_4  and  C4_5 
REMARK    3  A    between atoms: C3_4  and  N6_39 
REMARK    4  A    between atoms: C4_5  and  C5_6 
REMARK    5  A    between atoms: C5_6  and  C6_7 
REMARK       I    between atoms: C6_7  and  N1_9 
REMARK       I    between atoms: N1_9  and  C7_11 
REMARK    6  A    between atoms: C7_11  and  C8_13 
REMARK    7  A    between atoms: C12_19  and  N3_20 
REMARK    8  A    between atoms: N3_20  and  C13_22 
REMARK    9  A    between atoms: C13_22  and  C14_23 
REMARK   10  A    between atoms: N5_30  and  C19_31 
REMARK   11  A    between atoms: N6_39  and  C26_42 
REMARK   12  A    between atoms: C26_42  and  C27_43 
REMARK   13  A    between atoms: C27_43  and  N7_44 
ROOT
HETATM    1  C8  UNL     1      -9.926  20.123 -18.871  1.00  0.00     0.101 A 
HETATM    2  C9  UNL     1      -8.864  20.212 -19.792  1.00  0.00     0.039 A 
HETATM    3  C10 UNL     1      -7.760  19.418 -19.649  1.00  0.00     0.026 A 
HETATM    4  C11 UNL     1      -6.687  19.486 -20.533  1.00  0.00     0.121 A 
HETATM    5  N2  UNL     1      -5.630  18.691 -20.332  1.00  0.00    -0.201 N 
ATOM      6  H2  UNL     1      -4.843  18.741 -20.979  1.00  0.00     0.183 HD
HETATM    7  C12 UNL     1      -5.574  17.821 -19.296  1.00  0.00     0.679 A 
HETATM    8  N4  UNL     1      -6.597  17.744 -18.440  1.00  0.00    -0.176 N 
ATOM      9  H4  UNL     1      -6.556  17.090 -17.659  1.00  0.00     0.186 HD
HETATM   10  C18 UNL     1      -7.668  18.518 -18.602  1.00  0.00     0.138 A 
HETATM   11  N5  UNL     1      -8.669  18.410 -17.706  1.00  0.00    -0.293 N 
HETATM   12  C25 UNL     1      -9.778  19.224 -17.869  1.00  0.00     0.265 A 
HETATM   13  O4  UNL     1     -10.727  19.127 -17.028  1.00  0.00    -0.267 OA
ENDROOT
BRANCH   1  14
HETATM   14  C7  UNL     1     -11.029  21.053 -19.075  1.00  0.00     0.264 C 
HETATM   15  N1  UNL     1     -12.367  20.704 -18.935  1.00  0.00    -0.290 N 
HETATM   16  C6  UNL     1     -13.531  21.484 -19.107  1.00  0.00     0.244 C 
ATOM     17  H1  UNL     1     -12.534  19.734 -18.667  1.00  0.00     0.172 HD
HETATM   18  O2  UNL     1     -14.629  20.880 -18.901  1.00  0.00    -0.269 OA
HETATM   19  O3  UNL     1     -10.729  22.254 -19.393  1.00  0.00    -0.267 OA
BRANCH  16  20
HETATM   20  C5  UNL     1     -13.525  22.872 -19.494  1.00  0.00     0.050 C 
BRANCH  20  21
HETATM   21  C4  UNL     1     -14.733  23.551 -19.978  1.00  0.00     0.073 C 
BRANCH  21  22
HETATM   22  C3  UNL     1     -15.665  24.230 -19.049  1.00  0.00     0.258 C 
BRANCH  22  23
HETATM   23  C2  UNL     1     -16.692  25.132 -19.535  1.00  0.00     0.153 C 
HETATM   24  C1  UNL     1     -16.803  26.540 -18.980  1.00  0.00     0.093 C 
HETATM   25  O1  UNL     1     -17.504  24.834 -20.382  1.00  0.00    -0.296 OA
ENDBRANCH  22  23
BRANCH  22  26
HETATM   26  N6  UNL     1     -16.345  23.200 -18.213  1.00  0.00    -0.062 N 
ATOM     27  H62 UNL     1     -17.285  23.008 -18.559  1.00  0.00     0.278 HD
ATOM     28  H61 UNL     1     -15.928  22.279 -18.352  1.00  0.00     0.278 HD
BRANCH  26  29
HETATM   29  C26 UNL     1     -16.366  23.550 -16.834  1.00  0.00     0.263 C 
BRANCH  29  30
HETATM   30  C27 UNL     1     -15.184  22.999 -16.086  1.00  0.00     0.298 C 
BRANCH  30  31
HETATM   31  N7  UNL     1     -15.430  21.633 -15.632  1.00  0.00     0.081 N 
HETATM   32  C28 UNL     1     -16.306  21.631 -14.486  1.00  0.00     0.309 C 
HETATM   33  C29 UNL     1     -14.148  21.004 -15.383  1.00  0.00     0.309 C 
ENDBRANCH  30  31
ENDBRANCH  29  30
ENDBRANCH  26  29
ENDBRANCH  22  26
ENDBRANCH  21  22
ENDBRANCH  20  21
ENDBRANCH  16  20
ENDBRANCH   1  14
BRANCH  11  34
HETATM   34  C19 UNL     1      -8.727  17.525 -16.609  1.00  0.00     0.095 C 
HETATM   35  C20 UNL     1      -8.446  16.118 -17.161  1.00  0.00     0.026 C 
HETATM   36  C21 UNL     1      -7.764  15.268 -16.103  1.00  0.00     0.002 C 
HETATM   37  C22 UNL     1      -8.642  15.409 -14.860  1.00  0.00     0.000 C 
HETATM   38  C23 UNL     1      -8.257  16.743 -14.286  1.00  0.00     0.002 C 
HETATM   39  C24 UNL     1      -7.985  17.780 -15.372  1.00  0.00     0.026 C 
ENDBRANCH  11  34
BRANCH   7  40
HETATM   40  N3  UNL     1      -4.506  17.094 -19.186  1.00  0.00    -0.225 N 
ATOM     41  H3  UNL     1      -3.676  17.379 -19.707  1.00  0.00     0.177 HD
BRANCH  40  42
HETATM   42  C13 UNL     1      -4.420  15.906 -18.372  1.00  0.00     0.146 C 
BRANCH  42  43
HETATM   43  C14 UNL     1      -3.479  16.171 -17.219  1.00  0.00    -0.035 C 
HETATM   44  C15 UNL     1      -4.318  16.326 -15.947  1.00  0.00     0.016 C 
HETATM   45  C16 UNL     1      -2.600  14.963 -16.990  1.00  0.00     0.016 C 
HETATM   46  C17 UNL     1      -2.648  17.415 -17.485  1.00  0.00     0.016 C 
ENDBRANCH  42  43
ENDBRANCH  40  42
ENDBRANCH   7  40
TORSDOF 13
ENDMDL
MODEL 3
REMARK VINA RESULT: -9.006970819      1.149      1.510
REMARK  13 active torsions:
REMARK  status: ('A' for Active; 'I' for Inactive)
REMARK    1  A    between atoms: C2_2  and  C3_4 
REMARK    2  A    between atoms: C3_4  and  C4_5 
REMARK    3  A    between atoms: C3_4  and  N6_39 
REMARK    4  A    between atoms: C4_5  and  C5_6 
REMARK    5  A    between atoms: C5_6  and  C6_7 
REMARK       I    between atoms: C6_7  and  N1_9 
REMARK       I    between atoms: N1_9  and  C7_11 
REMARK    6  A    between atoms: C7_11  and  C8_13 
REMARK    7  A    between atoms: C12_19  and  N3_20 
REMARK    8  A    between atoms: N3_20  and  C13_22 
REMARK    9  A    between atoms: C13_22  and  C14_23 
REMARK   10  A    between atoms: N5_30  and  C19_31 
REMARK   11  A    between atoms: N6_39  and  C26_42 
REMARK   12  A    between atoms: C26_42  and  C27_43 
REMARK   13  A    between atoms: C27_43  and  N7_44 
ROOT
HETATM    1  C8  UNL     1     -11.539  19.950 -16.261  1.00  0.00     0.101 A 
HETATM    2  C9  UNL     1     -11.662  20.175 -17.646  1.00  0.00     0.039 A 
HETATM    3  C10 UNL     1     -10.860  19.505 -18.527  1.00  0.00     0.026 A 
HETATM    4  C11 UNL     1     -10.944  19.710 -19.901  1.00  0.00     0.121 A 
HETATM    5  N2  UNL     1     -10.122  19.032 -20.710  1.00  0.00    -0.201 N 
ATOM      6  H2  UNL     1     -10.184  19.183 -21.717  1.00  0.00     0.183 HD
HETATM    7  C12 UNL     1      -9.212  18.151 -20.232  1.00  0.00     0.679 A 
HETATM    8  N4  UNL     1      -9.120  17.944 -18.916  1.00  0.00    -0.176 N 
ATOM      9  H4  UNL     1      -8.435  17.281 -18.554  1.00  0.00     0.186 HD
HETATM   10  C18 UNL     1      -9.918  18.597 -18.074  1.00  0.00     0.138 A 
HETATM   11  N5  UNL     1      -9.778  18.360 -16.755  1.00  0.00    -0.293 N 
HETATM   12  C25 UNL     1     -10.601  19.050 -15.880  1.00  0.00     0.265 A 
HETATM   13  O4  UNL     1     -10.477  18.831 -14.634  1.00  0.00    -0.267 OA
ENDROOT
BRANCH   1  14
HETATM   14  C7  UNL     1     -12.398  20.756 -15.404  1.00  0.00     0.264 C 
HETATM   15  N1  UNL     1     -12.555  20.532 -14.041  1.00  0.00    -0.290 N 
HETATM   16  C6  UNL     1     -13.349  21.216 -13.094  1.00  0.00     0.244 C 
ATOM     17  H1  UNL     1     -12.014  19.753 -13.666  1.00  0.00     0.172 HD
HETATM   18  O2  UNL     1     -13.280  20.777 -11.905  1.00  0.00    -0.269 OA
HETATM   19  O3  UNL     1     -13.028  21.724 -15.952  1.00  0.00    -0.267 OA
BRANCH  16  20
HETATM   20  C5  UNL     1     -14.197  22.337 -13.409  1.00  0.00     0.050 C 
BRANCH  20  21
HETATM   21  C4  UNL     1     -15.619  22.172 -13.733  1.00  0.00     0.073 C 
BRANCH  21  22
HETATM   22  C3  UNL     1     -16.356  23.183 -14.525  1.00  0.00     0.258 C 
BRANCH  22  23
HETATM   23  C2  UNL     1     -16.957  24.343 -13.894  1.00  0.00     0.153 C 
HETATM   24  C1  UNL     1     -16.135  25.233 -12.979  1.00  0.00     0.093 C 
HETATM   25  O1  UNL     1     -18.115  24.667 -14.043  1.00  0.00    -0.296 OA
ENDBRANCH  22  23
BRANCH  22  26
HETATM   26  N6  UNL     1     -15.466  23.685 -15.610  1.00  0.00    -0.062 N 
ATOM     27  H62 UNL     1     -15.033  24.572 -15.349  1.00  0.00     0.278 HD
ATOM     28  H61 UNL     1     -14.626  23.112 -15.692  1.00  0.00     0.278 HD
BRANCH  26  29
HETATM   29  C26 UNL     1     -16.140  23.790 -16.858  1.00  0.00     0.263 C 
BRANCH  29  30
HETATM   30  C27 UNL     1     -15.451  23.015 -17.947  1.00  0.00     0.298 C 
BRANCH  30  31
HETATM   31  N7  UNL     1     -14.306  23.749 -18.480  1.00  0.00     0.081 N 
HETATM   32  C28 UNL     1     -14.719  25.036 -18.982  1.00  0.00     0.309 C 
HETATM   33  C29 UNL     1     -13.665  22.916 -19.478  1.00  0.00     0.309 C 
ENDBRANCH  30  31
ENDBRANCH  29  30
ENDBRANCH  26  29
ENDBRANCH  22  26
ENDBRANCH  21  22
ENDBRANCH  20  21
ENDBRANCH  16  20
ENDBRANCH   1  14
BRANCH  11  34
HETATM   34  C19 UNL     1      -8.885  17.451 -16.152  1.00  0.00     0.095 C 
HETATM   35  C20 UNL     1      -7.765  18.289 -15.513  1.00  0.00     0.026 C 
HETATM   36  C21 UNL     1      -7.219  17.581 -14.285  1.00  0.00     0.002 C 
HETATM   37  C22 UNL     1      -6.897  16.164 -14.759  1.00  0.00     0.000 C 
HETATM   38  C23 UNL     1      -8.229  15.471 -14.781  1.00  0.00     0.002 C 
HETATM   39  C24 UNL     1      -9.351  16.393 -15.253  1.00  0.00     0.026 C 
ENDBRANCH  11  34
BRANCH   7  40
HETATM   40  N3  UNL     1      -8.460  17.544 -21.097  1.00  0.00    -0.225 N 
ATOM     41  H3  UNL     1      -8.904  16.893 -21.745  1.00  0.00     0.177 HD
BRANCH  40  42
HETATM   42  C13 UNL     1      -7.034  17.734 -21.198  1.00  0.00     0.146 C 
BRANCH  42  43
HETATM   43  C14 UNL     1      -6.401  16.441 -21.663  1.00  0.00    -0.035 C 
HETATM   44  C15 UNL     1      -6.956  16.113 -23.051  1.00  0.00     0.016 C 
HETATM   45  C16 UNL     1      -4.914  16.640 -21.849  1.00  0.00     0.016 C 
HETATM   46  C17 UNL     1      -6.689  15.323 -20.676  1.00  0.00     0.016 C 
ENDBRANCH  42  43
ENDBRANCH  40  42
ENDBRANCH   7  40
TORSDOF 13
ENDMDL
MODEL 4
REMARK VINA RESULT: -8.924236999      2.414      9.205
REMARK  13 active torsions:
REMARK  status: ('A' for Active; 'I' for Inactive)
REMARK    1  A    between atoms: C2_2  and  C3_4 
REMARK    2  A    between atoms: C3_4  and  C4_5 
REMARK    3  A    between atoms: C3_4  and  N6_39 
REMARK    4  A    between atoms: C4_5  and  C5_6 
REMARK    5  A    between atoms: C5_6  and  C6_7 
REMARK       I    between atoms: C6_7  and  N1_9 
REMARK       I    between atoms: N1_9  and  C7_11 
REMARK    6  A    between atoms: C7_11  and  C8_13 
REMARK    7  A    between atoms: C12_19  and  N3_20 
REMARK    8  A    between atoms: N3_20  and  C13_22 
REMARK    9  A    between atoms: C13_22  and  C14_23 
REMARK   10  A    between atoms: N5_30  and  C19_31 
REMARK   11  A    between atoms: N6_39  and  C26_42 
REMARK   12  A    between atoms: C26_42  and  C27_43 
REMARK   13  A    between atoms: C27_43  and  N7_44 
ROOT
HETATM    1  C8  UNL     1     -10.187  18.761 -16.100  1.00  0.00     0.101 A 
HETATM    2  C9  UNL     1     -10.173  18.960 -17.494  1.00  0.00     0.039 A 
HETATM    3  C10 UNL     1     -11.161  19.691 -18.094  1.00  0.00     0.026 A 
HETATM    4  C11 UNL     1     -11.186  19.899 -19.471  1.00  0.00     0.121 A 
HETATM    5  N2  UNL     1     -12.186  20.613 -20.000  1.00  0.00    -0.201 N 
ATOM      6  H2  UNL     1     -12.206  20.765 -21.009  1.00  0.00     0.183 HD
HETATM    7  C12 UNL     1     -13.173  21.141 -19.237  1.00  0.00     0.679 A 
HETATM    8  N4  UNL     1     -13.160  20.950 -17.915  1.00  0.00    -0.176 N 
ATOM      9  H4  UNL     1     -13.902  21.346 -17.339  1.00  0.00     0.186 HD
HETATM   10  C18 UNL     1     -12.184  20.245 -17.346  1.00  0.00     0.138 A 
HETATM   11  N5  UNL     1     -12.223  20.072 -16.011  1.00  0.00    -0.293 N 
HETATM   12  C25 UNL     1     -11.214  19.328 -15.422  1.00  0.00     0.265 A 
HETATM   13  O4  UNL     1     -11.242  19.162 -14.161  1.00  0.00    -0.267 OA
ENDROOT
BRANCH   1  14
HETATM   14  C7  UNL     1      -9.126  17.919 -15.564  1.00  0.00     0.264 C 
HETATM   15  N1  UNL     1      -9.143  16.530 -15.615  1.00  0.00    -0.290 N 
HETATM   16  C6  UNL     1      -8.203  15.592 -15.137  1.00  0.00     0.244 C 
ATOM     17  H1  UNL     1      -9.963  16.126 -16.069  1.00  0.00     0.172 HD
HETATM   18  O2  UNL     1      -8.497  14.373 -15.338  1.00  0.00    -0.269 OA
HETATM   19  O3  UNL     1      -8.127  18.509 -15.027  1.00  0.00    -0.267 OA
BRANCH  16  20
HETATM   20  C5  UNL     1      -6.983  15.944 -14.457  1.00  0.00     0.050 C 
BRANCH  20  21
HETATM   21  C4  UNL     1      -5.667  15.519 -14.949  1.00  0.00     0.073 C 
BRANCH  21  22
HETATM   22  C3  UNL     1      -4.973  16.251 -16.034  1.00  0.00     0.258 C 
BRANCH  22  23
HETATM   23  C2  UNL     1      -3.527  16.364 -16.062  1.00  0.00     0.153 C 
HETATM   24  C1  UNL     1      -2.658  15.249 -15.509  1.00  0.00     0.093 C 
HETATM   25  O1  UNL     1      -2.934  17.322 -16.506  1.00  0.00    -0.296 OA
ENDBRANCH  22  23
BRANCH  22  26
HETATM   26  N6  UNL     1      -5.394  15.679 -17.344  1.00  0.00    -0.062 N 
ATOM     27  H62 UNL     1      -4.588  15.356 -17.880  1.00  0.00     0.278 HD
ATOM     28  H61 UNL     1      -5.876  14.789 -17.220  1.00  0.00     0.278 HD
BRANCH  26  29
HETATM   29  C26 UNL     1      -6.183  16.588 -18.102  1.00  0.00     0.263 C 
BRANCH  29  30
HETATM   30  C27 UNL     1      -7.211  15.887 -18.946  1.00  0.00     0.298 C 
BRANCH  30  31
HETATM   31  N7  UNL     1      -7.193  16.373 -20.324  1.00  0.00     0.081 N 
HETATM   32  C28 UNL     1      -8.017  17.549 -20.455  1.00  0.00     0.309 C 
HETATM   33  C29 UNL     1      -7.595  15.283 -21.190  1.00  0.00     0.309 C 
ENDBRANCH  30  31
ENDBRANCH  29  30
ENDBRANCH  26  29
ENDBRANCH  22  26
ENDBRANCH  21  22
ENDBRANCH  20  21
ENDBRANCH  16  20
ENDBRANCH   1  14
BRANCH  11  34
HETATM   34  C19 UNL     1     -13.184  20.594 -15.120  1.00  0.00     0.095 C 
HETATM   35  C20 UNL     1     -13.243  22.110 -15.373  1.00  0.00     0.026 C 
HETATM   36  C21 UNL     1     -14.639  22.633 -15.084  1.00  0.00     0.002 C 
HETATM   37  C22 UNL     1     -14.975  22.107 -13.689  1.00  0.00     0.000 C 
HETATM   38  C23 UNL     1     -15.371  20.677 -13.920  1.00  0.00     0.002 C 
HETATM   39  C24 UNL     1     -14.523  20.012 -15.000  1.00  0.00     0.026 C 
ENDBRANCH  11  34
BRANCH   7  40
HETATM   40  N3  UNL     1     -14.098  21.817 -19.844  1.00  0.00    -0.225 N 
ATOM     41  H3  UNL     1     -15.000  21.364 -19.997  1.00  0.00     0.177 HD
BRANCH  40  42
HETATM   42  C13 UNL     1     -13.929  23.169 -20.315  1.00  0.00     0.146 C 
BRANCH  42  43
HETATM   43  C14 UNL     1     -14.615  24.112 -19.351  1.00  0.00    -0.035 C 
HETATM   44  C15 UNL     1     -15.116  25.321 -20.146  1.00  0.00     0.016 C 
HETATM   45  C16 UNL     1     -15.849  23.451 -18.783  1.00  0.00     0.016 C 
HETATM   46  C17 UNL     1     -13.658  24.535 -18.249  1.00  0.00     0.016 C 
ENDBRANCH  42  43
ENDBRANCH  40  42
ENDBRANCH   7  40
TORSDOF 13
ENDMDL
MODEL 5
REMARK VINA RESULT: -8.918621035      0.654      1.160
REMARK  13 active torsions:
REMARK  status: ('A' for Active; 'I' for Inactive)
REMARK    1  A    between atoms: C2_2  and  C3_4 
REMARK    2  A    between atoms: C3_4  and  C4_5 
REMARK    3  A    between atoms: C3_4  and  N6_39 
REMARK    4  A    between atoms: C4_5  and  C5_6 
REMARK    5  A    between atoms: C5_6  and  C6_7 
REMARK       I    between atoms: C6_7  and  N1_9 
REMARK       I    between atoms: N1_9  and  C7_11 
REMARK    6  A    between atoms: C7_11  and  C8_13 
REMARK    7  A    between atoms: C12_19  and  N3_20 
REMARK    8  A    between atoms: N3_20  and  C13_22 
REMARK    9  A    between atoms: C13_22  and  C14_23 
REMARK   10  A    between atoms: N5_30  and  C19_31 
REMARK   11  A    between atoms: N6_39  and  C26_42 
REMARK   12  A    between atoms: C26_42  and  C27_43 
REMARK   13  A    between atoms: C27_43  and  N7_44 
ROOT
HETATM    1  C8  UNL     1     -10.800  20.067 -16.006  1.00  0.00     0.101 A 
HETATM    2  C9  UNL     1     -10.500  20.620 -17.266  1.00  0.00     0.039 A 
HETATM    3  C10 UNL     1      -9.514  20.074 -18.041  1.00  0.00     0.026 A 
HETATM    4  C11 UNL     1      -9.183  20.601 -19.287  1.00  0.00     0.121 A 
HETATM    5  N2  UNL     1      -8.200  20.029 -19.991  1.00  0.00    -0.201 N 
ATOM      6  H2  UNL     1      -7.956  20.415 -20.904  1.00  0.00     0.183 HD
HETATM    7  C12 UNL     1      -7.519  18.953 -19.530  1.00  0.00     0.679 A 
HETATM    8  N4  UNL     1      -7.827  18.437 -18.337  1.00  0.00    -0.176 N 
ATOM      9  H4  UNL     1      -7.315  17.627 -17.988  1.00  0.00     0.186 HD
HETATM   10  C18 UNL     1      -8.798  18.975 -17.602  1.00  0.00     0.138 A 
HETATM   11  N5  UNL     1      -9.063  18.424 -16.401  1.00  0.00    -0.293 N 
HETATM   12  C25 UNL     1     -10.065  18.992 -15.632  1.00  0.00     0.265 A 
HETATM   13  O4  UNL     1     -10.322  18.477 -14.498  1.00  0.00    -0.267 OA
ENDROOT
BRANCH   1  14
HETATM   14  C7  UNL     1     -11.824  20.756 -15.233  1.00  0.00     0.264 C 
HETATM   15  N1  UNL     1     -12.227  20.361 -13.962  1.00  0.00    -0.290 N 
HETATM   16  C6  UNL     1     -13.201  20.917 -13.105  1.00  0.00     0.244 C 
ATOM     17  H1  UNL     1     -11.745  19.543 -13.591  1.00  0.00     0.172 HD
HETATM   18  O2  UNL     1     -13.344  20.332 -11.988  1.00  0.00    -0.269 OA
HETATM   19  O3  UNL     1     -12.366  21.783 -15.766  1.00  0.00    -0.267 OA
BRANCH  16  20
HETATM   20  C5  UNL     1     -14.006  22.067 -13.433  1.00  0.00     0.050 C 
BRANCH  20  21
HETATM   21  C4  UNL     1     -15.428  21.950 -13.776  1.00  0.00     0.073 C 
BRANCH  21  22
HETATM   22  C3  UNL     1     -16.089  22.919 -14.681  1.00  0.00     0.258 C 
BRANCH  22  23
HETATM   23  C2  UNL     1     -16.801  24.071 -14.162  1.00  0.00     0.153 C 
HETATM   24  C1  UNL     1     -16.167  24.952 -13.100  1.00  0.00     0.093 C 
HETATM   25  O1  UNL     1     -17.911  24.395 -14.521  1.00  0.00    -0.296 OA
ENDBRANCH  22  23
BRANCH  22  26
HETATM   26  N6  UNL     1     -15.083  23.427 -15.656  1.00  0.00    -0.062 N 
ATOM     27  H62 UNL     1     -14.942  24.432 -15.549  1.00  0.00     0.278 HD
ATOM     28  H61 UNL     1     -14.145  23.105 -15.420  1.00  0.00     0.278 HD
BRANCH  26  29
HETATM   29  C26 UNL     1     -15.416  23.096 -16.999  1.00  0.00     0.263 C 
BRANCH  29  30
HETATM   30  C27 UNL     1     -14.393  23.594 -17.982  1.00  0.00     0.298 C 
BRANCH  30  31
HETATM   31  N7  UNL     1     -14.128  22.605 -19.024  1.00  0.00     0.081 N 
HETATM   32  C28 UNL     1     -14.526  21.289 -18.585  1.00  0.00     0.309 C 
HETATM   33  C29 UNL     1     -12.728  22.696 -19.384  1.00  0.00     0.309 C 
ENDBRANCH  30  31
ENDBRANCH  29  30
ENDBRANCH  26  29
ENDBRANCH  22  26
ENDBRANCH  21  22
ENDBRANCH  20  21
ENDBRANCH  16  20
ENDBRANCH   1  14
BRANCH  11  34
HETATM   34  C19 UNL     1      -8.436  17.294 -15.835  1.00  0.00     0.095 C 
HETATM   35  C20 UNL     1      -8.514  16.173 -16.886  1.00  0.00     0.026 C 
HETATM   36  C21 UNL     1      -7.319  15.247 -16.750  1.00  0.00     0.002 C 
HETATM   37  C22 UNL     1      -7.282  14.866 -15.270  1.00  0.00     0.000 C 
HETATM   38  C23 UNL     1      -6.658  16.055 -14.599  1.00  0.00     0.002 C 
HETATM   39  C24 UNL     1      -7.108  17.372 -15.223  1.00  0.00     0.026 C 
ENDBRANCH  11  34
BRANCH   7  40
HETATM   40  N3  UNL     1      -6.583  18.472 -20.287  1.00  0.00    -0.225 N 
ATOM     41  H3  UNL     1      -6.856  18.035 -21.168  1.00  0.00     0.177 HD
BRANCH  40  42
HETATM   42  C13 UNL     1      -5.180  18.515 -19.959  1.00  0.00     0.146 C 
BRANCH  42  43
HETATM   43  C14 UNL     1      -4.667  17.100 -19.814  1.00  0.00    -0.035 C 
HETATM   44  C15 UNL     1      -3.291  17.022 -20.479  1.00  0.00     0.016 C 
HETATM   45  C16 UNL     1      -4.438  16.787 -18.353  1.00  0.00     0.016 C 
HETATM   46  C17 UNL     1      -5.639  16.115 -20.443  1.00  0.00     0.016 C 
ENDBRANCH  42  43
ENDBRANCH  40  42
ENDBRANCH   7  40
TORSDOF 13
ENDMDL
