MODEL 1
REMARK VINA RESULT: -7.716765750      0.000      0.000
REMARK  13 active torsions:
REMARK  status: ('A' for Active; 'I' for Inactive)
REMARK    1  A    between atoms: C2_2  and  N1_3 
REMARK       I    between atoms: N1_3  and  C3_5 
REMARK    2  A    between atoms: C3_5  and  C4_7 
REMARK    3  A    between atoms: C4_7  and  N2_8 
REMARK    4  A    between atoms: N2_8  and  C5_9 
REMARK    5  A    between atoms: N2_8  and  C22_38 
REMARK    6  A    between atoms: C5_9  and  O2_10 
REMARK    7  A    between atoms: C5_9  and  C6_12 
REMARK    8  A    between atoms: C6_12  and  C7_13 
REMARK    9  A    between atoms: C6_12  and  N3_16 
REMARK   10  A    between atoms: C7_13  and  O3_14 
REMARK   11  A    between atoms: N3_16  and  C8_17 
REMARK       I    between atoms: N3_16  and  C14_26 
REMARK   12  A    between atoms: C8_17  and  C9_18 
REMARK   13  A    between atoms: C14_26  and  C15_28 
ROOT
HETATM    1  N3  UNL     1     -10.899  20.416 -18.380  1.00  0.00    -0.308 N 
HETATM    2  C14 UNL     1     -11.354  21.739 -18.563  1.00  0.00     0.264 C 
HETATM    3  O5  UNL     1     -10.571  22.617 -19.056  1.00  0.00    -0.267 OA
ENDROOT
BRANCH   1   4
HETATM    4  C6  UNL     1     -12.026  19.460 -17.940  1.00  0.00     0.190 C 
BRANCH   4   5
HETATM    5  C5  UNL     1     -11.637  18.760 -16.723  1.00  0.00     0.145 C 
BRANCH   5   6
HETATM    6  N2  UNL     1     -11.390  19.194 -15.415  1.00  0.00    -0.315 N 
BRANCH   6   7
HETATM    7  C4  UNL     1     -10.192  19.177 -14.649  1.00  0.00     0.234 C 
BRANCH   7   8
HETATM    8  C3  UNL     1      -9.225  18.096 -15.017  1.00  0.00     0.235 C 
HETATM    9  N1  UNL     1      -9.562  16.754 -14.814  1.00  0.00    -0.360 N 
ATOM     10  H1  UNL     1     -10.478  16.543 -14.416  1.00  0.00     0.162 HD
HETATM   11  O1  UNL     1      -8.105  18.382 -15.508  1.00  0.00    -0.272 OA
BRANCH   9  12
HETATM   12  C2  UNL     1      -8.689  15.654 -15.136  1.00  0.00     0.118 C 
HETATM   13  C1  UNL     1      -7.815  15.278 -13.954  1.00  0.00     0.026 C 
ENDBRANCH   9  12
ENDBRANCH   7   8
ENDBRANCH   6   7
BRANCH   6  14
HETATM   14  C22 UNL     1     -12.542  19.791 -14.732  1.00  0.00     0.078 A 
HETATM   15  C23 UNL     1     -13.816  19.981 -15.175  1.00  0.00     0.044 A 
HETATM   16  C24 UNL     1     -14.685  20.549 -14.312  1.00  0.00    -0.053 A 
HETATM   17  C25 UNL     1     -16.132  20.792 -14.708  1.00  0.00     0.049 C 
HETATM   18  C26 UNL     1     -14.218  20.883 -13.074  1.00  0.00     0.058 A 
HETATM   19  S1  UNL     1     -12.582  20.400 -13.142  1.00  0.00    -0.084 SA
ENDBRANCH   6  14
ENDBRANCH   5   6
BRANCH   5  20
HETATM   20  O2  UNL     1     -11.482  17.472 -16.856  1.00  0.00    -0.348 OA
ATOM     21  H2  UNL     1     -11.819  17.151 -17.684  1.00  0.00     0.219 HD
ENDBRANCH   5  20
ENDBRANCH   4   5
BRANCH   4  22
HETATM   22  C7  UNL     1     -12.384  18.613 -19.070  1.00  0.00     0.198 C 
BRANCH  22  23
HETATM   23  O3  UNL     1     -13.553  17.914 -18.848  1.00  0.00    -0.398 OA
ATOM     24  H3  UNL     1     -13.392  16.995 -18.667  1.00  0.00     0.209 HD
ENDBRANCH  22  23
ENDBRANCH   4  22
ENDBRANCH   1   4
BRANCH   1  25
HETATM   25  C8  UNL     1      -9.599  19.892 -18.214  1.00  0.00     0.111 C 
BRANCH  25  26
HETATM   26  C9  UNL     1      -8.784  19.242 -19.244  1.00  0.00     0.035 A 
HETATM   27  C10 UNL     1      -8.198  18.005 -19.283  1.00  0.00     0.043 A 
HETATM   28  C11 UNL     1      -8.382  16.797 -18.415  1.00  0.00     0.071 C 
HETATM   29  N4  UNL     1      -7.308  18.021 -20.320  1.00  0.00    -0.265 N 
HETATM   30  O4  UNL     1      -7.319  19.138 -20.879  1.00  0.00    -0.242 OA
ATOM     31  H4  UNL     1      -6.720  17.235 -20.597  1.00  0.00     0.194 HD
HETATM   32  C12 UNL     1      -8.186  19.968 -20.299  1.00  0.00     0.086 A 
HETATM   33  C13 UNL     1      -8.347  21.368 -20.781  1.00  0.00     0.080 C 
ENDBRANCH  25  26
ENDBRANCH   1  25
BRANCH   2  34
HETATM   34  C15 UNL     1     -12.642  22.341 -18.272  1.00  0.00     0.106 A 
HETATM   35  C16 UNL     1     -13.601  22.473 -19.279  1.00  0.00    -0.039 A 
HETATM   36  C17 UNL     1     -13.394  22.015 -20.671  1.00  0.00     0.049 C 
HETATM   37  C18 UNL     1     -14.850  22.994 -18.997  1.00  0.00     0.032 A 
HETATM   38  C19 UNL     1     -15.190  23.392 -17.741  1.00  0.00     0.009 A 
HETATM   39  C20 UNL     1     -16.566  23.917 -17.484  1.00  0.00     0.068 C 
HETATM   40  N5  UNL     1     -14.268  23.271 -16.746  1.00  0.00    -0.327 N 
HETATM   41  C21 UNL     1     -13.036  22.761 -17.027  1.00  0.00     0.262 A 
ATOM     42  H5  UNL     1     -14.498  23.562 -15.795  1.00  0.00     0.169 HD
HETATM   43  O6  UNL     1     -12.274  22.705 -16.014  1.00  0.00    -0.267 OA
ENDBRANCH   2  34
TORSDOF 13
ENDMDL
MODEL 2
REMARK VINA RESULT: -7.645537635      3.382      7.807
REMARK  13 active torsions:
REMARK  status: ('A' for Active; 'I' for Inactive)
REMARK    1  A    between atoms: C2_2  and  N1_3 
REMARK       I    between atoms: N1_3  and  C3_5 
REMARK    2  A    between atoms: C3_5  and  C4_7 
REMARK    3  A    between atoms: C4_7  and  N2_8 
REMARK    4  A    between atoms: N2_8  and  C5_9 
REMARK    5  A    between atoms: N2_8  and  C22_38 
REMARK    6  A    between atoms: C5_9  and  O2_10 
REMARK    7  A    between atoms: C5_9  and  C6_12 
REMARK    8  A    between atoms: C6_12  and  C7_13 
REMARK    9  A    between atoms: C6_12  and  N3_16 
REMARK   10  A    between atoms: C7_13  and  O3_14 
REMARK   11  A    between atoms: N3_16  and  C8_17 
REMARK       I    between atoms: N3_16  and  C14_26 
REMARK   12  A    between atoms: C8_17  and  C9_18 
REMARK   13  A    between atoms: C14_26  and  C15_28 
ROOT
HETATM    1  N3  UNL     1      -5.865  17.351 -20.307  1.00  0.00    -0.308 N 
HETATM    2  C14 UNL     1      -5.448  16.305 -19.457  1.00  0.00     0.264 C 
HETATM    3  O5  UNL     1      -4.590  15.456 -19.867  1.00  0.00    -0.267 OA
ENDROOT
BRANCH   1   4
HETATM    4  C6  UNL     1      -6.768  18.374 -19.587  1.00  0.00     0.190 C 
BRANCH   4   5
HETATM    5  C5  UNL     1      -8.166  18.104 -19.894  1.00  0.00     0.145 C 
BRANCH   5   6
HETATM    6  N2  UNL     1      -9.361  18.720 -19.504  1.00  0.00    -0.315 N 
BRANCH   6   7
HETATM    7  C4  UNL     1     -10.260  19.538 -20.242  1.00  0.00     0.234 C 
BRANCH   7   8
HETATM    8  C3  UNL     1     -10.514  20.888 -19.650  1.00  0.00     0.235 C 
HETATM    9  N1  UNL     1     -11.823  21.299 -19.377  1.00  0.00    -0.360 N 
ATOM     10  H1  UNL     1     -12.585  20.654 -19.589  1.00  0.00     0.162 HD
HETATM   11  O1  UNL     1      -9.560  21.663 -19.396  1.00  0.00    -0.272 OA
BRANCH   9  12
HETATM   12  C2  UNL     1     -12.155  22.583 -18.812  1.00  0.00     0.118 C 
HETATM   13  C1  UNL     1     -13.492  23.083 -19.325  1.00  0.00     0.026 C 
ENDBRANCH   9  12
ENDBRANCH   7   8
ENDBRANCH   6   7
BRANCH   6  14
HETATM   14  C22 UNL     1      -9.770  18.458 -18.120  1.00  0.00     0.078 A 
HETATM   15  C23 UNL     1      -9.027  18.436 -16.980  1.00  0.00     0.044 A 
HETATM   16  C24 UNL     1      -9.681  18.180 -15.828  1.00  0.00    -0.053 A 
HETATM   17  C25 UNL     1      -8.941  18.145 -14.500  1.00  0.00     0.049 C 
HETATM   18  C26 UNL     1     -11.027  17.965 -15.900  1.00  0.00     0.058 A 
HETATM   19  S1  UNL     1     -11.348  18.124 -17.569  1.00  0.00    -0.084 SA
ENDBRANCH   6  14
ENDBRANCH   5   6
BRANCH   5  20
HETATM   20  O2  UNL     1      -8.368  17.089 -20.687  1.00  0.00    -0.348 OA
ATOM     21  H2  UNL     1      -7.624  16.499 -20.716  1.00  0.00     0.219 HD
ENDBRANCH   5  20
ENDBRANCH   4   5
BRANCH   4  22
HETATM   22  C7  UNL     1      -6.297  19.715 -19.906  1.00  0.00     0.198 C 
BRANCH  22  23
HETATM   23  O3  UNL     1      -5.005  19.930 -19.470  1.00  0.00    -0.398 OA
ATOM     24  H3  UNL     1      -4.930  20.721 -18.949  1.00  0.00     0.209 HD
ENDBRANCH  22  23
ENDBRANCH   4  22
ENDBRANCH   1   4
BRANCH   1  25
HETATM   25  C8  UNL     1      -5.877  17.460 -21.714  1.00  0.00     0.111 C 
BRANCH  25  26
HETATM   26  C9  UNL     1      -5.073  16.676 -22.655  1.00  0.00     0.035 A 
HETATM   27  C10 UNL     1      -3.725  16.665 -22.899  1.00  0.00     0.043 A 
HETATM   28  C11 UNL     1      -2.579  17.256 -22.134  1.00  0.00     0.071 C 
HETATM   29  N4  UNL     1      -3.540  15.989 -24.071  1.00  0.00    -0.265 N 
HETATM   30  O4  UNL     1      -4.640  15.611 -24.529  1.00  0.00    -0.242 OA
ATOM     31  H4  UNL     1      -2.635  15.817 -24.510  1.00  0.00     0.194 HD
HETATM   32  C12 UNL     1      -5.650  15.982 -23.742  1.00  0.00     0.086 A 
HETATM   33  C13 UNL     1      -7.059  15.665 -24.106  1.00  0.00     0.080 C 
ENDBRANCH  25  26
ENDBRANCH   1  25
BRANCH   2  34
HETATM   34  C15 UNL     1      -5.844  15.981 -18.098  1.00  0.00     0.106 A 
HETATM   35  C16 UNL     1      -5.006  16.300 -17.027  1.00  0.00    -0.039 A 
HETATM   36  C17 UNL     1      -3.701  16.980 -17.182  1.00  0.00     0.049 C 
HETATM   37  C18 UNL     1      -5.401  16.046 -15.727  1.00  0.00     0.032 A 
HETATM   38  C19 UNL     1      -6.608  15.484 -15.443  1.00  0.00     0.009 A 
HETATM   39  C20 UNL     1      -6.998  15.261 -14.018  1.00  0.00     0.068 C 
HETATM   40  N5  UNL     1      -7.438  15.165 -16.475  1.00  0.00    -0.327 N 
HETATM   41  C21 UNL     1      -7.045  15.414 -17.757  1.00  0.00     0.262 A 
ATOM     42  H5  UNL     1      -8.348  14.744 -16.290  1.00  0.00     0.169 HD
HETATM   43  O6  UNL     1      -7.908  15.070 -18.621  1.00  0.00    -0.267 OA
ENDBRANCH   2  34
TORSDOF 13
ENDMDL
MODEL 3
REMARK VINA RESULT: -7.626880944      1.372      3.717
REMARK  13 active torsions:
REMARK  status: ('A' for Active; 'I' for Inactive)
REMARK    1  A    between atoms: C2_2  and  N1_3 
REMARK       I    between atoms: N1_3  and  C3_5 
REMARK    2  A    between atoms: C3_5  and  C4_7 
REMARK    3  A    between atoms: C4_7  and  N2_8 
REMARK    4  A    between atoms: N2_8  and  C5_9 
REMARK    5  A    between atoms: N2_8  and  C22_38 
REMARK    6  A    between atoms: C5_9  and  O2_10 
REMARK    7  A    between atoms: C5_9  and  C6_12 
REMARK    8  A    between atoms: C6_12  and  C7_13 
REMARK    9  A    between atoms: C6_12  and  N3_16 
REMARK   10  A    between atoms: C7_13  and  O3_14 
REMARK   11  A    between atoms: N3_16  and  C8_17 
REMARK       I    between atoms: N3_16  and  C14_26 
REMARK   12  A    between atoms: C8_17  and  C9_18 
REMARK   13  A    between atoms: C14_26  and  C15_28 
ROOT
HETATM    1  N3  UNL     1     -11.164  20.555 -18.266  1.00  0.00    -0.308 N 
HETATM    2  C14 UNL     1     -11.636  21.837 -18.619  1.00  0.00     0.264 C 
HETATM    3  O5  UNL     1     -10.889  22.628 -19.284  1.00  0.00    -0.267 OA
ENDROOT
BRANCH   1   4
HETATM    4  C6  UNL     1     -12.258  19.680 -17.620  1.00  0.00     0.190 C 
BRANCH   4   5
HETATM    5  C5  UNL     1     -11.688  18.895 -16.533  1.00  0.00     0.145 C 
BRANCH   5   6
HETATM    6  N2  UNL     1     -11.001  19.247 -15.366  1.00  0.00    -0.315 N 
BRANCH   6   7
HETATM    7  C4  UNL     1     -11.272  20.261 -14.406  1.00  0.00     0.234 C 
BRANCH   7   8
HETATM    8  C3  UNL     1     -12.597  20.141 -13.721  1.00  0.00     0.235 C 
HETATM    9  N1  UNL     1     -13.773  20.461 -14.408  1.00  0.00    -0.360 N 
ATOM     10  H1  UNL     1     -13.696  20.770 -15.377  1.00  0.00     0.162 HD
HETATM   11  O1  UNL     1     -12.666  19.756 -12.529  1.00  0.00    -0.272 OA
BRANCH   9  12
HETATM   12  C2  UNL     1     -15.087  20.377 -13.822  1.00  0.00     0.118 C 
HETATM   13  C1  UNL     1     -15.961  21.537 -14.258  1.00  0.00     0.026 C 
ENDBRANCH   9  12
ENDBRANCH   7   8
ENDBRANCH   6   7
BRANCH   6  14
HETATM   14  C22 UNL     1      -9.829  18.419 -15.063  1.00  0.00     0.078 A 
HETATM   15  C23 UNL     1      -9.760  17.121 -14.657  1.00  0.00     0.044 A 
HETATM   16  C24 UNL     1      -8.527  16.604 -14.468  1.00  0.00    -0.053 A 
HETATM   17  C25 UNL     1      -8.345  15.161 -14.026  1.00  0.00     0.049 C 
HETATM   18  C26 UNL     1      -7.458  17.421 -14.697  1.00  0.00     0.058 A 
HETATM   19  S1  UNL     1      -8.194  18.887 -15.171  1.00  0.00    -0.084 SA
ENDBRANCH   6  14
ENDBRANCH   5   6
BRANCH   5  20
HETATM   20  O2  UNL     1     -11.836  17.605 -16.652  1.00  0.00    -0.348 OA
ATOM     21  H2  UNL     1     -12.600  17.284 -16.187  1.00  0.00     0.219 HD
ENDBRANCH   5  20
ENDBRANCH   4   5
BRANCH   4  22
HETATM   22  C7  UNL     1     -12.923  18.919 -18.669  1.00  0.00     0.198 C 
BRANCH  22  23
HETATM   23  O3  UNL     1     -14.285  18.830 -18.463  1.00  0.00    -0.398 OA
ATOM     24  H3  UNL     1     -14.659  18.056 -18.868  1.00  0.00     0.209 HD
ENDBRANCH  22  23
ENDBRANCH   4  22
ENDBRANCH   1   4
BRANCH   1  25
HETATM   25  C8  UNL     1      -9.854  20.056 -18.102  1.00  0.00     0.111 C 
BRANCH  25  26
HETATM   26  C9  UNL     1      -9.062  19.340 -19.106  1.00  0.00     0.035 A 
HETATM   27  C10 UNL     1      -8.538  18.074 -19.107  1.00  0.00     0.043 A 
HETATM   28  C11 UNL     1      -8.790  16.901 -18.208  1.00  0.00     0.071 C 
HETATM   29  N4  UNL     1      -7.639  18.020 -20.134  1.00  0.00    -0.265 N 
HETATM   30  O4  UNL     1      -7.590  19.120 -20.723  1.00  0.00    -0.242 OA
ATOM     31  H4  UNL     1      -7.088  17.198 -20.384  1.00  0.00     0.194 HD
HETATM   32  C12 UNL     1      -8.420  20.006 -20.173  1.00  0.00     0.086 A 
HETATM   33  C13 UNL     1      -8.506  21.400 -20.694  1.00  0.00     0.080 C 
ENDBRANCH  25  26
ENDBRANCH   1  25
BRANCH   2  34
HETATM   34  C15 UNL     1     -12.907  22.481 -18.344  1.00  0.00     0.106 A 
HETATM   35  C16 UNL     1     -13.816  22.714 -19.379  1.00  0.00    -0.039 A 
HETATM   36  C17 UNL     1     -13.572  22.324 -20.786  1.00  0.00     0.049 C 
HETATM   37  C18 UNL     1     -15.051  23.276 -19.116  1.00  0.00     0.032 A 
HETATM   38  C19 UNL     1     -15.426  23.618 -17.854  1.00  0.00     0.009 A 
HETATM   39  C20 UNL     1     -16.787  24.192 -17.622  1.00  0.00     0.068 C 
HETATM   40  N5  UNL     1     -14.553  23.400 -16.832  1.00  0.00    -0.327 N 
HETATM   41  C21 UNL     1     -13.333  22.849 -17.093  1.00  0.00     0.262 A 
ATOM     42  H5  UNL     1     -14.809  23.647 -15.876  1.00  0.00     0.169 HD
HETATM   43  O6  UNL     1     -12.618  22.701 -16.057  1.00  0.00    -0.267 OA
ENDBRANCH   2  34
TORSDOF 13
ENDMDL
MODEL 4
REMARK VINA RESULT: -7.211733932      0.990      1.451
REMARK  13 active torsions:
REMARK  status: ('A' for Active; 'I' for Inactive)
REMARK    1  A    between atoms: C2_2  and  N1_3 
REMARK       I    between atoms: N1_3  and  C3_5 
REMARK    2  A    between atoms: C3_5  and  C4_7 
REMARK    3  A    between atoms: C4_7  and  N2_8 
REMARK    4  A    between atoms: N2_8  and  C5_9 
REMARK    5  A    between atoms: N2_8  and  C22_38 
REMARK    6  A    between atoms: C5_9  and  O2_10 
REMARK    7  A    between atoms: C5_9  and  C6_12 
REMARK    8  A    between atoms: C6_12  and  C7_13 
REMARK    9  A    between atoms: C6_12  and  N3_16 
REMARK   10  A    between atoms: C7_13  and  O3_14 
REMARK   11  A    between atoms: N3_16  and  C8_17 
REMARK       I    between atoms: N3_16  and  C14_26 
REMARK   12  A    between atoms: C8_17  and  C9_18 
REMARK   13  A    between atoms: C14_26  and  C15_28 
ROOT
HETATM    1  N3  UNL     1     -10.608  20.228 -18.716  1.00  0.00    -0.308 N 
HETATM    2  C14 UNL     1     -11.037  21.521 -19.083  1.00  0.00     0.264 C 
HETATM    3  O5  UNL     1     -10.243  22.300 -19.707  1.00  0.00    -0.267 OA
ENDROOT
BRANCH   1   4
HETATM    4  C6  UNL     1     -11.748  19.372 -18.128  1.00  0.00     0.190 C 
BRANCH   4   5
HETATM    5  C5  UNL     1     -11.275  18.653 -16.953  1.00  0.00     0.145 C 
BRANCH   5   6
HETATM    6  N2  UNL     1     -11.118  19.022 -15.612  1.00  0.00    -0.315 N 
BRANCH   6   7
HETATM    7  C4  UNL     1      -9.996  18.899 -14.747  1.00  0.00     0.234 C 
BRANCH   7   8
HETATM    8  C3  UNL     1      -9.044  17.802 -15.102  1.00  0.00     0.235 C 
HETATM    9  N1  UNL     1      -9.324  16.483 -14.731  1.00  0.00    -0.360 N 
ATOM     10  H1  UNL     1     -10.188  16.299 -14.221  1.00  0.00     0.162 HD
HETATM   11  O1  UNL     1      -7.988  18.053 -15.733  1.00  0.00    -0.272 OA
BRANCH   9  12
HETATM   12  C2  UNL     1      -8.460  15.368 -15.030  1.00  0.00     0.118 C 
HETATM   13  C1  UNL     1      -7.458  15.133 -13.916  1.00  0.00     0.026 C 
ENDBRANCH   9  12
ENDBRANCH   7   8
ENDBRANCH   6   7
BRANCH   6  14
HETATM   14  C22 UNL     1     -12.287  19.670 -15.007  1.00  0.00     0.078 A 
HETATM   15  C23 UNL     1     -13.529  19.881 -15.522  1.00  0.00     0.044 A 
HETATM   16  C24 UNL     1     -14.426  20.496 -14.722  1.00  0.00    -0.053 A 
HETATM   17  C25 UNL     1     -15.843  20.767 -15.200  1.00  0.00     0.049 C 
HETATM   18  C26 UNL     1     -14.016  20.853 -13.470  1.00  0.00     0.058 A 
HETATM   19  S1  UNL     1     -12.392  20.324 -13.438  1.00  0.00    -0.084 SA
ENDBRANCH   6  14
ENDBRANCH   5   6
BRANCH   5  20
HETATM   20  O2  UNL     1     -10.919  17.418 -17.171  1.00  0.00    -0.348 OA
ATOM     21  H2  UNL     1     -10.770  17.242 -18.093  1.00  0.00     0.219 HD
ENDBRANCH   5  20
ENDBRANCH   4   5
BRANCH   4  22
HETATM   22  C7  UNL     1     -12.306  18.548 -19.193  1.00  0.00     0.198 C 
BRANCH  22  23
HETATM   23  O3  UNL     1     -13.396  17.816 -18.767  1.00  0.00    -0.398 OA
ATOM     24  H3  UNL     1     -13.171  16.911 -18.586  1.00  0.00     0.209 HD
ENDBRANCH  22  23
ENDBRANCH   4  22
ENDBRANCH   1   4
BRANCH   1  25
HETATM   25  C8  UNL     1      -9.317  19.702 -18.492  1.00  0.00     0.111 C 
BRANCH  25  26
HETATM   26  C9  UNL     1      -8.480  19.003 -19.471  1.00  0.00     0.035 A 
HETATM   27  C10 UNL     1      -7.922  17.752 -19.451  1.00  0.00     0.043 A 
HETATM   28  C11 UNL     1      -8.165  16.577 -18.553  1.00  0.00     0.071 C 
HETATM   29  N4  UNL     1      -6.995  17.717 -20.454  1.00  0.00    -0.265 N 
HETATM   30  O4  UNL     1      -6.960  18.815 -21.047  1.00  0.00    -0.242 OA
ATOM     31  H4  UNL     1      -6.415  16.909 -20.684  1.00  0.00     0.194 HD
HETATM   32  C12 UNL     1      -7.828  19.681 -20.525  1.00  0.00     0.086 A 
HETATM   33  C13 UNL     1      -7.938  21.069 -21.056  1.00  0.00     0.080 C 
ENDBRANCH  25  26
ENDBRANCH   1  25
BRANCH   2  34
HETATM   34  C15 UNL     1     -12.307  22.189 -18.865  1.00  0.00     0.106 A 
HETATM   35  C16 UNL     1     -12.604  22.744 -17.618  1.00  0.00    -0.039 A 
HETATM   36  C17 UNL     1     -11.678  22.709 -16.464  1.00  0.00     0.049 C 
HETATM   37  C18 UNL     1     -13.787  23.430 -17.418  1.00  0.00     0.032 A 
HETATM   38  C19 UNL     1     -14.697  23.592 -18.418  1.00  0.00     0.009 A 
HETATM   39  C20 UNL     1     -15.945  24.371 -18.156  1.00  0.00     0.068 C 
HETATM   40  N5  UNL     1     -14.424  23.057 -19.640  1.00  0.00    -0.327 N 
HETATM   41  C21 UNL     1     -13.258  22.377 -19.834  1.00  0.00     0.262 A 
ATOM     42  H5  UNL     1     -15.089  23.164 -20.407  1.00  0.00     0.169 HD
HETATM   43  O6  UNL     1     -13.129  21.931 -21.014  1.00  0.00    -0.267 OA
ENDBRANCH   2  34
TORSDOF 13
ENDMDL
MODEL 5
REMARK VINA RESULT: -7.074392424      2.286      6.386
REMARK  13 active torsions:
REMARK  status: ('A' for Active; 'I' for Inactive)
REMARK    1  A    between atoms: C2_2  and  N1_3 
REMARK       I    between atoms: N1_3  and  C3_5 
REMARK    2  A    between atoms: C3_5  and  C4_7 
REMARK    3  A    between atoms: C4_7  and  N2_8 
REMARK    4  A    between atoms: N2_8  and  C5_9 
REMARK    5  A    between atoms: N2_8  and  C22_38 
REMARK    6  A    between atoms: C5_9  and  O2_10 
REMARK    7  A    between atoms: C5_9  and  C6_12 
REMARK    8  A    between atoms: C6_12  and  C7_13 
REMARK    9  A    between atoms: C6_12  and  N3_16 
REMARK   10  A    between atoms: C7_13  and  O3_14 
REMARK   11  A    between atoms: N3_16  and  C8_17 
REMARK       I    between atoms: N3_16  and  C14_26 
REMARK   12  A    between atoms: C8_17  and  C9_18 
REMARK   13  A    between atoms: C14_26  and  C15_28 
ROOT
HETATM    1  N3  UNL     1     -14.182  22.561 -17.547  1.00  0.00    -0.308 N 
HETATM    2  C14 UNL     1     -14.366  22.745 -16.159  1.00  0.00     0.264 C 
HETATM    3  O5  UNL     1     -14.974  23.781 -15.731  1.00  0.00    -0.267 OA
ENDROOT
BRANCH   1   4
HETATM    4  C6  UNL     1     -13.585  21.180 -17.885  1.00  0.00     0.190 C 
BRANCH   4   5
HETATM    5  C5  UNL     1     -12.213  21.333 -18.352  1.00  0.00     0.145 C 
BRANCH   5   6
HETATM    6  N2  UNL     1     -11.253  20.417 -18.798  1.00  0.00    -0.315 N 
BRANCH   6   7
HETATM    7  C4  UNL     1     -10.640  20.271 -20.072  1.00  0.00     0.234 C 
BRANCH   7   8
HETATM    8  C3  UNL     1      -9.194  20.652 -20.122  1.00  0.00     0.235 C 
HETATM    9  N1  UNL     1      -8.212  19.664 -20.248  1.00  0.00    -0.360 N 
ATOM     10  H1  UNL     1      -8.513  18.691 -20.306  1.00  0.00     0.162 HD
HETATM   11  O1  UNL     1      -8.849  21.857 -20.051  1.00  0.00    -0.272 OA
BRANCH   9  12
HETATM   12  C2  UNL     1      -6.799  19.944 -20.299  1.00  0.00     0.118 C 
HETATM   13  C1  UNL     1      -6.058  18.900 -21.112  1.00  0.00     0.026 C 
ENDBRANCH   9  12
ENDBRANCH   7   8
ENDBRANCH   6   7
BRANCH   6  14
HETATM   14  C22 UNL     1     -10.778  19.474 -17.780  1.00  0.00     0.078 A 
HETATM   15  C23 UNL     1      -9.706  19.560 -16.945  1.00  0.00     0.044 A 
HETATM   16  C24 UNL     1      -9.516  18.536 -16.086  1.00  0.00    -0.053 A 
HETATM   17  C25 UNL     1      -8.355  18.544 -15.105  1.00  0.00     0.049 C 
HETATM   18  C26 UNL     1     -10.409  17.505 -16.125  1.00  0.00     0.058 A 
HETATM   19  S1  UNL     1     -11.490  17.986 -17.356  1.00  0.00    -0.084 SA
ENDBRANCH   6  14
ENDBRANCH   5   6
BRANCH   5  20
HETATM   20  O2  UNL     1     -11.772  22.560 -18.365  1.00  0.00    -0.348 OA
ATOM     21  H2  UNL     1     -12.359  23.151 -18.821  1.00  0.00     0.219 HD
ENDBRANCH   5  20
ENDBRANCH   4   5
BRANCH   4  22
HETATM   22  C7  UNL     1     -14.491  20.493 -18.796  1.00  0.00     0.198 C 
BRANCH  22  23
HETATM   23  O3  UNL     1     -14.720  19.187 -18.415  1.00  0.00    -0.398 OA
ATOM     24  H3  UNL     1     -14.606  18.578 -19.135  1.00  0.00     0.209 HD
ENDBRANCH  22  23
ENDBRANCH   4  22
ENDBRANCH   1   4
BRANCH   1  25
HETATM   25  C8  UNL     1     -14.140  23.486 -18.612  1.00  0.00     0.111 C 
BRANCH  25  26
HETATM   26  C9  UNL     1     -15.215  23.761 -19.570  1.00  0.00     0.035 A 
HETATM   27  C10 UNL     1     -15.186  23.972 -20.923  1.00  0.00     0.043 A 
HETATM   28  C11 UNL     1     -14.100  23.754 -21.933  1.00  0.00     0.071 C 
HETATM   29  N4  UNL     1     -16.404  24.483 -21.270  1.00  0.00    -0.265 N 
HETATM   30  O4  UNL     1     -17.130  24.591 -20.258  1.00  0.00    -0.242 OA
ATOM     31  H4  UNL     1     -16.681  24.741 -22.217  1.00  0.00     0.194 HD
HETATM   32  C12 UNL     1     -16.500  24.180 -19.158  1.00  0.00     0.086 A 
HETATM   33  C13 UNL     1     -17.164  24.246 -17.826  1.00  0.00     0.080 C 
ENDBRANCH  25  26
ENDBRANCH   1  25
BRANCH   2  34
HETATM   34  C15 UNL     1     -13.957  21.919 -15.038  1.00  0.00     0.106 A 
HETATM   35  C16 UNL     1     -14.915  21.396 -14.165  1.00  0.00    -0.039 A 
HETATM   36  C17 UNL     1     -16.370  21.621 -14.316  1.00  0.00     0.049 C 
HETATM   37  C18 UNL     1     -14.539  20.563 -13.128  1.00  0.00     0.032 A 
HETATM   38  C19 UNL     1     -13.237  20.223 -12.921  1.00  0.00     0.009 A 
HETATM   39  C20 UNL     1     -12.891  19.292 -11.804  1.00  0.00     0.068 C 
HETATM   40  N5  UNL     1     -12.290  20.725 -13.761  1.00  0.00    -0.327 N 
HETATM   41  C21 UNL     1     -12.662  21.549 -14.781  1.00  0.00     0.262 A 
ATOM     42  H5  UNL     1     -11.307  20.485 -13.628  1.00  0.00     0.169 HD
HETATM   43  O6  UNL     1     -11.686  21.946 -15.486  1.00  0.00    -0.267 OA
ENDBRANCH   2  34
TORSDOF 13
ENDMDL
