MODEL 1
REMARK VINA RESULT: -8.326074360      0.000      0.000
REMARK  18 active torsions:
REMARK  status: ('A' for Active; 'I' for Inactive)
REMARK    1  A    between atoms: N1_2  and  C2_4 
REMARK    2  A    between atoms: C2_4  and  C3_5 
REMARK    3  A    between atoms: C2_4  and  C23_37 
REMARK       I    between atoms: C3_5  and  N2_7 
REMARK    4  A    between atoms: N2_7  and  C4_8 
REMARK    5  A    between atoms: C4_8  and  C5_9 
REMARK    6  A    between atoms: C5_9  and  N3_10 
REMARK    7  A    between atoms: N3_10  and  C6_12 
REMARK    8  A    between atoms: C6_12  and  C7_13 
REMARK    9  A    between atoms: C6_12  and  C13_23 
REMARK   10  A    between atoms: C7_13  and  C8_15 
REMARK       I    between atoms: C8_15  and  N4_17 
REMARK   11  A    between atoms: N4_17  and  C9_19 
REMARK   12  A    between atoms: C9_19  and  C10_20 
REMARK   13  A    between atoms: C13_23  and  C14_24 
REMARK   14  A    between atoms: C13_23  and  N5_28 
REMARK   15  A    between atoms: C14_24  and  C15_25 
REMARK       I    between atoms: N5_28  and  C18_30 
REMARK   16  A    between atoms: C18_30  and  O5_32 
REMARK   17  A    between atoms: O5_32  and  C19_33 
REMARK   18  A    between atoms: C23_37  and  C25_39 
ROOT
HETATM    1  C6  UNL     1       8.113  25.638   3.986  1.00  0.00     0.180 C 
ENDROOT
BRANCH   1   2
HETATM    2  N3  UNL     1       8.055  26.657   4.930  1.00  0.00    -0.406 N 
ATOM      3  H3  UNL     1       8.851  26.660   5.568  1.00  0.00     0.154 HD
BRANCH   2   4
HETATM    4  C5  UNL     1       7.169  27.642   5.180  1.00  0.00     0.148 C 
BRANCH   4   5
HETATM    5  C4  UNL     1       7.972  28.913   5.751  1.00  0.00     0.240 C 
BRANCH   5   6
HETATM    6  N2  UNL     1       7.485  29.259   6.966  1.00  0.00    -0.412 NA
HETATM    7  C3  UNL     1       6.972  29.616   8.216  1.00  0.00     0.309 C 
HETATM    8  O1  UNL     1       5.775  29.955   8.390  1.00  0.00    -0.255 OA
BRANCH   7   9
HETATM    9  C2  UNL     1       7.920  29.604   9.387  1.00  0.00     0.188 C 
BRANCH   9  10
HETATM   10  N1  UNL     1       8.383  30.954   9.670  1.00  0.00    -0.412 N 
HETATM   11  C1  UNL     1       9.554  31.451   9.133  1.00  0.00     0.141 C 
ATOM     12  H1  UNL     1       7.826  31.550  10.282  1.00  0.00     0.153 HD
ENDBRANCH   9  10
BRANCH   9  13
HETATM   13  C23 UNL     1       7.524  28.908  10.610  1.00  0.00     0.018 C 
HETATM   14  C24 UNL     1       8.580  27.944  11.168  1.00  0.00     0.013 C 
BRANCH  13  15
HETATM   15  C25 UNL     1       6.919  29.635  11.756  1.00  0.00    -0.008 C 
HETATM   16  C26 UNL     1       5.470  29.981  11.688  1.00  0.00     0.005 C 
HETATM   17  C27 UNL     1       5.358  31.362  12.400  1.00  0.00     0.000 C 
HETATM   18  C28 UNL     1       6.411  31.498  13.454  1.00  0.00     0.000 C 
HETATM   19  C29 UNL     1       6.786  30.197  14.115  1.00  0.00     0.000 C 
HETATM   20  C30 UNL     1       7.190  29.109  13.125  1.00  0.00     0.005 C 
ENDBRANCH  13  15
ENDBRANCH   9  13
ENDBRANCH   7   9
ENDBRANCH   5   6
ENDBRANCH   4   5
ENDBRANCH   2   4
ENDBRANCH   1   2
BRANCH   1  21
HETATM   21  C7  UNL     1       6.733  24.974   3.928  1.00  0.00     0.240 C 
HETATM   22  O2  UNL     1       5.894  25.434   3.065  1.00  0.00    -0.285 OA
BRANCH  21  23
HETATM   23  C8  UNL     1       6.315  23.899   4.752  1.00  0.00     0.289 C 
HETATM   24  O3  UNL     1       6.844  22.761   4.764  1.00  0.00    -0.264 OA
HETATM   25  N4  UNL     1       5.216  24.081   5.640  1.00  0.00    -0.354 N 
ATOM     26  H4  UNL     1       4.765  24.996   5.658  1.00  0.00     0.162 HD
BRANCH  25  27
HETATM   27  C9  UNL     1       4.700  23.060   6.515  1.00  0.00     0.126 C 
BRANCH  27  28
HETATM   28  C10 UNL     1       3.191  22.894   6.439  1.00  0.00    -0.005 C 
HETATM   29  C11 UNL     1       2.606  23.975   5.515  1.00  0.00     0.011 C 
HETATM   30  C12 UNL     1       2.592  23.109   7.803  1.00  0.00     0.011 C 
ENDBRANCH  27  28
ENDBRANCH  25  27
ENDBRANCH  21  23
ENDBRANCH   1  21
BRANCH   1  31
HETATM   31  C13 UNL     1       8.467  26.165   2.619  1.00  0.00     0.117 C 
BRANCH  31  32
HETATM   32  C14 UNL     1       9.866  26.836   2.600  1.00  0.00     0.031 C 
BRANCH  32  33
HETATM   33  C15 UNL     1       9.833  28.269   2.177  1.00  0.00    -0.021 C 
HETATM   34  C16 UNL     1      10.520  28.281   0.797  1.00  0.00     0.009 C 
HETATM   35  C17 UNL     1       8.383  28.683   1.891  1.00  0.00     0.009 C 
ENDBRANCH  32  33
ENDBRANCH  31  32
BRANCH  31  36
HETATM   36  N5  UNL     1       8.621  25.166   1.565  1.00  0.00    -0.330 N 
HETATM   37  C18 UNL     1       7.906  25.249   0.348  1.00  0.00     0.361 C 
HETATM   38  O4  UNL     1       7.060  26.149   0.085  1.00  0.00    -0.238 OA
ATOM     39  H5  UNL     1       9.263  24.386   1.710  1.00  0.00     0.165 HD
BRANCH  37  40
HETATM   40  O5  UNL     1       8.156  24.295  -0.626  1.00  0.00    -0.294 OA
BRANCH  40  41
HETATM   41  C19 UNL     1       8.712  24.451  -1.884  1.00  0.00     0.061 C 
HETATM   42  C20 UNL     1       7.870  25.065  -2.944  1.00  0.00     0.046 C 
HETATM   43  C21 UNL     1       9.292  23.154  -2.407  1.00  0.00     0.046 C 
HETATM   44  C22 UNL     1       9.937  25.366  -1.701  1.00  0.00     0.046 C 
ENDBRANCH  40  41
ENDBRANCH  37  40
ENDBRANCH  31  36
ENDBRANCH   1  31
TORSDOF 18
ENDMDL
MODEL 2
REMARK VINA RESULT: -8.069914157      1.571      2.185
REMARK  18 active torsions:
REMARK  status: ('A' for Active; 'I' for Inactive)
REMARK    1  A    between atoms: N1_2  and  C2_4 
REMARK    2  A    between atoms: C2_4  and  C3_5 
REMARK    3  A    between atoms: C2_4  and  C23_37 
REMARK       I    between atoms: C3_5  and  N2_7 
REMARK    4  A    between atoms: N2_7  and  C4_8 
REMARK    5  A    between atoms: C4_8  and  C5_9 
REMARK    6  A    between atoms: C5_9  and  N3_10 
REMARK    7  A    between atoms: N3_10  and  C6_12 
REMARK    8  A    between atoms: C6_12  and  C7_13 
REMARK    9  A    between atoms: C6_12  and  C13_23 
REMARK   10  A    between atoms: C7_13  and  C8_15 
REMARK       I    between atoms: C8_15  and  N4_17 
REMARK   11  A    between atoms: N4_17  and  C9_19 
REMARK   12  A    between atoms: C9_19  and  C10_20 
REMARK   13  A    between atoms: C13_23  and  C14_24 
REMARK   14  A    between atoms: C13_23  and  N5_28 
REMARK   15  A    between atoms: C14_24  and  C15_25 
REMARK       I    between atoms: N5_28  and  C18_30 
REMARK   16  A    between atoms: C18_30  and  O5_32 
REMARK   17  A    between atoms: O5_32  and  C19_33 
REMARK   18  A    between atoms: C23_37  and  C25_39 
ROOT
HETATM    1  C6  UNL     1       8.284  25.814   3.695  1.00  0.00     0.180 C 
ENDROOT
BRANCH   1   2
HETATM    2  N3  UNL     1       8.248  26.877   4.590  1.00  0.00    -0.406 N 
ATOM      3  H3  UNL     1       8.867  26.750   5.391  1.00  0.00     0.154 HD
BRANCH   2   4
HETATM    4  C5  UNL     1       7.566  28.040   4.625  1.00  0.00     0.148 C 
BRANCH   4   5
HETATM    5  C4  UNL     1       7.364  28.463   6.163  1.00  0.00     0.240 C 
BRANCH   5   6
HETATM    6  N2  UNL     1       7.568  29.795   6.305  1.00  0.00    -0.412 NA
HETATM    7  C3  UNL     1       7.770  31.171   6.444  1.00  0.00     0.309 C 
HETATM    8  O1  UNL     1       7.241  32.018   5.684  1.00  0.00    -0.255 OA
BRANCH   7   9
HETATM    9  C2  UNL     1       8.683  31.631   7.552  1.00  0.00     0.188 C 
BRANCH   9  10
HETATM   10  N1  UNL     1       9.181  32.968   7.266  1.00  0.00    -0.412 N 
HETATM   11  C1  UNL     1       9.869  33.707   8.208  1.00  0.00     0.141 C 
ATOM     12  H1  UNL     1       9.017  33.370   6.343  1.00  0.00     0.153 HD
ENDBRANCH   9  10
BRANCH   9  13
HETATM   13  C23 UNL     1       8.228  31.515   8.936  1.00  0.00     0.018 C 
HETATM   14  C24 UNL     1       6.705  31.585   9.117  1.00  0.00     0.013 C 
BRANCH  13  15
HETATM   15  C25 UNL     1       8.747  30.453   9.838  1.00  0.00    -0.008 C 
HETATM   16  C26 UNL     1       8.152  29.089   9.737  1.00  0.00     0.005 C 
HETATM   17  C27 UNL     1       8.147  28.550  11.198  1.00  0.00     0.000 C 
HETATM   18  C28 UNL     1       9.281  29.135  11.979  1.00  0.00     0.000 C 
HETATM   19  C29 UNL     1      10.508  29.424  11.154  1.00  0.00     0.000 C 
HETATM   20  C30 UNL     1      10.226  30.292   9.933  1.00  0.00     0.005 C 
ENDBRANCH  13  15
ENDBRANCH   9  13
ENDBRANCH   7   9
ENDBRANCH   5   6
ENDBRANCH   4   5
ENDBRANCH   2   4
ENDBRANCH   1   2
BRANCH   1  21
HETATM   21  C7  UNL     1       6.920  25.117   3.740  1.00  0.00     0.240 C 
HETATM   22  O2  UNL     1       6.026  25.517   2.902  1.00  0.00    -0.285 OA
BRANCH  21  23
HETATM   23  C8  UNL     1       6.571  24.073   4.633  1.00  0.00     0.289 C 
HETATM   24  O3  UNL     1       7.156  22.964   4.698  1.00  0.00    -0.264 OA
HETATM   25  N4  UNL     1       5.482  24.252   5.533  1.00  0.00    -0.354 N 
ATOM     26  H4  UNL     1       4.987  25.143   5.509  1.00  0.00     0.162 HD
BRANCH  25  27
HETATM   27  C9  UNL     1       5.034  23.260   6.476  1.00  0.00     0.126 C 
BRANCH  27  28
HETATM   28  C10 UNL     1       3.568  22.891   6.327  1.00  0.00    -0.005 C 
HETATM   29  C11 UNL     1       2.835  24.013   5.573  1.00  0.00     0.011 C 
HETATM   30  C12 UNL     1       2.934  22.786   7.688  1.00  0.00     0.011 C 
ENDBRANCH  27  28
ENDBRANCH  25  27
ENDBRANCH  21  23
ENDBRANCH   1  21
BRANCH   1  31
HETATM   31  C13 UNL     1       8.555  26.281   2.288  1.00  0.00     0.117 C 
BRANCH  31  32
HETATM   32  C14 UNL     1       9.926  26.998   2.169  1.00  0.00     0.031 C 
BRANCH  32  33
HETATM   33  C15 UNL     1       9.899  28.186   1.263  1.00  0.00    -0.021 C 
HETATM   34  C16 UNL     1      10.211  29.383   2.185  1.00  0.00     0.009 C 
HETATM   35  C17 UNL     1      11.091  28.120   0.299  1.00  0.00     0.009 C 
ENDBRANCH  32  33
ENDBRANCH  31  32
BRANCH  31  36
HETATM   36  N5  UNL     1       8.698  25.234   1.279  1.00  0.00    -0.330 N 
HETATM   37  C18 UNL     1       7.971  25.262   0.067  1.00  0.00     0.361 C 
HETATM   38  O4  UNL     1       7.124  26.151  -0.229  1.00  0.00    -0.238 OA
ATOM     39  H5  UNL     1       9.340  24.461   1.454  1.00  0.00     0.165 HD
BRANCH  37  40
HETATM   40  O5  UNL     1       8.211  24.264  -0.865  1.00  0.00    -0.294 OA
BRANCH  40  41
HETATM   41  C19 UNL     1       8.745  24.362  -2.138  1.00  0.00     0.061 C 
HETATM   42  C20 UNL     1       7.877  24.907  -3.215  1.00  0.00     0.046 C 
HETATM   43  C21 UNL     1       9.338  23.049  -2.602  1.00  0.00     0.046 C 
HETATM   44  C22 UNL     1       9.958  25.305  -2.023  1.00  0.00     0.046 C 
ENDBRANCH  40  41
ENDBRANCH  37  40
ENDBRANCH  31  36
ENDBRANCH   1  31
TORSDOF 18
ENDMDL
MODEL 3
REMARK VINA RESULT: -7.992691237      4.487     10.588
REMARK  18 active torsions:
REMARK  status: ('A' for Active; 'I' for Inactive)
REMARK    1  A    between atoms: N1_2  and  C2_4 
REMARK    2  A    between atoms: C2_4  and  C3_5 
REMARK    3  A    between atoms: C2_4  and  C23_37 
REMARK       I    between atoms: C3_5  and  N2_7 
REMARK    4  A    between atoms: N2_7  and  C4_8 
REMARK    5  A    between atoms: C4_8  and  C5_9 
REMARK    6  A    between atoms: C5_9  and  N3_10 
REMARK    7  A    between atoms: N3_10  and  C6_12 
REMARK    8  A    between atoms: C6_12  and  C7_13 
REMARK    9  A    between atoms: C6_12  and  C13_23 
REMARK   10  A    between atoms: C7_13  and  C8_15 
REMARK       I    between atoms: C8_15  and  N4_17 
REMARK   11  A    between atoms: N4_17  and  C9_19 
REMARK   12  A    between atoms: C9_19  and  C10_20 
REMARK   13  A    between atoms: C13_23  and  C14_24 
REMARK   14  A    between atoms: C13_23  and  N5_28 
REMARK   15  A    between atoms: C14_24  and  C15_25 
REMARK       I    between atoms: N5_28  and  C18_30 
REMARK   16  A    between atoms: C18_30  and  O5_32 
REMARK   17  A    between atoms: O5_32  and  C19_33 
REMARK   18  A    between atoms: C23_37  and  C25_39 
ROOT
HETATM    1  C6  UNL     1       8.487  26.076   0.595  1.00  0.00     0.180 C 
ENDROOT
BRANCH   1   2
HETATM    2  N3  UNL     1       9.042  24.830   0.330  1.00  0.00    -0.406 N 
ATOM      3  H3  UNL     1       9.612  24.471   1.097  1.00  0.00     0.154 HD
BRANCH   2   4
HETATM    4  C5  UNL     1       8.987  23.994  -0.727  1.00  0.00     0.148 C 
BRANCH   4   5
HETATM    5  C4  UNL     1       8.651  24.860  -2.040  1.00  0.00     0.240 C 
BRANCH   5   6
HETATM    6  N2  UNL     1       9.346  24.380  -3.099  1.00  0.00    -0.412 NA
HETATM    7  C3  UNL     1      10.052  23.882  -4.198  1.00  0.00     0.309 C 
HETATM    8  O1  UNL     1       9.490  23.343  -5.183  1.00  0.00    -0.255 OA
BRANCH   7   9
HETATM    9  C2  UNL     1      11.555  23.992  -4.166  1.00  0.00     0.188 C 
BRANCH   9  10
HETATM   10  N1  UNL     1      12.156  22.804  -4.752  1.00  0.00    -0.412 N 
HETATM   11  C1  UNL     1      13.483  22.483  -4.549  1.00  0.00     0.141 C 
ATOM     12  H1  UNL     1      11.580  22.190  -5.328  1.00  0.00     0.153 HD
ENDBRANCH   9  10
BRANCH   9  13
HETATM   13  C23 UNL     1      12.184  25.212  -4.669  1.00  0.00     0.018 C 
HETATM   14  C24 UNL     1      11.366  25.963  -5.730  1.00  0.00     0.013 C 
BRANCH  13  15
HETATM   15  C25 UNL     1      12.772  26.220  -3.749  1.00  0.00    -0.008 C 
HETATM   16  C26 UNL     1      12.607  27.664  -4.084  1.00  0.00     0.005 C 
HETATM   17  C27 UNL     1      13.932  28.334  -3.614  1.00  0.00     0.000 C 
HETATM   18  C28 UNL     1      14.509  27.596  -2.447  1.00  0.00     0.000 C 
HETATM   19  C29 UNL     1      13.476  26.967  -1.549  1.00  0.00     0.000 C 
HETATM   20  C30 UNL     1      12.498  26.064  -2.292  1.00  0.00     0.005 C 
ENDBRANCH  13  15
ENDBRANCH   9  13
ENDBRANCH   7   9
ENDBRANCH   5   6
ENDBRANCH   4   5
ENDBRANCH   2   4
ENDBRANCH   1   2
BRANCH   1  21
HETATM   21  C7  UNL     1       7.217  25.857   1.423  1.00  0.00     0.240 C 
HETATM   22  O2  UNL     1       6.089  26.084   0.842  1.00  0.00    -0.285 OA
BRANCH  21  23
HETATM   23  C8  UNL     1       7.192  25.426   2.773  1.00  0.00     0.289 C 
HETATM   24  O3  UNL     1       8.105  24.769   3.330  1.00  0.00    -0.264 OA
HETATM   25  N4  UNL     1       6.067  25.737   3.589  1.00  0.00    -0.354 N 
ATOM     26  H4  UNL     1       5.308  26.274   3.169  1.00  0.00     0.162 HD
BRANCH  25  27
HETATM   27  C9  UNL     1       5.928  25.346   4.968  1.00  0.00     0.126 C 
BRANCH  27  28
HETATM   28  C10 UNL     1       5.239  24.005   5.159  1.00  0.00    -0.005 C 
HETATM   29  C11 UNL     1       3.725  24.230   5.314  1.00  0.00     0.011 C 
HETATM   30  C12 UNL     1       5.722  23.366   6.433  1.00  0.00     0.011 C 
ENDBRANCH  27  28
ENDBRANCH  25  27
ENDBRANCH  21  23
ENDBRANCH   1  21
BRANCH   1  31
HETATM   31  C13 UNL     1       9.436  26.955   1.368  1.00  0.00     0.117 C 
BRANCH  31  32
HETATM   32  C14 UNL     1      10.550  27.545   0.462  1.00  0.00     0.031 C 
BRANCH  32  33
HETATM   33  C15 UNL     1      10.134  28.784  -0.262  1.00  0.00    -0.021 C 
HETATM   34  C16 UNL     1      11.410  29.648  -0.316  1.00  0.00     0.009 C 
HETATM   35  C17 UNL     1       9.835  28.442  -1.728  1.00  0.00     0.009 C 
ENDBRANCH  32  33
ENDBRANCH  31  32
BRANCH  31  36
HETATM   36  N5  UNL     1       8.866  28.172   1.939  1.00  0.00    -0.330 N 
HETATM   37  C18 UNL     1       9.014  28.495   3.307  1.00  0.00     0.361 C 
HETATM   38  O4  UNL     1       9.604  27.760   4.147  1.00  0.00    -0.238 OA
ATOM     39  H5  UNL     1       8.345  28.808   1.334  1.00  0.00     0.165 HD
BRANCH  37  40
HETATM   40  O5  UNL     1       8.496  29.701   3.757  1.00  0.00    -0.294 OA
BRANCH  40  41
HETATM   41  C19 UNL     1       9.003  30.980   3.616  1.00  0.00     0.061 C 
HETATM   42  C20 UNL     1      10.353  31.131   3.014  1.00  0.00     0.046 C 
HETATM   43  C21 UNL     1       8.958  31.749   4.920  1.00  0.00     0.046 C 
HETATM   44  C22 UNL     1       8.020  31.733   2.700  1.00  0.00     0.046 C 
ENDBRANCH  40  41
ENDBRANCH  37  40
ENDBRANCH  31  36
ENDBRANCH   1  31
TORSDOF 18
ENDMDL
MODEL 4
REMARK VINA RESULT: -7.921533497      3.768      6.452
REMARK  18 active torsions:
REMARK  status: ('A' for Active; 'I' for Inactive)
REMARK    1  A    between atoms: N1_2  and  C2_4 
REMARK    2  A    between atoms: C2_4  and  C3_5 
REMARK    3  A    between atoms: C2_4  and  C23_37 
REMARK       I    between atoms: C3_5  and  N2_7 
REMARK    4  A    between atoms: N2_7  and  C4_8 
REMARK    5  A    between atoms: C4_8  and  C5_9 
REMARK    6  A    between atoms: C5_9  and  N3_10 
REMARK    7  A    between atoms: N3_10  and  C6_12 
REMARK    8  A    between atoms: C6_12  and  C7_13 
REMARK    9  A    between atoms: C6_12  and  C13_23 
REMARK   10  A    between atoms: C7_13  and  C8_15 
REMARK       I    between atoms: C8_15  and  N4_17 
REMARK   11  A    between atoms: N4_17  and  C9_19 
REMARK   12  A    between atoms: C9_19  and  C10_20 
REMARK   13  A    between atoms: C13_23  and  C14_24 
REMARK   14  A    between atoms: C13_23  and  N5_28 
REMARK   15  A    between atoms: C14_24  and  C15_25 
REMARK       I    between atoms: N5_28  and  C18_30 
REMARK   16  A    between atoms: C18_30  and  O5_32 
REMARK   17  A    between atoms: O5_32  and  C19_33 
REMARK   18  A    between atoms: C23_37  and  C25_39 
ROOT
HETATM    1  C6  UNL     1       8.059  25.770   3.896  1.00  0.00     0.180 C 
ENDROOT
BRANCH   1   2
HETATM    2  N3  UNL     1       7.955  26.824   4.796  1.00  0.00    -0.406 N 
ATOM      3  H3  UNL     1       8.677  26.812   5.516  1.00  0.00     0.154 HD
BRANCH   2   4
HETATM    4  C5  UNL     1       7.099  27.859   4.919  1.00  0.00     0.148 C 
BRANCH   4   5
HETATM    5  C4  UNL     1       7.956  29.204   5.121  1.00  0.00     0.240 C 
BRANCH   5   6
HETATM    6  N2  UNL     1       7.346  30.239   4.495  1.00  0.00    -0.412 NA
HETATM    7  C3  UNL     1       6.718  31.313   3.858  1.00  0.00     0.309 C 
HETATM    8  O1  UNL     1       6.426  32.381   4.450  1.00  0.00    -0.255 OA
BRANCH   7   9
HETATM    9  C2  UNL     1       6.369  31.150   2.401  1.00  0.00     0.188 C 
BRANCH   9  10
HETATM   10  N1  UNL     1       4.958  31.434   2.190  1.00  0.00    -0.412 N 
HETATM   11  C1  UNL     1       4.528  32.626   1.642  1.00  0.00     0.141 C 
ATOM     12  H1  UNL     1       4.266  30.733   2.455  1.00  0.00     0.153 HD
ENDBRANCH   9  10
BRANCH   9  13
HETATM   13  C23 UNL     1       7.202  31.809   1.397  1.00  0.00     0.018 C 
HETATM   14  C24 UNL     1       8.458  32.492   1.957  1.00  0.00     0.013 C 
BRANCH  13  15
HETATM   15  C25 UNL     1       7.579  31.127   0.131  1.00  0.00    -0.008 C 
HETATM   16  C26 UNL     1       6.597  31.128  -0.991  1.00  0.00     0.005 C 
HETATM   17  C27 UNL     1       6.783  29.744  -1.682  1.00  0.00     0.000 C 
HETATM   18  C28 UNL     1       8.194  29.268  -1.535  1.00  0.00     0.000 C 
HETATM   19  C29 UNL     1       9.214  30.377  -1.500  1.00  0.00     0.000 C 
HETATM   20  C30 UNL     1       8.919  31.438  -0.445  1.00  0.00     0.005 C 
ENDBRANCH  13  15
ENDBRANCH   9  13
ENDBRANCH   7   9
ENDBRANCH   5   6
ENDBRANCH   4   5
ENDBRANCH   2   4
ENDBRANCH   1   2
BRANCH   1  21
HETATM   21  C7  UNL     1       6.712  25.041   3.869  1.00  0.00     0.240 C 
HETATM   22  O2  UNL     1       5.841  25.446   3.009  1.00  0.00    -0.285 OA
BRANCH  21  23
HETATM   23  C8  UNL     1       6.355  23.962   4.716  1.00  0.00     0.289 C 
HETATM   24  O3  UNL     1       6.992  22.884   4.805  1.00  0.00    -0.264 OA
HETATM   25  N4  UNL     1       5.196  24.068   5.537  1.00  0.00    -0.354 N 
ATOM     26  H4  UNL     1       4.658  24.932   5.491  1.00  0.00     0.162 HD
BRANCH  25  27
HETATM   27  C9  UNL     1       4.734  23.035   6.428  1.00  0.00     0.126 C 
BRANCH  27  28
HETATM   28  C10 UNL     1       3.226  22.851   6.424  1.00  0.00    -0.005 C 
HETATM   29  C11 UNL     1       2.581  23.958   5.571  1.00  0.00     0.011 C 
HETATM   30  C12 UNL     1       2.695  23.008   7.823  1.00  0.00     0.011 C 
ENDBRANCH  27  28
ENDBRANCH  25  27
ENDBRANCH  21  23
ENDBRANCH   1  21
BRANCH   1  31
HETATM   31  C13 UNL     1       8.389  26.255   2.508  1.00  0.00     0.117 C 
BRANCH  31  32
HETATM   32  C14 UNL     1       9.774  26.953   2.450  1.00  0.00     0.031 C 
BRANCH  32  33
HETATM   33  C15 UNL     1       9.822  28.102   1.496  1.00  0.00    -0.021 C 
HETATM   34  C16 UNL     1      10.210  29.313   2.369  1.00  0.00     0.009 C 
HETATM   35  C17 UNL     1      11.007  27.920   0.538  1.00  0.00     0.009 C 
ENDBRANCH  32  33
ENDBRANCH  31  32
BRANCH  31  36
HETATM   36  N5  UNL     1       8.552  25.223   1.487  1.00  0.00    -0.330 N 
HETATM   37  C18 UNL     1       7.873  25.284   0.249  1.00  0.00     0.361 C 
HETATM   38  O4  UNL     1       7.052  26.192  -0.063  1.00  0.00    -0.238 OA
ATOM     39  H5  UNL     1       9.174  24.436   1.673  1.00  0.00     0.165 HD
BRANCH  37  40
HETATM   40  O5  UNL     1       8.131  24.297  -0.690  1.00  0.00    -0.294 OA
BRANCH  40  41
HETATM   41  C19 UNL     1       8.824  24.383  -1.885  1.00  0.00     0.061 C 
HETATM   42  C20 UNL     1       9.313  23.120  -2.497  1.00  0.00     0.046 C 
HETATM   43  C21 UNL     1       9.973  25.364  -1.799  1.00  0.00     0.046 C 
HETATM   44  C22 UNL     1       7.855  25.023  -2.897  1.00  0.00     0.046 C 
ENDBRANCH  40  41
ENDBRANCH  37  40
ENDBRANCH  31  36
ENDBRANCH   1  31
TORSDOF 18
ENDMDL
MODEL 5
REMARK VINA RESULT: -7.849148759      4.295     11.136
REMARK  18 active torsions:
REMARK  status: ('A' for Active; 'I' for Inactive)
REMARK    1  A    between atoms: N1_2  and  C2_4 
REMARK    2  A    between atoms: C2_4  and  C3_5 
REMARK    3  A    between atoms: C2_4  and  C23_37 
REMARK       I    between atoms: C3_5  and  N2_7 
REMARK    4  A    between atoms: N2_7  and  C4_8 
REMARK    5  A    between atoms: C4_8  and  C5_9 
REMARK    6  A    between atoms: C5_9  and  N3_10 
REMARK    7  A    between atoms: N3_10  and  C6_12 
REMARK    8  A    between atoms: C6_12  and  C7_13 
REMARK    9  A    between atoms: C6_12  and  C13_23 
REMARK   10  A    between atoms: C7_13  and  C8_15 
REMARK       I    between atoms: C8_15  and  N4_17 
REMARK   11  A    between atoms: N4_17  and  C9_19 
REMARK   12  A    between atoms: C9_19  and  C10_20 
REMARK   13  A    between atoms: C13_23  and  C14_24 
REMARK   14  A    between atoms: C13_23  and  N5_28 
REMARK   15  A    between atoms: C14_24  and  C15_25 
REMARK       I    between atoms: N5_28  and  C18_30 
REMARK   16  A    between atoms: C18_30  and  O5_32 
REMARK   17  A    between atoms: O5_32  and  C19_33 
REMARK   18  A    between atoms: C23_37  and  C25_39 
ROOT
HETATM    1  C6  UNL     1       7.841  25.727   2.457  1.00  0.00     0.180 C 
ENDROOT
BRANCH   1   2
HETATM    2  N3  UNL     1       8.425  24.920   1.487  1.00  0.00    -0.406 N 
ATOM      3  H3  UNL     1       9.415  24.741   1.654  1.00  0.00     0.154 HD
BRANCH   2   4
HETATM    4  C5  UNL     1       7.958  24.324   0.371  1.00  0.00     0.148 C 
BRANCH   4   5
HETATM    5  C4  UNL     1       9.139  24.296  -0.720  1.00  0.00     0.240 C 
BRANCH   5   6
HETATM    6  N2  UNL     1       8.615  24.348  -1.969  1.00  0.00    -0.412 NA
HETATM    7  C3  UNL     1       8.066  24.409  -3.253  1.00  0.00     0.309 C 
HETATM    8  O1  UNL     1       6.985  24.995  -3.505  1.00  0.00    -0.255 OA
BRANCH   7   9
HETATM    9  C2  UNL     1       8.815  23.717  -4.363  1.00  0.00     0.188 C 
BRANCH   9  10
HETATM   10  N1  UNL     1       7.878  23.168  -5.331  1.00  0.00    -0.412 N 
HETATM   11  C1  UNL     1       8.040  21.906  -5.867  1.00  0.00     0.141 C 
ATOM     12  H1  UNL     1       7.079  23.731  -5.621  1.00  0.00     0.153 HD
ENDBRANCH   9  10
BRANCH   9  13
HETATM   13  C23 UNL     1       9.912  24.423  -5.022  1.00  0.00     0.018 C 
HETATM   14  C24 UNL     1      10.080  25.887  -4.592  1.00  0.00     0.013 C 
BRANCH  13  15
HETATM   15  C25 UNL     1      11.267  23.822  -5.134  1.00  0.00    -0.008 C 
HETATM   16  C26 UNL     1      11.720  23.347  -6.474  1.00  0.00     0.005 C 
HETATM   17  C27 UNL     1      12.576  22.080  -6.177  1.00  0.00     0.000 C 
HETATM   18  C28 UNL     1      13.231  22.190  -4.835  1.00  0.00     0.000 C 
HETATM   19  C29 UNL     1      13.583  23.601  -4.440  1.00  0.00     0.000 C 
HETATM   20  C30 UNL     1      12.402  24.563  -4.513  1.00  0.00     0.005 C 
ENDBRANCH  13  15
ENDBRANCH   9  13
ENDBRANCH   7   9
ENDBRANCH   5   6
ENDBRANCH   4   5
ENDBRANCH   2   4
ENDBRANCH   1   2
BRANCH   1  21
HETATM   21  C7  UNL     1       8.005  25.027   3.809  1.00  0.00     0.240 C 
HETATM   22  O2  UNL     1       9.106  24.386   4.011  1.00  0.00    -0.285 OA
BRANCH  21  23
HETATM   23  C8  UNL     1       7.040  25.030   4.848  1.00  0.00     0.289 C 
HETATM   24  O3  UNL     1       6.494  26.061   5.311  1.00  0.00    -0.264 OA
HETATM   25  N4  UNL     1       6.639  23.798   5.438  1.00  0.00    -0.354 N 
ATOM     26  H4  UNL     1       7.062  22.940   5.083  1.00  0.00     0.162 HD
BRANCH  25  27
HETATM   27  C9  UNL     1       5.676  23.681   6.502  1.00  0.00     0.126 C 
BRANCH  27  28
HETATM   28  C10 UNL     1       4.353  23.073   6.069  1.00  0.00    -0.005 C 
HETATM   29  C11 UNL     1       3.485  24.159   5.411  1.00  0.00     0.011 C 
HETATM   30  C12 UNL     1       3.604  22.582   7.278  1.00  0.00     0.011 C 
ENDBRANCH  27  28
ENDBRANCH  25  27
ENDBRANCH  21  23
ENDBRANCH   1  21
BRANCH   1  31
HETATM   31  C13 UNL     1       8.495  27.084   2.519  1.00  0.00     0.117 C 
BRANCH  31  32
HETATM   32  C14 UNL     1       9.054  27.522   1.139  1.00  0.00     0.031 C 
BRANCH  32  33
HETATM   33  C15 UNL     1      10.469  27.999   1.195  1.00  0.00    -0.021 C 
HETATM   34  C16 UNL     1      11.162  27.297   0.010  1.00  0.00     0.009 C 
HETATM   35  C17 UNL     1      10.518  29.492   0.842  1.00  0.00     0.009 C 
ENDBRANCH  32  33
ENDBRANCH  31  32
BRANCH  31  36
HETATM   36  N5  UNL     1       7.616  28.207   2.834  1.00  0.00    -0.330 N 
HETATM   37  C18 UNL     1       7.796  28.992   3.996  1.00  0.00     0.361 C 
HETATM   38  O4  UNL     1       8.686  28.774   4.865  1.00  0.00    -0.238 OA
ATOM     39  H5  UNL     1       6.850  28.432   2.198  1.00  0.00     0.165 HD
BRANCH  37  40
HETATM   40  O5  UNL     1       6.957  30.079   4.190  1.00  0.00    -0.294 OA
BRANCH  40  41
HETATM   41  C19 UNL     1       7.110  31.390   3.775  1.00  0.00     0.061 C 
HETATM   42  C20 UNL     1       8.272  31.713   2.906  1.00  0.00     0.046 C 
HETATM   43  C21 UNL     1       7.084  32.355   4.941  1.00  0.00     0.046 C 
HETATM   44  C22 UNL     1       5.842  31.736   2.970  1.00  0.00     0.046 C 
ENDBRANCH  40  41
ENDBRANCH  37  40
ENDBRANCH  31  36
ENDBRANCH   1  31
TORSDOF 18
ENDMDL
