MODEL 1
REMARK VINA RESULT: -7.677624615      0.000      0.000
REMARK  15 active torsions:
REMARK  status: ('A' for Active; 'I' for Inactive)
REMARK    1  A    between atoms: C2_2  and  C3_3 
REMARK    2  A    between atoms: C3_3  and  C5_5 
REMARK    3  A    between atoms: C5_5  and  N1_6 
REMARK    4  A    between atoms: C5_5  and  C16_24 
REMARK       I    between atoms: N1_6  and  C6_8 
REMARK    5  A    between atoms: C6_8  and  C7_10 
REMARK       I    between atoms: C7_10  and  N2_12 
REMARK    6  A    between atoms: N2_12  and  C8_14 
REMARK    7  A    between atoms: C8_14  and  C10_16 
REMARK    8  A    between atoms: C14_20  and  C15_21 
REMARK    9  A    between atoms: C16_24  and  C17_25 
REMARK   10  A    between atoms: C16_24  and  N3_32 
REMARK   11  A    between atoms: C17_25  and  C18_26 
REMARK       I    between atoms: N3_32  and  C24_34 
REMARK   12  A    between atoms: C24_34  and  C25_36 
REMARK   13  A    between atoms: C25_36  and  N4_39 
REMARK   14  A    between atoms: N4_39  and  C28_41 
REMARK   15  A    between atoms: C28_41  and  C29_42 
ROOT
HETATM    1  C5  UNL     1       8.437  27.043  -1.119  1.00  0.00     0.138 C 
ENDROOT
BRANCH   1   2
HETATM    2  C3  UNL     1       8.438  28.233  -2.059  1.00  0.00     0.010 C 
HETATM    3  C4  UNL     1       7.417  29.277  -1.866  1.00  0.00     0.012 C 
BRANCH   2   4
HETATM    4  C2  UNL     1       8.237  27.737  -3.499  1.00  0.00     0.002 C 
HETATM    5  C1  UNL     1       9.020  28.552  -4.493  1.00  0.00     0.005 C 
ENDBRANCH   2   4
ENDBRANCH   1   2
BRANCH   1   6
HETATM    6  N1  UNL     1       8.780  25.936  -2.084  1.00  0.00    -0.343 N 
HETATM    7  C6  UNL     1       8.582  24.587  -1.901  1.00  0.00     0.309 C 
HETATM    8  O1  UNL     1       8.082  24.083  -0.891  1.00  0.00    -0.262 OA
ATOM      9  H1  UNL     1       9.206  26.217  -2.967  1.00  0.00     0.163 HD
BRANCH   7  10
HETATM   10  C7  UNL     1       8.977  23.653  -2.956  1.00  0.00     0.309 C 
HETATM   11  O2  UNL     1       9.429  22.531  -2.608  1.00  0.00    -0.262 OA
HETATM   12  N2  UNL     1       8.864  23.982  -4.340  1.00  0.00    -0.348 N 
ATOM     13  H2  UNL     1       8.493  24.892  -4.616  1.00  0.00     0.163 HD
BRANCH  12  14
HETATM   14  C8  UNL     1       9.262  23.060  -5.325  1.00  0.00     0.085 C 
HETATM   15  C9  UNL     1       8.061  22.846  -6.260  1.00  0.00     0.032 C 
BRANCH  14  16
HETATM   16  C10 UNL     1      10.427  23.358  -6.175  1.00  0.00     0.022 C 
HETATM   17  C11 UNL     1      11.147  22.210  -6.796  1.00  0.00     0.007 C 
HETATM   18  C12 UNL     1      12.412  22.850  -7.336  1.00  0.00     0.001 C 
HETATM   19  C13 UNL     1      12.362  24.323  -6.953  1.00  0.00     0.016 C 
HETATM   20  C14 UNL     1      11.514  24.210  -5.634  1.00  0.00     0.093 C 
BRANCH  20  21
HETATM   21  C15 UNL     1      12.445  23.645  -4.680  1.00  0.00     0.177 C 
HETATM   22  O3  UNL     1      12.261  22.573  -4.088  1.00  0.00    -0.648 OA
HETATM   23  O4  UNL     1      13.614  24.347  -4.414  1.00  0.00    -0.648 OA
ENDBRANCH  20  21
ENDBRANCH  14  16
ENDBRANCH  12  14
ENDBRANCH   7  10
ENDBRANCH   1   6
BRANCH   1  24
HETATM   24  C16 UNL     1       9.536  27.052  -0.118  1.00  0.00     0.032 C 
BRANCH  24  25
HETATM   25  C17 UNL     1      10.904  26.646  -0.516  1.00  0.00     0.005 C 
BRANCH  25  26
HETATM   26  C18 UNL     1      12.088  27.466  -0.374  1.00  0.00     0.010 C 
HETATM   27  C19 UNL     1      13.385  27.189  -0.989  1.00  0.00     0.008 C 
HETATM   28  C20 UNL     1      13.517  27.576  -2.457  1.00  0.00     0.001 C 
HETATM   29  C21 UNL     1      13.307  29.088  -2.534  1.00  0.00     0.000 C 
HETATM   30  C22 UNL     1      11.848  29.282  -2.122  1.00  0.00     0.001 C 
HETATM   31  C23 UNL     1      11.687  28.924  -0.680  1.00  0.00     0.008 C 
ENDBRANCH  25  26
ENDBRANCH  24  25
BRANCH  24  32
HETATM   32  N3  UNL     1       9.234  26.446   1.194  1.00  0.00    -0.327 N 
HETATM   33  C24 UNL     1       8.503  27.146   2.181  1.00  0.00     0.249 C 
HETATM   34  O5  UNL     1       8.093  28.293   1.880  1.00  0.00    -0.270 OA
ATOM     35  H3  UNL     1       9.560  25.500   1.393  1.00  0.00     0.168 HD
BRANCH  33  36
HETATM   36  C25 UNL     1       8.183  26.638   3.559  1.00  0.00     0.104 C 
HETATM   37  C26 UNL     1       8.854  25.350   3.823  1.00  0.00     0.048 C 
HETATM   38  C27 UNL     1       8.711  27.694   4.574  1.00  0.00     0.048 C 
BRANCH  36  39
HETATM   39  N4  UNL     1       6.790  26.638   3.710  1.00  0.00    -0.379 N 
ATOM     40  H4  UNL     1       6.328  27.490   4.028  1.00  0.00     0.160 HD
BRANCH  39  41
HETATM   41  C28 UNL     1       6.021  25.520   3.442  1.00  0.00     0.134 C 
BRANCH  41  42
HETATM   42  C29 UNL     1       5.202  24.901   4.495  1.00  0.00     0.160 C 
HETATM   43  C30 UNL     1       5.851  24.303   5.723  1.00  0.00     0.097 C 
HETATM   44  O6  UNL     1       4.001  24.824   4.464  1.00  0.00    -0.292 OA
ENDBRANCH  41  42
ENDBRANCH  39  41
ENDBRANCH  36  39
ENDBRANCH  33  36
ENDBRANCH  24  32
ENDBRANCH   1  24
TORSDOF 15
ENDMDL
MODEL 2
REMARK VINA RESULT: -7.563628704      1.865      8.662
REMARK  15 active torsions:
REMARK  status: ('A' for Active; 'I' for Inactive)
REMARK    1  A    between atoms: C2_2  and  C3_3 
REMARK    2  A    between atoms: C3_3  and  C5_5 
REMARK    3  A    between atoms: C5_5  and  N1_6 
REMARK    4  A    between atoms: C5_5  and  C16_24 
REMARK       I    between atoms: N1_6  and  C6_8 
REMARK    5  A    between atoms: C6_8  and  C7_10 
REMARK       I    between atoms: C7_10  and  N2_12 
REMARK    6  A    between atoms: N2_12  and  C8_14 
REMARK    7  A    between atoms: C8_14  and  C10_16 
REMARK    8  A    between atoms: C14_20  and  C15_21 
REMARK    9  A    between atoms: C16_24  and  C17_25 
REMARK   10  A    between atoms: C16_24  and  N3_32 
REMARK   11  A    between atoms: C17_25  and  C18_26 
REMARK       I    between atoms: N3_32  and  C24_34 
REMARK   12  A    between atoms: C24_34  and  C25_36 
REMARK   13  A    between atoms: C25_36  and  N4_39 
REMARK   14  A    between atoms: N4_39  and  C28_41 
REMARK   15  A    between atoms: C28_41  and  C29_42 
ROOT
HETATM    1  C5  UNL     1      10.815  26.023  -1.641  1.00  0.00     0.138 C 
ENDROOT
BRANCH   1   2
HETATM    2  C3  UNL     1      11.689  27.203  -1.266  1.00  0.00     0.010 C 
HETATM    3  C4  UNL     1      13.130  26.971  -1.072  1.00  0.00     0.012 C 
BRANCH   2   4
HETATM    4  C2  UNL     1      11.194  27.792   0.063  1.00  0.00     0.002 C 
HETATM    5  C1  UNL     1      10.995  29.282  -0.017  1.00  0.00     0.005 C 
ENDBRANCH   2   4
ENDBRANCH   1   2
BRANCH   1   6
HETATM    6  N1  UNL     1       9.898  25.973  -0.445  1.00  0.00    -0.343 N 
HETATM    7  C6  UNL     1       9.070  24.938  -0.079  1.00  0.00     0.309 C 
HETATM    8  O1  UNL     1       8.957  23.877  -0.700  1.00  0.00    -0.262 OA
ATOM      9  H1  UNL     1       9.892  26.795   0.158  1.00  0.00     0.163 HD
BRANCH   7  10
HETATM   10  C7  UNL     1       8.248  25.067   1.125  1.00  0.00     0.309 C 
HETATM   11  O2  UNL     1       6.998  25.096   0.983  1.00  0.00    -0.262 OA
HETATM   12  N2  UNL     1       8.824  25.158   2.428  1.00  0.00    -0.348 N 
ATOM     13  H2  UNL     1       9.838  25.129   2.537  1.00  0.00     0.163 HD
BRANCH  12  14
HETATM   14  C8  UNL     1       8.000  25.287   3.561  1.00  0.00     0.085 C 
HETATM   15  C9  UNL     1       8.279  24.077   4.467  1.00  0.00     0.032 C 
BRANCH  14  16
HETATM   16  C10 UNL     1       8.102  26.493   4.402  1.00  0.00     0.022 C 
HETATM   17  C11 UNL     1       6.837  27.182   4.787  1.00  0.00     0.007 C 
HETATM   18  C12 UNL     1       7.325  28.491   5.377  1.00  0.00     0.001 C 
HETATM   19  C13 UNL     1       8.843  28.494   5.255  1.00  0.00     0.016 C 
HETATM   20  C14 UNL     1       8.993  27.598   3.971  1.00  0.00     0.093 C 
BRANCH  20  21
HETATM   21  C15 UNL     1       8.567  28.471   2.898  1.00  0.00     0.177 C 
HETATM   22  O3  UNL     1       7.883  28.097   1.935  1.00  0.00    -0.648 OA
HETATM   23  O4  UNL     1       8.946  29.805   2.951  1.00  0.00    -0.648 OA
ENDBRANCH  20  21
ENDBRANCH  14  16
ENDBRANCH  12  14
ENDBRANCH   7  10
ENDBRANCH   1   6
BRANCH   1  24
HETATM   24  C16 UNL     1       9.929  26.264  -2.810  1.00  0.00     0.032 C 
BRANCH  24  25
HETATM   25  C17 UNL     1       8.805  27.223  -2.703  1.00  0.00     0.005 C 
BRANCH  25  26
HETATM   26  C18 UNL     1       8.520  28.280  -3.650  1.00  0.00     0.010 C 
HETATM   27  C19 UNL     1       7.756  29.491  -3.359  1.00  0.00     0.008 C 
HETATM   28  C20 UNL     1       8.518  30.596  -2.637  1.00  0.00     0.001 C 
HETATM   29  C21 UNL     1       9.668  31.011  -3.555  1.00  0.00     0.000 C 
HETATM   30  C22 UNL     1      10.565  29.773  -3.609  1.00  0.00     0.001 C 
HETATM   31  C23 UNL     1       9.851  28.673  -4.325  1.00  0.00     0.008 C 
ENDBRANCH  25  26
ENDBRANCH  24  25
BRANCH  24  32
HETATM   32  N3  UNL     1       9.450  25.067  -3.530  1.00  0.00    -0.327 N 
HETATM   33  C24 UNL     1       9.960  24.716  -4.802  1.00  0.00     0.249 C 
HETATM   34  O5  UNL     1      10.861  25.449  -5.276  1.00  0.00    -0.270 OA
ATOM     35  H3  UNL     1       8.736  24.479  -3.101  1.00  0.00     0.168 HD
BRANCH  33  36
HETATM   36  C25 UNL     1       9.509  23.549  -5.635  1.00  0.00     0.104 C 
HETATM   37  C26 UNL     1       8.193  23.051  -5.189  1.00  0.00     0.048 C 
HETATM   38  C27 UNL     1       9.383  24.050  -7.103  1.00  0.00     0.048 C 
BRANCH  36  39
HETATM   39  N4  UNL     1      10.542  22.602  -5.650  1.00  0.00    -0.379 N 
ATOM     40  H4  UNL     1      10.631  21.958  -4.864  1.00  0.00     0.160 HD
BRANCH  39  41
HETATM   41  C28 UNL     1      11.443  22.511  -6.695  1.00  0.00     0.134 C 
BRANCH  41  42
HETATM   42  C29 UNL     1      12.879  22.735  -6.471  1.00  0.00     0.160 C 
HETATM   43  C30 UNL     1      13.464  22.640  -5.080  1.00  0.00     0.097 C 
HETATM   44  O6  UNL     1      13.668  23.002  -7.340  1.00  0.00    -0.292 OA
ENDBRANCH  41  42
ENDBRANCH  39  41
ENDBRANCH  36  39
ENDBRANCH  33  36
ENDBRANCH  24  32
ENDBRANCH   1  24
TORSDOF 15
ENDMDL
MODEL 3
REMARK VINA RESULT: -7.444263425      2.241      7.938
REMARK  15 active torsions:
REMARK  status: ('A' for Active; 'I' for Inactive)
REMARK    1  A    between atoms: C2_2  and  C3_3 
REMARK    2  A    between atoms: C3_3  and  C5_5 
REMARK    3  A    between atoms: C5_5  and  N1_6 
REMARK    4  A    between atoms: C5_5  and  C16_24 
REMARK       I    between atoms: N1_6  and  C6_8 
REMARK    5  A    between atoms: C6_8  and  C7_10 
REMARK       I    between atoms: C7_10  and  N2_12 
REMARK    6  A    between atoms: N2_12  and  C8_14 
REMARK    7  A    between atoms: C8_14  and  C10_16 
REMARK    8  A    between atoms: C14_20  and  C15_21 
REMARK    9  A    between atoms: C16_24  and  C17_25 
REMARK   10  A    between atoms: C16_24  and  N3_32 
REMARK   11  A    between atoms: C17_25  and  C18_26 
REMARK       I    between atoms: N3_32  and  C24_34 
REMARK   12  A    between atoms: C24_34  and  C25_36 
REMARK   13  A    between atoms: C25_36  and  N4_39 
REMARK   14  A    between atoms: N4_39  and  C28_41 
REMARK   15  A    between atoms: C28_41  and  C29_42 
ROOT
HETATM    1  C5  UNL     1      11.138  25.859  -1.488  1.00  0.00     0.138 C 
ENDROOT
BRANCH   1   2
HETATM    2  C3  UNL     1      11.837  27.180  -1.233  1.00  0.00     0.010 C 
HETATM    3  C4  UNL     1      13.301  27.177  -1.075  1.00  0.00     0.012 C 
BRANCH   2   4
HETATM    4  C2  UNL     1      11.294  27.793   0.067  1.00  0.00     0.002 C 
HETATM    5  C1  UNL     1      10.962  29.253  -0.091  1.00  0.00     0.005 C 
ENDBRANCH   2   4
ENDBRANCH   1   2
BRANCH   1   6
HETATM    6  N1  UNL     1      10.152  25.849  -0.347  1.00  0.00    -0.343 N 
HETATM    7  C6  UNL     1       9.200  24.893  -0.083  1.00  0.00     0.309 C 
HETATM    8  O1  UNL     1       9.014  23.882  -0.767  1.00  0.00    -0.262 OA
ATOM      9  H1  UNL     1      10.197  26.637   0.300  1.00  0.00     0.163 HD
BRANCH   7  10
HETATM   10  C7  UNL     1       8.326  25.049   1.081  1.00  0.00     0.309 C 
HETATM   11  O2  UNL     1       7.085  25.110   0.880  1.00  0.00    -0.262 OA
HETATM   12  N2  UNL     1       8.843  25.133   2.408  1.00  0.00    -0.348 N 
ATOM     13  H2  UNL     1       9.849  25.078   2.565  1.00  0.00     0.163 HD
BRANCH  12  14
HETATM   14  C8  UNL     1       7.971  25.290   3.501  1.00  0.00     0.085 C 
HETATM   15  C9  UNL     1       8.166  24.073   4.419  1.00  0.00     0.032 C 
BRANCH  14  16
HETATM   16  C10 UNL     1       8.071  26.492   4.347  1.00  0.00     0.022 C 
HETATM   17  C11 UNL     1       6.808  27.192   4.715  1.00  0.00     0.007 C 
HETATM   18  C12 UNL     1       7.300  28.495   5.316  1.00  0.00     0.001 C 
HETATM   19  C13 UNL     1       8.819  28.484   5.217  1.00  0.00     0.016 C 
HETATM   20  C14 UNL     1       8.979  27.590   3.932  1.00  0.00     0.093 C 
BRANCH  20  21
HETATM   21  C15 UNL     1       8.577  28.470   2.855  1.00  0.00     0.177 C 
HETATM   22  O3  UNL     1       7.951  28.094   1.855  1.00  0.00    -0.648 OA
HETATM   23  O4  UNL     1       8.912  29.814   2.950  1.00  0.00    -0.648 OA
ENDBRANCH  20  21
ENDBRANCH  14  16
ENDBRANCH  12  14
ENDBRANCH   7  10
ENDBRANCH   1   6
BRANCH   1  24
HETATM   24  C16 UNL     1      10.314  25.831  -2.724  1.00  0.00     0.032 C 
BRANCH  24  25
HETATM   25  C17 UNL     1      10.679  24.925  -3.838  1.00  0.00     0.005 C 
BRANCH  25  26
HETATM   26  C18 UNL     1      11.916  24.985  -4.587  1.00  0.00     0.010 C 
HETATM   27  C19 UNL     1      13.182  24.381  -4.177  1.00  0.00     0.008 C 
HETATM   28  C20 UNL     1      13.315  22.884  -4.434  1.00  0.00     0.001 C 
HETATM   29  C21 UNL     1      13.202  22.685  -5.945  1.00  0.00     0.000 C 
HETATM   30  C22 UNL     1      11.764  23.096  -6.267  1.00  0.00     0.001 C 
HETATM   31  C23 UNL     1      11.605  24.564  -6.039  1.00  0.00     0.008 C 
ENDBRANCH  25  26
ENDBRANCH  24  25
BRANCH  24  32
HETATM   32  N3  UNL     1       9.939  27.140  -3.294  1.00  0.00    -0.327 N 
HETATM   33  C24 UNL     1       8.702  27.754  -2.988  1.00  0.00     0.249 C 
HETATM   34  O5  UNL     1       7.952  27.150  -2.184  1.00  0.00    -0.270 OA
ATOM     35  H3  UNL     1      10.588  27.614  -3.924  1.00  0.00     0.168 HD
BRANCH  33  36
HETATM   36  C25 UNL     1       8.208  29.057  -3.549  1.00  0.00     0.104 C 
HETATM   37  C26 UNL     1       8.336  30.146  -2.561  1.00  0.00     0.048 C 
HETATM   38  C27 UNL     1       9.095  29.396  -4.782  1.00  0.00     0.048 C 
BRANCH  36  39
HETATM   39  N4  UNL     1       6.920  28.851  -4.059  1.00  0.00    -0.379 N 
ATOM     40  H4  UNL     1       6.116  29.072  -3.472  1.00  0.00     0.160 HD
BRANCH  39  41
HETATM   41  C28 UNL     1       6.702  28.357  -5.332  1.00  0.00     0.134 C 
BRANCH  41  42
HETATM   42  C29 UNL     1       6.148  27.009  -5.531  1.00  0.00     0.160 C 
HETATM   43  C30 UNL     1       7.063  25.821  -5.721  1.00  0.00     0.097 C 
HETATM   44  O6  UNL     1       4.971  26.757  -5.559  1.00  0.00    -0.292 OA
ENDBRANCH  41  42
ENDBRANCH  39  41
ENDBRANCH  36  39
ENDBRANCH  33  36
ENDBRANCH  24  32
ENDBRANCH   1  24
TORSDOF 15
ENDMDL
MODEL 4
REMARK VINA RESULT: -7.426547556      3.054      7.519
REMARK  15 active torsions:
REMARK  status: ('A' for Active; 'I' for Inactive)
REMARK    1  A    between atoms: C2_2  and  C3_3 
REMARK    2  A    between atoms: C3_3  and  C5_5 
REMARK    3  A    between atoms: C5_5  and  N1_6 
REMARK    4  A    between atoms: C5_5  and  C16_24 
REMARK       I    between atoms: N1_6  and  C6_8 
REMARK    5  A    between atoms: C6_8  and  C7_10 
REMARK       I    between atoms: C7_10  and  N2_12 
REMARK    6  A    between atoms: N2_12  and  C8_14 
REMARK    7  A    between atoms: C8_14  and  C10_16 
REMARK    8  A    between atoms: C14_20  and  C15_21 
REMARK    9  A    between atoms: C16_24  and  C17_25 
REMARK   10  A    between atoms: C16_24  and  N3_32 
REMARK   11  A    between atoms: C17_25  and  C18_26 
REMARK       I    between atoms: N3_32  and  C24_34 
REMARK   12  A    between atoms: C24_34  and  C25_36 
REMARK   13  A    between atoms: C25_36  and  N4_39 
REMARK   14  A    between atoms: N4_39  and  C28_41 
REMARK   15  A    between atoms: C28_41  and  C29_42 
ROOT
HETATM    1  C5  UNL     1       8.721  26.984  -1.912  1.00  0.00     0.138 C 
ENDROOT
BRANCH   1   2
HETATM    2  C3  UNL     1       9.595  25.873  -2.458  1.00  0.00     0.010 C 
HETATM    3  C4  UNL     1       9.422  25.476  -3.866  1.00  0.00     0.012 C 
BRANCH   2   4
HETATM    4  C2  UNL     1       9.345  24.592  -1.647  1.00  0.00     0.002 C 
HETATM    5  C1  UNL     1       9.320  23.366  -2.519  1.00  0.00     0.005 C 
ENDBRANCH   2   4
ENDBRANCH   1   2
BRANCH   1   6
HETATM    6  N1  UNL     1       8.913  26.777  -0.430  1.00  0.00    -0.343 N 
HETATM    7  C6  UNL     1       8.013  27.063   0.570  1.00  0.00     0.309 C 
HETATM    8  O1  UNL     1       6.892  27.546   0.386  1.00  0.00    -0.262 OA
ATOM      9  H1  UNL     1       9.806  26.381  -0.138  1.00  0.00     0.163 HD
BRANCH   7  10
HETATM   10  C7  UNL     1       8.374  26.790   1.961  1.00  0.00     0.309 C 
HETATM   11  O2  UNL     1       9.578  26.523   2.215  1.00  0.00    -0.262 OA
HETATM   12  N2  UNL     1       7.409  26.818   3.013  1.00  0.00    -0.348 N 
ATOM     13  H2  UNL     1       6.436  27.039   2.802  1.00  0.00     0.163 HD
BRANCH  12  14
HETATM   14  C8  UNL     1       7.794  26.542   4.337  1.00  0.00     0.085 C 
HETATM   15  C9  UNL     1       7.215  27.659   5.222  1.00  0.00     0.032 C 
BRANCH  14  16
HETATM   16  C10 UNL     1       7.416  25.260   4.955  1.00  0.00     0.022 C 
HETATM   17  C11 UNL     1       7.640  24.014   4.167  1.00  0.00     0.007 C 
HETATM   18  C12 UNL     1       6.892  22.964   4.965  1.00  0.00     0.001 C 
HETATM   19  C13 UNL     1       6.244  23.679   6.143  1.00  0.00     0.016 C 
HETATM   20  C14 UNL     1       6.043  25.097   5.494  1.00  0.00     0.093 C 
BRANCH  20  21
HETATM   21  C15 UNL     1       4.942  24.897   4.576  1.00  0.00     0.177 C 
HETATM   22  O3  UNL     1       4.882  25.409   3.450  1.00  0.00    -0.648 OA
HETATM   23  O4  UNL     1       3.893  24.082   4.981  1.00  0.00    -0.648 OA
ENDBRANCH  20  21
ENDBRANCH  14  16
ENDBRANCH  12  14
ENDBRANCH   7  10
ENDBRANCH   1   6
BRANCH   1  24
HETATM   24  C16 UNL     1       9.228  28.354  -2.189  1.00  0.00     0.032 C 
BRANCH  24  25
HETATM   25  C17 UNL     1      10.619  28.549  -2.659  1.00  0.00     0.005 C 
BRANCH  25  26
HETATM   26  C18 UNL     1      11.751  28.843  -1.806  1.00  0.00     0.010 C 
HETATM   27  C19 UNL     1      12.168  28.050  -0.652  1.00  0.00     0.008 C 
HETATM   28  C20 UNL     1      12.968  26.792  -0.968  1.00  0.00     0.001 C 
HETATM   29  C21 UNL     1      14.246  27.248  -1.673  1.00  0.00     0.000 C 
HETATM   30  C22 UNL     1      13.750  27.839  -2.993  1.00  0.00     0.001 C 
HETATM   31  C23 UNL     1      12.972  29.085  -2.718  1.00  0.00     0.008 C 
ENDBRANCH  25  26
ENDBRANCH  24  25
BRANCH  24  32
HETATM   32  N3  UNL     1       8.933  29.382  -1.170  1.00  0.00    -0.327 N 
HETATM   33  C24 UNL     1       7.788  30.206  -1.261  1.00  0.00     0.249 C 
HETATM   34  O5  UNL     1       7.015  30.001  -2.229  1.00  0.00    -0.270 OA
ATOM     35  H3  UNL     1       9.571  29.501  -0.383  1.00  0.00     0.168 HD
BRANCH  33  36
HETATM   36  C25 UNL     1       7.422  31.308  -0.307  1.00  0.00     0.104 C 
HETATM   37  C26 UNL     1       8.351  32.449  -0.427  1.00  0.00     0.048 C 
HETATM   38  C27 UNL     1       5.990  31.788  -0.682  1.00  0.00     0.048 C 
BRANCH  36  39
HETATM   39  N4  UNL     1       7.308  30.752   0.974  1.00  0.00    -0.379 N 
ATOM     40  H4  UNL     1       6.689  29.954   1.112  1.00  0.00     0.160 HD
BRANCH  39  41
HETATM   41  C28 UNL     1       8.007  31.251   2.058  1.00  0.00     0.134 C 
BRANCH  41  42
HETATM   42  C29 UNL     1       9.075  30.462   2.691  1.00  0.00     0.160 C 
HETATM   43  C30 UNL     1      10.270  30.000   1.888  1.00  0.00     0.097 C 
HETATM   44  O6  UNL     1       9.081  30.135   3.850  1.00  0.00    -0.292 OA
ENDBRANCH  41  42
ENDBRANCH  39  41
ENDBRANCH  36  39
ENDBRANCH  33  36
ENDBRANCH  24  32
ENDBRANCH   1  24
TORSDOF 15
ENDMDL
MODEL 5
REMARK VINA RESULT: -7.342030434      2.179      7.872
REMARK  15 active torsions:
REMARK  status: ('A' for Active; 'I' for Inactive)
REMARK    1  A    between atoms: C2_2  and  C3_3 
REMARK    2  A    between atoms: C3_3  and  C5_5 
REMARK    3  A    between atoms: C5_5  and  N1_6 
REMARK    4  A    between atoms: C5_5  and  C16_24 
REMARK       I    between atoms: N1_6  and  C6_8 
REMARK    5  A    between atoms: C6_8  and  C7_10 
REMARK       I    between atoms: C7_10  and  N2_12 
REMARK    6  A    between atoms: N2_12  and  C8_14 
REMARK    7  A    between atoms: C8_14  and  C10_16 
REMARK    8  A    between atoms: C14_20  and  C15_21 
REMARK    9  A    between atoms: C16_24  and  C17_25 
REMARK   10  A    between atoms: C16_24  and  N3_32 
REMARK   11  A    between atoms: C17_25  and  C18_26 
REMARK       I    between atoms: N3_32  and  C24_34 
REMARK   12  A    between atoms: C24_34  and  C25_36 
REMARK   13  A    between atoms: C25_36  and  N4_39 
REMARK   14  A    between atoms: N4_39  and  C28_41 
REMARK   15  A    between atoms: C28_41  and  C29_42 
ROOT
HETATM    1  C5  UNL     1      10.920  25.612  -1.541  1.00  0.00     0.138 C 
ENDROOT
BRANCH   1   2
HETATM    2  C3  UNL     1      11.532  26.998  -1.507  1.00  0.00     0.010 C 
HETATM    3  C4  UNL     1      12.979  27.129  -1.750  1.00  0.00     0.012 C 
BRANCH   2   4
HETATM    4  C2  UNL     1      11.299  27.617  -0.121  1.00  0.00     0.002 C 
HETATM    5  C1  UNL     1      11.316  29.122  -0.162  1.00  0.00     0.005 C 
ENDBRANCH   2   4
ENDBRANCH   1   2
BRANCH   1   6
HETATM    6  N1  UNL     1       9.913  25.733  -0.424  1.00  0.00    -0.343 N 
HETATM    7  C6  UNL     1       8.871  24.878  -0.152  1.00  0.00     0.309 C 
HETATM    8  O1  UNL     1       8.606  23.865  -0.807  1.00  0.00    -0.262 OA
ATOM      9  H1  UNL     1      10.017  26.535   0.197  1.00  0.00     0.163 HD
BRANCH   7  10
HETATM   10  C7  UNL     1       7.992  25.155   0.984  1.00  0.00     0.309 C 
HETATM   11  O2  UNL     1       6.793  25.452   0.741  1.00  0.00    -0.262 OA
HETATM   12  N2  UNL     1       8.456  25.097   2.332  1.00  0.00    -0.348 N 
ATOM     13  H2  UNL     1       9.428  24.851   2.523  1.00  0.00     0.163 HD
BRANCH  12  14
HETATM   14  C8  UNL     1       7.582  25.377   3.398  1.00  0.00     0.085 C 
HETATM   15  C9  UNL     1       7.501  24.111   4.266  1.00  0.00     0.032 C 
BRANCH  14  16
HETATM   16  C10 UNL     1       7.870  26.505   4.301  1.00  0.00     0.022 C 
HETATM   17  C11 UNL     1       6.734  27.380   4.706  1.00  0.00     0.007 C 
HETATM   18  C12 UNL     1       7.426  28.556   5.369  1.00  0.00     0.001 C 
HETATM   19  C13 UNL     1       8.924  28.306   5.264  1.00  0.00     0.016 C 
HETATM   20  C14 UNL     1       8.944  27.462   3.937  1.00  0.00     0.093 C 
BRANCH  20  21
HETATM   21  C15 UNL     1       8.694  28.445   2.905  1.00  0.00     0.177 C 
HETATM   22  O3  UNL     1       7.886  28.285   1.981  1.00  0.00    -0.648 OA
HETATM   23  O4  UNL     1       9.401  29.639   2.956  1.00  0.00    -0.648 OA
ENDBRANCH  20  21
ENDBRANCH  14  16
ENDBRANCH  12  14
ENDBRANCH   7  10
ENDBRANCH   1   6
BRANCH   1  24
HETATM   24  C16 UNL     1      10.124  25.323  -2.762  1.00  0.00     0.032 C 
BRANCH  24  25
HETATM   25  C17 UNL     1      10.620  24.343  -3.756  1.00  0.00     0.005 C 
BRANCH  25  26
HETATM   26  C18 UNL     1      11.751  24.550  -4.636  1.00  0.00     0.010 C 
HETATM   27  C19 UNL     1      13.089  23.998  -4.436  1.00  0.00     0.008 C 
HETATM   28  C20 UNL     1      13.271  22.542  -4.847  1.00  0.00     0.001 C 
HETATM   29  C21 UNL     1      12.985  22.469  -6.347  1.00  0.00     0.000 C 
HETATM   30  C22 UNL     1      11.498  22.810  -6.458  1.00  0.00     0.001 C 
HETATM   31  C23 UNL     1      11.287  24.239  -6.074  1.00  0.00     0.008 C 
ENDBRANCH  25  26
ENDBRANCH  24  25
BRANCH  24  32
HETATM   32  N3  UNL     1       9.590  26.492  -3.490  1.00  0.00    -0.327 N 
HETATM   33  C24 UNL     1       8.275  26.501  -4.011  1.00  0.00     0.249 C 
HETATM   34  O5  UNL     1       7.572  25.484  -3.799  1.00  0.00    -0.270 OA
ATOM     35  H3  UNL     1      10.182  27.312  -3.619  1.00  0.00     0.168 HD
BRANCH  33  36
HETATM   36  C25 UNL     1       7.654  27.617  -4.803  1.00  0.00     0.104 C 
HETATM   37  C26 UNL     1       8.645  28.261  -5.688  1.00  0.00     0.048 C 
HETATM   38  C27 UNL     1       6.532  26.992  -5.681  1.00  0.00     0.048 C 
BRANCH  36  39
HETATM   39  N4  UNL     1       6.997  28.472  -3.908  1.00  0.00    -0.379 N 
ATOM     40  H4  UNL     1       5.986  28.390  -3.800  1.00  0.00     0.160 HD
BRANCH  39  41
HETATM   41  C28 UNL     1       7.675  29.422  -3.165  1.00  0.00     0.134 C 
BRANCH  41  42
HETATM   42  C29 UNL     1       7.869  29.245  -1.718  1.00  0.00     0.160 C 
HETATM   43  C30 UNL     1       7.851  30.437  -0.788  1.00  0.00     0.097 C 
HETATM   44  O6  UNL     1       8.052  28.182  -1.182  1.00  0.00    -0.292 OA
ENDBRANCH  41  42
ENDBRANCH  39  41
ENDBRANCH  36  39
ENDBRANCH  33  36
ENDBRANCH  24  32
ENDBRANCH   1  24
TORSDOF 15
ENDMDL
