MODEL 1
REMARK VINA RESULT: -8.360845739      0.000      0.000
REMARK  15 active torsions:
REMARK  status: ('A' for Active; 'I' for Inactive)
REMARK    1  A    between atoms: C2_2  and  C3_3 
REMARK    2  A    between atoms: C4_4  and  C5_5 
REMARK    3  A    between atoms: C5_5  and  N1_6 
REMARK    4  A    between atoms: C5_5  and  C6_10 
REMARK       I    between atoms: C6_10  and  N2_12 
REMARK    5  A    between atoms: C10_16  and  N3_17 
REMARK       I    between atoms: N3_17  and  C11_19 
REMARK    6  A    between atoms: C11_19  and  C12_21 
REMARK    7  A    between atoms: C12_21  and  C13_22 
REMARK    8  A    between atoms: C12_21  and  C18_30 
REMARK    9  A    between atoms: C13_22  and  C14_23 
REMARK       I    between atoms: C18_30  and  N5_32 
REMARK   10  A    between atoms: N5_32  and  C19_34 
REMARK   11  A    between atoms: C19_34  and  C20_35 
REMARK   12  A    between atoms: C19_34  and  C27_42 
REMARK   13  A    between atoms: C20_35  and  C21_36 
REMARK   14  A    between atoms: C27_42  and  O4_43 
REMARK   15  A    between atoms: C27_42  and  C28_45 
ROOT
HETATM    1  C12 UNL     1       8.669  26.438   2.668  1.00  0.00     0.171 C 
ENDROOT
BRANCH   1   2
HETATM    2  C11 UNL     1       8.069  26.082   3.969  1.00  0.00     0.231 C 
HETATM    3  N3  UNL     1       6.885  25.315   4.034  1.00  0.00    -0.347 N 
ATOM      4  H3  UNL     1       6.446  25.009   3.166  1.00  0.00     0.163 HD
HETATM    5  O2  UNL     1       8.631  26.476   5.017  1.00  0.00    -0.273 OA
BRANCH   3   6
HETATM    6  C10 UNL     1       6.270  24.946   5.311  1.00  0.00     0.177 C 
HETATM    7  C9  UNL     1       7.240  24.156   6.128  1.00  0.00     0.036 C 
HETATM    8  C8  UNL     1       6.994  22.674   6.029  1.00  0.00     0.023 C 
HETATM    9  C7  UNL     1       5.608  22.277   6.498  1.00  0.00     0.135 C 
HETATM   10  N2  UNL     1       4.582  23.108   5.947  1.00  0.00    -0.285 N 
HETATM   11  C6  UNL     1       3.197  22.973   6.152  1.00  0.00     0.260 C 
HETATM   12  C31 UNL     1       4.996  24.197   5.098  1.00  0.00     0.249 C 
HETATM   13  O1  UNL     1       2.338  23.755   5.618  1.00  0.00    -0.270 OA
HETATM   14  O5  UNL     1       4.253  24.537   4.131  1.00  0.00    -0.271 OA
BRANCH  11  15
HETATM   15  C5  UNL     1       2.541  21.917   7.009  1.00  0.00     0.297 C 
BRANCH  15  16
HETATM   16  C4  UNL     1       1.114  21.761   6.644  1.00  0.00     0.011 C 
HETATM   17  C3  UNL     1      -0.017  22.171   7.431  1.00  0.00    -0.028 C 
BRANCH  17  18
HETATM   18  C2  UNL     1      -0.321  23.522   7.898  1.00  0.00     0.022 C 
HETATM   19  C1  UNL     1      -1.003  24.461   6.961  1.00  0.00     0.009 C 
ENDBRANCH  17  18
ENDBRANCH  15  16
BRANCH  15  20
HETATM   20  N1  UNL     1       2.808  22.042   8.358  1.00  0.00    -0.063 N 
ATOM     21  H13 UNL     1       2.108  22.643   8.796  1.00  0.00     0.275 HD
ATOM     22  H12 UNL     1       2.615  21.161   8.833  1.00  0.00     0.275 HD
ATOM     23  H11 UNL     1       3.744  22.368   8.598  1.00  0.00     0.275 HD
ENDBRANCH  15  20
ENDBRANCH  11  15
ENDBRANCH   3   6
ENDBRANCH   1   2
BRANCH   1  24
HETATM   24  C13 UNL     1       7.951  25.717   1.521  1.00  0.00     0.056 C 
BRANCH  24  25
HETATM   25  C14 UNL     1       9.000  25.240   0.527  1.00  0.00     0.187 C 
HETATM   26  C15 UNL     1       8.716  25.803  -0.855  1.00  0.00     0.034 C 
HETATM   27  C16 UNL     1       9.038  24.685  -1.801  1.00  0.00     0.029 C 
HETATM   28  C17 UNL     1       9.288  23.461  -0.947  1.00  0.00     0.233 C 
HETATM   29  N4  UNL     1       8.918  23.811   0.403  1.00  0.00    -0.071 N 
ATOM     30  H42 UNL     1       9.473  23.321   1.104  1.00  0.00     0.277 HD
ATOM     31  H41 UNL     1       8.005  23.443   0.670  1.00  0.00     0.277 HD
ENDBRANCH  24  25
ENDBRANCH   1  24
BRANCH   1  32
HETATM   32  C18 UNL     1       8.517  27.892   2.362  1.00  0.00     0.231 C 
HETATM   33  O3  UNL     1       9.101  28.353   1.370  1.00  0.00    -0.273 OA
HETATM   34  N5  UNL     1       7.728  28.736   3.178  1.00  0.00    -0.353 N 
ATOM     35  H5  UNL     1       7.249  28.353   3.993  1.00  0.00     0.163 HD
BRANCH  34  36
HETATM   36  C19 UNL     1       7.599  30.148   2.859  1.00  0.00     0.114 C 
BRANCH  36  37
HETATM   37  C20 UNL     1       7.490  30.993   4.090  1.00  0.00     0.032 C 
BRANCH  37  38
HETATM   38  C21 UNL     1       8.711  31.833   4.268  1.00  0.00    -0.013 C 
HETATM   39  C22 UNL     1       9.133  31.891   5.745  1.00  0.00     0.005 C 
HETATM   40  C23 UNL     1       9.984  33.130   5.901  1.00  0.00     0.000 C 
HETATM   41  C24 UNL     1      10.774  33.373   4.635  1.00  0.00     0.000 C 
HETATM   42  C25 UNL     1      11.128  32.095   3.931  1.00  0.00     0.000 C 
HETATM   43  C26 UNL     1       9.904  31.308   3.516  1.00  0.00     0.005 C 
ENDBRANCH  37  38
ENDBRANCH  36  37
BRANCH  36  44
HETATM   44  C27 UNL     1       6.464  30.338   1.878  1.00  0.00     0.144 C 
BRANCH  44  45
HETATM   45  O4  UNL     1       5.584  31.253   2.505  1.00  0.00    -0.393 OA
ATOM     46  H4  UNL     1       5.123  30.744   3.161  1.00  0.00     0.210 HD
ENDBRANCH  44  45
BRANCH  44  47
HETATM   47  C28 UNL     1       6.896  30.858   0.550  1.00  0.00     0.016 A 
HETATM   48  C29 UNL     1       6.542  29.935  -0.607  1.00  0.00     0.007 A 
HETATM   49  C30 UNL     1       5.865  31.250  -0.481  1.00  0.00     0.007 A 
ENDBRANCH  44  47
ENDBRANCH  36  44
ENDBRANCH  34  36
ENDBRANCH   1  32
TORSDOF 15
ENDMDL
MODEL 2
REMARK VINA RESULT: -8.358346099      1.227      1.660
REMARK  15 active torsions:
REMARK  status: ('A' for Active; 'I' for Inactive)
REMARK    1  A    between atoms: C2_2  and  C3_3 
REMARK    2  A    between atoms: C4_4  and  C5_5 
REMARK    3  A    between atoms: C5_5  and  N1_6 
REMARK    4  A    between atoms: C5_5  and  C6_10 
REMARK       I    between atoms: C6_10  and  N2_12 
REMARK    5  A    between atoms: C10_16  and  N3_17 
REMARK       I    between atoms: N3_17  and  C11_19 
REMARK    6  A    between atoms: C11_19  and  C12_21 
REMARK    7  A    between atoms: C12_21  and  C13_22 
REMARK    8  A    between atoms: C12_21  and  C18_30 
REMARK    9  A    between atoms: C13_22  and  C14_23 
REMARK       I    between atoms: C18_30  and  N5_32 
REMARK   10  A    between atoms: N5_32  and  C19_34 
REMARK   11  A    between atoms: C19_34  and  C20_35 
REMARK   12  A    between atoms: C19_34  and  C27_42 
REMARK   13  A    between atoms: C20_35  and  C21_36 
REMARK   14  A    between atoms: C27_42  and  O4_43 
REMARK   15  A    between atoms: C27_42  and  C28_45 
ROOT
HETATM    1  C12 UNL     1       8.600  26.302   3.236  1.00  0.00     0.171 C 
ENDROOT
BRANCH   1   2
HETATM    2  C11 UNL     1       7.848  25.935   4.453  1.00  0.00     0.231 C 
HETATM    3  N3  UNL     1       6.742  25.060   4.384  1.00  0.00    -0.347 N 
ATOM      4  H3  UNL     1       6.466  24.683   3.478  1.00  0.00     0.163 HD
HETATM    5  O2  UNL     1       8.212  26.417   5.551  1.00  0.00    -0.273 OA
BRANCH   3   6
HETATM    6  C10 UNL     1       5.981  24.677   5.576  1.00  0.00     0.177 C 
HETATM    7  C9  UNL     1       6.798  23.753   6.420  1.00  0.00     0.036 C 
HETATM    8  C8  UNL     1       6.431  22.309   6.203  1.00  0.00     0.023 C 
HETATM    9  C7  UNL     1       4.977  22.019   6.522  1.00  0.00     0.135 C 
HETATM   10  N2  UNL     1       4.085  22.974   5.941  1.00  0.00    -0.285 N 
HETATM   11  C6  UNL     1       2.680  22.959   6.015  1.00  0.00     0.260 C 
HETATM   12  C31 UNL     1       4.671  24.066   5.205  1.00  0.00     0.249 C 
HETATM   13  O1  UNL     1       1.948  23.849   5.462  1.00  0.00    -0.270 OA
HETATM   14  O5  UNL     1       4.054  24.531   4.201  1.00  0.00    -0.271 OA
BRANCH  11  15
HETATM   15  C5  UNL     1       1.857  21.922   6.740  1.00  0.00     0.297 C 
BRANCH  15  16
HETATM   16  C4  UNL     1       1.069  22.549   7.828  1.00  0.00     0.011 C 
HETATM   17  C3  UNL     1      -0.349  22.430   8.030  1.00  0.00    -0.028 C 
BRANCH  17  18
HETATM   18  C2  UNL     1      -1.109  21.199   8.237  1.00  0.00     0.022 C 
HETATM   19  C1  UNL     1      -2.436  21.062   7.570  1.00  0.00     0.009 C 
ENDBRANCH  17  18
ENDBRANCH  15  16
BRANCH  15  20
HETATM   20  N1  UNL     1       2.561  20.785   7.085  1.00  0.00    -0.063 N 
ATOM     21  H13 UNL     1       3.132  20.967   7.910  1.00  0.00     0.275 HD
ATOM     22  H12 UNL     1       1.923  20.081   7.455  1.00  0.00     0.275 HD
ATOM     23  H11 UNL     1       3.135  20.378   6.348  1.00  0.00     0.275 HD
ENDBRANCH  15  20
ENDBRANCH  11  15
ENDBRANCH   3   6
ENDBRANCH   1   2
BRANCH   1  24
HETATM   24  C13 UNL     1       7.870  25.818   1.978  1.00  0.00     0.056 C 
BRANCH  24  25
HETATM   25  C14 UNL     1       8.913  25.432   0.940  1.00  0.00     0.187 C 
HETATM   26  C15 UNL     1       8.606  26.093  -0.392  1.00  0.00     0.034 C 
HETATM   27  C16 UNL     1       8.932  25.054  -1.424  1.00  0.00     0.029 C 
HETATM   28  C17 UNL     1       9.208  23.772  -0.667  1.00  0.00     0.233 C 
HETATM   29  N4  UNL     1       8.849  24.015   0.709  1.00  0.00    -0.071 N 
ATOM     30  H42 UNL     1       9.418  23.481   1.366  1.00  0.00     0.277 HD
ATOM     31  H41 UNL     1       7.943  23.615   0.958  1.00  0.00     0.277 HD
ENDBRANCH  24  25
ENDBRANCH   1  24
BRANCH   1  32
HETATM   32  C18 UNL     1       8.707  27.782   3.072  1.00  0.00     0.231 C 
HETATM   33  O3  UNL     1       9.680  28.366   3.573  1.00  0.00    -0.273 OA
HETATM   34  N5  UNL     1       7.727  28.516   2.363  1.00  0.00    -0.353 N 
ATOM     35  H5  UNL     1       6.928  28.033   1.951  1.00  0.00     0.163 HD
BRANCH  34  36
HETATM   36  C19 UNL     1       7.854  29.957   2.220  1.00  0.00     0.114 C 
BRANCH  36  37
HETATM   37  C20 UNL     1       6.790  30.691   2.974  1.00  0.00     0.032 C 
BRANCH  37  38
HETATM   38  C21 UNL     1       7.331  31.249   4.248  1.00  0.00    -0.013 C 
HETATM   39  C22 UNL     1       7.242  30.220   5.386  1.00  0.00     0.005 C 
HETATM   40  C23 UNL     1       7.287  31.001   6.679  1.00  0.00     0.000 C 
HETATM   41  C24 UNL     1       8.168  32.219   6.512  1.00  0.00     0.000 C 
HETATM   42  C25 UNL     1       9.287  31.983   5.538  1.00  0.00     0.000 C 
HETATM   43  C26 UNL     1       8.783  31.637   4.154  1.00  0.00     0.005 C 
ENDBRANCH  37  38
ENDBRANCH  36  37
BRANCH  36  44
HETATM   44  C27 UNL     1       7.924  30.310   0.751  1.00  0.00     0.144 C 
BRANCH  44  45
HETATM   45  O4  UNL     1       9.287  30.157   0.400  1.00  0.00    -0.393 OA
ATOM     46  H4  UNL     1       9.290  30.066  -0.546  1.00  0.00     0.210 HD
ENDBRANCH  44  45
BRANCH  44  47
HETATM   47  C28 UNL     1       7.064  29.456  -0.116  1.00  0.00     0.016 A 
HETATM   48  C29 UNL     1       6.129  30.253  -1.015  1.00  0.00     0.007 A 
HETATM   49  C30 UNL     1       7.244  29.477  -1.615  1.00  0.00     0.007 A 
ENDBRANCH  44  47
ENDBRANCH  36  44
ENDBRANCH  34  36
ENDBRANCH   1  32
TORSDOF 15
ENDMDL
MODEL 3
REMARK VINA RESULT: -8.271766090      2.653      8.228
REMARK  15 active torsions:
REMARK  status: ('A' for Active; 'I' for Inactive)
REMARK    1  A    between atoms: C2_2  and  C3_3 
REMARK    2  A    between atoms: C4_4  and  C5_5 
REMARK    3  A    between atoms: C5_5  and  N1_6 
REMARK    4  A    between atoms: C5_5  and  C6_10 
REMARK       I    between atoms: C6_10  and  N2_12 
REMARK    5  A    between atoms: C10_16  and  N3_17 
REMARK       I    between atoms: N3_17  and  C11_19 
REMARK    6  A    between atoms: C11_19  and  C12_21 
REMARK    7  A    between atoms: C12_21  and  C13_22 
REMARK    8  A    between atoms: C12_21  and  C18_30 
REMARK    9  A    between atoms: C13_22  and  C14_23 
REMARK       I    between atoms: C18_30  and  N5_32 
REMARK   10  A    between atoms: N5_32  and  C19_34 
REMARK   11  A    between atoms: C19_34  and  C20_35 
REMARK   12  A    between atoms: C19_34  and  C27_42 
REMARK   13  A    between atoms: C20_35  and  C21_36 
REMARK   14  A    between atoms: C27_42  and  O4_43 
REMARK   15  A    between atoms: C27_42  and  C28_45 
ROOT
HETATM    1  C12 UNL     1       7.855  24.819   3.528  1.00  0.00     0.171 C 
ENDROOT
BRANCH   1   2
HETATM    2  C11 UNL     1       8.517  25.828   4.379  1.00  0.00     0.231 C 
HETATM    3  N3  UNL     1       7.837  27.002   4.772  1.00  0.00    -0.347 N 
ATOM      4  H3  UNL     1       6.878  27.147   4.458  1.00  0.00     0.163 HD
HETATM    5  O2  UNL     1       9.697  25.622   4.747  1.00  0.00    -0.273 OA
BRANCH   3   6
HETATM    6  C10 UNL     1       8.469  28.017   5.618  1.00  0.00     0.177 C 
HETATM    7  C9  UNL     1       7.634  28.249   6.836  1.00  0.00     0.036 C 
HETATM    8  C8  UNL     1       6.760  29.468   6.703  1.00  0.00     0.023 C 
HETATM    9  C7  UNL     1       7.556  30.738   6.474  1.00  0.00     0.135 C 
HETATM   10  N2  UNL     1       8.556  30.586   5.462  1.00  0.00    -0.285 N 
HETATM   11  C6  UNL     1       9.426  31.585   4.988  1.00  0.00     0.260 C 
HETATM   12  C31 UNL     1       8.698  29.283   4.861  1.00  0.00     0.249 C 
HETATM   13  O1  UNL     1      10.293  31.372   4.073  1.00  0.00    -0.270 OA
HETATM   14  O5  UNL     1       9.029  29.202   3.641  1.00  0.00    -0.271 OA
BRANCH  11  15
HETATM   15  C5  UNL     1       9.463  33.012   5.480  1.00  0.00     0.297 C 
BRANCH  15  16
HETATM   16  C4  UNL     1       8.894  33.928   4.464  1.00  0.00     0.011 C 
HETATM   17  C3  UNL     1       7.938  33.584   3.446  1.00  0.00    -0.028 C 
BRANCH  17  18
HETATM   18  C2  UNL     1       6.599  33.032   3.646  1.00  0.00     0.022 C 
HETATM   19  C1  UNL     1       6.232  31.779   2.925  1.00  0.00     0.009 C 
ENDBRANCH  17  18
ENDBRANCH  15  16
BRANCH  15  20
HETATM   20  N1  UNL     1      10.676  33.390   6.019  1.00  0.00    -0.063 N 
ATOM     21  H13 UNL     1      11.250  32.565   6.195  1.00  0.00     0.275 HD
ATOM     22  H12 UNL     1      11.240  33.858   5.311  1.00  0.00     0.275 HD
ATOM     23  H11 UNL     1      10.629  33.965   6.860  1.00  0.00     0.275 HD
ENDBRANCH  15  20
ENDBRANCH  11  15
ENDBRANCH   3   6
ENDBRANCH   1   2
BRANCH   1  24
HETATM   24  C13 UNL     1       6.332  24.873   3.703  1.00  0.00     0.056 C 
BRANCH  24  25
HETATM   25  C14 UNL     1       5.996  24.385   5.104  1.00  0.00     0.187 C 
HETATM   26  C15 UNL     1       6.606  23.016   5.349  1.00  0.00     0.034 C 
HETATM   27  C16 UNL     1       5.570  22.266   6.132  1.00  0.00     0.029 C 
HETATM   28  C17 UNL     1       4.326  23.129   6.132  1.00  0.00     0.233 C 
HETATM   29  N4  UNL     1       4.573  24.217   5.217  1.00  0.00    -0.071 N 
ATOM     30  H42 UNL     1       4.094  25.076   5.485  1.00  0.00     0.277 HD
ATOM     31  H41 UNL     1       4.118  24.084   4.313  1.00  0.00     0.277 HD
ENDBRANCH  24  25
ENDBRANCH   1  24
BRANCH   1  32
HETATM   32  C18 UNL     1       8.083  25.079   2.075  1.00  0.00     0.231 C 
HETATM   33  O3  UNL     1       7.616  24.281   1.249  1.00  0.00    -0.273 OA
HETATM   34  N5  UNL     1       8.816  26.207   1.636  1.00  0.00    -0.353 N 
ATOM     35  H5  UNL     1       9.199  26.862   2.318  1.00  0.00     0.163 HD
BRANCH  34  36
HETATM   36  C19 UNL     1       9.026  26.435   0.216  1.00  0.00     0.114 C 
BRANCH  36  37
HETATM   37  C20 UNL     1      10.452  26.215  -0.182  1.00  0.00     0.032 C 
BRANCH  37  38
HETATM   38  C21 UNL     1      10.539  25.319  -1.372  1.00  0.00    -0.013 C 
HETATM   39  C22 UNL     1       9.177  24.674  -1.680  1.00  0.00     0.005 C 
HETATM   40  C23 UNL     1       9.462  23.434  -2.496  1.00  0.00     0.000 C 
HETATM   41  C24 UNL     1      10.670  23.665  -3.375  1.00  0.00     0.000 C 
HETATM   42  C25 UNL     1      10.797  25.100  -3.803  1.00  0.00     0.000 C 
HETATM   43  C26 UNL     1      10.949  26.040  -2.627  1.00  0.00     0.005 C 
ENDBRANCH  37  38
ENDBRANCH  36  37
BRANCH  36  44
HETATM   44  C27 UNL     1       8.484  27.796  -0.158  1.00  0.00     0.144 C 
BRANCH  44  45
HETATM   45  O4  UNL     1       7.884  28.292   1.025  1.00  0.00    -0.393 OA
ATOM     46  H4  UNL     1       6.961  28.378   0.817  1.00  0.00     0.210 HD
ENDBRANCH  44  45
BRANCH  44  47
HETATM   47  C28 UNL     1       9.523  28.744  -0.650  1.00  0.00     0.016 A 
HETATM   48  C29 UNL     1       9.209  29.330  -2.020  1.00  0.00     0.007 A 
HETATM   49  C30 UNL     1       9.192  30.207  -0.822  1.00  0.00     0.007 A 
ENDBRANCH  44  47
ENDBRANCH  36  44
ENDBRANCH  34  36
ENDBRANCH   1  32
TORSDOF 15
ENDMDL
MODEL 4
REMARK VINA RESULT: -8.231141143      1.893      2.587
REMARK  15 active torsions:
REMARK  status: ('A' for Active; 'I' for Inactive)
REMARK    1  A    between atoms: C2_2  and  C3_3 
REMARK    2  A    between atoms: C4_4  and  C5_5 
REMARK    3  A    between atoms: C5_5  and  N1_6 
REMARK    4  A    between atoms: C5_5  and  C6_10 
REMARK       I    between atoms: C6_10  and  N2_12 
REMARK    5  A    between atoms: C10_16  and  N3_17 
REMARK       I    between atoms: N3_17  and  C11_19 
REMARK    6  A    between atoms: C11_19  and  C12_21 
REMARK    7  A    between atoms: C12_21  and  C13_22 
REMARK    8  A    between atoms: C12_21  and  C18_30 
REMARK    9  A    between atoms: C13_22  and  C14_23 
REMARK       I    between atoms: C18_30  and  N5_32 
REMARK   10  A    between atoms: N5_32  and  C19_34 
REMARK   11  A    between atoms: C19_34  and  C20_35 
REMARK   12  A    between atoms: C19_34  and  C27_42 
REMARK   13  A    between atoms: C20_35  and  C21_36 
REMARK   14  A    between atoms: C27_42  and  O4_43 
REMARK   15  A    between atoms: C27_42  and  C28_45 
ROOT
HETATM    1  C12 UNL     1       8.536  26.551   3.210  1.00  0.00     0.171 C 
ENDROOT
BRANCH   1   2
HETATM    2  C11 UNL     1       7.810  26.142   4.429  1.00  0.00     0.231 C 
HETATM    3  N3  UNL     1       6.803  25.154   4.374  1.00  0.00    -0.347 N 
ATOM      4  H3  UNL     1       6.580  24.725   3.476  1.00  0.00     0.163 HD
HETATM    5  O2  UNL     1       8.106  26.690   5.516  1.00  0.00    -0.273 OA
BRANCH   3   6
HETATM    6  C10 UNL     1       6.070  24.726   5.568  1.00  0.00     0.177 C 
HETATM    7  C9  UNL     1       6.907  23.775   6.360  1.00  0.00     0.036 C 
HETATM    8  C8  UNL     1       6.538  22.339   6.099  1.00  0.00     0.023 C 
HETATM    9  C7  UNL     1       5.092  22.033   6.440  1.00  0.00     0.135 C 
HETATM   10  N2  UNL     1       4.185  23.006   5.914  1.00  0.00    -0.285 N 
HETATM   11  C6  UNL     1       2.783  22.985   6.020  1.00  0.00     0.260 C 
HETATM   12  C31 UNL     1       4.753  24.126   5.205  1.00  0.00     0.249 C 
HETATM   13  O1  UNL     1       2.036  23.892   5.515  1.00  0.00    -0.270 OA
HETATM   14  O5  UNL     1       4.112  24.624   4.233  1.00  0.00    -0.271 OA
BRANCH  11  15
HETATM   15  C5  UNL     1       1.978  21.921   6.726  1.00  0.00     0.297 C 
BRANCH  15  16
HETATM   16  C4  UNL     1       1.240  22.500   7.873  1.00  0.00     0.011 C 
HETATM   17  C3  UNL     1      -0.164  22.357   8.142  1.00  0.00    -0.028 C 
BRANCH  17  18
HETATM   18  C2  UNL     1      -0.900  21.110   8.344  1.00  0.00     0.022 C 
HETATM   19  C1  UNL     1      -2.336  21.058   7.944  1.00  0.00     0.009 C 
ENDBRANCH  17  18
ENDBRANCH  15  16
BRANCH  15  20
HETATM   20  N1  UNL     1       2.683  20.762   6.986  1.00  0.00    -0.063 N 
ATOM     21  H13 UNL     1       3.031  20.775   7.945  1.00  0.00     0.275 HD
ATOM     22  H12 UNL     1       2.042  19.970   7.034  1.00  0.00     0.275 HD
ATOM     23  H11 UNL     1       3.445  20.552   6.342  1.00  0.00     0.275 HD
ENDBRANCH  15  20
ENDBRANCH  11  15
ENDBRANCH   3   6
ENDBRANCH   1   2
BRANCH   1  24
HETATM   24  C13 UNL     1       7.836  26.019   1.954  1.00  0.00     0.056 C 
BRANCH  24  25
HETATM   25  C14 UNL     1       8.903  25.552   0.975  1.00  0.00     0.187 C 
HETATM   26  C15 UNL     1       8.632  26.111  -0.411  1.00  0.00     0.034 C 
HETATM   27  C16 UNL     1       8.979  24.995  -1.352  1.00  0.00     0.029 C 
HETATM   28  C17 UNL     1       9.230  23.774  -0.492  1.00  0.00     0.233 C 
HETATM   29  N4  UNL     1       8.837  24.122   0.852  1.00  0.00    -0.071 N 
ATOM     30  H42 UNL     1       9.388  23.639   1.562  1.00  0.00     0.277 HD
ATOM     31  H41 UNL     1       7.924  23.745   1.107  1.00  0.00     0.277 HD
ENDBRANCH  24  25
ENDBRANCH   1  24
BRANCH   1  32
HETATM   32  C18 UNL     1       8.550  28.035   3.041  1.00  0.00     0.231 C 
HETATM   33  O3  UNL     1       9.432  28.689   3.617  1.00  0.00    -0.273 OA
HETATM   34  N5  UNL     1       7.583  28.694   2.246  1.00  0.00    -0.353 N 
ATOM     35  H5  UNL     1       6.859  28.153   1.773  1.00  0.00     0.163 HD
BRANCH  34  36
HETATM   36  C19 UNL     1       7.618  30.140   2.101  1.00  0.00     0.114 C 
BRANCH  36  37
HETATM   37  C20 UNL     1       6.461  30.800   2.784  1.00  0.00     0.032 C 
BRANCH  37  38
HETATM   38  C21 UNL     1       6.115  32.089   2.116  1.00  0.00    -0.013 C 
HETATM   39  C22 UNL     1       4.617  32.149   1.771  1.00  0.00     0.005 C 
HETATM   40  C23 UNL     1       4.470  33.174   0.670  1.00  0.00     0.000 C 
HETATM   41  C24 UNL     1       5.489  34.276   0.854  1.00  0.00     0.000 C 
HETATM   42  C25 UNL     1       5.811  34.518   2.301  1.00  0.00     0.000 C 
HETATM   43  C26 UNL     1       6.391  33.293   2.974  1.00  0.00     0.005 C 
ENDBRANCH  37  38
ENDBRANCH  36  37
BRANCH  36  44
HETATM   44  C27 UNL     1       7.753  30.493   0.637  1.00  0.00     0.144 C 
BRANCH  44  45
HETATM   45  O4  UNL     1       9.147  30.509   0.389  1.00  0.00    -0.393 OA
ATOM     46  H4  UNL     1       9.282  31.226  -0.220  1.00  0.00     0.210 HD
ENDBRANCH  44  45
BRANCH  44  47
HETATM   47  C28 UNL     1       7.072  29.535  -0.280  1.00  0.00     0.016 A 
HETATM   48  C29 UNL     1       6.036  30.191  -1.181  1.00  0.00     0.007 A 
HETATM   49  C30 UNL     1       7.281  29.638  -1.772  1.00  0.00     0.007 A 
ENDBRANCH  44  47
ENDBRANCH  36  44
ENDBRANCH  34  36
ENDBRANCH   1  32
TORSDOF 15
ENDMDL
MODEL 5
REMARK VINA RESULT: -8.223368556      2.483      7.990
REMARK  15 active torsions:
REMARK  status: ('A' for Active; 'I' for Inactive)
REMARK    1  A    between atoms: C2_2  and  C3_3 
REMARK    2  A    between atoms: C4_4  and  C5_5 
REMARK    3  A    between atoms: C5_5  and  N1_6 
REMARK    4  A    between atoms: C5_5  and  C6_10 
REMARK       I    between atoms: C6_10  and  N2_12 
REMARK    5  A    between atoms: C10_16  and  N3_17 
REMARK       I    between atoms: N3_17  and  C11_19 
REMARK    6  A    between atoms: C11_19  and  C12_21 
REMARK    7  A    between atoms: C12_21  and  C13_22 
REMARK    8  A    between atoms: C12_21  and  C18_30 
REMARK    9  A    between atoms: C13_22  and  C14_23 
REMARK       I    between atoms: C18_30  and  N5_32 
REMARK   10  A    between atoms: N5_32  and  C19_34 
REMARK   11  A    between atoms: C19_34  and  C20_35 
REMARK   12  A    between atoms: C19_34  and  C27_42 
REMARK   13  A    between atoms: C20_35  and  C21_36 
REMARK   14  A    between atoms: C27_42  and  O4_43 
REMARK   15  A    between atoms: C27_42  and  C28_45 
ROOT
HETATM    1  C12 UNL     1       7.692  24.783   3.576  1.00  0.00     0.171 C 
ENDROOT
BRANCH   1   2
HETATM    2  C11 UNL     1       8.391  25.773   4.421  1.00  0.00     0.231 C 
HETATM    3  N3  UNL     1       7.791  27.014   4.727  1.00  0.00    -0.347 N 
ATOM      4  H3  UNL     1       6.865  27.222   4.353  1.00  0.00     0.163 HD
HETATM    5  O2  UNL     1       9.528  25.488   4.863  1.00  0.00    -0.273 OA
BRANCH   3   6
HETATM    6  C10 UNL     1       8.459  28.012   5.565  1.00  0.00     0.177 C 
HETATM    7  C9  UNL     1       7.651  28.257   6.798  1.00  0.00     0.036 C 
HETATM    8  C8  UNL     1       6.801  29.494   6.686  1.00  0.00     0.023 C 
HETATM    9  C7  UNL     1       7.619  30.748   6.447  1.00  0.00     0.135 C 
HETATM   10  N2  UNL     1       8.597  30.579   5.417  1.00  0.00    -0.285 N 
HETATM   11  C6  UNL     1       9.479  31.562   4.931  1.00  0.00     0.260 C 
HETATM   12  C31 UNL     1       8.700  29.276   4.809  1.00  0.00     0.249 C 
HETATM   13  O1  UNL     1      10.325  31.335   4.000  1.00  0.00    -0.270 OA
HETATM   14  O5  UNL     1       9.008  29.194   3.583  1.00  0.00    -0.271 OA
BRANCH  11  15
HETATM   15  C5  UNL     1       9.555  32.986   5.427  1.00  0.00     0.297 C 
BRANCH  15  16
HETATM   16  C4  UNL     1       8.976  33.917   4.431  1.00  0.00     0.011 C 
HETATM   17  C3  UNL     1       7.976  33.599   3.448  1.00  0.00    -0.028 C 
BRANCH  17  18
HETATM   18  C2  UNL     1       6.630  33.084   3.696  1.00  0.00     0.022 C 
HETATM   19  C1  UNL     1       6.203  31.842   2.989  1.00  0.00     0.009 C 
ENDBRANCH  17  18
ENDBRANCH  15  16
BRANCH  15  20
HETATM   20  N1  UNL     1      10.789  33.339   5.936  1.00  0.00    -0.063 N 
ATOM     21  H13 UNL     1      11.260  32.515   6.309  1.00  0.00     0.275 HD
ATOM     22  H12 UNL     1      11.421  33.583   5.174  1.00  0.00     0.275 HD
ATOM     23  H11 UNL     1      10.785  34.082   6.635  1.00  0.00     0.275 HD
ENDBRANCH  15  20
ENDBRANCH  11  15
ENDBRANCH   3   6
ENDBRANCH   1   2
BRANCH   1  24
HETATM   24  C13 UNL     1       6.176  24.855   3.791  1.00  0.00     0.056 C 
BRANCH  24  25
HETATM   25  C14 UNL     1       5.868  24.345   5.190  1.00  0.00     0.187 C 
HETATM   26  C15 UNL     1       6.526  22.996   5.420  1.00  0.00     0.034 C 
HETATM   27  C16 UNL     1       5.522  22.205   6.205  1.00  0.00     0.029 C 
HETATM   28  C17 UNL     1       4.251  23.025   6.222  1.00  0.00     0.233 C 
HETATM   29  N4  UNL     1       4.453  24.128   5.313  1.00  0.00    -0.071 N 
ATOM     30  H42 UNL     1       3.947  24.968   5.593  1.00  0.00     0.277 HD
ATOM     31  H41 UNL     1       3.995  23.987   4.412  1.00  0.00     0.277 HD
ENDBRANCH  24  25
ENDBRANCH   1  24
BRANCH   1  32
HETATM   32  C18 UNL     1       7.887  25.057   2.121  1.00  0.00     0.231 C 
HETATM   33  O3  UNL     1       6.885  25.148   1.395  1.00  0.00    -0.273 OA
HETATM   34  N5  UNL     1       9.181  25.213   1.568  1.00  0.00    -0.353 N 
ATOM     35  H5  UNL     1      10.002  25.139   2.168  1.00  0.00     0.163 HD
BRANCH  34  36
HETATM   36  C19 UNL     1       9.341  25.477   0.148  1.00  0.00     0.114 C 
BRANCH  36  37
HETATM   37  C20 UNL     1       8.282  26.397  -0.374  1.00  0.00     0.032 C 
BRANCH  37  38
HETATM   38  C21 UNL     1       8.686  27.823  -0.202  1.00  0.00    -0.013 C 
HETATM   39  C22 UNL     1       9.100  28.448  -1.544  1.00  0.00     0.005 C 
HETATM   40  C23 UNL     1       9.969  29.640  -1.215  1.00  0.00     0.000 C 
HETATM   41  C24 UNL     1       9.497  30.279   0.071  1.00  0.00     0.000 C 
HETATM   42  C25 UNL     1       8.015  30.138   0.268  1.00  0.00     0.000 C 
HETATM   43  C26 UNL     1       7.578  28.690   0.335  1.00  0.00     0.005 C 
ENDBRANCH  37  38
ENDBRANCH  36  37
BRANCH  36  44
HETATM   44  C27 UNL     1       9.441  24.165  -0.597  1.00  0.00     0.144 C 
BRANCH  44  45
HETATM   45  O4  UNL     1       8.469  23.327   0.001  1.00  0.00    -0.393 OA
ATOM     46  H4  UNL     1       8.557  22.491  -0.442  1.00  0.00     0.210 HD
ENDBRANCH  44  45
BRANCH  44  47
HETATM   47  C28 UNL     1       9.196  24.284  -2.063  1.00  0.00     0.016 A 
HETATM   48  C29 UNL     1      10.469  24.245  -2.895  1.00  0.00     0.007 A 
HETATM   49  C30 UNL     1       9.501  23.122  -2.977  1.00  0.00     0.007 A 
ENDBRANCH  44  47
ENDBRANCH  36  44
ENDBRANCH  34  36
ENDBRANCH   1  32
TORSDOF 15
ENDMDL
