MODEL 1
REMARK VINA RESULT: -7.570881020      0.000      0.000
REMARK  17 active torsions:
REMARK  status: ('A' for Active; 'I' for Inactive)
REMARK    1  A    between atoms: O1_2  and  C2_3 
REMARK    2  A    between atoms: C2_3  and  C5_6 
REMARK    3  A    between atoms: C5_6  and  N1_7 
REMARK    4  A    between atoms: C5_6  and  C28_43 
REMARK       I    between atoms: N1_7  and  C6_9 
REMARK    5  A    between atoms: C6_9  and  C7_11 
REMARK    6  A    between atoms: C7_11  and  C8_12 
REMARK    7  A    between atoms: C7_11  and  N2_16 
REMARK    8  A    between atoms: C8_12  and  C9_13 
REMARK       I    between atoms: N2_16  and  C12_18 
REMARK    9  A    between atoms: C12_18  and  C13_20 
REMARK   10  A    between atoms: C13_20  and  C14_21 
REMARK   11  A    between atoms: C13_20  and  C21_36 
REMARK   12  A    between atoms: C14_21  and  N3_22 
REMARK       I    between atoms: N3_22  and  C15_24 
REMARK   13  A    between atoms: C15_24  and  C16_26 
REMARK   14  A    between atoms: C16_26  and  N4_27 
REMARK   15  A    between atoms: C16_26  and  C19_32 
REMARK       I    between atoms: N4_27  and  C17_29 
REMARK   16  A    between atoms: C19_32  and  O6_34 
REMARK   17  A    between atoms: C21_36  and  C22_37 
ROOT
HETATM    1  C13 UNL     1       8.160  25.603   5.147  1.00  0.00     0.119 C 
ENDROOT
BRANCH   1   2
HETATM    2  C12 UNL     1       8.585  27.083   5.213  1.00  0.00     0.231 C 
HETATM    3  N2  UNL     1       7.610  28.100   5.475  1.00  0.00    -0.325 N 
ATOM      4  H2  UNL     1       6.652  27.821   5.689  1.00  0.00     0.168 HD
HETATM    5  O3  UNL     1       9.747  27.387   5.029  1.00  0.00    -0.272 OA
BRANCH   3   6
HETATM    6  C7  UNL     1       7.931  29.481   5.449  1.00  0.00     0.081 C 
BRANCH   6   7
HETATM    7  C6  UNL     1       7.529  30.262   6.621  1.00  0.00     0.268 C 
HETATM    8  N1  UNL     1       8.008  30.028   7.906  1.00  0.00    -0.323 N 
ATOM      9  H1  UNL     1       8.702  29.281   7.906  1.00  0.00     0.169 HD
HETATM   10  O2  UNL     1       6.705  31.188   6.395  1.00  0.00    -0.266 OA
BRANCH   8  11
HETATM   11  C5  UNL     1       7.809  30.531   9.213  1.00  0.00     0.048 C 
BRANCH  11  12
HETATM   12  C2  UNL     1       8.972  31.002   9.944  1.00  0.00     0.095 C 
HETATM   13  C3  UNL     1       9.565  32.322   9.521  1.00  0.00     0.052 C 
HETATM   14  C4  UNL     1       8.680  31.192  11.460  1.00  0.00     0.052 C 
BRANCH  12  15
HETATM   15  O1  UNL     1      10.008  30.055   9.958  1.00  0.00    -0.379 OA
HETATM   16  C1  UNL     1      10.267  29.532  11.222  1.00  0.00     0.203 C 
ENDBRANCH  12  15
ENDBRANCH  11  12
BRANCH  11  17
HETATM   17  C28 UNL     1       6.792  29.714   9.948  1.00  0.00    -0.062 C 
HETATM   18  C29 UNL     1       5.369  30.066   9.737  1.00  0.00     0.045 C 
HETATM   19  C30 UNL     1       7.068  28.229   9.948  1.00  0.00     0.045 C 
ENDBRANCH  11  17
ENDBRANCH   8  11
ENDBRANCH   6   7
BRANCH   6  20
HETATM   20  C8  UNL     1       7.710  30.049   4.097  1.00  0.00     0.067 C 
BRANCH  20  21
HETATM   21  C9  UNL     1       8.912  30.371   3.293  1.00  0.00    -0.017 C 
HETATM   22  C10 UNL     1       9.944  31.058   4.174  1.00  0.00     0.010 C 
HETATM   23  C11 UNL     1       8.597  31.381   2.190  1.00  0.00     0.010 C 
ENDBRANCH  20  21
ENDBRANCH   6  20
ENDBRANCH   3   6
ENDBRANCH   1   2
BRANCH   1  24
HETATM   24  C14 UNL     1       8.964  24.966   4.059  1.00  0.00     0.140 C 
BRANCH  24  25
HETATM   25  N3  UNL     1       8.825  25.834   2.863  1.00  0.00    -0.358 N 
HETATM   26  C15 UNL     1       8.145  25.331   1.716  1.00  0.00     0.243 C 
HETATM   27  O4  UNL     1       7.622  24.198   1.759  1.00  0.00    -0.271 OA
ATOM     28  H3  UNL     1       9.210  26.779   2.863  1.00  0.00     0.162 HD
BRANCH  26  29
HETATM   29  C16 UNL     1       8.044  26.135   0.490  1.00  0.00     0.205 C 
BRANCH  29  30
HETATM   30  N4  UNL     1       9.274  25.950  -0.314  1.00  0.00    -0.346 N 
HETATM   31  C17 UNL     1       9.178  25.116  -1.461  1.00  0.00     0.214 C 
HETATM   32  C18 UNL     1      10.363  24.859  -2.317  1.00  0.00     0.117 C 
HETATM   33  O5  UNL     1       8.083  24.597  -1.751  1.00  0.00    -0.274 OA
ATOM     34  H4  UNL     1      10.152  26.400  -0.055  1.00  0.00     0.163 HD
ENDBRANCH  29  30
BRANCH  29  35
HETATM   35  C19 UNL     1       8.153  27.617   0.951  1.00  0.00     0.146 C 
HETATM   36  C20 UNL     1       8.776  28.456  -0.141  1.00  0.00     0.042 C 
BRANCH  35  37
HETATM   37  O6  UNL     1       6.968  28.099   1.415  1.00  0.00    -0.393 OA
ATOM     38  H6  UNL     1       6.579  28.728   0.820  1.00  0.00     0.210 HD
ENDBRANCH  35  37
ENDBRANCH  29  35
ENDBRANCH  26  29
ENDBRANCH  24  25
ENDBRANCH   1  24
BRANCH   1  39
HETATM   39  C21 UNL     1       6.721  25.487   5.235  1.00  0.00    -0.008 C 
BRANCH  39  40
HETATM   40  C22 UNL     1       5.965  24.281   4.816  1.00  0.00    -0.083 C 
HETATM   41  C23 UNL     1       4.492  24.307   4.894  1.00  0.00     0.034 C 
HETATM   42  C24 UNL     1       3.899  23.496   6.051  1.00  0.00     0.004 C 
HETATM   43  C25 UNL     1       4.610  22.226   6.336  1.00  0.00     0.001 C 
HETATM   44  C26 UNL     1       6.065  22.625   6.662  1.00  0.00     0.004 C 
HETATM   45  C27 UNL     1       6.644  23.022   5.314  1.00  0.00     0.034 C 
ENDBRANCH  39  40
ENDBRANCH   1  39
TORSDOF 17
ENDMDL
MODEL 2
REMARK VINA RESULT: -7.507802753      1.030      1.564
REMARK  17 active torsions:
REMARK  status: ('A' for Active; 'I' for Inactive)
REMARK    1  A    between atoms: O1_2  and  C2_3 
REMARK    2  A    between atoms: C2_3  and  C5_6 
REMARK    3  A    between atoms: C5_6  and  N1_7 
REMARK    4  A    between atoms: C5_6  and  C28_43 
REMARK       I    between atoms: N1_7  and  C6_9 
REMARK    5  A    between atoms: C6_9  and  C7_11 
REMARK    6  A    between atoms: C7_11  and  C8_12 
REMARK    7  A    between atoms: C7_11  and  N2_16 
REMARK    8  A    between atoms: C8_12  and  C9_13 
REMARK       I    between atoms: N2_16  and  C12_18 
REMARK    9  A    between atoms: C12_18  and  C13_20 
REMARK   10  A    between atoms: C13_20  and  C14_21 
REMARK   11  A    between atoms: C13_20  and  C21_36 
REMARK   12  A    between atoms: C14_21  and  N3_22 
REMARK       I    between atoms: N3_22  and  C15_24 
REMARK   13  A    between atoms: C15_24  and  C16_26 
REMARK   14  A    between atoms: C16_26  and  N4_27 
REMARK   15  A    between atoms: C16_26  and  C19_32 
REMARK       I    between atoms: N4_27  and  C17_29 
REMARK   16  A    between atoms: C19_32  and  O6_34 
REMARK   17  A    between atoms: C21_36  and  C22_37 
ROOT
HETATM    1  C13 UNL     1       8.157  25.674   5.113  1.00  0.00     0.119 C 
ENDROOT
BRANCH   1   2
HETATM    2  C12 UNL     1       8.512  27.173   5.101  1.00  0.00     0.231 C 
HETATM    3  N2  UNL     1       7.481  28.158   5.248  1.00  0.00    -0.325 N 
ATOM      4  H2  UNL     1       6.527  27.848   5.434  1.00  0.00     0.168 HD
HETATM    5  O3  UNL     1       9.667  27.520   4.953  1.00  0.00    -0.272 OA
BRANCH   3   6
HETATM    6  C7  UNL     1       7.742  29.548   5.145  1.00  0.00     0.081 C 
BRANCH   6   7
HETATM    7  C6  UNL     1       8.054  30.243   6.397  1.00  0.00     0.268 C 
HETATM    8  N1  UNL     1       7.363  30.038   7.587  1.00  0.00    -0.323 N 
ATOM      9  H1  UNL     1       6.653  29.314   7.476  1.00  0.00     0.169 HD
HETATM   10  O2  UNL     1       9.013  31.057   6.337  1.00  0.00    -0.266 OA
BRANCH   8  11
HETATM   11  C5  UNL     1       7.363  30.547   8.907  1.00  0.00     0.048 C 
BRANCH  11  12
HETATM   12  C2  UNL     1       7.901  29.703   9.959  1.00  0.00     0.095 C 
HETATM   13  C3  UNL     1       7.546  28.238   9.918  1.00  0.00     0.052 C 
HETATM   14  C4  UNL     1       9.456  29.711   9.987  1.00  0.00     0.052 C 
BRANCH  12  15
HETATM   15  O1  UNL     1       7.579  30.183  11.238  1.00  0.00    -0.379 OA
HETATM   16  C1  UNL     1       7.138  29.191  12.110  1.00  0.00     0.203 C 
ENDBRANCH  12  15
ENDBRANCH  11  12
BRANCH  11  17
HETATM   17  C28 UNL     1       6.105  31.311   9.183  1.00  0.00    -0.062 C 
HETATM   18  C29 UNL     1       6.007  32.672   8.609  1.00  0.00     0.045 C 
HETATM   19  C30 UNL     1       4.840  30.493   9.056  1.00  0.00     0.045 C 
ENDBRANCH  11  17
ENDBRANCH   8  11
ENDBRANCH   6   7
BRANCH   6  20
HETATM   20  C8  UNL     1       6.818  30.189   4.180  1.00  0.00     0.067 C 
BRANCH  20  21
HETATM   21  C9  UNL     1       7.367  31.274   3.334  1.00  0.00    -0.017 C 
HETATM   22  C10 UNL     1       6.481  31.465   2.113  1.00  0.00     0.010 C 
HETATM   23  C11 UNL     1       8.742  30.909   2.772  1.00  0.00     0.010 C 
ENDBRANCH  20  21
ENDBRANCH   6  20
ENDBRANCH   3   6
ENDBRANCH   1   2
BRANCH   1  24
HETATM   24  C14 UNL     1       8.962  25.026   4.032  1.00  0.00     0.140 C 
BRANCH  24  25
HETATM   25  N3  UNL     1       8.832  25.888   2.831  1.00  0.00    -0.358 N 
HETATM   26  C15 UNL     1       8.151  25.384   1.685  1.00  0.00     0.243 C 
HETATM   27  O4  UNL     1       7.618  24.256   1.733  1.00  0.00    -0.271 OA
ATOM     28  H3  UNL     1       9.225  26.830   2.826  1.00  0.00     0.162 HD
BRANCH  26  29
HETATM   29  C16 UNL     1       8.059  26.182   0.454  1.00  0.00     0.205 C 
BRANCH  29  30
HETATM   30  N4  UNL     1       9.283  25.970  -0.352  1.00  0.00    -0.346 N 
HETATM   31  C17 UNL     1       9.175  25.113  -1.481  1.00  0.00     0.214 C 
HETATM   32  C18 UNL     1      10.353  24.829  -2.338  1.00  0.00     0.117 C 
HETATM   33  O5  UNL     1       8.074  24.596  -1.755  1.00  0.00    -0.274 OA
ATOM     34  H4  UNL     1      10.166  26.419  -0.108  1.00  0.00     0.163 HD
ENDBRANCH  29  30
BRANCH  29  35
HETATM   35  C19 UNL     1       8.195  27.664   0.905  1.00  0.00     0.146 C 
HETATM   36  C20 UNL     1       8.650  28.520  -0.255  1.00  0.00     0.042 C 
BRANCH  35  37
HETATM   37  O6  UNL     1       7.070  28.117   1.523  1.00  0.00    -0.393 OA
ATOM     38  H6  UNL     1       6.735  28.910   1.121  1.00  0.00     0.210 HD
ENDBRANCH  35  37
ENDBRANCH  29  35
ENDBRANCH  26  29
ENDBRANCH  24  25
ENDBRANCH   1  24
BRANCH   1  39
HETATM   39  C21 UNL     1       6.728  25.495   5.248  1.00  0.00    -0.008 C 
BRANCH  39  40
HETATM   40  C22 UNL     1       6.011  24.262   4.840  1.00  0.00    -0.083 C 
HETATM   41  C23 UNL     1       4.536  24.252   4.890  1.00  0.00     0.034 C 
HETATM   42  C24 UNL     1       3.942  23.450   6.052  1.00  0.00     0.004 C 
HETATM   43  C25 UNL     1       4.678  22.204   6.377  1.00  0.00     0.001 C 
HETATM   44  C26 UNL     1       6.117  22.648   6.722  1.00  0.00     0.004 C 
HETATM   45  C27 UNL     1       6.711  23.031   5.377  1.00  0.00     0.034 C 
ENDBRANCH  39  40
ENDBRANCH   1  39
TORSDOF 17
ENDMDL
MODEL 3
REMARK VINA RESULT: -7.495002780      0.915      1.899
REMARK  17 active torsions:
REMARK  status: ('A' for Active; 'I' for Inactive)
REMARK    1  A    between atoms: O1_2  and  C2_3 
REMARK    2  A    between atoms: C2_3  and  C5_6 
REMARK    3  A    between atoms: C5_6  and  N1_7 
REMARK    4  A    between atoms: C5_6  and  C28_43 
REMARK       I    between atoms: N1_7  and  C6_9 
REMARK    5  A    between atoms: C6_9  and  C7_11 
REMARK    6  A    between atoms: C7_11  and  C8_12 
REMARK    7  A    between atoms: C7_11  and  N2_16 
REMARK    8  A    between atoms: C8_12  and  C9_13 
REMARK       I    between atoms: N2_16  and  C12_18 
REMARK    9  A    between atoms: C12_18  and  C13_20 
REMARK   10  A    between atoms: C13_20  and  C14_21 
REMARK   11  A    between atoms: C13_20  and  C21_36 
REMARK   12  A    between atoms: C14_21  and  N3_22 
REMARK       I    between atoms: N3_22  and  C15_24 
REMARK   13  A    between atoms: C15_24  and  C16_26 
REMARK   14  A    between atoms: C16_26  and  N4_27 
REMARK   15  A    between atoms: C16_26  and  C19_32 
REMARK       I    between atoms: N4_27  and  C17_29 
REMARK   16  A    between atoms: C19_32  and  O6_34 
REMARK   17  A    between atoms: C21_36  and  C22_37 
ROOT
HETATM    1  C13 UNL     1       7.956  25.431   5.188  1.00  0.00     0.119 C 
ENDROOT
BRANCH   1   2
HETATM    2  C12 UNL     1       8.411  26.878   5.454  1.00  0.00     0.231 C 
HETATM    3  N2  UNL     1       7.461  27.866   5.872  1.00  0.00    -0.325 N 
ATOM      4  H2  UNL     1       6.501  27.577   6.061  1.00  0.00     0.168 HD
HETATM    5  O3  UNL     1       9.576  27.185   5.294  1.00  0.00    -0.272 OA
BRANCH   3   6
HETATM    6  C7  UNL     1       7.810  29.232   6.034  1.00  0.00     0.081 C 
BRANCH   6   7
HETATM    7  C6  UNL     1       7.708  29.770   7.392  1.00  0.00     0.268 C 
HETATM    8  N1  UNL     1       8.747  29.733   8.317  1.00  0.00    -0.323 N 
ATOM      9  H1  UNL     1       9.588  29.328   7.905  1.00  0.00     0.169 HD
HETATM   10  O2  UNL     1       6.598  30.288   7.686  1.00  0.00    -0.266 OA
BRANCH   8  11
HETATM   11  C5  UNL     1       8.971  30.096   9.666  1.00  0.00     0.048 C 
BRANCH  11  12
HETATM   12  C2  UNL     1       8.184  29.431  10.689  1.00  0.00     0.095 C 
HETATM   13  C3  UNL     1       7.505  28.141  10.306  1.00  0.00     0.052 C 
HETATM   14  C4  UNL     1       9.034  29.052  11.935  1.00  0.00     0.052 C 
BRANCH  12  15
HETATM   15  O1  UNL     1       7.210  30.277  11.240  1.00  0.00    -0.379 OA
HETATM   16  C1  UNL     1       5.912  29.787  11.116  1.00  0.00     0.203 C 
ENDBRANCH  12  15
ENDBRANCH  11  12
BRANCH  11  17
HETATM   17  C28 UNL     1       9.193  31.573   9.789  1.00  0.00    -0.062 C 
HETATM   18  C29 UNL     1      10.095  32.027  10.872  1.00  0.00     0.045 C 
HETATM   19  C30 UNL     1       9.400  32.283   8.472  1.00  0.00     0.045 C 
ENDBRANCH  11  17
ENDBRANCH   8  11
ENDBRANCH   6   7
BRANCH   6  20
HETATM   20  C8  UNL     1       7.306  30.043   4.901  1.00  0.00     0.067 C 
BRANCH  20  21
HETATM   21  C9  UNL     1       8.205  31.091   4.365  1.00  0.00    -0.017 C 
HETATM   22  C10 UNL     1       7.702  31.546   3.004  1.00  0.00     0.010 C 
HETATM   23  C11 UNL     1       9.611  30.549   4.107  1.00  0.00     0.010 C 
ENDBRANCH  20  21
ENDBRANCH   6  20
ENDBRANCH   3   6
ENDBRANCH   1   2
BRANCH   1  24
HETATM   24  C14 UNL     1       8.834  24.887   4.107  1.00  0.00     0.140 C 
BRANCH  24  25
HETATM   25  N3  UNL     1       8.775  25.857   2.984  1.00  0.00    -0.358 N 
HETATM   26  C15 UNL     1       8.091  25.492   1.788  1.00  0.00     0.243 C 
HETATM   27  O4  UNL     1       7.498  24.395   1.729  1.00  0.00    -0.271 OA
ATOM     28  H3  UNL     1       9.218  26.772   3.068  1.00  0.00     0.162 HD
BRANCH  26  29
HETATM   29  C16 UNL     1       8.066  26.398   0.631  1.00  0.00     0.205 C 
BRANCH  29  30
HETATM   30  N4  UNL     1       9.274  26.161  -0.194  1.00  0.00    -0.346 N 
HETATM   31  C17 UNL     1       9.150  25.244  -1.273  1.00  0.00     0.214 C 
HETATM   32  C18 UNL     1      10.310  24.932  -2.144  1.00  0.00     0.117 C 
HETATM   33  O5  UNL     1       8.051  24.698  -1.491  1.00  0.00    -0.274 OA
ATOM     34  H4  UNL     1      10.155  26.635   0.003  1.00  0.00     0.163 HD
ENDBRANCH  29  30
BRANCH  29  35
HETATM   35  C19 UNL     1       8.316  27.821   1.207  1.00  0.00     0.146 C 
HETATM   36  C20 UNL     1       8.443  28.823   0.082  1.00  0.00     0.042 C 
BRANCH  35  37
HETATM   37  O6  UNL     1       7.399  28.160   2.154  1.00  0.00    -0.393 OA
ATOM     38  H6  UNL     1       6.747  28.766   1.820  1.00  0.00     0.210 HD
ENDBRANCH  35  37
ENDBRANCH  29  35
ENDBRANCH  26  29
ENDBRANCH  24  25
ENDBRANCH   1  24
BRANCH   1  39
HETATM   39  C21 UNL     1       6.511  25.356   5.143  1.00  0.00    -0.008 C 
BRANCH  39  40
HETATM   40  C22 UNL     1       5.761  24.116   4.831  1.00  0.00    -0.083 C 
HETATM   41  C23 UNL     1       4.295  24.114   5.002  1.00  0.00     0.034 C 
HETATM   42  C24 UNL     1       3.797  23.347   6.231  1.00  0.00     0.004 C 
HETATM   43  C25 UNL     1       4.555  22.107   6.528  1.00  0.00     0.001 C 
HETATM   44  C26 UNL     1       6.018  22.553   6.741  1.00  0.00     0.004 C 
HETATM   45  C27 UNL     1       6.500  22.897   5.341  1.00  0.00     0.034 C 
ENDBRANCH  39  40
ENDBRANCH   1  39
TORSDOF 17
ENDMDL
MODEL 4
REMARK VINA RESULT: -7.389088640      1.831      2.872
REMARK  17 active torsions:
REMARK  status: ('A' for Active; 'I' for Inactive)
REMARK    1  A    between atoms: O1_2  and  C2_3 
REMARK    2  A    between atoms: C2_3  and  C5_6 
REMARK    3  A    between atoms: C5_6  and  N1_7 
REMARK    4  A    between atoms: C5_6  and  C28_43 
REMARK       I    between atoms: N1_7  and  C6_9 
REMARK    5  A    between atoms: C6_9  and  C7_11 
REMARK    6  A    between atoms: C7_11  and  C8_12 
REMARK    7  A    between atoms: C7_11  and  N2_16 
REMARK    8  A    between atoms: C8_12  and  C9_13 
REMARK       I    between atoms: N2_16  and  C12_18 
REMARK    9  A    between atoms: C12_18  and  C13_20 
REMARK   10  A    between atoms: C13_20  and  C14_21 
REMARK   11  A    between atoms: C13_20  and  C21_36 
REMARK   12  A    between atoms: C14_21  and  N3_22 
REMARK       I    between atoms: N3_22  and  C15_24 
REMARK   13  A    between atoms: C15_24  and  C16_26 
REMARK   14  A    between atoms: C16_26  and  N4_27 
REMARK   15  A    between atoms: C16_26  and  C19_32 
REMARK       I    between atoms: N4_27  and  C17_29 
REMARK   16  A    between atoms: C19_32  and  O6_34 
REMARK   17  A    between atoms: C21_36  and  C22_37 
ROOT
HETATM    1  C13 UNL     1       8.048  24.285   3.381  1.00  0.00     0.119 C 
ENDROOT
BRANCH   1   2
HETATM    2  C12 UNL     1       8.659  25.360   4.301  1.00  0.00     0.231 C 
HETATM    3  N2  UNL     1       8.059  26.659   4.387  1.00  0.00    -0.325 N 
ATOM      4  H2  UNL     1       7.185  26.832   3.890  1.00  0.00     0.168 HD
HETATM    5  O3  UNL     1       9.660  25.109   4.942  1.00  0.00    -0.272 OA
BRANCH   3   6
HETATM    6  C7  UNL     1       8.638  27.711   5.141  1.00  0.00     0.081 C 
BRANCH   6   7
HETATM    7  C6  UNL     1       7.904  28.132   6.337  1.00  0.00     0.268 C 
HETATM    8  N1  UNL     1       8.374  29.083   7.237  1.00  0.00    -0.323 N 
ATOM      9  H1  UNL     1       9.264  29.472   6.925  1.00  0.00     0.169 HD
HETATM   10  O2  UNL     1       6.789  27.573   6.509  1.00  0.00    -0.266 OA
BRANCH   8  11
HETATM   11  C5  UNL     1       7.971  29.665   8.461  1.00  0.00     0.048 C 
BRANCH  11  12
HETATM   12  C2  UNL     1       7.863  31.112   8.522  1.00  0.00     0.095 C 
HETATM   13  C3  UNL     1       9.100  31.911   8.199  1.00  0.00     0.052 C 
HETATM   14  C4  UNL     1       6.792  31.667   7.540  1.00  0.00     0.052 C 
BRANCH  12  15
HETATM   15  O1  UNL     1       7.384  31.555   9.765  1.00  0.00    -0.379 OA
HETATM   16  C1  UNL     1       7.668  32.893  10.026  1.00  0.00     0.203 C 
ENDBRANCH  12  15
ENDBRANCH  11  12
BRANCH  11  17
HETATM   17  C28 UNL     1       8.594  28.951   9.621  1.00  0.00    -0.062 C 
HETATM   18  C29 UNL     1       9.709  29.639  10.312  1.00  0.00     0.045 C 
HETATM   19  C30 UNL     1       7.603  28.292  10.551  1.00  0.00     0.045 C 
ENDBRANCH  11  17
ENDBRANCH   8  11
ENDBRANCH   6   7
BRANCH   6  20
HETATM   20  C8  UNL     1       9.210  28.748   4.249  1.00  0.00     0.067 C 
BRANCH  20  21
HETATM   21  C9  UNL     1       8.278  29.760   3.701  1.00  0.00    -0.017 C 
HETATM   22  C10 UNL     1       8.345  29.745   2.182  1.00  0.00     0.010 C 
HETATM   23  C11 UNL     1       8.686  31.178   4.102  1.00  0.00     0.010 C 
ENDBRANCH  20  21
ENDBRANCH   6  20
ENDBRANCH   3   6
ENDBRANCH   1   2
BRANCH   1  24
HETATM   24  C14 UNL     1       7.679  24.964   2.100  1.00  0.00     0.140 C 
BRANCH  24  25
HETATM   25  N3  UNL     1       8.709  24.578   1.103  1.00  0.00    -0.358 N 
HETATM   26  C15 UNL     1       9.163  25.548   0.165  1.00  0.00     0.243 C 
HETATM   27  O4  UNL     1       8.741  26.721   0.238  1.00  0.00    -0.271 OA
ATOM     28  H3  UNL     1       9.085  23.629   1.090  1.00  0.00     0.162 HD
BRANCH  26  29
HETATM   29  C16 UNL     1      10.132  25.187  -0.880  1.00  0.00     0.205 C 
BRANCH  29  30
HETATM   30  N4  UNL     1      10.684  26.425  -1.478  1.00  0.00    -0.346 N 
HETATM   31  C17 UNL     1      12.016  26.775  -1.128  1.00  0.00     0.214 C 
HETATM   32  C18 UNL     1      12.646  28.006  -1.666  1.00  0.00     0.117 C 
HETATM   33  O5  UNL     1      12.663  26.035  -0.362  1.00  0.00    -0.274 OA
ATOM     34  H4  UNL     1      10.131  27.001  -2.113  1.00  0.00     0.163 HD
ENDBRANCH  29  30
BRANCH  29  35
HETATM   35  C19 UNL     1       9.291  24.586  -2.042  1.00  0.00     0.146 C 
HETATM   36  C20 UNL     1       9.842  23.236  -2.440  1.00  0.00     0.042 C 
BRANCH  35  37
HETATM   37  O6  UNL     1       7.959  24.584  -1.764  1.00  0.00    -0.393 OA
ATOM     38  H6  UNL     1       7.584  23.712  -1.813  1.00  0.00     0.210 HD
ENDBRANCH  35  37
ENDBRANCH  29  35
ENDBRANCH  26  29
ENDBRANCH  24  25
ENDBRANCH   1  24
BRANCH   1  39
HETATM   39  C21 UNL     1       7.129  23.449   4.123  1.00  0.00    -0.008 C 
BRANCH  39  40
HETATM   40  C22 UNL     1       6.502  23.852   5.405  1.00  0.00    -0.083 C 
HETATM   41  C23 UNL     1       6.484  22.884   6.519  1.00  0.00     0.034 C 
HETATM   42  C24 UNL     1       5.119  22.242   6.786  1.00  0.00     0.004 C 
HETATM   43  C25 UNL     1       3.966  23.161   6.616  1.00  0.00     0.001 C 
HETATM   44  C26 UNL     1       4.040  23.658   5.156  1.00  0.00     0.004 C 
HETATM   45  C27 UNL     1       5.219  24.617   5.158  1.00  0.00     0.034 C 
ENDBRANCH  39  40
ENDBRANCH   1  39
TORSDOF 17
ENDMDL
MODEL 5
REMARK VINA RESULT: -7.383047551      1.023      1.677
REMARK  17 active torsions:
REMARK  status: ('A' for Active; 'I' for Inactive)
REMARK    1  A    between atoms: O1_2  and  C2_3 
REMARK    2  A    between atoms: C2_3  and  C5_6 
REMARK    3  A    between atoms: C5_6  and  N1_7 
REMARK    4  A    between atoms: C5_6  and  C28_43 
REMARK       I    between atoms: N1_7  and  C6_9 
REMARK    5  A    between atoms: C6_9  and  C7_11 
REMARK    6  A    between atoms: C7_11  and  C8_12 
REMARK    7  A    between atoms: C7_11  and  N2_16 
REMARK    8  A    between atoms: C8_12  and  C9_13 
REMARK       I    between atoms: N2_16  and  C12_18 
REMARK    9  A    between atoms: C12_18  and  C13_20 
REMARK   10  A    between atoms: C13_20  and  C14_21 
REMARK   11  A    between atoms: C13_20  and  C21_36 
REMARK   12  A    between atoms: C14_21  and  N3_22 
REMARK       I    between atoms: N3_22  and  C15_24 
REMARK   13  A    between atoms: C15_24  and  C16_26 
REMARK   14  A    between atoms: C16_26  and  N4_27 
REMARK   15  A    between atoms: C16_26  and  C19_32 
REMARK       I    between atoms: N4_27  and  C17_29 
REMARK   16  A    between atoms: C19_32  and  O6_34 
REMARK   17  A    between atoms: C21_36  and  C22_37 
ROOT
HETATM    1  C13 UNL     1       8.207  25.699   5.054  1.00  0.00     0.119 C 
ENDROOT
BRANCH   1   2
HETATM    2  C12 UNL     1       8.548  27.198   4.958  1.00  0.00     0.231 C 
HETATM    3  N2  UNL     1       7.499  28.175   4.950  1.00  0.00    -0.325 N 
ATOM      4  H2  UNL     1       6.536  27.865   5.082  1.00  0.00     0.168 HD
HETATM    5  O3  UNL     1       9.708  27.551   4.876  1.00  0.00    -0.272 OA
BRANCH   3   6
HETATM    6  C7  UNL     1       7.754  29.558   4.764  1.00  0.00     0.081 C 
BRANCH   6   7
HETATM    7  C6  UNL     1       8.254  30.287   5.932  1.00  0.00     0.268 C 
HETATM    8  N1  UNL     1       7.730  30.146   7.213  1.00  0.00    -0.323 N 
ATOM      9  H1  UNL     1       6.994  29.440   7.230  1.00  0.00     0.169 HD
HETATM   10  O2  UNL     1       9.216  31.069   5.709  1.00  0.00    -0.266 OA
BRANCH   8  11
HETATM   11  C5  UNL     1       7.926  30.700   8.499  1.00  0.00     0.048 C 
BRANCH  11  12
HETATM   12  C2  UNL     1       7.870  29.804   9.641  1.00  0.00     0.095 C 
HETATM   13  C3  UNL     1       7.450  30.397  10.962  1.00  0.00     0.052 C 
HETATM   14  C4  UNL     1       6.873  28.631   9.423  1.00  0.00     0.052 C 
BRANCH  12  15
HETATM   15  O1  UNL     1       9.083  29.129   9.844  1.00  0.00    -0.379 OA
HETATM   16  C1  UNL     1       9.940  29.779  10.729  1.00  0.00     0.203 C 
ENDBRANCH  12  15
ENDBRANCH  11  12
BRANCH  11  17
HETATM   17  C28 UNL     1       7.256  32.035   8.611  1.00  0.00    -0.062 C 
HETATM   18  C29 UNL     1       8.103  33.231   8.397  1.00  0.00     0.045 C 
HETATM   19  C30 UNL     1       5.902  32.109   7.945  1.00  0.00     0.045 C 
ENDBRANCH  11  17
ENDBRANCH   8  11
ENDBRANCH   6   7
BRANCH   6  20
HETATM   20  C8  UNL     1       6.703  30.181   3.925  1.00  0.00     0.067 C 
BRANCH  20  21
HETATM   21  C9  UNL     1       7.059  31.428   3.208  1.00  0.00    -0.017 C 
HETATM   22  C10 UNL     1       5.949  31.788   2.233  1.00  0.00     0.010 C 
HETATM   23  C11 UNL     1       8.305  31.244   2.341  1.00  0.00     0.010 C 
ENDBRANCH  20  21
ENDBRANCH   6  20
ENDBRANCH   3   6
ENDBRANCH   1   2
BRANCH   1  24
HETATM   24  C14 UNL     1       8.997  25.002   3.993  1.00  0.00     0.140 C 
BRANCH  24  25
HETATM   25  N3  UNL     1       8.915  25.850   2.777  1.00  0.00    -0.358 N 
HETATM   26  C15 UNL     1       8.141  25.399   1.669  1.00  0.00     0.243 C 
HETATM   27  O4  UNL     1       7.492  24.337   1.763  1.00  0.00    -0.271 OA
ATOM     28  H3  UNL     1       9.407  26.743   2.735  1.00  0.00     0.162 HD
BRANCH  26  29
HETATM   29  C16 UNL     1       8.088  26.178   0.423  1.00  0.00     0.205 C 
BRANCH  29  30
HETATM   30  N4  UNL     1       9.318  25.920  -0.361  1.00  0.00    -0.346 N 
HETATM   31  C17 UNL     1       9.201  25.054  -1.481  1.00  0.00     0.214 C 
HETATM   32  C18 UNL     1      10.383  24.725  -2.316  1.00  0.00     0.117 C 
HETATM   33  O5  UNL     1       8.090  24.567  -1.767  1.00  0.00    -0.274 OA
ATOM     34  H4  UNL     1      10.209  26.346  -0.108  1.00  0.00     0.163 HD
ENDBRANCH  29  30
BRANCH  29  35
HETATM   35  C19 UNL     1       8.256  27.664   0.851  1.00  0.00     0.146 C 
HETATM   36  C20 UNL     1       8.493  28.531  -0.365  1.00  0.00     0.042 C 
BRANCH  35  37
HETATM   37  O6  UNL     1       7.237  28.088   1.647  1.00  0.00    -0.393 OA
ATOM     38  H6  UNL     1       7.142  29.033   1.634  1.00  0.00     0.210 HD
ENDBRANCH  35  37
ENDBRANCH  29  35
ENDBRANCH  26  29
ENDBRANCH  24  25
ENDBRANCH   1  24
BRANCH   1  39
HETATM   39  C21 UNL     1       6.782  25.515   5.225  1.00  0.00    -0.008 C 
BRANCH  39  40
HETATM   40  C22 UNL     1       6.055  24.290   4.812  1.00  0.00    -0.083 C 
HETATM   41  C23 UNL     1       4.580  24.295   4.853  1.00  0.00     0.034 C 
HETATM   42  C24 UNL     1       3.970  23.499   6.010  1.00  0.00     0.004 C 
HETATM   43  C25 UNL     1       4.691  22.245   6.339  1.00  0.00     0.001 C 
HETATM   44  C26 UNL     1       6.132  22.673   6.694  1.00  0.00     0.004 C 
HETATM   45  C27 UNL     1       6.739  23.051   5.353  1.00  0.00     0.034 C 
ENDBRANCH  39  40
ENDBRANCH   1  39
TORSDOF 17
ENDMDL
