MODEL 1
REMARK VINA RESULT: -7.596326154      0.000      0.000
REMARK  18 active torsions:
REMARK  status: ('A' for Active; 'I' for Inactive)
REMARK    1  A    between atoms: C2_2  and  C3_3 
REMARK    2  A    between atoms: C3_3  and  C5_5 
REMARK    3  A    between atoms: C5_5  and  N1_6 
REMARK    4  A    between atoms: C5_5  and  C24_34 
REMARK    5  A    between atoms: N1_6  and  C6_8 
REMARK    6  A    between atoms: C6_8  and  C7_9 
REMARK    7  A    between atoms: C6_8  and  C16_21 
REMARK       I    between atoms: C7_9  and  N2_11 
REMARK    8  A    between atoms: N2_11  and  C8_13 
REMARK    9  A    between atoms: C8_13  and  C9_14 
REMARK   10  A    between atoms: C9_14  and  C10_15 
REMARK   11  A    between atoms: C10_15  and  C11_16 
REMARK   12  A    between atoms: C11_16  and  C12_17 
REMARK   13  A    between atoms: C16_21  and  C17_22 
REMARK   14  A    between atoms: C16_21  and  N3_25 
REMARK   15  A    between atoms: C17_22  and  O2_23 
REMARK   16  A    between atoms: C20_28  and  C21_29 
REMARK       I    between atoms: C24_34  and  N5_36 
REMARK   17  A    between atoms: N5_36  and  C25_38 
REMARK   18  A    between atoms: C25_38  and  C26_40 
ROOT
HETATM    1  C6  UNL     1       8.804  27.017   3.155  1.00  0.00     0.195 C 
ENDROOT
BRANCH   1   2
HETATM    2  N1  UNL     1       8.155  28.224   3.549  1.00  0.00    -0.395 N 
ATOM      3  H1  UNL     1       7.173  28.402   3.335  1.00  0.00     0.155 HD
BRANCH   2   4
HETATM    4  C5  UNL     1       8.972  29.188   4.273  1.00  0.00     0.174 C 
BRANCH   4   5
HETATM    5  C3  UNL     1       9.225  30.425   3.523  1.00  0.00     0.013 C 
HETATM    6  C4  UNL     1       7.966  31.212   3.162  1.00  0.00     0.012 C 
BRANCH   5   7
HETATM    7  C2  UNL     1      10.287  31.318   4.056  1.00  0.00     0.002 C 
HETATM    8  C1  UNL     1      10.706  32.307   2.953  1.00  0.00     0.005 C 
ENDBRANCH   5   7
ENDBRANCH   4   5
BRANCH   4   9
HETATM    9  C24 UNL     1       8.255  29.300   5.571  1.00  0.00     0.245 C 
HETATM   10  O4  UNL     1       7.144  28.627   5.572  1.00  0.00    -0.271 OA
HETATM   11  N5  UNL     1       8.550  29.974   6.731  1.00  0.00    -0.319 N 
ATOM     12  H5  UNL     1       9.405  30.528   6.789  1.00  0.00     0.169 HD
BRANCH  11  13
HETATM   13  C25 UNL     1       7.678  29.912   7.854  1.00  0.00     0.083 C 
HETATM   14  S1  UNL     1       6.364  30.853   8.052  1.00  0.00    -0.065 SA
BRANCH  13  15
HETATM   15  C26 UNL     1       7.970  28.942   8.937  1.00  0.00     0.039 C 
HETATM   16  C27 UNL     1       6.762  28.633   9.765  1.00  0.00     0.017 C 
HETATM   17  C28 UNL     1       9.112  29.378   9.805  1.00  0.00     0.017 C 
ENDBRANCH  13  15
ENDBRANCH  11  13
ENDBRANCH   4   9
ENDBRANCH   2   4
ENDBRANCH   1   2
BRANCH   1  18
HETATM   18  C7  UNL     1       8.702  25.902   4.125  1.00  0.00     0.242 C 
HETATM   19  O1  UNL     1       9.746  25.266   4.410  1.00  0.00    -0.271 OA
HETATM   20  N2  UNL     1       7.495  25.520   4.738  1.00  0.00    -0.359 N 
ATOM     21  H2  UNL     1       6.672  26.061   4.474  1.00  0.00     0.162 HD
BRANCH  20  22
HETATM   22  C8  UNL     1       7.277  24.479   5.676  1.00  0.00     0.122 C 
BRANCH  22  23
HETATM   23  C9  UNL     1       6.481  23.307   5.183  1.00  0.00     0.020 C 
BRANCH  23  24
HETATM   24  C10 UNL     1       5.066  23.485   5.740  1.00  0.00     0.002 C 
BRANCH  24  25
HETATM   25  C11 UNL     1       4.657  22.333   6.626  1.00  0.00     0.008 C 
BRANCH  25  26
HETATM   26  C12 UNL     1       3.171  22.310   6.776  1.00  0.00    -0.051 C 
HETATM   27  C13 UNL     1       2.508  23.399   5.952  1.00  0.00     0.014 C 
HETATM   28  C14 UNL     1       2.756  22.484   8.215  1.00  0.00     0.014 C 
HETATM   29  C15 UNL     1       2.650  20.977   6.275  1.00  0.00     0.014 C 
ENDBRANCH  25  26
ENDBRANCH  24  25
ENDBRANCH  23  24
ENDBRANCH  22  23
ENDBRANCH  20  22
ENDBRANCH   1  18
BRANCH   1  30
HETATM   30  C16 UNL     1       8.011  26.577   1.894  1.00  0.00     0.134 C 
BRANCH  30  31
HETATM   31  C17 UNL     1       7.387  25.233   2.031  1.00  0.00     0.191 C 
BRANCH  31  32
HETATM   32  O2  UNL     1       6.012  25.412   1.789  1.00  0.00    -0.399 OA
ATOM     33  H2  UNL     1       5.584  24.622   2.097  1.00  0.00     0.209 HD
ENDBRANCH  31  32
ENDBRANCH  30  31
BRANCH  30  34
HETATM   34  N3  UNL     1       8.857  26.575   0.742  1.00  0.00    -0.404 N 
HETATM   35  C18 UNL     1      10.061  25.837   0.837  1.00  0.00     0.118 C 
HETATM   36  C19 UNL     1      11.032  26.212  -0.293  1.00  0.00     0.033 C 
HETATM   37  C20 UNL     1      10.274  26.288  -1.606  1.00  0.00     0.078 C 
HETATM   38  C22 UNL     1       9.142  27.275  -1.513  1.00  0.00     0.033 C 
HETATM   39  C23 UNL     1       8.893  27.729  -0.065  1.00  0.00     0.118 C 
BRANCH  37  40
HETATM   40  C21 UNL     1       9.655  24.965  -1.933  1.00  0.00     0.235 C 
HETATM   41  N4  UNL     1       8.240  24.791  -1.929  1.00  0.00    -0.062 NA
HETATM   42  O3  UNL     1      10.336  23.942  -2.229  1.00  0.00    -0.277 OA
ENDBRANCH  37  40
ENDBRANCH  30  34
ENDBRANCH   1  30
TORSDOF 18
ENDMDL
MODEL 2
REMARK VINA RESULT: -7.348740905      1.147      1.681
REMARK  18 active torsions:
REMARK  status: ('A' for Active; 'I' for Inactive)
REMARK    1  A    between atoms: C2_2  and  C3_3 
REMARK    2  A    between atoms: C3_3  and  C5_5 
REMARK    3  A    between atoms: C5_5  and  N1_6 
REMARK    4  A    between atoms: C5_5  and  C24_34 
REMARK    5  A    between atoms: N1_6  and  C6_8 
REMARK    6  A    between atoms: C6_8  and  C7_9 
REMARK    7  A    between atoms: C6_8  and  C16_21 
REMARK       I    between atoms: C7_9  and  N2_11 
REMARK    8  A    between atoms: N2_11  and  C8_13 
REMARK    9  A    between atoms: C8_13  and  C9_14 
REMARK   10  A    between atoms: C9_14  and  C10_15 
REMARK   11  A    between atoms: C10_15  and  C11_16 
REMARK   12  A    between atoms: C11_16  and  C12_17 
REMARK   13  A    between atoms: C16_21  and  C17_22 
REMARK   14  A    between atoms: C16_21  and  N3_25 
REMARK   15  A    between atoms: C17_22  and  O2_23 
REMARK   16  A    between atoms: C20_28  and  C21_29 
REMARK       I    between atoms: C24_34  and  N5_36 
REMARK   17  A    between atoms: N5_36  and  C25_38 
REMARK   18  A    between atoms: C25_38  and  C26_40 
ROOT
HETATM    1  C6  UNL     1       8.606  27.351   3.040  1.00  0.00     0.195 C 
ENDROOT
BRANCH   1   2
HETATM    2  N1  UNL     1       7.766  28.462   3.347  1.00  0.00    -0.395 N 
ATOM      3  H1  UNL     1       6.751  28.372   3.398  1.00  0.00     0.155 HD
BRANCH   2   4
HETATM    4  C5  UNL     1       8.438  29.732   3.583  1.00  0.00     0.174 C 
BRANCH   4   5
HETATM    5  C3  UNL     1       8.076  30.777   2.616  1.00  0.00     0.013 C 
HETATM    6  C4  UNL     1       9.261  31.362   1.849  1.00  0.00     0.012 C 
BRANCH   5   7
HETATM    7  C2  UNL     1       6.940  30.475   1.708  1.00  0.00     0.002 C 
HETATM    8  C1  UNL     1       5.836  31.527   1.924  1.00  0.00     0.005 C 
ENDBRANCH   5   7
ENDBRANCH   4   5
BRANCH   4   9
HETATM    9  C24 UNL     1       8.144  29.986   5.019  1.00  0.00     0.245 C 
HETATM   10  O4  UNL     1       7.323  30.981   5.178  1.00  0.00    -0.271 OA
HETATM   11  N5  UNL     1       8.578  29.375   6.170  1.00  0.00    -0.319 N 
ATOM     12  H5  UNL     1       9.230  28.593   6.110  1.00  0.00     0.169 HD
BRANCH  11  13
HETATM   13  C25 UNL     1       8.132  29.820   7.446  1.00  0.00     0.083 C 
HETATM   14  S1  UNL     1       8.748  31.099   8.242  1.00  0.00    -0.065 SA
BRANCH  13  15
HETATM   15  C26 UNL     1       7.041  29.078   8.123  1.00  0.00     0.039 C 
HETATM   16  C27 UNL     1       5.823  29.924   8.335  1.00  0.00     0.017 C 
HETATM   17  C28 UNL     1       7.485  28.454   9.412  1.00  0.00     0.017 C 
ENDBRANCH  13  15
ENDBRANCH  11  13
ENDBRANCH   4   9
ENDBRANCH   2   4
ENDBRANCH   1   2
BRANCH   1  18
HETATM   18  C7  UNL     1       8.543  26.230   4.006  1.00  0.00     0.242 C 
HETATM   19  O1  UNL     1       9.604  25.611   4.268  1.00  0.00    -0.271 OA
HETATM   20  N2  UNL     1       7.355  25.822   4.639  1.00  0.00    -0.359 N 
ATOM     21  H2  UNL     1       6.517  26.349   4.394  1.00  0.00     0.162 HD
BRANCH  20  22
HETATM   22  C8  UNL     1       7.175  24.771   5.576  1.00  0.00     0.122 C 
BRANCH  22  23
HETATM   23  C9  UNL     1       6.443  23.562   5.073  1.00  0.00     0.020 C 
BRANCH  23  24
HETATM   24  C10 UNL     1       5.019  23.660   5.627  1.00  0.00     0.002 C 
BRANCH  24  25
HETATM   25  C11 UNL     1       4.676  22.491   6.517  1.00  0.00     0.008 C 
BRANCH  25  26
HETATM   26  C12 UNL     1       3.194  22.379   6.660  1.00  0.00    -0.051 C 
HETATM   27  C13 UNL     1       2.693  21.008   6.241  1.00  0.00     0.014 C 
HETATM   28  C14 UNL     1       2.476  23.418   5.837  1.00  0.00     0.014 C 
HETATM   29  C15 UNL     1       2.827  22.572   8.119  1.00  0.00     0.014 C 
ENDBRANCH  25  26
ENDBRANCH  24  25
ENDBRANCH  23  24
ENDBRANCH  22  23
ENDBRANCH  20  22
ENDBRANCH   1  18
BRANCH   1  30
HETATM   30  C16 UNL     1       8.021  26.816   1.705  1.00  0.00     0.134 C 
BRANCH  30  31
HETATM   31  C17 UNL     1       7.530  25.415   1.799  1.00  0.00     0.191 C 
BRANCH  31  32
HETATM   32  O2  UNL     1       6.137  25.473   1.608  1.00  0.00    -0.399 OA
ATOM     33  H2  UNL     1       5.917  24.746   1.038  1.00  0.00     0.209 HD
ENDBRANCH  31  32
ENDBRANCH  30  31
BRANCH  30  34
HETATM   34  N3  UNL     1       8.995  26.892   0.662  1.00  0.00    -0.404 N 
HETATM   35  C18 UNL     1      10.027  25.924   0.682  1.00  0.00     0.118 C 
HETATM   36  C19 UNL     1      11.187  26.331  -0.239  1.00  0.00     0.033 C 
HETATM   37  C20 UNL     1      10.631  26.841  -1.557  1.00  0.00     0.078 C 
HETATM   38  C22 UNL     1       9.689  27.991  -1.330  1.00  0.00     0.033 C 
HETATM   39  C23 UNL     1       9.338  28.162   0.158  1.00  0.00     0.118 C 
BRANCH  37  40
HETATM   40  C21 UNL     1       9.836  25.773  -2.241  1.00  0.00     0.235 C 
HETATM   41  N4  UNL     1      10.418  24.514  -2.570  1.00  0.00    -0.062 NA
HETATM   42  O3  UNL     1       8.622  25.919  -2.559  1.00  0.00    -0.277 OA
ENDBRANCH  37  40
ENDBRANCH  30  34
ENDBRANCH   1  30
TORSDOF 18
ENDMDL
MODEL 3
REMARK VINA RESULT: -7.338176291      0.731      1.270
REMARK  18 active torsions:
REMARK  status: ('A' for Active; 'I' for Inactive)
REMARK    1  A    between atoms: C2_2  and  C3_3 
REMARK    2  A    between atoms: C3_3  and  C5_5 
REMARK    3  A    between atoms: C5_5  and  N1_6 
REMARK    4  A    between atoms: C5_5  and  C24_34 
REMARK    5  A    between atoms: N1_6  and  C6_8 
REMARK    6  A    between atoms: C6_8  and  C7_9 
REMARK    7  A    between atoms: C6_8  and  C16_21 
REMARK       I    between atoms: C7_9  and  N2_11 
REMARK    8  A    between atoms: N2_11  and  C8_13 
REMARK    9  A    between atoms: C8_13  and  C9_14 
REMARK   10  A    between atoms: C9_14  and  C10_15 
REMARK   11  A    between atoms: C10_15  and  C11_16 
REMARK   12  A    between atoms: C11_16  and  C12_17 
REMARK   13  A    between atoms: C16_21  and  C17_22 
REMARK   14  A    between atoms: C16_21  and  N3_25 
REMARK   15  A    between atoms: C17_22  and  O2_23 
REMARK   16  A    between atoms: C20_28  and  C21_29 
REMARK       I    between atoms: C24_34  and  N5_36 
REMARK   17  A    between atoms: N5_36  and  C25_38 
REMARK   18  A    between atoms: C25_38  and  C26_40 
ROOT
HETATM    1  C6  UNL     1       8.822  27.003   3.104  1.00  0.00     0.195 C 
ENDROOT
BRANCH   1   2
HETATM    2  N1  UNL     1       8.163  28.202   3.506  1.00  0.00    -0.395 N 
ATOM      3  H1  UNL     1       7.181  28.377   3.287  1.00  0.00     0.155 HD
BRANCH   2   4
HETATM    4  C5  UNL     1       8.968  29.163   4.247  1.00  0.00     0.174 C 
BRANCH   4   5
HETATM    5  C3  UNL     1       9.192  30.423   3.525  1.00  0.00     0.013 C 
HETATM    6  C4  UNL     1       7.915  31.195   3.194  1.00  0.00     0.012 C 
BRANCH   5   7
HETATM    7  C2  UNL     1      10.242  31.322   4.070  1.00  0.00     0.002 C 
HETATM    8  C1  UNL     1      10.799  32.188   2.926  1.00  0.00     0.005 C 
ENDBRANCH   5   7
ENDBRANCH   4   5
BRANCH   4   9
HETATM    9  C24 UNL     1       8.261  29.231   5.553  1.00  0.00     0.245 C 
HETATM   10  O4  UNL     1       7.145  28.566   5.536  1.00  0.00    -0.271 OA
HETATM   11  N5  UNL     1       8.569  29.858   6.736  1.00  0.00    -0.319 N 
ATOM     12  H5  UNL     1       9.428  30.402   6.809  1.00  0.00     0.169 HD
BRANCH  11  13
HETATM   13  C25 UNL     1       7.704  29.759   7.862  1.00  0.00     0.083 C 
HETATM   14  S1  UNL     1       8.017  28.865   9.187  1.00  0.00    -0.065 SA
BRANCH  13  15
HETATM   15  C26 UNL     1       6.420  30.500   7.848  1.00  0.00     0.039 C 
HETATM   16  C27 UNL     1       6.616  31.980   7.967  1.00  0.00     0.017 C 
HETATM   17  C28 UNL     1       5.460  30.006   8.889  1.00  0.00     0.017 C 
ENDBRANCH  13  15
ENDBRANCH  11  13
ENDBRANCH   4   9
ENDBRANCH   2   4
ENDBRANCH   1   2
BRANCH   1  18
HETATM   18  C7  UNL     1       8.737  25.885   4.071  1.00  0.00     0.242 C 
HETATM   19  O1  UNL     1       9.781  25.232   4.317  1.00  0.00    -0.271 OA
HETATM   20  N2  UNL     1       7.547  25.515   4.722  1.00  0.00    -0.359 N 
ATOM     21  H2  UNL     1       6.723  26.069   4.490  1.00  0.00     0.162 HD
BRANCH  20  22
HETATM   22  C8  UNL     1       7.347  24.472   5.662  1.00  0.00     0.122 C 
BRANCH  22  23
HETATM   23  C9  UNL     1       6.552  23.295   5.177  1.00  0.00     0.020 C 
BRANCH  23  24
HETATM   24  C10 UNL     1       5.132  23.484   5.718  1.00  0.00     0.002 C 
BRANCH  24  25
HETATM   25  C11 UNL     1       4.725  22.364   6.644  1.00  0.00     0.008 C 
BRANCH  25  26
HETATM   26  C12 UNL     1       3.236  22.295   6.736  1.00  0.00    -0.051 C 
HETATM   27  C13 UNL     1       2.754  22.487   8.162  1.00  0.00     0.014 C 
HETATM   28  C14 UNL     1       2.709  20.977   6.230  1.00  0.00     0.014 C 
HETATM   29  C15 UNL     1       2.643  23.413   5.899  1.00  0.00     0.014 C 
ENDBRANCH  25  26
ENDBRANCH  24  25
ENDBRANCH  23  24
ENDBRANCH  22  23
ENDBRANCH  20  22
ENDBRANCH   1  18
BRANCH   1  30
HETATM   30  C16 UNL     1       8.026  26.560   1.846  1.00  0.00     0.134 C 
BRANCH  30  31
HETATM   31  C17 UNL     1       7.398  25.219   1.992  1.00  0.00     0.191 C 
BRANCH  31  32
HETATM   32  O2  UNL     1       6.022  25.402   1.759  1.00  0.00    -0.399 OA
ATOM     33  H2  UNL     1       5.838  24.991   0.922  1.00  0.00     0.209 HD
ENDBRANCH  31  32
ENDBRANCH  30  31
BRANCH  30  34
HETATM   34  N3  UNL     1       8.871  26.548   0.694  1.00  0.00    -0.404 N 
HETATM   35  C18 UNL     1      10.066  25.796   0.786  1.00  0.00     0.118 C 
HETATM   36  C19 UNL     1      11.039  26.161  -0.344  1.00  0.00     0.033 C 
HETATM   37  C20 UNL     1      10.282  26.247  -1.657  1.00  0.00     0.078 C 
HETATM   38  C22 UNL     1       9.161  27.247  -1.561  1.00  0.00     0.033 C 
HETATM   39  C23 UNL     1       8.919  27.703  -0.112  1.00  0.00     0.118 C 
BRANCH  37  40
HETATM   40  C21 UNL     1       9.646  24.932  -1.984  1.00  0.00     0.235 C 
HETATM   41  N4  UNL     1       8.229  24.778  -1.991  1.00  0.00    -0.062 NA
HETATM   42  O3  UNL     1      10.315  23.898  -2.270  1.00  0.00    -0.277 OA
ENDBRANCH  37  40
ENDBRANCH  30  34
ENDBRANCH   1  30
TORSDOF 18
ENDMDL
MODEL 4
REMARK VINA RESULT: -7.214291456      1.841      2.536
REMARK  18 active torsions:
REMARK  status: ('A' for Active; 'I' for Inactive)
REMARK    1  A    between atoms: C2_2  and  C3_3 
REMARK    2  A    between atoms: C3_3  and  C5_5 
REMARK    3  A    between atoms: C5_5  and  N1_6 
REMARK    4  A    between atoms: C5_5  and  C24_34 
REMARK    5  A    between atoms: N1_6  and  C6_8 
REMARK    6  A    between atoms: C6_8  and  C7_9 
REMARK    7  A    between atoms: C6_8  and  C16_21 
REMARK       I    between atoms: C7_9  and  N2_11 
REMARK    8  A    between atoms: N2_11  and  C8_13 
REMARK    9  A    between atoms: C8_13  and  C9_14 
REMARK   10  A    between atoms: C9_14  and  C10_15 
REMARK   11  A    between atoms: C10_15  and  C11_16 
REMARK   12  A    between atoms: C11_16  and  C12_17 
REMARK   13  A    between atoms: C16_21  and  C17_22 
REMARK   14  A    between atoms: C16_21  and  N3_25 
REMARK   15  A    between atoms: C17_22  and  O2_23 
REMARK   16  A    between atoms: C20_28  and  C21_29 
REMARK       I    between atoms: C24_34  and  N5_36 
REMARK   17  A    between atoms: N5_36  and  C25_38 
REMARK   18  A    between atoms: C25_38  and  C26_40 
ROOT
HETATM    1  C6  UNL     1       8.653  26.558   1.885  1.00  0.00     0.195 C 
ENDROOT
BRANCH   1   2
HETATM    2  N1  UNL     1       7.821  27.714   1.822  1.00  0.00    -0.395 N 
ATOM      3  H1  UNL     1       6.812  27.645   1.682  1.00  0.00     0.155 HD
BRANCH   2   4
HETATM    4  C5  UNL     1       8.489  28.999   1.971  1.00  0.00     0.174 C 
BRANCH   4   5
HETATM    5  C3  UNL     1       8.052  30.006   0.995  1.00  0.00     0.013 C 
HETATM    6  C4  UNL     1       9.136  30.440   0.009  1.00  0.00     0.012 C 
BRANCH   5   7
HETATM    7  C2  UNL     1       6.765  29.741   0.301  1.00  0.00     0.002 C 
HETATM    8  C1  UNL     1       6.765  30.483  -1.048  1.00  0.00     0.005 C 
ENDBRANCH   5   7
ENDBRANCH   4   5
BRANCH   4   9
HETATM    9  C24 UNL     1       8.286  29.299   3.413  1.00  0.00     0.245 C 
HETATM   10  O4  UNL     1       9.410  29.518   4.026  1.00  0.00    -0.271 OA
HETATM   11  N5  UNL     1       7.154  29.377   4.188  1.00  0.00    -0.319 N 
ATOM     12  H5  UNL     1       6.242  29.207   3.764  1.00  0.00     0.169 HD
BRANCH  11  13
HETATM   13  C25 UNL     1       7.237  29.692   5.573  1.00  0.00     0.083 C 
HETATM   14  S1  UNL     1       7.502  31.185   6.163  1.00  0.00    -0.065 SA
BRANCH  13  15
HETATM   15  C26 UNL     1       7.086  28.601   6.566  1.00  0.00     0.039 C 
HETATM   16  C27 UNL     1       7.833  28.879   7.834  1.00  0.00     0.017 C 
HETATM   17  C28 UNL     1       7.465  27.261   6.010  1.00  0.00     0.017 C 
ENDBRANCH  13  15
ENDBRANCH  11  13
ENDBRANCH   4   9
ENDBRANCH   2   4
ENDBRANCH   1   2
BRANCH   1  18
HETATM   18  C7  UNL     1       8.318  25.598   2.961  1.00  0.00     0.242 C 
HETATM   19  O1  UNL     1       9.245  25.187   3.701  1.00  0.00    -0.271 OA
HETATM   20  N2  UNL     1       7.015  25.122   3.193  1.00  0.00    -0.359 N 
ATOM     21  H2  UNL     1       6.294  25.479   2.566  1.00  0.00     0.162 HD
BRANCH  20  22
HETATM   22  C8  UNL     1       6.576  24.210   4.186  1.00  0.00     0.122 C 
BRANCH  22  23
HETATM   23  C9  UNL     1       5.305  24.574   4.896  1.00  0.00     0.020 C 
BRANCH  23  24
HETATM   24  C10 UNL     1       4.855  23.316   5.643  1.00  0.00     0.002 C 
BRANCH  24  25
HETATM   25  C11 UNL     1       3.356  23.265   5.816  1.00  0.00     0.008 C 
BRANCH  25  26
HETATM   26  C12 UNL     1       3.001  22.290   6.890  1.00  0.00    -0.051 C 
HETATM   27  C13 UNL     1       2.252  21.093   6.333  1.00  0.00     0.014 C 
HETATM   28  C14 UNL     1       2.150  22.927   7.958  1.00  0.00     0.014 C 
HETATM   29  C15 UNL     1       4.278  21.775   7.524  1.00  0.00     0.014 C 
ENDBRANCH  25  26
ENDBRANCH  24  25
ENDBRANCH  23  24
ENDBRANCH  22  23
ENDBRANCH  20  22
ENDBRANCH   1  18
BRANCH   1  30
HETATM   30  C16 UNL     1       8.364  25.834   0.542  1.00  0.00     0.134 C 
BRANCH  30  31
HETATM   31  C17 UNL     1       8.592  24.365   0.606  1.00  0.00     0.191 C 
BRANCH  31  32
HETATM   32  O2  UNL     1       8.524  23.899  -0.720  1.00  0.00    -0.399 OA
ATOM     33  H2  UNL     1       9.194  24.371  -1.201  1.00  0.00     0.209 HD
ENDBRANCH  31  32
ENDBRANCH  30  31
BRANCH  30  34
HETATM   34  N3  UNL     1       9.167  26.377  -0.507  1.00  0.00    -0.404 N 
HETATM   35  C18 UNL     1      10.528  26.624  -0.206  1.00  0.00     0.118 C 
HETATM   36  C19 UNL     1      11.173  27.533  -1.263  1.00  0.00     0.033 C 
HETATM   37  C20 UNL     1      10.761  27.070  -2.649  1.00  0.00     0.078 C 
HETATM   38  C22 UNL     1       9.262  27.060  -2.784  1.00  0.00     0.033 C 
HETATM   39  C23 UNL     1       8.561  27.254  -1.428  1.00  0.00     0.118 C 
BRANCH  37  40
HETATM   40  C21 UNL     1      11.216  25.665  -2.891  1.00  0.00     0.235 C 
HETATM   41  N4  UNL     1      12.596  25.356  -3.072  1.00  0.00    -0.062 NA
HETATM   42  O3  UNL     1      10.420  24.686  -2.947  1.00  0.00    -0.277 OA
ENDBRANCH  37  40
ENDBRANCH  30  34
ENDBRANCH   1  30
TORSDOF 18
ENDMDL
MODEL 5
REMARK VINA RESULT: -7.119141606      1.907      3.925
REMARK  18 active torsions:
REMARK  status: ('A' for Active; 'I' for Inactive)
REMARK    1  A    between atoms: C2_2  and  C3_3 
REMARK    2  A    between atoms: C3_3  and  C5_5 
REMARK    3  A    between atoms: C5_5  and  N1_6 
REMARK    4  A    between atoms: C5_5  and  C24_34 
REMARK    5  A    between atoms: N1_6  and  C6_8 
REMARK    6  A    between atoms: C6_8  and  C7_9 
REMARK    7  A    between atoms: C6_8  and  C16_21 
REMARK       I    between atoms: C7_9  and  N2_11 
REMARK    8  A    between atoms: N2_11  and  C8_13 
REMARK    9  A    between atoms: C8_13  and  C9_14 
REMARK   10  A    between atoms: C9_14  and  C10_15 
REMARK   11  A    between atoms: C10_15  and  C11_16 
REMARK   12  A    between atoms: C11_16  and  C12_17 
REMARK   13  A    between atoms: C16_21  and  C17_22 
REMARK   14  A    between atoms: C16_21  and  N3_25 
REMARK   15  A    between atoms: C17_22  and  O2_23 
REMARK   16  A    between atoms: C20_28  and  C21_29 
REMARK       I    between atoms: C24_34  and  N5_36 
REMARK   17  A    between atoms: N5_36  and  C25_38 
REMARK   18  A    between atoms: C25_38  and  C26_40 
ROOT
HETATM    1  C6  UNL     1       9.304  26.566   3.088  1.00  0.00     0.195 C 
ENDROOT
BRANCH   1   2
HETATM    2  N1  UNL     1       9.345  27.968   3.346  1.00  0.00    -0.395 N 
ATOM      3  H1  UNL     1      10.193  28.517   3.203  1.00  0.00     0.155 HD
BRANCH   2   4
HETATM    4  C5  UNL     1       8.109  28.572   3.823  1.00  0.00     0.174 C 
BRANCH   4   5
HETATM    5  C3  UNL     1       8.181  29.036   5.215  1.00  0.00     0.013 C 
HETATM    6  C4  UNL     1       8.627  30.489   5.372  1.00  0.00     0.012 C 
BRANCH   5   7
HETATM    7  C2  UNL     1       7.008  28.733   6.076  1.00  0.00     0.002 C 
HETATM    8  C1  UNL     1       7.497  28.489   7.515  1.00  0.00     0.005 C 
ENDBRANCH   5   7
ENDBRANCH   4   5
BRANCH   4   9
HETATM    9  C24 UNL     1       7.822  29.582   2.771  1.00  0.00     0.245 C 
HETATM   10  O4  UNL     1       8.907  30.137   2.322  1.00  0.00    -0.271 OA
HETATM   11  N5  UNL     1       6.646  30.022   2.212  1.00  0.00    -0.319 N 
ATOM     12  H5  UNL     1       5.760  29.629   2.530  1.00  0.00     0.169 HD
BRANCH  11  13
HETATM   13  C25 UNL     1       6.648  31.019   1.196  1.00  0.00     0.083 C 
HETATM   14  S1  UNL     1       6.507  32.616   1.475  1.00  0.00    -0.065 SA
BRANCH  13  15
HETATM   15  C26 UNL     1       6.773  30.599  -0.220  1.00  0.00     0.039 C 
HETATM   16  C27 UNL     1       7.983  31.183  -0.882  1.00  0.00     0.017 C 
HETATM   17  C28 UNL     1       5.538  30.893  -1.018  1.00  0.00     0.017 C 
ENDBRANCH  13  15
ENDBRANCH  11  13
ENDBRANCH   4   9
ENDBRANCH   2   4
ENDBRANCH   1   2
BRANCH   1  18
HETATM   18  C7  UNL     1       8.740  25.741   4.182  1.00  0.00     0.242 C 
HETATM   19  O1  UNL     1       9.523  25.022   4.848  1.00  0.00    -0.271 OA
HETATM   20  N2  UNL     1       7.371  25.722   4.506  1.00  0.00    -0.359 N 
ATOM     21  H2  UNL     1       6.771  26.318   3.937  1.00  0.00     0.162 HD
BRANCH  20  22
HETATM   22  C8  UNL     1       6.720  24.980   5.525  1.00  0.00     0.122 C 
BRANCH  22  23
HETATM   23  C9  UNL     1       6.188  23.636   5.122  1.00  0.00     0.020 C 
BRANCH  23  24
HETATM   24  C10 UNL     1       4.737  23.585   5.607  1.00  0.00     0.002 C 
BRANCH  24  25
HETATM   25  C11 UNL     1       4.526  22.513   6.648  1.00  0.00     0.008 C 
BRANCH  25  26
HETATM   26  C12 UNL     1       3.065  22.305   6.873  1.00  0.00    -0.051 C 
HETATM   27  C13 UNL     1       2.706  22.405   8.345  1.00  0.00     0.014 C 
HETATM   28  C14 UNL     1       2.610  20.960   6.365  1.00  0.00     0.014 C 
HETATM   29  C15 UNL     1       2.298  23.389   6.142  1.00  0.00     0.014 C 
ENDBRANCH  25  26
ENDBRANCH  24  25
ENDBRANCH  23  24
ENDBRANCH  22  23
ENDBRANCH  20  22
ENDBRANCH   1  18
BRANCH   1  30
HETATM   30  C16 UNL     1       8.318  26.448   1.894  1.00  0.00     0.134 C 
BRANCH  30  31
HETATM   31  C17 UNL     1       7.497  25.208   1.930  1.00  0.00     0.191 C 
BRANCH  31  32
HETATM   32  O2  UNL     1       6.195  25.588   1.556  1.00  0.00    -0.399 OA
ATOM     33  H2  UNL     1       5.695  24.784   1.481  1.00  0.00     0.209 HD
ENDBRANCH  31  32
ENDBRANCH  30  31
BRANCH  30  34
HETATM   34  N3  UNL     1       9.023  26.496   0.652  1.00  0.00    -0.404 N 
HETATM   35  C18 UNL     1      10.280  25.846   0.607  1.00  0.00     0.118 C 
HETATM   36  C19 UNL     1      11.084  26.280  -0.628  1.00  0.00     0.033 C 
HETATM   37  C20 UNL     1      10.176  26.289  -1.845  1.00  0.00     0.078 C 
HETATM   38  C22 UNL     1       8.994  27.193  -1.622  1.00  0.00     0.033 C 
HETATM   39  C23 UNL     1       8.882  27.642  -0.155  1.00  0.00     0.118 C 
BRANCH  37  40
HETATM   40  C21 UNL     1       9.620  24.923  -2.097  1.00  0.00     0.235 C 
HETATM   41  N4  UNL     1       8.221  24.665  -2.000  1.00  0.00    -0.062 NA
HETATM   42  O3  UNL     1      10.343  23.933  -2.406  1.00  0.00    -0.277 OA
ENDBRANCH  37  40
ENDBRANCH  30  34
ENDBRANCH   1  30
TORSDOF 18
ENDMDL
