MODEL 1
REMARK VINA RESULT: -7.466647076      0.000      0.000
REMARK  16 active torsions:
REMARK  status: ('A' for Active; 'I' for Inactive)
REMARK    1  A    between atoms: C2_2  and  C4_4 
REMARK    2  A    between atoms: C4_4  and  C5_5 
REMARK    3  A    between atoms: C5_5  and  N1_6 
REMARK    4  A    between atoms: C5_5  and  C10_14 
REMARK       I    between atoms: N1_6  and  C6_8 
REMARK    5  A    between atoms: C6_8  and  C7_10 
REMARK    6  A    between atoms: C7_10  and  C9_12 
REMARK    7  A    between atoms: C10_14  and  O2_15 
REMARK    8  A    between atoms: C10_14  and  C11_17 
REMARK    9  A    between atoms: C12_18  and  C13_19 
REMARK   10  A    between atoms: C17_23  and  N2_24 
REMARK   11  A    between atoms: C17_23  and  C29_40 
REMARK       I    between atoms: N2_24  and  C18_26 
REMARK   12  A    between atoms: C18_26  and  C19_28 
REMARK   13  A    between atoms: C19_28  and  C20_29 
REMARK   14  A    between atoms: C20_29  and  C21_30 
REMARK   15  A    between atoms: C21_30  and  N3_31 
REMARK   16  A    between atoms: N3_31  and  C24_34 
ROOT
HETATM    1  C13 UNL     1       8.325  27.992   2.146  1.00  0.00     0.047 C 
HETATM    2  C14 UNL     1       8.493  29.315   1.489  1.00  0.00     0.011 C 
HETATM    3  C15 UNL     1       7.429  29.256   0.409  1.00  0.00     0.004 C 
HETATM    4  C16 UNL     1       7.292  27.794   0.045  1.00  0.00     0.043 C 
HETATM    5  C17 UNL     1       8.229  27.040   0.957  1.00  0.00     0.128 C 
ENDROOT
BRANCH   5   6
HETATM    6  N2  UNL     1       9.494  26.922   0.291  1.00  0.00    -0.341 N 
HETATM    7  C18 UNL     1       9.616  26.165  -0.894  1.00  0.00     0.218 C 
HETATM    8  O3  UNL     1       8.672  25.548  -1.453  1.00  0.00    -0.274 OA
ATOM      9  H2  UNL     1      10.313  27.390   0.678  1.00  0.00     0.163 HD
BRANCH   7  10
HETATM   10  C19 UNL     1      10.947  26.041  -1.603  1.00  0.00     0.104 C 
BRANCH  10  11
HETATM   11  C20 UNL     1      11.842  27.180  -1.310  1.00  0.00     0.037 C 
BRANCH  11  12
HETATM   12  C21 UNL     1      13.282  26.972  -1.205  1.00  0.00     0.238 C 
BRANCH  12  13
HETATM   13  N3  UNL     1      14.162  27.121  -2.296  1.00  0.00    -0.064 N 
HETATM   14  C22 UNL     1      14.097  25.812  -3.009  1.00  0.00     0.273 C 
HETATM   15  C23 UNL     1      13.734  28.060  -3.332  1.00  0.00     0.273 C 
BRANCH  13  16
HETATM   16  C24 UNL     1      15.507  27.454  -1.975  1.00  0.00     0.258 C 
HETATM   17  C25 UNL     1      16.029  28.751  -2.494  1.00  0.00     0.042 C 
HETATM   18  C26 UNL     1      15.696  29.791  -1.441  1.00  0.00     0.010 C 
HETATM   19  C27 UNL     1      15.584  29.059  -0.141  1.00  0.00     0.080 C 
HETATM   20  C28 UNL     1      15.614  27.606  -0.474  1.00  0.00     0.158 C 
HETATM   21  O4  UNL     1      15.711  26.728   0.362  1.00  0.00    -0.296 OA
ENDBRANCH  13  16
ENDBRANCH  12  13
ENDBRANCH  11  12
ENDBRANCH  10  11
ENDBRANCH   7  10
ENDBRANCH   5   6
BRANCH   5  22
HETATM   22  C29 UNL     1       7.698  25.755   1.429  1.00  0.00     0.203 C 
HETATM   23  O5  UNL     1       8.476  24.891   1.869  1.00  0.00    -0.646 OA
HETATM   24  O6  UNL     1       6.351  25.491   1.391  1.00  0.00    -0.646 OA
ENDBRANCH   5  22
BRANCH   1  25
HETATM   25  C12 UNL     1       9.390  27.644   3.093  1.00  0.00    -0.020 C 
HETATM   26  C11 UNL     1       9.348  27.915   4.363  1.00  0.00     0.003 C 
BRANCH  26  27
HETATM   27  C10 UNL     1       8.266  28.603   5.094  1.00  0.00     0.163 C 
BRANCH  27  28
HETATM   28  C5  UNL     1       7.664  27.732   6.186  1.00  0.00     0.117 C 
BRANCH  28  29
HETATM   29  C4  UNL     1       6.789  28.529   7.109  1.00  0.00     0.032 C 
BRANCH  29  30
HETATM   30  C2  UNL     1       7.255  28.376   8.540  1.00  0.00    -0.021 C 
HETATM   31  C1  UNL     1       6.247  28.996   9.501  1.00  0.00     0.009 C 
HETATM   32  C3  UNL     1       8.609  29.031   8.786  1.00  0.00     0.009 C 
ENDBRANCH  29  30
ENDBRANCH  28  29
BRANCH  28  33
HETATM   33  N1  UNL     1       6.870  26.676   5.595  1.00  0.00    -0.353 N 
HETATM   34  C6  UNL     1       7.357  25.391   5.284  1.00  0.00     0.222 C 
HETATM   35  O1  UNL     1       8.552  25.114   5.521  1.00  0.00    -0.273 OA
ATOM     36  H1  UNL     1       5.891  26.876   5.391  1.00  0.00     0.163 HD
BRANCH  34  37
HETATM   37  C7  UNL     1       6.484  24.369   4.683  1.00  0.00     0.084 C 
HETATM   38  C8  UNL     1       5.038  24.698   4.957  1.00  0.00     0.020 C 
BRANCH  37  39
HETATM   39  C9  UNL     1       6.774  22.980   5.209  1.00  0.00     0.099 C 
HETATM   40  S1  UNL     1       5.419  22.534   6.342  1.00  0.00    -0.097 SA
ENDBRANCH  37  39
ENDBRANCH  34  37
ENDBRANCH  28  33
ENDBRANCH  27  28
BRANCH  27  41
HETATM   41  O2  UNL     1       8.790  29.736   5.702  1.00  0.00    -0.390 OA
ATOM     42  H2  UNL     1       8.803  30.430   5.053  1.00  0.00     0.210 HD
ENDBRANCH  27  41
ENDBRANCH  26  27
ENDBRANCH   1  25
TORSDOF 16
ENDMDL
MODEL 2
REMARK VINA RESULT: -7.065220689      4.294      8.811
REMARK  16 active torsions:
REMARK  status: ('A' for Active; 'I' for Inactive)
REMARK    1  A    between atoms: C2_2  and  C4_4 
REMARK    2  A    between atoms: C4_4  and  C5_5 
REMARK    3  A    between atoms: C5_5  and  N1_6 
REMARK    4  A    between atoms: C5_5  and  C10_14 
REMARK       I    between atoms: N1_6  and  C6_8 
REMARK    5  A    between atoms: C6_8  and  C7_10 
REMARK    6  A    between atoms: C7_10  and  C9_12 
REMARK    7  A    between atoms: C10_14  and  O2_15 
REMARK    8  A    between atoms: C10_14  and  C11_17 
REMARK    9  A    between atoms: C12_18  and  C13_19 
REMARK   10  A    between atoms: C17_23  and  N2_24 
REMARK   11  A    between atoms: C17_23  and  C29_40 
REMARK       I    between atoms: N2_24  and  C18_26 
REMARK   12  A    between atoms: C18_26  and  C19_28 
REMARK   13  A    between atoms: C19_28  and  C20_29 
REMARK   14  A    between atoms: C20_29  and  C21_30 
REMARK   15  A    between atoms: C21_30  and  N3_31 
REMARK   16  A    between atoms: N3_31  and  C24_34 
ROOT
HETATM    1  C13 UNL     1       8.170  28.514   5.045  1.00  0.00     0.047 C 
HETATM    2  C14 UNL     1       8.090  28.288   6.513  1.00  0.00     0.011 C 
HETATM    3  C15 UNL     1       6.825  29.047   6.869  1.00  0.00     0.004 C 
HETATM    4  C16 UNL     1       6.725  30.174   5.864  1.00  0.00     0.043 C 
HETATM    5  C17 UNL     1       7.892  30.009   4.922  1.00  0.00     0.128 C 
ENDROOT
BRANCH   5   6
HETATM    6  N2  UNL     1       8.987  30.778   5.437  1.00  0.00    -0.341 N 
HETATM    7  C18 UNL     1       8.839  32.158   5.695  1.00  0.00     0.218 C 
HETATM    8  O3  UNL     1       7.782  32.815   5.506  1.00  0.00    -0.274 OA
ATOM      9  H2  UNL     1       9.882  30.324   5.618  1.00  0.00     0.163 HD
BRANCH   7  10
HETATM   10  C19 UNL     1       9.991  32.974   6.242  1.00  0.00     0.104 C 
BRANCH  10  11
HETATM   11  C20 UNL     1       9.846  33.241   7.688  1.00  0.00     0.037 C 
BRANCH  11  12
HETATM   12  C21 UNL     1       9.361  32.195   8.581  1.00  0.00     0.238 C 
BRANCH  12  13
HETATM   13  N3  UNL     1       8.307  32.392   9.496  1.00  0.00    -0.064 N 
HETATM   14  C22 UNL     1       8.348  33.852   9.803  1.00  0.00     0.273 C 
HETATM   15  C23 UNL     1       6.959  32.227   8.957  1.00  0.00     0.273 C 
BRANCH  13  16
HETATM   16  C24 UNL     1       8.364  31.625  10.692  1.00  0.00     0.258 C 
HETATM   17  C25 UNL     1       7.519  30.397  10.753  1.00  0.00     0.042 C 
HETATM   18  C26 UNL     1       8.367  29.272  10.190  1.00  0.00     0.010 C 
HETATM   19  C27 UNL     1       9.794  29.672  10.397  1.00  0.00     0.080 C 
HETATM   20  C28 UNL     1       9.771  31.092  10.849  1.00  0.00     0.158 C 
HETATM   21  O4  UNL     1      10.750  31.678  11.268  1.00  0.00    -0.296 OA
ENDBRANCH  13  16
ENDBRANCH  12  13
ENDBRANCH  11  12
ENDBRANCH  10  11
ENDBRANCH   7  10
ENDBRANCH   5   6
BRANCH   5  22
HETATM   22  C29 UNL     1       7.576  30.312   3.520  1.00  0.00     0.203 C 
HETATM   23  O5  UNL     1       6.400  30.244   3.125  1.00  0.00    -0.646 OA
HETATM   24  O6  UNL     1       8.564  30.668   2.636  1.00  0.00    -0.646 OA
ENDBRANCH   5  22
BRANCH   1  25
HETATM   25  C12 UNL     1       9.439  28.100   4.435  1.00  0.00    -0.020 C 
HETATM   26  C11 UNL     1       9.749  26.865   4.175  1.00  0.00     0.003 C 
BRANCH  26  27
HETATM   27  C10 UNL     1       8.928  25.665   4.427  1.00  0.00     0.163 C 
BRANCH  27  28
HETATM   28  C5  UNL     1       7.877  25.449   3.349  1.00  0.00     0.117 C 
BRANCH  28  29
HETATM   29  C4  UNL     1       8.501  25.075   2.036  1.00  0.00     0.032 C 
BRANCH  29  30
HETATM   30  C2  UNL     1       7.887  25.881   0.913  1.00  0.00    -0.021 C 
HETATM   31  C1  UNL     1       8.647  25.652  -0.388  1.00  0.00     0.009 C 
HETATM   32  C3  UNL     1       7.884  27.377   1.203  1.00  0.00     0.009 C 
ENDBRANCH  29  30
ENDBRANCH  28  29
BRANCH  28  33
HETATM   33  N1  UNL     1       6.970  24.393   3.746  1.00  0.00    -0.353 N 
HETATM   34  C6  UNL     1       6.119  24.452   4.868  1.00  0.00     0.222 C 
HETATM   35  O1  UNL     1       6.126  25.472   5.590  1.00  0.00    -0.273 OA
ATOM     36  H1  UNL     1       6.945  23.549   3.175  1.00  0.00     0.163 HD
BRANCH  34  37
HETATM   37  C7  UNL     1       5.223  23.333   5.205  1.00  0.00     0.084 C 
HETATM   38  C8  UNL     1       3.804  23.828   5.330  1.00  0.00     0.020 C 
BRANCH  37  39
HETATM   39  C9  UNL     1       5.614  22.649   6.496  1.00  0.00     0.099 C 
HETATM   40  S1  UNL     1       4.107  21.904   7.196  1.00  0.00    -0.097 SA
ENDBRANCH  37  39
ENDBRANCH  34  37
ENDBRANCH  28  33
ENDBRANCH  27  28
BRANCH  27  41
HETATM   41  O2  UNL     1       9.757  24.551   4.435  1.00  0.00    -0.390 OA
ATOM     42  H2  UNL     1      10.189  24.520   5.280  1.00  0.00     0.210 HD
ENDBRANCH  27  41
ENDBRANCH  26  27
ENDBRANCH   1  25
TORSDOF 16
ENDMDL
MODEL 3
REMARK VINA RESULT: -7.041691441      4.345     11.728
REMARK  16 active torsions:
REMARK  status: ('A' for Active; 'I' for Inactive)
REMARK    1  A    between atoms: C2_2  and  C4_4 
REMARK    2  A    between atoms: C4_4  and  C5_5 
REMARK    3  A    between atoms: C5_5  and  N1_6 
REMARK    4  A    between atoms: C5_5  and  C10_14 
REMARK       I    between atoms: N1_6  and  C6_8 
REMARK    5  A    between atoms: C6_8  and  C7_10 
REMARK    6  A    between atoms: C7_10  and  C9_12 
REMARK    7  A    between atoms: C10_14  and  O2_15 
REMARK    8  A    between atoms: C10_14  and  C11_17 
REMARK    9  A    between atoms: C12_18  and  C13_19 
REMARK   10  A    between atoms: C17_23  and  N2_24 
REMARK   11  A    between atoms: C17_23  and  C29_40 
REMARK       I    between atoms: N2_24  and  C18_26 
REMARK   12  A    between atoms: C18_26  and  C19_28 
REMARK   13  A    between atoms: C19_28  and  C20_29 
REMARK   14  A    between atoms: C20_29  and  C21_30 
REMARK   15  A    between atoms: C21_30  and  N3_31 
REMARK   16  A    between atoms: N3_31  and  C24_34 
ROOT
HETATM    1  C13 UNL     1       8.300  25.956   3.062  1.00  0.00     0.047 C 
HETATM    2  C14 UNL     1       7.720  27.323   3.145  1.00  0.00     0.011 C 
HETATM    3  C15 UNL     1       7.968  27.671   4.601  1.00  0.00     0.004 C 
HETATM    4  C16 UNL     1       7.942  26.356   5.349  1.00  0.00     0.043 C 
HETATM    5  C17 UNL     1       7.739  25.280   4.310  1.00  0.00     0.128 C 
ENDROOT
BRANCH   5   6
HETATM    6  N2  UNL     1       6.330  25.051   4.180  1.00  0.00    -0.341 N 
HETATM    7  C18 UNL     1       5.603  24.429   5.218  1.00  0.00     0.218 C 
HETATM    8  O3  UNL     1       6.099  24.033   6.305  1.00  0.00    -0.274 OA
ATOM      9  H2  UNL     1       5.848  25.340   3.329  1.00  0.00     0.163 HD
BRANCH   7  10
HETATM   10  C19 UNL     1       4.114  24.189   5.087  1.00  0.00     0.104 C 
BRANCH  10  11
HETATM   11  C20 UNL     1       3.657  23.061   5.924  1.00  0.00     0.037 C 
BRANCH  11  12
HETATM   12  C21 UNL     1       2.265  22.986   6.354  1.00  0.00     0.238 C 
BRANCH  12  13
HETATM   13  N3  UNL     1       1.852  22.290   7.508  1.00  0.00    -0.064 N 
HETATM   14  C22 UNL     1       1.588  20.901   7.031  1.00  0.00     0.273 C 
HETATM   15  C23 UNL     1       2.883  22.078   8.523  1.00  0.00     0.273 C 
BRANCH  13  16
HETATM   16  C24 UNL     1       0.717  22.815   8.185  1.00  0.00     0.258 C 
HETATM   17  C25 UNL     1       0.018  23.968   7.548  1.00  0.00     0.042 C 
HETATM   18  C26 UNL     1      -1.021  23.371   6.618  1.00  0.00     0.010 C 
HETATM   19  C27 UNL     1      -1.345  22.014   7.159  1.00  0.00     0.080 C 
HETATM   20  C28 UNL     1      -0.346  21.740   8.232  1.00  0.00     0.158 C 
HETATM   21  O4  UNL     1      -0.423  20.796   8.994  1.00  0.00    -0.296 OA
ENDBRANCH  13  16
ENDBRANCH  12  13
ENDBRANCH  11  12
ENDBRANCH  10  11
ENDBRANCH   7  10
ENDBRANCH   5   6
BRANCH   5  22
HETATM   22  C29 UNL     1       8.508  24.054   4.562  1.00  0.00     0.203 C 
HETATM   23  O5  UNL     1       9.700  24.133   4.904  1.00  0.00    -0.646 OA
HETATM   24  O6  UNL     1       7.928  22.817   4.423  1.00  0.00    -0.646 OA
ENDBRANCH   5  22
BRANCH   1  25
HETATM   25  C12 UNL     1       7.993  25.240   1.818  1.00  0.00    -0.020 C 
HETATM   26  C11 UNL     1       8.632  25.422   0.702  1.00  0.00     0.003 C 
BRANCH  26  27
HETATM   27  C10 UNL     1       9.754  26.349   0.454  1.00  0.00     0.163 C 
BRANCH  27  28
HETATM   28  C5  UNL     1      10.765  25.780  -0.529  1.00  0.00     0.117 C 
BRANCH  28  29
HETATM   29  C4  UNL     1      10.103  24.922  -1.568  1.00  0.00     0.032 C 
BRANCH  29  30
HETATM   30  C2  UNL     1      10.156  25.596  -2.921  1.00  0.00    -0.021 C 
HETATM   31  C1  UNL     1       8.750  25.906  -3.420  1.00  0.00     0.009 C 
HETATM   32  C3  UNL     1      10.854  24.741  -3.971  1.00  0.00     0.009 C 
ENDBRANCH  29  30
ENDBRANCH  28  29
BRANCH  28  33
HETATM   33  N1  UNL     1      11.466  26.855  -1.198  1.00  0.00    -0.353 N 
HETATM   34  C6  UNL     1      12.846  27.108  -1.071  1.00  0.00     0.222 C 
HETATM   35  O1  UNL     1      13.540  26.372  -0.338  1.00  0.00    -0.273 OA
ATOM     36  H1  UNL     1      10.923  27.472  -1.802  1.00  0.00     0.163 HD
BRANCH  34  37
HETATM   37  C7  UNL     1      13.486  28.225  -1.787  1.00  0.00     0.084 C 
HETATM   38  C8  UNL     1      13.992  27.757  -3.128  1.00  0.00     0.020 C 
BRANCH  37  39
HETATM   39  C9  UNL     1      14.641  28.821  -1.012  1.00  0.00     0.099 C 
HETATM   40  S1  UNL     1      16.179  28.243  -1.799  1.00  0.00    -0.097 SA
ENDBRANCH  37  39
ENDBRANCH  34  37
ENDBRANCH  28  33
ENDBRANCH  27  28
BRANCH  27  41
HETATM   41  O2  UNL     1       9.251  27.522  -0.092  1.00  0.00    -0.390 OA
ATOM     42  H2  UNL     1       8.313  27.414  -0.192  1.00  0.00     0.210 HD
ENDBRANCH  27  41
ENDBRANCH  26  27
ENDBRANCH   1  25
TORSDOF 16
ENDMDL
MODEL 4
REMARK VINA RESULT: -6.992527656      5.978      9.666
REMARK  16 active torsions:
REMARK  status: ('A' for Active; 'I' for Inactive)
REMARK    1  A    between atoms: C2_2  and  C4_4 
REMARK    2  A    between atoms: C4_4  and  C5_5 
REMARK    3  A    between atoms: C5_5  and  N1_6 
REMARK    4  A    between atoms: C5_5  and  C10_14 
REMARK       I    between atoms: N1_6  and  C6_8 
REMARK    5  A    between atoms: C6_8  and  C7_10 
REMARK    6  A    between atoms: C7_10  and  C9_12 
REMARK    7  A    between atoms: C10_14  and  O2_15 
REMARK    8  A    between atoms: C10_14  and  C11_17 
REMARK    9  A    between atoms: C12_18  and  C13_19 
REMARK   10  A    between atoms: C17_23  and  N2_24 
REMARK   11  A    between atoms: C17_23  and  C29_40 
REMARK       I    between atoms: N2_24  and  C18_26 
REMARK   12  A    between atoms: C18_26  and  C19_28 
REMARK   13  A    between atoms: C19_28  and  C20_29 
REMARK   14  A    between atoms: C20_29  and  C21_30 
REMARK   15  A    between atoms: C21_30  and  N3_31 
REMARK   16  A    between atoms: N3_31  and  C24_34 
ROOT
HETATM    1  C13 UNL     1       8.063  29.204  10.356  1.00  0.00     0.047 C 
HETATM    2  C14 UNL     1       9.451  29.419   9.867  1.00  0.00     0.011 C 
HETATM    3  C15 UNL     1       9.360  30.825   9.304  1.00  0.00     0.004 C 
HETATM    4  C16 UNL     1       7.931  30.990   8.836  1.00  0.00     0.043 C 
HETATM    5  C17 UNL     1       7.217  29.708   9.189  1.00  0.00     0.128 C 
ENDROOT
BRANCH   5   6
HETATM    6  N2  UNL     1       7.315  28.823   8.065  1.00  0.00    -0.341 N 
HETATM    7  C18 UNL     1       7.112  29.302   6.753  1.00  0.00     0.218 C 
HETATM    8  O3  UNL     1       6.838  30.495   6.458  1.00  0.00    -0.274 OA
ATOM      9  H2  UNL     1       7.532  27.838   8.215  1.00  0.00     0.163 HD
BRANCH   7  10
HETATM   10  C19 UNL     1       7.218  28.374   5.563  1.00  0.00     0.104 C 
BRANCH  10  11
HETATM   11  C20 UNL     1       7.712  27.035   5.943  1.00  0.00     0.037 C 
BRANCH  11  12
HETATM   12  C21 UNL     1       6.969  25.841   5.554  1.00  0.00     0.238 C 
BRANCH  12  13
HETATM   13  N3  UNL     1       7.497  24.850   4.702  1.00  0.00    -0.064 N 
HETATM   14  C22 UNL     1       7.806  25.574   3.435  1.00  0.00     0.273 C 
HETATM   15  C23 UNL     1       8.804  24.318   5.082  1.00  0.00     0.273 C 
BRANCH  13  16
HETATM   16  C24 UNL     1       6.659  23.729   4.451  1.00  0.00     0.258 C 
HETATM   17  C25 UNL     1       6.960  22.473   5.197  1.00  0.00     0.042 C 
HETATM   18  C26 UNL     1       6.178  22.555   6.494  1.00  0.00     0.010 C 
HETATM   19  C27 UNL     1       5.017  23.462   6.233  1.00  0.00     0.080 C 
HETATM   20  C28 UNL     1       5.255  24.075   4.895  1.00  0.00     0.158 C 
HETATM   21  O4  UNL     1       4.424  24.735   4.302  1.00  0.00    -0.296 OA
ENDBRANCH  13  16
ENDBRANCH  12  13
ENDBRANCH  11  12
ENDBRANCH  10  11
ENDBRANCH   7  10
ENDBRANCH   5   6
BRANCH   5  22
HETATM   22  C29 UNL     1       5.840  29.901   9.661  1.00  0.00     0.203 C 
HETATM   23  O5  UNL     1       4.890  29.487   8.975  1.00  0.00    -0.646 OA
HETATM   24  O6  UNL     1       5.584  30.535  10.852  1.00  0.00    -0.646 OA
ENDBRANCH   5  22
BRANCH   1  25
HETATM   25  C12 UNL     1       7.763  27.821  10.744  1.00  0.00    -0.020 C 
HETATM   26  C11 UNL     1       8.257  27.240  11.796  1.00  0.00     0.003 C 
BRANCH  26  27
HETATM   27  C10 UNL     1       9.188  27.821  12.783  1.00  0.00     0.163 C 
BRANCH  27  28
HETATM   28  C5  UNL     1       8.512  28.102  14.116  1.00  0.00     0.117 C 
BRANCH  28  29
HETATM   29  C4  UNL     1       8.915  29.439  14.669  1.00  0.00     0.032 C 
BRANCH  29  30
HETATM   30  C2  UNL     1       9.378  30.352  13.556  1.00  0.00    -0.021 C 
HETATM   31  C1  UNL     1      10.707  31.005  13.917  1.00  0.00     0.009 C 
HETATM   32  C3  UNL     1       8.374  31.457  13.253  1.00  0.00     0.009 C 
ENDBRANCH  29  30
ENDBRANCH  28  29
BRANCH  28  33
HETATM   33  N1  UNL     1       7.074  28.084  13.956  1.00  0.00    -0.353 N 
HETATM   34  C6  UNL     1       6.184  27.414  14.818  1.00  0.00     0.222 C 
HETATM   35  O1  UNL     1       6.637  26.783  15.797  1.00  0.00    -0.273 OA
ATOM     36  H1  UNL     1       6.678  28.590  13.164  1.00  0.00     0.163 HD
BRANCH  34  37
HETATM   37  C7  UNL     1       4.730  27.443  14.587  1.00  0.00     0.084 C 
HETATM   38  C8  UNL     1       4.418  28.267  13.363  1.00  0.00     0.020 C 
BRANCH  37  39
HETATM   39  C9  UNL     1       3.969  28.013  15.764  1.00  0.00     0.099 C 
HETATM   40  S1  UNL     1       3.037  26.645  16.523  1.00  0.00    -0.097 SA
ENDBRANCH  37  39
ENDBRANCH  34  37
ENDBRANCH  28  33
ENDBRANCH  27  28
BRANCH  27  41
HETATM   41  O2  UNL     1      10.214  26.915  13.015  1.00  0.00    -0.390 OA
ATOM     42  H2  UNL     1      10.145  26.229  12.363  1.00  0.00     0.210 HD
ENDBRANCH  27  41
ENDBRANCH  26  27
ENDBRANCH   1  25
TORSDOF 16
ENDMDL
MODEL 5
REMARK VINA RESULT: -6.930885890      5.089     10.335
REMARK  16 active torsions:
REMARK  status: ('A' for Active; 'I' for Inactive)
REMARK    1  A    between atoms: C2_2  and  C4_4 
REMARK    2  A    between atoms: C4_4  and  C5_5 
REMARK    3  A    between atoms: C5_5  and  N1_6 
REMARK    4  A    between atoms: C5_5  and  C10_14 
REMARK       I    between atoms: N1_6  and  C6_8 
REMARK    5  A    between atoms: C6_8  and  C7_10 
REMARK    6  A    between atoms: C7_10  and  C9_12 
REMARK    7  A    between atoms: C10_14  and  O2_15 
REMARK    8  A    between atoms: C10_14  and  C11_17 
REMARK    9  A    between atoms: C12_18  and  C13_19 
REMARK   10  A    between atoms: C17_23  and  N2_24 
REMARK   11  A    between atoms: C17_23  and  C29_40 
REMARK       I    between atoms: N2_24  and  C18_26 
REMARK   12  A    between atoms: C18_26  and  C19_28 
REMARK   13  A    between atoms: C19_28  and  C20_29 
REMARK   14  A    between atoms: C20_29  and  C21_30 
REMARK   15  A    between atoms: C21_30  and  N3_31 
REMARK   16  A    between atoms: N3_31  and  C24_34 
ROOT
HETATM    1  C13 UNL     1       8.870  26.119   3.708  1.00  0.00     0.047 C 
HETATM    2  C14 UNL     1       9.069  25.758   5.137  1.00  0.00     0.011 C 
HETATM    3  C15 UNL     1       9.256  24.254   5.047  1.00  0.00     0.004 C 
HETATM    4  C16 UNL     1       8.455  23.811   3.843  1.00  0.00     0.043 C 
HETATM    5  C17 UNL     1       7.875  25.063   3.233  1.00  0.00     0.128 C 
ENDROOT
BRANCH   5   6
HETATM    6  N2  UNL     1       6.582  25.280   3.814  1.00  0.00    -0.341 N 
HETATM    7  C18 UNL     1       5.895  24.226   4.454  1.00  0.00     0.218 C 
HETATM    8  O3  UNL     1       6.330  23.051   4.569  1.00  0.00    -0.274 OA
ATOM      9  H2  UNL     1       6.154  26.205   3.764  1.00  0.00     0.163 HD
BRANCH   7  10
HETATM   10  C19 UNL     1       4.532  24.451   5.073  1.00  0.00     0.104 C 
BRANCH  10  11
HETATM   11  C20 UNL     1       4.081  23.287   5.863  1.00  0.00     0.037 C 
BRANCH  11  12
HETATM   12  C21 UNL     1       2.670  23.132   6.199  1.00  0.00     0.238 C 
BRANCH  12  13
HETATM   13  N3  UNL     1       2.215  22.318   7.256  1.00  0.00    -0.064 N 
HETATM   14  C22 UNL     1       1.847  21.029   6.602  1.00  0.00     0.273 C 
HETATM   15  C23 UNL     1       3.234  21.898   8.216  1.00  0.00     0.273 C 
BRANCH  13  16
HETATM   16  C24 UNL     1       1.126  22.827   8.015  1.00  0.00     0.258 C 
HETATM   17  C25 UNL     1       0.332  23.934   7.409  1.00  0.00     0.042 C 
HETATM   18  C26 UNL     1      -0.763  23.272   6.594  1.00  0.00     0.010 C 
HETATM   19  C27 UNL     1      -0.988  21.924   7.202  1.00  0.00     0.080 C 
HETATM   20  C28 UNL     1       0.110  21.719   8.189  1.00  0.00     0.158 C 
HETATM   21  O4  UNL     1       0.136  20.799   8.983  1.00  0.00    -0.296 OA
ENDBRANCH  13  16
ENDBRANCH  12  13
ENDBRANCH  11  12
ENDBRANCH  10  11
ENDBRANCH   7  10
ENDBRANCH   5   6
BRANCH   5  22
HETATM   22  C29 UNL     1       7.860  25.062   1.765  1.00  0.00     0.203 C 
HETATM   23  O5  UNL     1       6.832  25.407   1.158  1.00  0.00    -0.646 OA
HETATM   24  O6  UNL     1       8.969  24.684   1.049  1.00  0.00    -0.646 OA
ENDBRANCH   5  22
BRANCH   1  25
HETATM   25  C12 UNL     1       8.416  27.496   3.487  1.00  0.00    -0.020 C 
HETATM   26  C11 UNL     1       7.939  28.260   4.423  1.00  0.00     0.003 C 
BRANCH  26  27
HETATM   27  C10 UNL     1       7.758  27.921   5.848  1.00  0.00     0.163 C 
BRANCH  27  28
HETATM   28  C5  UNL     1       7.808  29.150   6.743  1.00  0.00     0.117 C 
BRANCH  28  29
HETATM   29  C4  UNL     1       8.341  28.819   8.107  1.00  0.00     0.032 C 
BRANCH  29  30
HETATM   30  C2  UNL     1       7.391  29.308   9.177  1.00  0.00    -0.021 C 
HETATM   31  C1  UNL     1       7.257  28.273  10.288  1.00  0.00     0.009 C 
HETATM   32  C3  UNL     1       5.999  29.600   8.632  1.00  0.00     0.009 C 
ENDBRANCH  29  30
ENDBRANCH  28  29
BRANCH  28  33
HETATM   33  N1  UNL     1       8.656  30.161   6.149  1.00  0.00    -0.353 N 
HETATM   34  C6  UNL     1       8.231  31.461   5.813  1.00  0.00     0.222 C 
HETATM   35  O1  UNL     1       7.047  31.795   6.028  1.00  0.00    -0.273 OA
ATOM     36  H1  UNL     1       9.628  29.915   5.962  1.00  0.00     0.163 HD
BRANCH  34  37
HETATM   37  C7  UNL     1       9.158  32.435   5.210  1.00  0.00     0.084 C 
HETATM   38  C8  UNL     1      10.138  31.727   4.309  1.00  0.00     0.020 C 
BRANCH  37  39
HETATM   39  C9  UNL     1       9.931  33.217   6.250  1.00  0.00     0.099 C 
HETATM   40  S1  UNL     1       8.935  34.680   6.682  1.00  0.00    -0.097 SA
ENDBRANCH  37  39
ENDBRANCH  34  37
ENDBRANCH  28  33
ENDBRANCH  27  28
BRANCH  27  41
HETATM   41  O2  UNL     1       6.511  27.333   6.012  1.00  0.00    -0.390 OA
ATOM     42  H2  UNL     1       6.496  26.541   5.489  1.00  0.00     0.210 HD
ENDBRANCH  27  41
ENDBRANCH  26  27
ENDBRANCH   1  25
TORSDOF 16
ENDMDL
