MODEL 1
REMARK VINA RESULT: -7.849524139      0.000      0.000
REMARK  16 active torsions:
REMARK  status: ('A' for Active; 'I' for Inactive)
REMARK    1  A    between atoms: C2_2  and  C3_3 
REMARK    2  A    between atoms: C3_3  and  C5_5 
REMARK    3  A    between atoms: C5_5  and  N1_6 
REMARK    4  A    between atoms: C5_5  and  C13_16 
REMARK       I    between atoms: N1_6  and  C6_8 
REMARK    5  A    between atoms: C6_8  and  C7_10 
REMARK       I    between atoms: C13_16  and  N2_18 
REMARK    6  A    between atoms: N2_18  and  C14_20 
REMARK    7  A    between atoms: C14_20  and  C15_21 
REMARK    8  A    between atoms: C15_21  and  O3_22 
REMARK    9  A    between atoms: C15_21  and  C16_24 
REMARK   10  A    between atoms: C16_24  and  C17_25 
REMARK   11  A    between atoms: C16_24  and  N3_29 
REMARK   12  A    between atoms: C17_25  and  C18_26 
REMARK   13  A    between atoms: N3_29  and  C21_31 
REMARK   14  A    between atoms: C21_31  and  C23_33 
REMARK   15  A    between atoms: C26_36  and  C27_37 
REMARK   16  A    between atoms: C27_37  and  C28_38 
ROOT
HETATM    1  C15 UNL     1       7.284  28.736   7.876  1.00  0.00     0.201 C 
ENDROOT
BRANCH   1   2
HETATM    2  C14 UNL     1       6.963  28.917   6.475  1.00  0.00     0.101 C 
BRANCH   2   3
HETATM    3  N2  UNL     1       6.987  27.759   5.664  1.00  0.00    -0.333 N 
HETATM    4  C13 UNL     1       8.086  26.984   5.178  1.00  0.00     0.268 C 
HETATM    5  O2  UNL     1       9.246  27.340   5.483  1.00  0.00    -0.266 OA
ATOM      6  H2  UNL     1       6.068  27.421   5.377  1.00  0.00     0.168 HD
BRANCH   4   7
HETATM    7  C5  UNL     1       7.785  25.794   4.319  1.00  0.00     0.084 C 
BRANCH   7   8
HETATM    8  C3  UNL     1       7.723  24.483   5.048  1.00  0.00     0.037 C 
HETATM    9  C4  UNL     1       8.998  23.675   4.764  1.00  0.00     0.016 C 
BRANCH   8  10
HETATM   10  C2  UNL     1       6.514  23.661   4.821  1.00  0.00     0.006 C 
HETATM   11  C1  UNL     1       5.852  22.951   5.919  1.00  0.00     0.006 C 
ENDBRANCH   8  10
ENDBRANCH   7   8
BRANCH   7  12
HETATM   12  N1  UNL     1       8.472  25.763   3.063  1.00  0.00    -0.325 N 
HETATM   13  C6  UNL     1       7.856  25.535   1.818  1.00  0.00     0.226 C 
HETATM   14  O1  UNL     1       6.611  25.343   1.774  1.00  0.00    -0.273 OA
ATOM     15  H1  UNL     1       9.481  25.917   3.071  1.00  0.00     0.168 HD
BRANCH  13  16
HETATM   16  C7  UNL     1       8.599  25.510   0.561  1.00  0.00     0.078 C 
HETATM   17  C8  UNL     1       8.868  24.048   0.203  1.00  0.00     0.014 C 
HETATM   18  C9  UNL     1       9.382  23.920  -1.205  1.00  0.00     0.001 C 
HETATM   19  C10 UNL     1      10.036  25.202  -1.654  1.00  0.00     0.000 C 
HETATM   20  C11 UNL     1      10.789  25.774  -0.479  1.00  0.00     0.001 C 
HETATM   21  C12 UNL     1       9.893  26.263   0.620  1.00  0.00     0.014 C 
ENDBRANCH  13  16
ENDBRANCH   7  12
ENDBRANCH   4   7
ENDBRANCH   2   3
ENDBRANCH   1   2
BRANCH   1  22
HETATM   22  O3  UNL     1       8.644  28.846   8.150  1.00  0.00    -0.385 OA
ATOM     23  H3  UNL     1       9.158  28.130   7.797  1.00  0.00     0.211 HD
ENDBRANCH   1  22
BRANCH   1  24
HETATM   24  C16 UNL     1       6.516  29.502   8.917  1.00  0.00     0.017 C 
BRANCH  24  25
HETATM   25  C17 UNL     1       7.132  30.879   8.951  1.00  0.00     0.059 C 
BRANCH  25  26
HETATM   26  C18 UNL     1       6.329  32.035   8.573  1.00  0.00    -0.017 C 
HETATM   27  C19 UNL     1       6.722  32.510   7.163  1.00  0.00     0.010 C 
HETATM   28  C20 UNL     1       4.850  31.987   8.598  1.00  0.00     0.010 C 
ENDBRANCH  25  26
ENDBRANCH  24  25
BRANCH  24  29
HETATM   29  N3  UNL     1       6.140  28.972  10.146  1.00  0.00    -0.388 N 
ATOM     30  H3  UNL     1       5.837  27.999  10.202  1.00  0.00     0.159 HD
BRANCH  29  31
HETATM   31  C21 UNL     1       6.170  29.759  11.322  1.00  0.00     0.100 C 
HETATM   32  C22 UNL     1       4.747  29.876  11.865  1.00  0.00     0.034 C 
BRANCH  31  33
HETATM   33  C23 UNL     1       7.039  29.279  12.459  1.00  0.00     0.108 C 
HETATM   34  C24 UNL     1       7.604  27.934  12.135  1.00  0.00     0.028 C 
HETATM   35  C25 UNL     1       8.990  27.808  11.658  1.00  0.00     0.017 C 
HETATM   36  C26 UNL     1       9.976  28.510  12.540  1.00  0.00     0.088 C 
HETATM   37  C29 UNL     1       9.430  29.775  13.027  1.00  0.00     0.224 C 
HETATM   38  O6  UNL     1      10.174  30.510  13.710  1.00  0.00    -0.273 OA
HETATM   39  N4  UNL     1       8.086  30.205  12.752  1.00  0.00    -0.349 N 
HETATM   40  C30 UNL     1       7.857  31.625  12.809  1.00  0.00     0.153 C 
BRANCH  36  41
HETATM   41  C27 UNL     1      10.345  27.579  13.671  1.00  0.00     0.127 C 
BRANCH  41  42
HETATM   42  C28 UNL     1      11.793  27.294  13.726  1.00  0.00     0.173 C 
HETATM   43  O4  UNL     1      12.596  28.241  13.518  1.00  0.00    -0.648 OA
HETATM   44  O5  UNL     1      12.327  26.040  13.997  1.00  0.00    -0.648 OA
ENDBRANCH  41  42
ENDBRANCH  36  41
ENDBRANCH  31  33
ENDBRANCH  29  31
ENDBRANCH  24  29
ENDBRANCH   1  24
TORSDOF 16
ENDMDL
MODEL 2
REMARK VINA RESULT: -7.824267352      2.038      4.575
REMARK  16 active torsions:
REMARK  status: ('A' for Active; 'I' for Inactive)
REMARK    1  A    between atoms: C2_2  and  C3_3 
REMARK    2  A    between atoms: C3_3  and  C5_5 
REMARK    3  A    between atoms: C5_5  and  N1_6 
REMARK    4  A    between atoms: C5_5  and  C13_16 
REMARK       I    between atoms: N1_6  and  C6_8 
REMARK    5  A    between atoms: C6_8  and  C7_10 
REMARK       I    between atoms: C13_16  and  N2_18 
REMARK    6  A    between atoms: N2_18  and  C14_20 
REMARK    7  A    between atoms: C14_20  and  C15_21 
REMARK    8  A    between atoms: C15_21  and  O3_22 
REMARK    9  A    between atoms: C15_21  and  C16_24 
REMARK   10  A    between atoms: C16_24  and  C17_25 
REMARK   11  A    between atoms: C16_24  and  N3_29 
REMARK   12  A    between atoms: C17_25  and  C18_26 
REMARK   13  A    between atoms: N3_29  and  C21_31 
REMARK   14  A    between atoms: C21_31  and  C23_33 
REMARK   15  A    between atoms: C26_36  and  C27_37 
REMARK   16  A    between atoms: C27_37  and  C28_38 
ROOT
HETATM    1  C15 UNL     1       7.861  29.026   6.376  1.00  0.00     0.201 C 
ENDROOT
BRANCH   1   2
HETATM    2  C14 UNL     1       8.412  28.761   5.063  1.00  0.00     0.101 C 
BRANCH   2   3
HETATM    3  N2  UNL     1       7.956  27.594   4.407  1.00  0.00    -0.333 N 
HETATM    4  C13 UNL     1       8.680  26.548   3.754  1.00  0.00     0.268 C 
HETATM    5  O2  UNL     1       9.928  26.621   3.718  1.00  0.00    -0.266 OA
ATOM      6  H2  UNL     1       6.942  27.478   4.399  1.00  0.00     0.168 HD
BRANCH   4   7
HETATM    7  C5  UNL     1       7.899  25.427   3.138  1.00  0.00     0.084 C 
BRANCH   7   8
HETATM    8  C3  UNL     1       7.689  25.538   1.655  1.00  0.00     0.037 C 
HETATM    9  C4  UNL     1       8.750  24.703   0.922  1.00  0.00     0.016 C 
BRANCH   8  10
HETATM   10  C2  UNL     1       7.619  26.909   1.102  1.00  0.00     0.006 C 
HETATM   11  C1  UNL     1       8.697  27.458   0.275  1.00  0.00     0.006 C 
ENDBRANCH   8  10
ENDBRANCH   7   8
BRANCH   7  12
HETATM   12  N1  UNL     1       6.754  25.004   3.887  1.00  0.00    -0.325 N 
HETATM   13  C6  UNL     1       6.808  24.229   5.060  1.00  0.00     0.226 C 
HETATM   14  O1  UNL     1       7.930  23.869   5.509  1.00  0.00    -0.273 OA
ATOM     15  H1  UNL     1       5.834  25.283   3.545  1.00  0.00     0.168 HD
BRANCH  13  16
HETATM   16  C7  UNL     1       5.613  23.816   5.791  1.00  0.00     0.078 C 
HETATM   17  C8  UNL     1       5.703  22.308   6.026  1.00  0.00     0.014 C 
HETATM   18  C9  UNL     1       4.656  21.849   7.005  1.00  0.00     0.001 C 
HETATM   19  C10 UNL     1       3.488  22.801   7.025  1.00  0.00     0.000 C 
HETATM   20  C11 UNL     1       3.244  23.266   5.611  1.00  0.00     0.001 C 
HETATM   21  C12 UNL     1       4.337  24.141   5.076  1.00  0.00     0.014 C 
ENDBRANCH  13  16
ENDBRANCH   7  12
ENDBRANCH   4   7
ENDBRANCH   2   3
ENDBRANCH   1   2
BRANCH   1  22
HETATM   22  O3  UNL     1       8.730  28.705   7.414  1.00  0.00    -0.385 OA
ATOM     23  H3  UNL     1       8.828  29.402   8.053  1.00  0.00     0.211 HD
ENDBRANCH   1  22
BRANCH   1  24
HETATM   24  C16 UNL     1       7.239  30.365   6.661  1.00  0.00     0.017 C 
BRANCH  24  25
HETATM   25  C17 UNL     1       8.328  31.382   6.426  1.00  0.00     0.059 C 
BRANCH  25  26
HETATM   26  C18 UNL     1       8.131  32.427   5.428  1.00  0.00    -0.017 C 
HETATM   27  C19 UNL     1       9.347  32.492   4.488  1.00  0.00     0.010 C 
HETATM   28  C20 UNL     1       6.933  32.449   4.561  1.00  0.00     0.010 C 
ENDBRANCH  25  26
ENDBRANCH  24  25
BRANCH  24  29
HETATM   29  N3  UNL     1       6.397  30.612   7.740  1.00  0.00    -0.388 N 
ATOM     30  H3  UNL     1       5.511  30.111   7.810  1.00  0.00     0.159 HD
BRANCH  29  31
HETATM   31  C21 UNL     1       6.749  31.547   8.743  1.00  0.00     0.100 C 
HETATM   32  C22 UNL     1       5.598  32.539   8.907  1.00  0.00     0.034 C 
BRANCH  31  33
HETATM   33  C23 UNL     1       7.067  31.008  10.116  1.00  0.00     0.108 C 
HETATM   34  C24 UNL     1       6.291  29.754  10.363  1.00  0.00     0.028 C 
HETATM   35  C25 UNL     1       6.941  28.442  10.222  1.00  0.00     0.017 C 
HETATM   36  C26 UNL     1       8.220  28.340  10.996  1.00  0.00     0.088 C 
HETATM   37  C29 UNL     1       8.969  29.592  10.930  1.00  0.00     0.224 C 
HETATM   38  O6  UNL     1      10.099  29.628  11.462  1.00  0.00    -0.273 OA
HETATM   39  N4  UNL     1       8.465  30.772  10.282  1.00  0.00    -0.349 N 
HETATM   40  C30 UNL     1       9.457  31.711   9.827  1.00  0.00     0.153 C 
BRANCH  36  41
HETATM   41  C27 UNL     1       7.884  27.954  12.417  1.00  0.00     0.127 C 
BRANCH  41  42
HETATM   42  C28 UNL     1       8.538  26.698  12.837  1.00  0.00     0.173 C 
HETATM   43  O4  UNL     1       8.666  25.778  11.987  1.00  0.00    -0.648 OA
HETATM   44  O5  UNL     1       9.027  26.468  14.117  1.00  0.00    -0.648 OA
ENDBRANCH  41  42
ENDBRANCH  36  41
ENDBRANCH  31  33
ENDBRANCH  29  31
ENDBRANCH  24  29
ENDBRANCH   1  24
TORSDOF 16
ENDMDL
MODEL 3
REMARK VINA RESULT: -7.619028637      2.404      5.161
REMARK  16 active torsions:
REMARK  status: ('A' for Active; 'I' for Inactive)
REMARK    1  A    between atoms: C2_2  and  C3_3 
REMARK    2  A    between atoms: C3_3  and  C5_5 
REMARK    3  A    between atoms: C5_5  and  N1_6 
REMARK    4  A    between atoms: C5_5  and  C13_16 
REMARK       I    between atoms: N1_6  and  C6_8 
REMARK    5  A    between atoms: C6_8  and  C7_10 
REMARK       I    between atoms: C13_16  and  N2_18 
REMARK    6  A    between atoms: N2_18  and  C14_20 
REMARK    7  A    between atoms: C14_20  and  C15_21 
REMARK    8  A    between atoms: C15_21  and  O3_22 
REMARK    9  A    between atoms: C15_21  and  C16_24 
REMARK   10  A    between atoms: C16_24  and  C17_25 
REMARK   11  A    between atoms: C16_24  and  N3_29 
REMARK   12  A    between atoms: C17_25  and  C18_26 
REMARK   13  A    between atoms: N3_29  and  C21_31 
REMARK   14  A    between atoms: C21_31  and  C23_33 
REMARK   15  A    between atoms: C26_36  and  C27_37 
REMARK   16  A    between atoms: C27_37  and  C28_38 
ROOT
HETATM    1  C15 UNL     1       8.787  29.369   5.195  1.00  0.00     0.201 C 
ENDROOT
BRANCH   1   2
HETATM    2  C14 UNL     1       8.913  27.994   5.632  1.00  0.00     0.101 C 
BRANCH   2   3
HETATM    3  N2  UNL     1       8.297  27.011   4.823  1.00  0.00    -0.333 N 
HETATM    4  C13 UNL     1       8.855  26.116   3.857  1.00  0.00     0.268 C 
HETATM    5  O2  UNL     1      10.085  26.163   3.643  1.00  0.00    -0.266 OA
ATOM      6  H2  UNL     1       7.288  26.927   4.949  1.00  0.00     0.168 HD
BRANCH   4   7
HETATM    7  C5  UNL     1       7.926  25.178   3.147  1.00  0.00     0.084 C 
BRANCH   7   8
HETATM    8  C3  UNL     1       7.694  25.491   1.697  1.00  0.00     0.037 C 
HETATM    9  C4  UNL     1       8.649  24.655   0.831  1.00  0.00     0.016 C 
BRANCH   8  10
HETATM   10  C2  UNL     1       7.746  26.919   1.316  1.00  0.00     0.006 C 
HETATM   11  C1  UNL     1       8.696  27.411   0.313  1.00  0.00     0.006 C 
ENDBRANCH   8  10
ENDBRANCH   7   8
BRANCH   7  12
HETATM   12  N1  UNL     1       6.758  24.806   3.887  1.00  0.00    -0.325 N 
HETATM   13  C6  UNL     1       6.774  24.103   5.106  1.00  0.00     0.226 C 
HETATM   14  O1  UNL     1       7.880  23.766   5.608  1.00  0.00    -0.273 OA
ATOM     15  H1  UNL     1       5.850  25.068   3.503  1.00  0.00     0.168 HD
BRANCH  13  16
HETATM   16  C7  UNL     1       5.556  23.741   5.826  1.00  0.00     0.078 C 
HETATM   17  C8  UNL     1       5.590  22.235   6.081  1.00  0.00     0.014 C 
HETATM   18  C9  UNL     1       4.516  21.824   7.051  1.00  0.00     0.001 C 
HETATM   19  C10 UNL     1       3.381  22.816   7.044  1.00  0.00     0.000 C 
HETATM   20  C11 UNL     1       3.171  23.270   5.621  1.00  0.00     0.001 C 
HETATM   21  C12 UNL     1       4.301  24.101   5.090  1.00  0.00     0.014 C 
ENDBRANCH  13  16
ENDBRANCH   7  12
ENDBRANCH   4   7
ENDBRANCH   2   3
ENDBRANCH   1   2
BRANCH   1  22
HETATM   22  O3  UNL     1       9.553  29.663   4.071  1.00  0.00    -0.385 OA
ATOM     23  H3  UNL     1      10.226  30.313   4.234  1.00  0.00     0.211 HD
ENDBRANCH   1  22
BRANCH   1  24
HETATM   24  C16 UNL     1       7.419  29.968   5.022  1.00  0.00     0.017 C 
BRANCH  24  25
HETATM   25  C17 UNL     1       7.510  30.850   3.800  1.00  0.00     0.059 C 
BRANCH  25  26
HETATM   26  C18 UNL     1       6.427  30.837   2.824  1.00  0.00    -0.017 C 
HETATM   27  C19 UNL     1       5.751  32.218   2.771  1.00  0.00     0.010 C 
HETATM   28  C20 UNL     1       6.660  30.433   1.420  1.00  0.00     0.010 C 
ENDBRANCH  25  26
ENDBRANCH  24  25
BRANCH  24  29
HETATM   29  N3  UNL     1       6.652  30.459   6.072  1.00  0.00    -0.388 N 
ATOM     30  H3  UNL     1       5.715  30.086   6.226  1.00  0.00     0.159 HD
BRANCH  29  31
HETATM   31  C21 UNL     1       7.149  31.467   6.932  1.00  0.00     0.100 C 
HETATM   32  C22 UNL     1       6.257  32.701   6.801  1.00  0.00     0.034 C 
BRANCH  31  33
HETATM   33  C23 UNL     1       7.242  31.144   8.404  1.00  0.00     0.108 C 
HETATM   34  C24 UNL     1       6.611  29.816   8.674  1.00  0.00     0.028 C 
HETATM   35  C25 UNL     1       7.449  28.619   8.847  1.00  0.00     0.017 C 
HETATM   36  C26 UNL     1       8.539  28.813   9.856  1.00  0.00     0.088 C 
HETATM   37  C29 UNL     1       9.107  30.155   9.757  1.00  0.00     0.224 C 
HETATM   38  O6  UNL     1      10.084  30.433  10.484  1.00  0.00    -0.273 OA
HETATM   39  N4  UNL     1       8.594  31.159   8.864  1.00  0.00    -0.349 N 
HETATM   40  C30 UNL     1       9.522  32.189   8.477  1.00  0.00     0.153 C 
BRANCH  36  41
HETATM   41  C27 UNL     1       7.968  28.539  11.228  1.00  0.00     0.127 C 
BRANCH  41  42
HETATM   42  C28 UNL     1       8.791  27.594  12.010  1.00  0.00     0.173 C 
HETATM   43  O4  UNL     1       9.671  28.064  12.778  1.00  0.00    -0.648 OA
HETATM   44  O5  UNL     1       8.652  26.213  11.953  1.00  0.00    -0.648 OA
ENDBRANCH  41  42
ENDBRANCH  36  41
ENDBRANCH  31  33
ENDBRANCH  29  31
ENDBRANCH  24  29
ENDBRANCH   1  24
TORSDOF 16
ENDMDL
MODEL 4
REMARK VINA RESULT: -7.603508097      1.864      2.691
REMARK  16 active torsions:
REMARK  status: ('A' for Active; 'I' for Inactive)
REMARK    1  A    between atoms: C2_2  and  C3_3 
REMARK    2  A    between atoms: C3_3  and  C5_5 
REMARK    3  A    between atoms: C5_5  and  N1_6 
REMARK    4  A    between atoms: C5_5  and  C13_16 
REMARK       I    between atoms: N1_6  and  C6_8 
REMARK    5  A    between atoms: C6_8  and  C7_10 
REMARK       I    between atoms: C13_16  and  N2_18 
REMARK    6  A    between atoms: N2_18  and  C14_20 
REMARK    7  A    between atoms: C14_20  and  C15_21 
REMARK    8  A    between atoms: C15_21  and  O3_22 
REMARK    9  A    between atoms: C15_21  and  C16_24 
REMARK   10  A    between atoms: C16_24  and  C17_25 
REMARK   11  A    between atoms: C16_24  and  N3_29 
REMARK   12  A    between atoms: C17_25  and  C18_26 
REMARK   13  A    between atoms: N3_29  and  C21_31 
REMARK   14  A    between atoms: C21_31  and  C23_33 
REMARK   15  A    between atoms: C26_36  and  C27_37 
REMARK   16  A    between atoms: C27_37  and  C28_38 
ROOT
HETATM    1  C15 UNL     1       7.630  30.398   4.879  1.00  0.00     0.201 C 
ENDROOT
BRANCH   1   2
HETATM    2  C14 UNL     1       8.573  29.361   5.242  1.00  0.00     0.101 C 
BRANCH   2   3
HETATM    3  N2  UNL     1       8.342  28.074   4.704  1.00  0.00    -0.333 N 
HETATM    4  C13 UNL     1       7.562  26.982   5.199  1.00  0.00     0.268 C 
HETATM    5  O2  UNL     1       6.964  27.124   6.288  1.00  0.00    -0.266 OA
ATOM      6  H2  UNL     1       8.808  27.894   3.814  1.00  0.00     0.168 HD
BRANCH   4   7
HETATM    7  C5  UNL     1       7.517  25.723   4.387  1.00  0.00     0.084 C 
BRANCH   7   8
HETATM    8  C3  UNL     1       7.627  24.452   5.179  1.00  0.00     0.037 C 
HETATM    9  C4  UNL     1       8.928  23.726   4.807  1.00  0.00     0.016 C 
BRANCH   8  10
HETATM   10  C2  UNL     1       6.470  23.534   5.113  1.00  0.00     0.006 C 
HETATM   11  C1  UNL     1       5.092  24.034   5.131  1.00  0.00     0.006 C 
ENDBRANCH   8  10
ENDBRANCH   7   8
BRANCH   7  12
HETATM   12  N1  UNL     1       8.277  25.756   3.175  1.00  0.00    -0.325 N 
HETATM   13  C6  UNL     1       7.746  25.534   1.891  1.00  0.00     0.226 C 
HETATM   14  O1  UNL     1       6.515  25.289   1.768  1.00  0.00    -0.273 OA
ATOM     15  H1  UNL     1       9.276  25.954   3.247  1.00  0.00     0.168 HD
BRANCH  13  16
HETATM   16  C7  UNL     1       8.562  25.575   0.679  1.00  0.00     0.078 C 
HETATM   17  C8  UNL     1       8.875  24.134   0.275  1.00  0.00     0.014 C 
HETATM   18  C9  UNL     1       9.473  24.076  -1.104  1.00  0.00     0.001 C 
HETATM   19  C10 UNL     1      10.131  25.385  -1.457  1.00  0.00     0.000 C 
HETATM   20  C11 UNL     1      10.804  25.915  -0.216  1.00  0.00     0.001 C 
HETATM   21  C12 UNL     1       9.838  26.342   0.847  1.00  0.00     0.014 C 
ENDBRANCH  13  16
ENDBRANCH   7  12
ENDBRANCH   4   7
ENDBRANCH   2   3
ENDBRANCH   1   2
BRANCH   1  22
HETATM   22  O3  UNL     1       6.749  30.014   3.872  1.00  0.00    -0.385 OA
ATOM     23  H3  UNL     1       6.035  30.628   3.742  1.00  0.00     0.211 HD
ENDBRANCH   1  22
BRANCH   1  24
HETATM   24  C16 UNL     1       6.857  31.107   5.956  1.00  0.00     0.017 C 
BRANCH  24  25
HETATM   25  C17 UNL     1       7.273  32.555   5.874  1.00  0.00     0.059 C 
BRANCH  25  26
HETATM   26  C18 UNL     1       6.502  33.478   5.050  1.00  0.00    -0.017 C 
HETATM   27  C19 UNL     1       5.490  34.241   5.922  1.00  0.00     0.010 C 
HETATM   28  C20 UNL     1       7.165  34.490   4.199  1.00  0.00     0.010 C 
ENDBRANCH  25  26
ENDBRANCH  24  25
BRANCH  24  29
HETATM   29  N3  UNL     1       6.671  30.598   7.237  1.00  0.00    -0.388 N 
ATOM     30  H3  UNL     1       6.694  29.588   7.383  1.00  0.00     0.159 HD
BRANCH  29  31
HETATM   31  C21 UNL     1       6.452  31.456   8.340  1.00  0.00     0.100 C 
HETATM   32  C22 UNL     1       4.946  31.594   8.557  1.00  0.00     0.034 C 
BRANCH  31  33
HETATM   33  C23 UNL     1       7.054  31.055   9.665  1.00  0.00     0.108 C 
HETATM   34  C24 UNL     1       6.364  29.838  10.190  1.00  0.00     0.028 C 
HETATM   35  C25 UNL     1       6.990  28.513  10.049  1.00  0.00     0.017 C 
HETATM   36  C26 UNL     1       8.402  28.481  10.547  1.00  0.00     0.088 C 
HETATM   37  C29 UNL     1       9.104  29.715  10.204  1.00  0.00     0.224 C 
HETATM   38  O6  UNL     1      10.318  29.797  10.485  1.00  0.00    -0.273 OA
HETATM   39  N4  UNL     1       8.460  30.828   9.560  1.00  0.00    -0.349 N 
HETATM   40  C30 UNL     1       9.323  31.710   8.819  1.00  0.00     0.153 C 
BRANCH  36  41
HETATM   41  C27 UNL     1       8.372  28.241  12.039  1.00  0.00     0.127 C 
BRANCH  41  42
HETATM   42  C28 UNL     1       9.132  27.040  12.439  1.00  0.00     0.173 C 
HETATM   43  O4  UNL     1       8.632  25.909  12.198  1.00  0.00    -0.648 OA
HETATM   44  O5  UNL     1      10.372  27.079  13.064  1.00  0.00    -0.648 OA
ENDBRANCH  41  42
ENDBRANCH  36  41
ENDBRANCH  31  33
ENDBRANCH  29  31
ENDBRANCH  24  29
ENDBRANCH   1  24
TORSDOF 16
ENDMDL
MODEL 5
REMARK VINA RESULT: -7.550556739      1.951      2.778
REMARK  16 active torsions:
REMARK  status: ('A' for Active; 'I' for Inactive)
REMARK    1  A    between atoms: C2_2  and  C3_3 
REMARK    2  A    between atoms: C3_3  and  C5_5 
REMARK    3  A    between atoms: C5_5  and  N1_6 
REMARK    4  A    between atoms: C5_5  and  C13_16 
REMARK       I    between atoms: N1_6  and  C6_8 
REMARK    5  A    between atoms: C6_8  and  C7_10 
REMARK       I    between atoms: C13_16  and  N2_18 
REMARK    6  A    between atoms: N2_18  and  C14_20 
REMARK    7  A    between atoms: C14_20  and  C15_21 
REMARK    8  A    between atoms: C15_21  and  O3_22 
REMARK    9  A    between atoms: C15_21  and  C16_24 
REMARK   10  A    between atoms: C16_24  and  C17_25 
REMARK   11  A    between atoms: C16_24  and  N3_29 
REMARK   12  A    between atoms: C17_25  and  C18_26 
REMARK   13  A    between atoms: N3_29  and  C21_31 
REMARK   14  A    between atoms: C21_31  and  C23_33 
REMARK   15  A    between atoms: C26_36  and  C27_37 
REMARK   16  A    between atoms: C27_37  and  C28_38 
ROOT
HETATM    1  C15 UNL     1       6.844  29.365   6.815  1.00  0.00     0.201 C 
ENDROOT
BRANCH   1   2
HETATM    2  C14 UNL     1       7.455  28.054   6.890  1.00  0.00     0.101 C 
BRANCH   2   3
HETATM    3  N2  UNL     1       7.224  27.182   5.801  1.00  0.00    -0.333 N 
HETATM    4  C13 UNL     1       8.140  26.454   4.979  1.00  0.00     0.268 C 
HETATM    5  O2  UNL     1       9.364  26.569   5.206  1.00  0.00    -0.266 OA
ATOM      6  H2  UNL     1       6.240  27.050   5.562  1.00  0.00     0.168 HD
BRANCH   4   7
HETATM    7  C5  UNL     1       7.578  25.603   3.881  1.00  0.00     0.084 C 
BRANCH   7   8
HETATM    8  C3  UNL     1       7.042  24.271   4.319  1.00  0.00     0.037 C 
HETATM    9  C4  UNL     1       5.529  24.380   4.562  1.00  0.00     0.016 C 
BRANCH   8  10
HETATM   10  C2  UNL     1       7.719  23.637   5.472  1.00  0.00     0.006 C 
HETATM   11  C1  UNL     1       6.976  23.224   6.666  1.00  0.00     0.006 C 
ENDBRANCH   8  10
ENDBRANCH   7   8
BRANCH   7  12
HETATM   12  N1  UNL     1       8.350  25.584   2.674  1.00  0.00    -0.325 N 
HETATM   13  C6  UNL     1       7.805  25.559   1.377  1.00  0.00     0.226 C 
HETATM   14  O1  UNL     1       6.552  25.553   1.235  1.00  0.00    -0.273 OA
ATOM     15  H1  UNL     1       9.366  25.590   2.762  1.00  0.00     0.168 HD
BRANCH  13  16
HETATM   16  C7  UNL     1       8.632  25.537   0.173  1.00  0.00     0.078 C 
HETATM   17  C8  UNL     1       8.999  24.082  -0.120  1.00  0.00     0.014 C 
HETATM   18  C9  UNL     1       9.613  23.942  -1.486  1.00  0.00     0.001 C 
HETATM   19  C10 UNL     1      10.230  25.244  -1.931  1.00  0.00     0.000 C 
HETATM   20  C11 UNL     1      10.871  25.889  -0.728  1.00  0.00     0.001 C 
HETATM   21  C12 UNL     1       9.879  26.360   0.293  1.00  0.00     0.014 C 
ENDBRANCH  13  16
ENDBRANCH   7  12
ENDBRANCH   4   7
ENDBRANCH   2   3
ENDBRANCH   1   2
BRANCH   1  22
HETATM   22  O3  UNL     1       5.899  29.591   7.811  1.00  0.00    -0.385 OA
ATOM     23  H3  UNL     1       5.486  30.445   7.752  1.00  0.00     0.211 HD
ENDBRANCH   1  22
BRANCH   1  24
HETATM   24  C16 UNL     1       7.716  30.583   6.688  1.00  0.00     0.017 C 
BRANCH  24  25
HETATM   25  C17 UNL     1       7.874  30.821   5.206  1.00  0.00     0.059 C 
BRANCH  25  26
HETATM   26  C18 UNL     1       9.071  30.340   4.526  1.00  0.00    -0.017 C 
HETATM   27  C19 UNL     1       8.677  29.553   3.264  1.00  0.00     0.010 C 
HETATM   28  C20 UNL     1      10.151  31.264   4.120  1.00  0.00     0.010 C 
ENDBRANCH  25  26
ENDBRANCH  24  25
BRANCH  24  29
HETATM   29  N3  UNL     1       8.847  30.808   7.466  1.00  0.00    -0.388 N 
ATOM     30  H3  UNL     1       9.685  30.248   7.306  1.00  0.00     0.159 HD
BRANCH  29  31
HETATM   31  C21 UNL     1       8.855  31.800   8.474  1.00  0.00     0.100 C 
HETATM   32  C22 UNL     1       7.750  32.811   8.169  1.00  0.00     0.034 C 
BRANCH  31  33
HETATM   33  C23 UNL     1       8.657  31.346   9.900  1.00  0.00     0.108 C 
HETATM   34  C24 UNL     1       8.560  29.855   9.950  1.00  0.00     0.028 C 
HETATM   35  C25 UNL     1       9.722  29.051  10.362  1.00  0.00     0.017 C 
HETATM   36  C26 UNL     1      10.317  29.508  11.658  1.00  0.00     0.088 C 
HETATM   37  C29 UNL     1      10.305  30.966  11.751  1.00  0.00     0.224 C 
HETATM   38  O6  UNL     1      10.845  31.494  12.746  1.00  0.00    -0.273 OA
HETATM   39  N4  UNL     1       9.704  31.809  10.753  1.00  0.00    -0.349 N 
HETATM   40  C30 UNL     1      10.210  33.154  10.680  1.00  0.00     0.153 C 
BRANCH  36  41
HETATM   41  C27 UNL     1       9.546  28.861  12.785  1.00  0.00     0.127 C 
BRANCH  41  42
HETATM   42  C28 UNL     1       9.775  27.404  12.871  1.00  0.00     0.173 C 
HETATM   43  O4  UNL     1      10.922  26.999  13.197  1.00  0.00    -0.648 OA
HETATM   44  O5  UNL     1       8.799  26.449  12.615  1.00  0.00    -0.648 OA
ENDBRANCH  41  42
ENDBRANCH  36  41
ENDBRANCH  31  33
ENDBRANCH  29  31
ENDBRANCH  24  29
ENDBRANCH   1  24
TORSDOF 16
ENDMDL
