MODEL 1
REMARK VINA RESULT: -8.183046110      0.000      0.000
REMARK  16 active torsions:
REMARK  status: ('A' for Active; 'I' for Inactive)
REMARK    1  A    between atoms: C2_2  and  C4_4 
REMARK    2  A    between atoms: C4_4  and  C5_5 
REMARK    3  A    between atoms: C5_5  and  N1_6 
REMARK    4  A    between atoms: C5_5  and  C12_23 
REMARK       I    between atoms: N1_6  and  C6_8 
REMARK    5  A    between atoms: C6_8  and  C7_10 
REMARK    6  A    between atoms: C7_10  and  N2_11 
REMARK    7  A    between atoms: C7_10  and  C8_15 
REMARK    8  A    between atoms: C8_15  and  C9_16 
REMARK    9  A    between atoms: C9_16  and  C10_17 
REMARK   10  A    between atoms: C10_17  and  C11_18 
REMARK   11  A    between atoms: C11_18  and  N3_19 
REMARK       I    between atoms: C12_23  and  N4_25 
REMARK   12  A    between atoms: N4_25  and  C13_27 
REMARK   13  A    between atoms: N5_31  and  C17_32 
REMARK   14  A    between atoms: C17_32  and  C18_33 
REMARK   15  A    between atoms: C21_36  and  C22_37 
REMARK       I    between atoms: C22_37  and  N6_39 
REMARK   16  A    between atoms: N6_39  and  C23_41 
ROOT
HETATM    1  C12 UNL     1      -5.563  20.284   9.252  1.00  0.00     0.240 C 
HETATM    2  O2  UNL     1      -4.602  19.828   9.905  1.00  0.00    -0.271 OA
HETATM    3  N4  UNL     1      -5.439  21.475   8.487  1.00  0.00    -0.353 N 
ATOM      4  H4  UNL     1      -6.233  21.837   7.959  1.00  0.00     0.163 HD
ENDROOT
BRANCH   3   5
HETATM    5  C13 UNL     1      -4.170  22.165   8.469  1.00  0.00     0.107 C 
HETATM    6  C14 UNL     1      -4.243  23.633   8.699  1.00  0.00     0.029 C 
HETATM    7  C15 UNL     1      -3.643  24.392   7.561  1.00  0.00     0.022 C 
HETATM    8  C16 UNL     1      -2.228  23.914   7.238  1.00  0.00     0.122 C 
HETATM    9  N5  UNL     1      -2.163  22.475   7.264  1.00  0.00    -0.387 N 
HETATM   10  C30 UNL     1      -3.466  21.941   7.120  1.00  0.00     0.102 C 
HETATM   11  C31 UNL     1      -3.535  20.486   6.723  1.00  0.00     0.034 C 
BRANCH   9  12
HETATM   12  C17 UNL     1      -1.292  21.914   8.207  1.00  0.00     0.063 C 
BRANCH  12  13
HETATM   13  C18 UNL     1       0.171  22.156   7.953  1.00  0.00     0.024 C 
HETATM   14  C19 UNL     1       0.395  22.645   6.540  1.00  0.00     0.010 C 
HETATM   15  C20 UNL     1       1.835  23.058   6.394  1.00  0.00     0.015 C 
HETATM   16  C21 UNL     1       2.748  22.330   7.371  1.00  0.00     0.078 C 
HETATM   17  C28 UNL     1       2.314  20.910   7.595  1.00  0.00     0.015 C 
HETATM   18  C29 UNL     1       0.899  20.843   8.121  1.00  0.00     0.010 C 
BRANCH  16  19
HETATM   19  C22 UNL     1       4.116  22.345   6.820  1.00  0.00     0.222 C 
HETATM   20  O3  UNL     1       4.930  21.466   7.219  1.00  0.00    -0.273 OA
HETATM   21  N6  UNL     1       4.554  23.286   5.873  1.00  0.00    -0.356 N 
ATOM     22  H6  UNL     1       3.901  23.998   5.547  1.00  0.00     0.162 HD
BRANCH  21  23
HETATM   23  C23 UNL     1       5.888  23.277   5.352  1.00  0.00     0.084 C 
HETATM   24  C24 UNL     1       6.946  23.679   6.354  1.00  0.00     0.025 C 
HETATM   25  C25 UNL     1       7.953  24.495   5.583  1.00  0.00     0.002 C 
HETATM   26  C26 UNL     1       7.441  24.613   4.169  1.00  0.00     0.002 C 
HETATM   27  C27 UNL     1       5.959  24.402   4.311  1.00  0.00     0.025 C 
ENDBRANCH  21  23
ENDBRANCH  16  19
ENDBRANCH  12  13
ENDBRANCH   9  12
ENDBRANCH   3   5
BRANCH   1  28
HETATM   28  C5  UNL     1      -6.856  19.523   9.303  1.00  0.00     0.177 C 
BRANCH  28  29
HETATM   29  C4  UNL     1      -7.617  19.709   8.031  1.00  0.00     0.038 C 
BRANCH  29  30
HETATM   30  C2  UNL     1      -9.106  19.750   8.175  1.00  0.00    -0.020 C 
HETATM   31  C1  UNL     1      -9.726  18.492   7.660  1.00  0.00     0.009 C 
HETATM   32  C3  UNL     1      -9.618  20.939   7.354  1.00  0.00     0.009 C 
ENDBRANCH  29  30
ENDBRANCH  28  29
BRANCH  28  33
HETATM   33  N1  UNL     1      -7.585  20.007  10.457  1.00  0.00    -0.346 N 
HETATM   34  C6  UNL     1      -7.490  19.261  11.654  1.00  0.00     0.248 C 
HETATM   35  O1  UNL     1      -6.792  18.203  11.724  1.00  0.00    -0.271 OA
ATOM     36  H1  UNL     1      -8.147  20.856  10.408  1.00  0.00     0.163 HD
BRANCH  34  37
HETATM   37  C7  UNL     1      -8.213  19.712  12.851  1.00  0.00     0.274 C 
BRANCH  37  38
HETATM   38  N2  UNL     1      -8.955  20.915  12.518  1.00  0.00    -0.067 N 
ATOM     39  H23 UNL     1      -8.395  21.761  12.620  1.00  0.00     0.275 HD
ATOM     40  H22 UNL     1      -9.146  20.992  11.520  1.00  0.00     0.275 HD
ATOM     41  H21 UNL     1      -9.805  20.939  13.082  1.00  0.00     0.275 HD
ENDBRANCH  37  38
BRANCH  37  42
HETATM   42  C8  UNL     1      -7.179  19.996  13.931  1.00  0.00     0.042 C 
BRANCH  42  43
HETATM   43  C9  UNL     1      -6.525  21.342  13.711  1.00  0.00     0.004 C 
BRANCH  43  44
HETATM   44  C10 UNL     1      -5.787  21.811  14.937  1.00  0.00     0.027 C 
BRANCH  44  45
HETATM   45  C11 UNL     1      -5.498  23.276  14.863  1.00  0.00     0.229 C 
BRANCH  45  46
HETATM   46  N3  UNL     1      -4.128  23.578  15.294  1.00  0.00    -0.079 N 
ATOM     47  H33 UNL     1      -3.522  22.761  15.212  1.00  0.00     0.274 HD
ATOM     48  H32 UNL     1      -3.655  24.191  14.630  1.00  0.00     0.274 HD
ATOM     49  H31 UNL     1      -4.108  23.963  16.238  1.00  0.00     0.274 HD
ENDBRANCH  45  46
ENDBRANCH  44  45
ENDBRANCH  43  44
ENDBRANCH  42  43
ENDBRANCH  37  42
ENDBRANCH  34  37
ENDBRANCH  28  33
ENDBRANCH   1  28
TORSDOF 16
ENDMDL
MODEL 2
REMARK VINA RESULT: -7.860114595      1.998      3.026
REMARK  16 active torsions:
REMARK  status: ('A' for Active; 'I' for Inactive)
REMARK    1  A    between atoms: C2_2  and  C4_4 
REMARK    2  A    between atoms: C4_4  and  C5_5 
REMARK    3  A    between atoms: C5_5  and  N1_6 
REMARK    4  A    between atoms: C5_5  and  C12_23 
REMARK       I    between atoms: N1_6  and  C6_8 
REMARK    5  A    between atoms: C6_8  and  C7_10 
REMARK    6  A    between atoms: C7_10  and  N2_11 
REMARK    7  A    between atoms: C7_10  and  C8_15 
REMARK    8  A    between atoms: C8_15  and  C9_16 
REMARK    9  A    between atoms: C9_16  and  C10_17 
REMARK   10  A    between atoms: C10_17  and  C11_18 
REMARK   11  A    between atoms: C11_18  and  N3_19 
REMARK       I    between atoms: C12_23  and  N4_25 
REMARK   12  A    between atoms: N4_25  and  C13_27 
REMARK   13  A    between atoms: N5_31  and  C17_32 
REMARK   14  A    between atoms: C17_32  and  C18_33 
REMARK   15  A    between atoms: C21_36  and  C22_37 
REMARK       I    between atoms: C22_37  and  N6_39 
REMARK   16  A    between atoms: N6_39  and  C23_41 
ROOT
HETATM    1  C12 UNL     1      -5.915  22.601   8.731  1.00  0.00     0.240 C 
HETATM    2  O2  UNL     1      -5.677  23.823   8.642  1.00  0.00    -0.271 OA
HETATM    3  N4  UNL     1      -4.876  21.636   8.635  1.00  0.00    -0.353 N 
ATOM      4  H4  UNL     1      -5.084  20.641   8.709  1.00  0.00     0.163 HD
ENDROOT
BRANCH   3   5
HETATM    5  C13 UNL     1      -3.519  22.089   8.432  1.00  0.00     0.107 C 
HETATM    6  C14 UNL     1      -3.304  23.550   8.619  1.00  0.00     0.029 C 
HETATM    7  C15 UNL     1      -2.735  24.178   7.388  1.00  0.00     0.022 C 
HETATM    8  C16 UNL     1      -1.481  23.452   6.904  1.00  0.00     0.122 C 
HETATM    9  N5  UNL     1      -1.665  22.025   6.971  1.00  0.00    -0.387 N 
HETATM   10  C30 UNL     1      -3.049  21.729   7.012  1.00  0.00     0.102 C 
HETATM   11  C31 UNL     1      -3.424  20.305   6.678  1.00  0.00     0.034 C 
BRANCH   9  12
HETATM   12  C17 UNL     1      -0.790  21.328   7.813  1.00  0.00     0.063 C 
BRANCH  12  13
HETATM   13  C18 UNL     1       0.669  21.449   7.464  1.00  0.00     0.024 C 
HETATM   14  C19 UNL     1       1.506  21.609   8.713  1.00  0.00     0.010 C 
HETATM   15  C20 UNL     1       2.961  21.528   8.333  1.00  0.00     0.015 C 
HETATM   16  C21 UNL     1       3.206  21.943   6.889  1.00  0.00     0.078 C 
HETATM   17  C28 UNL     1       2.301  23.064   6.465  1.00  0.00     0.015 C 
HETATM   18  C29 UNL     1       0.846  22.685   6.614  1.00  0.00     0.010 C 
BRANCH  16  19
HETATM   19  C22 UNL     1       4.611  22.372   6.766  1.00  0.00     0.222 C 
HETATM   20  O3  UNL     1       5.491  21.725   7.399  1.00  0.00    -0.273 OA
HETATM   21  N6  UNL     1       5.016  23.463   5.979  1.00  0.00    -0.356 N 
ATOM     22  H6  UNL     1       4.309  23.990   5.466  1.00  0.00     0.162 HD
BRANCH  21  23
HETATM   23  C23 UNL     1       6.388  23.860   5.875  1.00  0.00     0.084 C 
HETATM   24  C24 UNL     1       6.586  25.331   5.594  1.00  0.00     0.025 C 
HETATM   25  C25 UNL     1       7.757  25.414   4.646  1.00  0.00     0.002 C 
HETATM   26  C26 UNL     1       8.181  23.999   4.339  1.00  0.00     0.002 C 
HETATM   27  C27 UNL     1       6.942  23.193   4.609  1.00  0.00     0.025 C 
ENDBRANCH  21  23
ENDBRANCH  16  19
ENDBRANCH  12  13
ENDBRANCH   9  12
ENDBRANCH   3   5
BRANCH   1  28
HETATM   28  C5  UNL     1      -7.342  22.189   8.946  1.00  0.00     0.177 C 
BRANCH  28  29
HETATM   29  C4  UNL     1      -7.956  23.000  10.041  1.00  0.00     0.038 C 
BRANCH  29  30
HETATM   30  C2  UNL     1      -7.770  22.457  11.423  1.00  0.00    -0.020 C 
HETATM   31  C1  UNL     1      -9.086  22.274  12.105  1.00  0.00     0.009 C 
HETATM   32  C3  UNL     1      -6.929  23.468  12.210  1.00  0.00     0.009 C 
ENDBRANCH  29  30
ENDBRANCH  28  29
BRANCH  28  33
HETATM   33  N1  UNL     1      -7.331  20.773   9.250  1.00  0.00    -0.346 N 
HETATM   34  C6  UNL     1      -8.357  19.973   8.696  1.00  0.00     0.248 C 
HETATM   35  O1  UNL     1      -9.260  20.472   7.956  1.00  0.00    -0.271 OA
ATOM     36  H1  UNL     1      -6.608  20.366   9.843  1.00  0.00     0.163 HD
BRANCH  34  37
HETATM   37  C7  UNL     1      -8.388  18.532   8.977  1.00  0.00     0.274 C 
BRANCH  37  38
HETATM   38  N2  UNL     1      -9.772  18.115   9.109  1.00  0.00    -0.067 N 
ATOM     39  H23 UNL     1     -10.424  18.895   9.037  1.00  0.00     0.275 HD
ATOM     40  H22 UNL     1     -10.099  17.585   8.301  1.00  0.00     0.275 HD
ATOM     41  H21 UNL     1      -9.875  17.599   9.982  1.00  0.00     0.275 HD
ENDBRANCH  37  38
BRANCH  37  42
HETATM   42  C8  UNL     1      -7.627  18.301  10.274  1.00  0.00     0.042 C 
BRANCH  42  43
HETATM   43  C9  UNL     1      -8.575  18.241  11.451  1.00  0.00     0.004 C 
BRANCH  43  44
HETATM   44  C10 UNL     1      -7.960  18.831  12.694  1.00  0.00     0.027 C 
BRANCH  44  45
HETATM   45  C11 UNL     1      -6.502  19.096  12.499  1.00  0.00     0.229 C 
BRANCH  45  46
HETATM   46  N3  UNL     1      -5.687  18.384  13.491  1.00  0.00    -0.079 N 
ATOM     47  H33 UNL     1      -6.034  18.538  14.438  1.00  0.00     0.274 HD
ATOM     48  H32 UNL     1      -5.827  17.375  13.433  1.00  0.00     0.274 HD
ATOM     49  H31 UNL     1      -4.701  18.630  13.411  1.00  0.00     0.274 HD
ENDBRANCH  45  46
ENDBRANCH  44  45
ENDBRANCH  43  44
ENDBRANCH  42  43
ENDBRANCH  37  42
ENDBRANCH  34  37
ENDBRANCH  28  33
ENDBRANCH   1  28
TORSDOF 16
ENDMDL
MODEL 3
REMARK VINA RESULT: -7.793606409      7.849     14.440
REMARK  16 active torsions:
REMARK  status: ('A' for Active; 'I' for Inactive)
REMARK    1  A    between atoms: C2_2  and  C4_4 
REMARK    2  A    between atoms: C4_4  and  C5_5 
REMARK    3  A    between atoms: C5_5  and  N1_6 
REMARK    4  A    between atoms: C5_5  and  C12_23 
REMARK       I    between atoms: N1_6  and  C6_8 
REMARK    5  A    between atoms: C6_8  and  C7_10 
REMARK    6  A    between atoms: C7_10  and  N2_11 
REMARK    7  A    between atoms: C7_10  and  C8_15 
REMARK    8  A    between atoms: C8_15  and  C9_16 
REMARK    9  A    between atoms: C9_16  and  C10_17 
REMARK   10  A    between atoms: C10_17  and  C11_18 
REMARK   11  A    between atoms: C11_18  and  N3_19 
REMARK       I    between atoms: C12_23  and  N4_25 
REMARK   12  A    between atoms: N4_25  and  C13_27 
REMARK   13  A    between atoms: N5_31  and  C17_32 
REMARK   14  A    between atoms: C17_32  and  C18_33 
REMARK   15  A    between atoms: C21_36  and  C22_37 
REMARK       I    between atoms: C22_37  and  N6_39 
REMARK   16  A    between atoms: N6_39  and  C23_41 
ROOT
HETATM    1  C12 UNL     1       7.734  28.188   6.531  1.00  0.00     0.240 C 
HETATM    2  O2  UNL     1       6.592  28.612   6.259  1.00  0.00    -0.271 OA
HETATM    3  N4  UNL     1       8.478  28.714   7.622  1.00  0.00    -0.353 N 
ATOM      4  H4  UNL     1       9.411  28.359   7.832  1.00  0.00     0.163 HD
ENDROOT
BRANCH   3   5
HETATM    5  C13 UNL     1       7.891  29.759   8.428  1.00  0.00     0.107 C 
HETATM    6  C14 UNL     1       8.364  31.136   8.122  1.00  0.00     0.029 C 
HETATM    7  C15 UNL     1       8.957  31.789   9.328  1.00  0.00     0.022 C 
HETATM    8  C16 UNL     1       8.011  31.740  10.527  1.00  0.00     0.122 C 
HETATM    9  N5  UNL     1       7.397  30.442  10.634  1.00  0.00    -0.387 N 
HETATM   10  C30 UNL     1       8.168  29.495   9.918  1.00  0.00     0.102 C 
HETATM   11  C31 UNL     1       7.901  28.047  10.255  1.00  0.00     0.034 C 
BRANCH   9  12
HETATM   12  C17 UNL     1       6.000  30.409  10.529  1.00  0.00     0.063 C 
BRANCH  12  13
HETATM   13  C18 UNL     1       5.263  30.251  11.831  1.00  0.00     0.024 C 
HETATM   14  C19 UNL     1       5.353  28.826  12.327  1.00  0.00     0.010 C 
HETATM   15  C20 UNL     1       4.776  28.760  13.716  1.00  0.00     0.015 C 
HETATM   16  C21 UNL     1       3.753  29.857  13.970  1.00  0.00     0.078 C 
HETATM   17  C28 UNL     1       2.934  30.157  12.747  1.00  0.00     0.015 C 
HETATM   18  C29 UNL     1       3.808  30.576  11.587  1.00  0.00     0.010 C 
BRANCH  16  19
HETATM   19  C22 UNL     1       2.863  29.414  15.060  1.00  0.00     0.222 C 
HETATM   20  O3  UNL     1       2.266  30.295  15.739  1.00  0.00    -0.273 OA
HETATM   21  N6  UNL     1       2.648  28.062  15.376  1.00  0.00    -0.356 N 
ATOM     22  H6  UNL     1       3.128  27.346  14.830  1.00  0.00     0.162 HD
BRANCH  21  23
HETATM   23  C23 UNL     1       1.778  27.657  16.438  1.00  0.00     0.084 C 
HETATM   24  C24 UNL     1       2.435  26.770  17.471  1.00  0.00     0.025 C 
HETATM   25  C25 UNL     1       1.390  25.756  17.864  1.00  0.00     0.002 C 
HETATM   26  C26 UNL     1       0.171  26.022  17.017  1.00  0.00     0.002 C 
HETATM   27  C27 UNL     1       0.725  26.733  15.814  1.00  0.00     0.025 C 
ENDBRANCH  21  23
ENDBRANCH  16  19
ENDBRANCH  12  13
ENDBRANCH   9  12
ENDBRANCH   3   5
BRANCH   1  28
HETATM   28  C5  UNL     1       8.291  27.098   5.662  1.00  0.00     0.177 C 
BRANCH  28  29
HETATM   29  C4  UNL     1       9.041  27.686   4.511  1.00  0.00     0.038 C 
BRANCH  29  30
HETATM   30  C2  UNL     1       8.490  27.368   3.157  1.00  0.00    -0.020 C 
HETATM   31  C1  UNL     1       9.405  26.454   2.410  1.00  0.00     0.009 C 
HETATM   32  C3  UNL     1       8.356  28.688   2.389  1.00  0.00     0.009 C 
ENDBRANCH  29  30
ENDBRANCH  28  29
BRANCH  28  33
HETATM   33  N1  UNL     1       7.171  26.287   5.233  1.00  0.00    -0.346 N 
HETATM   34  C6  UNL     1       7.347  24.884   5.207  1.00  0.00     0.248 C 
HETATM   35  O1  UNL     1       8.446  24.347   5.547  1.00  0.00    -0.271 OA
ATOM     36  H1  UNL     1       6.286  26.712   4.959  1.00  0.00     0.163 HD
BRANCH  34  37
HETATM   37  C7  UNL     1       6.240  24.020   4.778  1.00  0.00     0.274 C 
BRANCH  37  38
HETATM   38  N2  UNL     1       5.095  24.856   4.462  1.00  0.00    -0.067 N 
ATOM     39  H23 UNL     1       5.055  25.105   3.474  1.00  0.00     0.275 HD
ATOM     40  H22 UNL     1       4.214  24.346   4.514  1.00  0.00     0.275 HD
ATOM     41  H21 UNL     1       5.111  25.673   5.072  1.00  0.00     0.275 HD
ENDBRANCH  37  38
BRANCH  37  42
HETATM   42  C8  UNL     1       5.921  23.078   5.930  1.00  0.00     0.042 C 
BRANCH  42  43
HETATM   43  C9  UNL     1       4.428  22.987   6.154  1.00  0.00     0.004 C 
BRANCH  43  44
HETATM   44  C10 UNL     1       4.069  21.842   7.065  1.00  0.00     0.027 C 
BRANCH  44  45
HETATM   45  C11 UNL     1       2.617  21.501   6.954  1.00  0.00     0.229 C 
BRANCH  45  46
HETATM   46  N3  UNL     1       1.940  22.343   5.960  1.00  0.00    -0.079 N 
ATOM     47  H33 UNL     1       2.548  23.092   5.629  1.00  0.00     0.274 HD
ATOM     48  H32 UNL     1       1.808  21.846   5.079  1.00  0.00     0.274 HD
ATOM     49  H31 UNL     1       1.059  22.710   6.318  1.00  0.00     0.274 HD
ENDBRANCH  45  46
ENDBRANCH  44  45
ENDBRANCH  43  44
ENDBRANCH  42  43
ENDBRANCH  37  42
ENDBRANCH  34  37
ENDBRANCH  28  33
ENDBRANCH   1  28
TORSDOF 16
ENDMDL
MODEL 4
REMARK VINA RESULT: -7.731019170      8.469     14.807
REMARK  16 active torsions:
REMARK  status: ('A' for Active; 'I' for Inactive)
REMARK    1  A    between atoms: C2_2  and  C4_4 
REMARK    2  A    between atoms: C4_4  and  C5_5 
REMARK    3  A    between atoms: C5_5  and  N1_6 
REMARK    4  A    between atoms: C5_5  and  C12_23 
REMARK       I    between atoms: N1_6  and  C6_8 
REMARK    5  A    between atoms: C6_8  and  C7_10 
REMARK    6  A    between atoms: C7_10  and  N2_11 
REMARK    7  A    between atoms: C7_10  and  C8_15 
REMARK    8  A    between atoms: C8_15  and  C9_16 
REMARK    9  A    between atoms: C9_16  and  C10_17 
REMARK   10  A    between atoms: C10_17  and  C11_18 
REMARK   11  A    between atoms: C11_18  and  N3_19 
REMARK       I    between atoms: C12_23  and  N4_25 
REMARK   12  A    between atoms: N4_25  and  C13_27 
REMARK   13  A    between atoms: N5_31  and  C17_32 
REMARK   14  A    between atoms: C17_32  and  C18_33 
REMARK   15  A    between atoms: C21_36  and  C22_37 
REMARK       I    between atoms: C22_37  and  N6_39 
REMARK   16  A    between atoms: N6_39  and  C23_41 
ROOT
HETATM    1  C12 UNL     1       7.798  28.417   6.518  1.00  0.00     0.240 C 
HETATM    2  O2  UNL     1       6.556  28.299   6.516  1.00  0.00    -0.271 OA
HETATM    3  N4  UNL     1       8.449  29.366   7.352  1.00  0.00    -0.353 N 
ATOM      4  H4  UNL     1       9.465  29.453   7.343  1.00  0.00     0.163 HD
ENDROOT
BRANCH   3   5
HETATM    5  C13 UNL     1       7.648  30.206   8.212  1.00  0.00     0.107 C 
HETATM    6  C14 UNL     1       7.591  31.641   7.821  1.00  0.00     0.029 C 
HETATM    7  C15 UNL     1       8.072  32.525   8.924  1.00  0.00     0.022 C 
HETATM    8  C16 UNL     1       7.349  32.241  10.241  1.00  0.00     0.122 C 
HETATM    9  N5  UNL     1       7.224  30.822  10.452  1.00  0.00    -0.387 N 
HETATM   10  C30 UNL     1       8.175  30.140   9.655  1.00  0.00     0.102 C 
HETATM   11  C31 UNL     1       8.453  28.709  10.051  1.00  0.00     0.034 C 
BRANCH   9  12
HETATM   12  C17 UNL     1       5.917  30.323  10.536  1.00  0.00     0.063 C 
BRANCH  12  13
HETATM   13  C18 UNL     1       5.396  30.123  11.933  1.00  0.00     0.024 C 
HETATM   14  C19 UNL     1       5.588  28.690  12.376  1.00  0.00     0.010 C 
HETATM   15  C20 UNL     1       5.237  28.584  13.836  1.00  0.00     0.015 C 
HETATM   16  C21 UNL     1       4.248  29.655  14.273  1.00  0.00     0.078 C 
HETATM   17  C28 UNL     1       3.242  29.963  13.200  1.00  0.00     0.015 C 
HETATM   18  C29 UNL     1       3.916  30.424  11.929  1.00  0.00     0.010 C 
BRANCH  16  19
HETATM   19  C22 UNL     1       3.548  29.171  15.478  1.00  0.00     0.222 C 
HETATM   20  O3  UNL     1       3.020  30.024  16.244  1.00  0.00    -0.273 OA
HETATM   21  N6  UNL     1       3.442  27.811  15.812  1.00  0.00    -0.356 N 
ATOM     22  H6  UNL     1       3.868  27.117  15.196  1.00  0.00     0.162 HD
BRANCH  21  23
HETATM   23  C23 UNL     1       2.756  27.366  16.987  1.00  0.00     0.084 C 
HETATM   24  C24 UNL     1       3.459  26.253  17.730  1.00  0.00     0.025 C 
HETATM   25  C25 UNL     1       2.367  25.337  18.225  1.00  0.00     0.002 C 
HETATM   26  C26 UNL     1       1.059  25.888  17.715  1.00  0.00     0.002 C 
HETATM   27  C27 UNL     1       1.461  26.695  16.512  1.00  0.00     0.025 C 
ENDBRANCH  21  23
ENDBRANCH  16  19
ENDBRANCH  12  13
ENDBRANCH   9  12
ENDBRANCH   3   5
BRANCH   1  28
HETATM   28  C5  UNL     1       8.580  27.514   5.609  1.00  0.00     0.177 C 
BRANCH  28  29
HETATM   29  C4  UNL     1       9.242  28.311   4.532  1.00  0.00     0.038 C 
BRANCH  29  30
HETATM   30  C2  UNL     1       8.313  29.019   3.596  1.00  0.00    -0.020 C 
HETATM   31  C1  UNL     1       8.373  28.417   2.230  1.00  0.00     0.009 C 
HETATM   32  C3  UNL     1       8.756  30.484   3.522  1.00  0.00     0.009 C 
ENDBRANCH  29  30
ENDBRANCH  28  29
BRANCH  28  33
HETATM   33  N1  UNL     1       7.649  26.539   5.080  1.00  0.00    -0.346 N 
HETATM   34  C6  UNL     1       8.155  25.265   4.736  1.00  0.00     0.248 C 
HETATM   35  O1  UNL     1       9.383  24.977   4.884  1.00  0.00    -0.271 OA
ATOM     36  H1  UNL     1       6.662  26.764   4.959  1.00  0.00     0.163 HD
BRANCH  34  37
HETATM   37  C7  UNL     1       7.249  24.244   4.195  1.00  0.00     0.274 C 
BRANCH  37  38
HETATM   38  N2  UNL     1       6.170  24.909   3.487  1.00  0.00    -0.067 N 
ATOM     39  H23 UNL     1       6.245  25.925   3.528  1.00  0.00     0.275 HD
ATOM     40  H22 UNL     1       6.244  24.804   2.476  1.00  0.00     0.275 HD
ATOM     41  H21 UNL     1       5.282  24.567   3.852  1.00  0.00     0.275 HD
ENDBRANCH  37  38
BRANCH  37  42
HETATM   42  C8  UNL     1       6.711  23.439   5.369  1.00  0.00     0.042 C 
BRANCH  42  43
HETATM   43  C9  UNL     1       5.252  23.755   5.615  1.00  0.00     0.004 C 
BRANCH  43  44
HETATM   44  C10 UNL     1       4.563  22.651   6.373  1.00  0.00     0.027 C 
BRANCH  44  45
HETATM   45  C11 UNL     1       3.083  22.861   6.402  1.00  0.00     0.229 C 
BRANCH  45  46
HETATM   46  N3  UNL     1       2.633  23.686   5.274  1.00  0.00    -0.079 N 
ATOM     47  H33 UNL     1       2.149  24.524   5.594  1.00  0.00     0.274 HD
ATOM     48  H32 UNL     1       3.420  24.130   4.800  1.00  0.00     0.274 HD
ATOM     49  H31 UNL     1       2.060  23.150   4.623  1.00  0.00     0.274 HD
ENDBRANCH  45  46
ENDBRANCH  44  45
ENDBRANCH  43  44
ENDBRANCH  42  43
ENDBRANCH  37  42
ENDBRANCH  34  37
ENDBRANCH  28  33
ENDBRANCH   1  28
TORSDOF 16
ENDMDL
MODEL 5
REMARK VINA RESULT: -7.702690102      8.411     14.477
REMARK  16 active torsions:
REMARK  status: ('A' for Active; 'I' for Inactive)
REMARK    1  A    between atoms: C2_2  and  C4_4 
REMARK    2  A    between atoms: C4_4  and  C5_5 
REMARK    3  A    between atoms: C5_5  and  N1_6 
REMARK    4  A    between atoms: C5_5  and  C12_23 
REMARK       I    between atoms: N1_6  and  C6_8 
REMARK    5  A    between atoms: C6_8  and  C7_10 
REMARK    6  A    between atoms: C7_10  and  N2_11 
REMARK    7  A    between atoms: C7_10  and  C8_15 
REMARK    8  A    between atoms: C8_15  and  C9_16 
REMARK    9  A    between atoms: C9_16  and  C10_17 
REMARK   10  A    between atoms: C10_17  and  C11_18 
REMARK   11  A    between atoms: C11_18  and  N3_19 
REMARK       I    between atoms: C12_23  and  N4_25 
REMARK   12  A    between atoms: N4_25  and  C13_27 
REMARK   13  A    between atoms: N5_31  and  C17_32 
REMARK   14  A    between atoms: C17_32  and  C18_33 
REMARK   15  A    between atoms: C21_36  and  C22_37 
REMARK       I    between atoms: C22_37  and  N6_39 
REMARK   16  A    between atoms: N6_39  and  C23_41 
ROOT
HETATM    1  C12 UNL     1       7.773  28.237   6.325  1.00  0.00     0.240 C 
HETATM    2  O2  UNL     1       6.581  28.172   6.687  1.00  0.00    -0.271 OA
HETATM    3  N4  UNL     1       8.568  29.382   6.602  1.00  0.00    -0.353 N 
ATOM      4  H4  UNL     1       9.541  29.423   6.299  1.00  0.00     0.163 HD
ENDROOT
BRANCH   3   5
HETATM    5  C13 UNL     1       7.975  30.487   7.319  1.00  0.00     0.107 C 
HETATM    6  C14 UNL     1       7.736  31.712   6.509  1.00  0.00     0.029 C 
HETATM    7  C15 UNL     1       8.440  32.895   7.089  1.00  0.00     0.022 C 
HETATM    8  C16 UNL     1       8.108  33.088   8.568  1.00  0.00     0.122 C 
HETATM    9  N5  UNL     1       8.123  31.825   9.259  1.00  0.00    -0.387 N 
HETATM   10  C30 UNL     1       8.868  30.884   8.508  1.00  0.00     0.102 C 
HETATM   11  C31 UNL     1       9.320  29.657   9.261  1.00  0.00     0.034 C 
BRANCH   9  12
HETATM   12  C17 UNL     1       6.915  31.429   9.848  1.00  0.00     0.063 C 
BRANCH  12  13
HETATM   13  C18 UNL     1       7.046  30.448  10.982  1.00  0.00     0.024 C 
HETATM   14  C19 UNL     1       6.095  29.287  10.798  1.00  0.00     0.010 C 
HETATM   15  C20 UNL     1       6.398  28.244  11.840  1.00  0.00     0.015 C 
HETATM   16  C21 UNL     1       7.039  28.839  13.085  1.00  0.00     0.078 C 
HETATM   17  C28 UNL     1       6.484  30.197  13.409  1.00  0.00     0.015 C 
HETATM   18  C29 UNL     1       6.679  31.161  12.262  1.00  0.00     0.010 C 
BRANCH  16  19
HETATM   19  C22 UNL     1       6.790  27.924  14.214  1.00  0.00     0.222 C 
HETATM   20  O3  UNL     1       7.772  27.305  14.710  1.00  0.00    -0.273 OA
HETATM   21  N6  UNL     1       5.515  27.710  14.764  1.00  0.00    -0.356 N 
ATOM     22  H6  UNL     1       4.717  28.207  14.367  1.00  0.00     0.162 HD
BRANCH  21  23
HETATM   23  C23 UNL     1       5.298  26.816  15.862  1.00  0.00     0.084 C 
HETATM   24  C24 UNL     1       4.014  26.024  15.770  1.00  0.00     0.025 C 
HETATM   25  C25 UNL     1       3.484  25.940  17.180  1.00  0.00     0.002 C 
HETATM   26  C26 UNL     1       4.422  26.730  18.056  1.00  0.00     0.002 C 
HETATM   27  C27 UNL     1       5.072  27.691  17.101  1.00  0.00     0.025 C 
ENDBRANCH  21  23
ENDBRANCH  16  19
ENDBRANCH  12  13
ENDBRANCH   9  12
ENDBRANCH   3   5
BRANCH   1  28
HETATM   28  C5  UNL     1       8.338  27.057   5.588  1.00  0.00     0.177 C 
BRANCH  28  29
HETATM   29  C4  UNL     1       9.187  27.517   4.448  1.00  0.00     0.038 C 
BRANCH  29  30
HETATM   30  C2  UNL     1       8.536  27.468   3.102  1.00  0.00    -0.020 C 
HETATM   31  C1  UNL     1       9.315  26.606   2.164  1.00  0.00     0.009 C 
HETATM   32  C3  UNL     1       8.493  28.900   2.555  1.00  0.00     0.009 C 
ENDBRANCH  29  30
ENDBRANCH  28  29
BRANCH  28  33
HETATM   33  N1  UNL     1       7.213  26.257   5.148  1.00  0.00    -0.346 N 
HETATM   34  C6  UNL     1       7.369  24.852   5.140  1.00  0.00     0.248 C 
HETATM   35  O1  UNL     1       8.455  24.303   5.504  1.00  0.00    -0.271 OA
ATOM     36  H1  UNL     1       6.338  26.692   4.855  1.00  0.00     0.163 HD
BRANCH  34  37
HETATM   37  C7  UNL     1       6.257  23.999   4.702  1.00  0.00     0.274 C 
BRANCH  37  38
HETATM   38  N2  UNL     1       5.094  24.837   4.468  1.00  0.00    -0.067 N 
ATOM     39  H23 UNL     1       4.697  24.704   3.538  1.00  0.00     0.275 HD
ATOM     40  H22 UNL     1       4.284  24.540   5.010  1.00  0.00     0.275 HD
ATOM     41  H21 UNL     1       5.351  25.808   4.648  1.00  0.00     0.275 HD
ENDBRANCH  37  38
BRANCH  37  42
HETATM   42  C8  UNL     1       5.985  22.994   5.812  1.00  0.00     0.042 C 
BRANCH  42  43
HETATM   43  C9  UNL     1       4.515  22.967   6.166  1.00  0.00     0.004 C 
BRANCH  43  44
HETATM   44  C10 UNL     1       4.192  21.851   7.124  1.00  0.00     0.027 C 
BRANCH  44  45
HETATM   45  C11 UNL     1       2.722  21.582   7.161  1.00  0.00     0.229 C 
BRANCH  45  46
HETATM   46  N3  UNL     1       2.052  22.076   5.952  1.00  0.00    -0.079 N 
ATOM     47  H33 UNL     1       1.423  21.375   5.561  1.00  0.00     0.274 HD
ATOM     48  H32 UNL     1       1.367  22.798   6.173  1.00  0.00     0.274 HD
ATOM     49  H31 UNL     1       2.725  22.401   5.257  1.00  0.00     0.274 HD
ENDBRANCH  45  46
ENDBRANCH  44  45
ENDBRANCH  43  44
ENDBRANCH  42  43
ENDBRANCH  37  42
ENDBRANCH  34  37
ENDBRANCH  28  33
ENDBRANCH   1  28
TORSDOF 16
ENDMDL
