MODEL 1
REMARK VINA RESULT: -8.451442378      0.000      0.000
REMARK  13 active torsions:
REMARK  status: ('A' for Active; 'I' for Inactive)
REMARK    1  A    between atoms: C2_2  and  C3_3 
REMARK    2  A    between atoms: C4_4  and  C5_5 
REMARK    3  A    between atoms: C6_6  and  C7_7 
REMARK    4  A    between atoms: C6_6  and  C22_27 
REMARK    5  A    between atoms: C8_8  and  C9_9 
REMARK    6  A    between atoms: C9_9  and  C10_10 
REMARK    7  A    between atoms: C10_10  and  C12_12 
REMARK    8  A    between atoms: C12_12  and  C13_13 
REMARK    9  A    between atoms: C13_13  and  C14_14 
REMARK   10  A    between atoms: C13_13  and  C16_16 
REMARK   11  A    between atoms: C16_16  and  N1_17 
REMARK   12  A    between atoms: C19_20  and  O1_21 
REMARK   13  A    between atoms: C20_23  and  O2_24 
ROOT
HETATM    1  C12 UNL     1      -5.934  10.472 -12.743  1.00  0.00    -0.014 C 
ENDROOT
BRANCH   1   2
HETATM    2  C10 UNL     1      -6.521  11.777 -12.906  1.00  0.00     0.008 C 
HETATM    3  C11 UNL     1      -5.741  12.929 -13.433  1.00  0.00     0.014 C 
BRANCH   2   4
HETATM    4  C9  UNL     1      -6.970  12.298 -11.491  1.00  0.00     0.035 C 
BRANCH   4   5
HETATM    5  C8  UNL     1      -8.186  13.065 -11.523  1.00  0.00    -0.025 C 
HETATM    6  C7  UNL     1      -8.559  14.253 -11.324  1.00  0.00     0.015 C 
BRANCH   6   7
HETATM    7  C6  UNL     1      -7.990  15.521 -10.952  1.00  0.00     0.048 C 
HETATM    8  C5  UNL     1      -7.135  16.022 -11.890  1.00  0.00     0.082 C 
BRANCH   8   9
HETATM    9  C4  UNL     1      -6.421  17.210 -11.856  1.00  0.00    -0.077 C 
HETATM   10  C3  UNL     1      -5.797  18.237 -11.786  1.00  0.00    -0.102 C 
BRANCH  10  11
HETATM   11  C2  UNL     1      -5.047  19.465 -11.728  1.00  0.00     0.090 C 
HETATM   12  C1  UNL     1      -4.046  19.434 -10.588  1.00  0.00     0.018 C 
ENDBRANCH  10  11
ENDBRANCH   8   9
BRANCH   7  13
HETATM   13  C22 UNL     1      -8.182  16.317  -9.790  1.00  0.00     0.209 C 
HETATM   14  O3  UNL     1      -7.477  16.346  -8.766  1.00  0.00    -0.644 OA
HETATM   15  O4  UNL     1      -9.283  17.205  -9.715  1.00  0.00    -0.644 OA
ENDBRANCH   7  13
ENDBRANCH   6   7
ENDBRANCH   4   5
ENDBRANCH   2   4
ENDBRANCH   1   2
BRANCH   1  16
HETATM   16  C13 UNL     1      -4.571  10.086 -13.131  1.00  0.00    -0.051 C 
BRANCH  16  17
HETATM   17  C14 UNL     1      -3.517  10.449 -12.093  1.00  0.00     0.035 C 
HETATM   18  C15 UNL     1      -2.410  11.257 -12.797  1.00  0.00     0.010 C 
ENDBRANCH  16  17
BRANCH  16  19
HETATM   19  C16 UNL     1      -4.323   8.837 -13.867  1.00  0.00     0.066 C 
BRANCH  19  20
HETATM   20  N1  UNL     1      -3.740   8.801 -15.150  1.00  0.00    -0.290 NA
HETATM   21  C17 UNL     1      -4.438   7.761 -15.907  1.00  0.00     0.097 C 
HETATM   22  C18 UNL     1      -4.911   8.177 -17.259  1.00  0.00     0.049 C 
HETATM   23  C19 UNL     1      -5.833   9.361 -17.231  1.00  0.00     0.149 C 
HETATM   24  C20 UNL     1      -5.321  10.390 -16.213  1.00  0.00     0.160 C 
HETATM   25  C21 UNL     1      -3.894  10.008 -15.943  1.00  0.00     0.129 C 
BRANCH  23  26
HETATM   26  O1  UNL     1      -7.110   8.934 -16.885  1.00  0.00    -0.393 OA
ATOM     27  H1  UNL     1      -7.101   8.617 -15.990  1.00  0.00     0.210 HD
ENDBRANCH  23  26
BRANCH  24  28
HETATM   28  O2  UNL     1      -5.257  11.662 -16.842  1.00  0.00    -0.392 OA
ATOM     29  H2  UNL     1      -6.066  12.130 -16.669  1.00  0.00     0.210 HD
ENDBRANCH  24  28
ENDBRANCH  19  20
ENDBRANCH  16  19
ENDBRANCH   1  16
TORSDOF 13
ENDMDL
MODEL 2
REMARK VINA RESULT: -8.241524338      2.538      4.555
REMARK  13 active torsions:
REMARK  status: ('A' for Active; 'I' for Inactive)
REMARK    1  A    between atoms: C2_2  and  C3_3 
REMARK    2  A    between atoms: C4_4  and  C5_5 
REMARK    3  A    between atoms: C6_6  and  C7_7 
REMARK    4  A    between atoms: C6_6  and  C22_27 
REMARK    5  A    between atoms: C8_8  and  C9_9 
REMARK    6  A    between atoms: C9_9  and  C10_10 
REMARK    7  A    between atoms: C10_10  and  C12_12 
REMARK    8  A    between atoms: C12_12  and  C13_13 
REMARK    9  A    between atoms: C13_13  and  C14_14 
REMARK   10  A    between atoms: C13_13  and  C16_16 
REMARK   11  A    between atoms: C16_16  and  N1_17 
REMARK   12  A    between atoms: C19_20  and  O1_21 
REMARK   13  A    between atoms: C20_23  and  O2_24 
ROOT
HETATM    1  C12 UNL     1      -3.024   7.844 -15.285  1.00  0.00    -0.014 C 
ENDROOT
BRANCH   1   2
HETATM    2  C10 UNL     1      -3.410   9.055 -14.607  1.00  0.00     0.008 C 
HETATM    3  C11 UNL     1      -2.417   9.915 -13.909  1.00  0.00     0.014 C 
BRANCH   2   4
HETATM    4  C9  UNL     1      -4.399   8.676 -13.443  1.00  0.00     0.035 C 
BRANCH   4   5
HETATM    5  C8  UNL     1      -5.770   9.002 -13.728  1.00  0.00    -0.025 C 
HETATM    6  C7  UNL     1      -6.557   9.978 -13.593  1.00  0.00     0.015 C 
BRANCH   6   7
HETATM    7  C6  UNL     1      -6.540  11.322 -13.078  1.00  0.00     0.048 C 
HETATM    8  C5  UNL     1      -7.641  11.625 -12.331  1.00  0.00     0.082 C 
BRANCH   8   9
HETATM    9  C4  UNL     1      -7.945  12.817 -11.692  1.00  0.00    -0.077 C 
HETATM   10  C3  UNL     1      -8.242  13.835 -11.122  1.00  0.00    -0.102 C 
BRANCH  10  11
HETATM   11  C2  UNL     1      -8.573  15.062 -10.443  1.00  0.00     0.090 C 
HETATM   12  C1  UNL     1      -7.676  16.194 -10.905  1.00  0.00     0.018 C 
ENDBRANCH  10  11
ENDBRANCH   8   9
BRANCH   7  13
HETATM   13  C22 UNL     1      -5.573  12.355 -13.218  1.00  0.00     0.209 C 
HETATM   14  O3  UNL     1      -4.399  12.355 -12.807  1.00  0.00    -0.644 OA
HETATM   15  O4  UNL     1      -5.911  13.552 -13.895  1.00  0.00    -0.644 OA
ENDBRANCH   7  13
ENDBRANCH   6   7
ENDBRANCH   4   5
ENDBRANCH   2   4
ENDBRANCH   1   2
BRANCH   1  16
HETATM   16  C13 UNL     1      -2.769   7.708 -16.725  1.00  0.00    -0.051 C 
BRANCH  16  17
HETATM   17  C14 UNL     1      -1.390   7.147 -17.048  1.00  0.00     0.035 C 
HETATM   18  C15 UNL     1      -0.616   6.989 -15.725  1.00  0.00     0.010 C 
ENDBRANCH  16  17
BRANCH  16  19
HETATM   19  C16 UNL     1      -3.843   7.303 -17.645  1.00  0.00     0.066 C 
BRANCH  19  20
HETATM   20  N1  UNL     1      -4.284   8.106 -18.715  1.00  0.00    -0.290 NA
HETATM   21  C17 UNL     1      -5.571   7.564 -19.153  1.00  0.00     0.097 C 
HETATM   22  C18 UNL     1      -6.662   8.572 -19.296  1.00  0.00     0.049 C 
HETATM   23  C19 UNL     1      -6.939   9.335 -18.034  1.00  0.00     0.149 C 
HETATM   24  C20 UNL     1      -5.614   9.686 -17.341  1.00  0.00     0.160 C 
HETATM   25  C21 UNL     1      -4.554   9.495 -18.387  1.00  0.00     0.129 C 
BRANCH  23  26
HETATM   26  O1  UNL     1      -7.730   8.556 -17.196  1.00  0.00    -0.393 OA
ATOM     27  H1  UNL     1      -8.580   8.428 -17.601  1.00  0.00     0.210 HD
ENDBRANCH  23  26
BRANCH  24  28
HETATM   28  O2  UNL     1      -5.607  11.076 -17.048  1.00  0.00    -0.392 OA
ATOM     29  H2  UNL     1      -4.878  11.261 -16.467  1.00  0.00     0.210 HD
ENDBRANCH  24  28
ENDBRANCH  19  20
ENDBRANCH  16  19
ENDBRANCH   1  16
TORSDOF 13
ENDMDL
MODEL 3
REMARK VINA RESULT: -8.106372683      3.374      5.963
REMARK  13 active torsions:
REMARK  status: ('A' for Active; 'I' for Inactive)
REMARK    1  A    between atoms: C2_2  and  C3_3 
REMARK    2  A    between atoms: C4_4  and  C5_5 
REMARK    3  A    between atoms: C6_6  and  C7_7 
REMARK    4  A    between atoms: C6_6  and  C22_27 
REMARK    5  A    between atoms: C8_8  and  C9_9 
REMARK    6  A    between atoms: C9_9  and  C10_10 
REMARK    7  A    between atoms: C10_10  and  C12_12 
REMARK    8  A    between atoms: C12_12  and  C13_13 
REMARK    9  A    between atoms: C13_13  and  C14_14 
REMARK   10  A    between atoms: C13_13  and  C16_16 
REMARK   11  A    between atoms: C16_16  and  N1_17 
REMARK   12  A    between atoms: C19_20  and  O1_21 
REMARK   13  A    between atoms: C20_23  and  O2_24 
ROOT
HETATM    1  C12 UNL     1      -3.588   9.666 -14.278  1.00  0.00    -0.014 C 
ENDROOT
BRANCH   1   2
HETATM    2  C10 UNL     1      -4.533   8.598 -14.483  1.00  0.00     0.008 C 
HETATM    3  C11 UNL     1      -4.421   7.661 -15.634  1.00  0.00     0.014 C 
BRANCH   2   4
HETATM    4  C9  UNL     1      -5.956   9.231 -14.706  1.00  0.00     0.035 C 
BRANCH   4   5
HETATM    5  C8  UNL     1      -6.709   9.387 -13.491  1.00  0.00    -0.025 C 
HETATM    6  C7  UNL     1      -7.048  10.310 -12.702  1.00  0.00     0.015 C 
BRANCH   6   7
HETATM    7  C6  UNL     1      -6.878  11.732 -12.558  1.00  0.00     0.048 C 
HETATM    8  C5  UNL     1      -7.832  12.311 -11.772  1.00  0.00     0.082 C 
BRANCH   8   9
HETATM    9  C4  UNL     1      -7.967  13.646 -11.427  1.00  0.00    -0.077 C 
HETATM   10  C3  UNL     1      -8.085  14.815 -11.167  1.00  0.00    -0.102 C 
BRANCH  10  11
HETATM   11  C2  UNL     1      -8.234  16.208 -10.831  1.00  0.00     0.090 C 
HETATM   12  C1  UNL     1      -8.139  16.415  -9.331  1.00  0.00     0.018 C 
ENDBRANCH  10  11
ENDBRANCH   8   9
BRANCH   7  13
HETATM   13  C22 UNL     1      -5.889  12.604 -13.090  1.00  0.00     0.209 C 
HETATM   14  O3  UNL     1      -6.065  13.593 -13.823  1.00  0.00    -0.644 OA
HETATM   15  O4  UNL     1      -4.521  12.385 -12.795  1.00  0.00    -0.644 OA
ENDBRANCH   7  13
ENDBRANCH   6   7
ENDBRANCH   4   5
ENDBRANCH   2   4
ENDBRANCH   1   2
BRANCH   1  16
HETATM   16  C13 UNL     1      -2.254   9.533 -13.679  1.00  0.00    -0.051 C 
BRANCH  16  17
HETATM   17  C14 UNL     1      -1.138   9.392 -14.706  1.00  0.00     0.035 C 
HETATM   18  C15 UNL     1      -0.790   7.897 -14.832  1.00  0.00     0.010 C 
ENDBRANCH  16  17
BRANCH  16  19
HETATM   19  C16 UNL     1      -1.898  10.278 -12.462  1.00  0.00     0.066 C 
BRANCH  19  20
HETATM   20  N1  UNL     1      -0.596  10.293 -11.921  1.00  0.00    -0.290 NA
HETATM   21  C17 UNL     1      -0.439  11.570 -11.224  1.00  0.00     0.097 C 
HETATM   22  C18 UNL     1       0.095  11.466  -9.835  1.00  0.00     0.049 C 
HETATM   23  C19 UNL     1      -0.740  10.601  -8.937  1.00  0.00     0.149 C 
HETATM   24  C20 UNL     1      -1.209   9.358  -9.707  1.00  0.00     0.160 C 
HETATM   25  C21 UNL     1      -0.322   9.281 -10.917  1.00  0.00     0.129 C 
BRANCH  23  26
HETATM   26  O1  UNL     1      -1.835  11.333  -8.491  1.00  0.00    -0.393 OA
ATOM     27  H1  UNL     1      -2.395  11.538  -9.230  1.00  0.00     0.210 HD
ENDBRANCH  23  26
BRANCH  24  28
HETATM   28  O2  UNL     1      -0.899   8.202  -8.941  1.00  0.00    -0.392 OA
ATOM     29  H2  UNL     1      -0.927   7.442  -9.510  1.00  0.00     0.210 HD
ENDBRANCH  24  28
ENDBRANCH  19  20
ENDBRANCH  16  19
ENDBRANCH   1  16
TORSDOF 13
ENDMDL
MODEL 4
REMARK VINA RESULT: -8.094918809      3.440      5.279
REMARK  13 active torsions:
REMARK  status: ('A' for Active; 'I' for Inactive)
REMARK    1  A    between atoms: C2_2  and  C3_3 
REMARK    2  A    between atoms: C4_4  and  C5_5 
REMARK    3  A    between atoms: C6_6  and  C7_7 
REMARK    4  A    between atoms: C6_6  and  C22_27 
REMARK    5  A    between atoms: C8_8  and  C9_9 
REMARK    6  A    between atoms: C9_9  and  C10_10 
REMARK    7  A    between atoms: C10_10  and  C12_12 
REMARK    8  A    between atoms: C12_12  and  C13_13 
REMARK    9  A    between atoms: C13_13  and  C14_14 
REMARK   10  A    between atoms: C13_13  and  C16_16 
REMARK   11  A    between atoms: C16_16  and  N1_17 
REMARK   12  A    between atoms: C19_20  and  O1_21 
REMARK   13  A    between atoms: C20_23  and  O2_24 
ROOT
HETATM    1  C12 UNL     1      -4.064  10.588 -13.666  1.00  0.00    -0.014 C 
ENDROOT
BRANCH   1   2
HETATM    2  C10 UNL     1      -5.258   9.825 -13.407  1.00  0.00     0.008 C 
HETATM    3  C11 UNL     1      -5.560   8.565 -14.139  1.00  0.00     0.014 C 
BRANCH   2   4
HETATM    4  C9  UNL     1      -6.503  10.721 -13.757  1.00  0.00     0.035 C 
BRANCH   4   5
HETATM    5  C8  UNL     1      -7.377  10.949 -12.638  1.00  0.00    -0.025 C 
HETATM    6  C7  UNL     1      -7.778  11.917 -11.936  1.00  0.00     0.015 C 
BRANCH   6   7
HETATM    7  C6  UNL     1      -7.596  13.341 -11.845  1.00  0.00     0.048 C 
HETATM    8  C5  UNL     1      -8.338  13.916 -10.855  1.00  0.00     0.082 C 
BRANCH   8   9
HETATM    9  C4  UNL     1      -8.402  15.253 -10.494  1.00  0.00    -0.077 C 
HETATM   10  C3  UNL     1      -8.475  16.403 -10.146  1.00  0.00    -0.102 C 
BRANCH  10  11
HETATM   11  C2  UNL     1      -8.545  17.786  -9.748  1.00  0.00     0.090 C 
HETATM   12  C1  UNL     1      -7.867  18.678 -10.771  1.00  0.00     0.018 C 
ENDBRANCH  10  11
ENDBRANCH   8   9
BRANCH   7  13
HETATM   13  C22 UNL     1      -6.777  14.219 -12.606  1.00  0.00     0.209 C 
HETATM   14  O3  UNL     1      -7.012  15.402 -12.910  1.00  0.00    -0.644 OA
HETATM   15  O4  UNL     1      -5.533  13.767 -13.110  1.00  0.00    -0.644 OA
ENDBRANCH   7  13
ENDBRANCH   6   7
ENDBRANCH   4   5
ENDBRANCH   2   4
ENDBRANCH   1   2
BRANCH   1  16
HETATM   16  C13 UNL     1      -2.700  10.213 -13.271  1.00  0.00    -0.051 C 
BRANCH  16  17
HETATM   17  C14 UNL     1      -2.038   9.230 -14.227  1.00  0.00     0.035 C 
HETATM   18  C15 UNL     1      -2.264   9.734 -15.665  1.00  0.00     0.010 C 
ENDBRANCH  16  17
BRANCH  16  19
HETATM   19  C16 UNL     1      -1.796  11.199 -12.658  1.00  0.00     0.066 C 
BRANCH  19  20
HETATM   20  N1  UNL     1      -1.890  11.596 -11.309  1.00  0.00    -0.290 NA
HETATM   21  C17 UNL     1      -2.408  10.448 -10.563  1.00  0.00     0.097 C 
HETATM   22  C18 UNL     1      -1.636  10.097  -9.335  1.00  0.00     0.049 C 
HETATM   23  C19 UNL     1      -0.190   9.801  -9.604  1.00  0.00     0.149 C 
HETATM   24  C20 UNL     1       0.360  10.800 -10.633  1.00  0.00     0.160 C 
HETATM   25  C21 UNL     1      -0.632  11.927 -10.663  1.00  0.00     0.129 C 
BRANCH  23  26
HETATM   26  O1  UNL     1      -0.073   8.501 -10.083  1.00  0.00    -0.393 OA
ATOM     27  H1  UNL     1      -0.274   8.492 -11.011  1.00  0.00     0.210 HD
ENDBRANCH  23  26
BRANCH  24  28
HETATM   28  O2  UNL     1       1.558  11.368 -10.124  1.00  0.00    -0.392 OA
ATOM     29  H2  UNL     1       1.491  12.314 -10.170  1.00  0.00     0.210 HD
ENDBRANCH  24  28
ENDBRANCH  19  20
ENDBRANCH  16  19
ENDBRANCH   1  16
TORSDOF 13
ENDMDL
MODEL 5
REMARK VINA RESULT: -8.084173997      2.743      5.330
REMARK  13 active torsions:
REMARK  status: ('A' for Active; 'I' for Inactive)
REMARK    1  A    between atoms: C2_2  and  C3_3 
REMARK    2  A    between atoms: C4_4  and  C5_5 
REMARK    3  A    between atoms: C6_6  and  C7_7 
REMARK    4  A    between atoms: C6_6  and  C22_27 
REMARK    5  A    between atoms: C8_8  and  C9_9 
REMARK    6  A    between atoms: C9_9  and  C10_10 
REMARK    7  A    between atoms: C10_10  and  C12_12 
REMARK    8  A    between atoms: C12_12  and  C13_13 
REMARK    9  A    between atoms: C13_13  and  C14_14 
REMARK   10  A    between atoms: C13_13  and  C16_16 
REMARK   11  A    between atoms: C16_16  and  N1_17 
REMARK   12  A    between atoms: C19_20  and  O1_21 
REMARK   13  A    between atoms: C20_23  and  O2_24 
ROOT
HETATM    1  C12 UNL     1      -4.467   7.789 -16.313  1.00  0.00    -0.014 C 
ENDROOT
BRANCH   1   2
HETATM    2  C10 UNL     1      -5.145   8.943 -15.780  1.00  0.00     0.008 C 
HETATM    3  C11 UNL     1      -4.671  10.327 -16.051  1.00  0.00     0.014 C 
BRANCH   2   4
HETATM    4  C9  UNL     1      -5.084   8.872 -14.210  1.00  0.00     0.035 C 
BRANCH   4   5
HETATM    5  C8  UNL     1      -6.359   9.080 -13.577  1.00  0.00    -0.025 C 
HETATM    6  C7  UNL     1      -7.008  10.023 -13.048  1.00  0.00     0.015 C 
BRANCH   6   7
HETATM    7  C6  UNL     1      -6.851  11.426 -12.771  1.00  0.00     0.048 C 
HETATM    8  C5  UNL     1      -7.850  11.936 -11.993  1.00  0.00     0.082 C 
BRANCH   8   9
HETATM    9  C4  UNL     1      -8.008  13.236 -11.540  1.00  0.00    -0.077 C 
HETATM   10  C3  UNL     1      -8.140  14.352 -11.109  1.00  0.00    -0.102 C 
BRANCH  10  11
HETATM   11  C2  UNL     1      -8.295  15.697 -10.617  1.00  0.00     0.090 C 
HETATM   12  C1  UNL     1      -7.128  16.566 -11.045  1.00  0.00     0.018 C 
ENDBRANCH  10  11
ENDBRANCH   8   9
BRANCH   7  13
HETATM   13  C22 UNL     1      -5.836  12.340 -13.168  1.00  0.00     0.209 C 
HETATM   14  O3  UNL     1      -5.965  13.356 -13.873  1.00  0.00    -0.644 OA
HETATM   15  O4  UNL     1      -4.498  12.137 -12.749  1.00  0.00    -0.644 OA
ENDBRANCH   7  13
ENDBRANCH   6   7
ENDBRANCH   4   5
ENDBRANCH   2   4
ENDBRANCH   1   2
BRANCH   1  16
HETATM   16  C13 UNL     1      -4.511   7.332 -17.708  1.00  0.00    -0.051 C 
BRANCH  16  17
HETATM   17  C14 UNL     1      -3.826   5.989 -17.929  1.00  0.00     0.035 C 
HETATM   18  C15 UNL     1      -4.865   5.011 -18.510  1.00  0.00     0.010 C 
ENDBRANCH  16  17
BRANCH  16  19
HETATM   19  C16 UNL     1      -5.695   7.578 -18.544  1.00  0.00     0.066 C 
BRANCH  19  20
HETATM   20  N1  UNL     1      -6.043   8.855 -19.030  1.00  0.00    -0.290 NA
HETATM   21  C17 UNL     1      -5.541   8.938 -20.403  1.00  0.00     0.097 C 
HETATM   22  C18 UNL     1      -6.535   9.417 -21.407  1.00  0.00     0.049 C 
HETATM   23  C19 UNL     1      -7.775   8.574 -21.467  1.00  0.00     0.149 C 
HETATM   24  C20 UNL     1      -8.203   8.182 -20.045  1.00  0.00     0.160 C 
HETATM   25  C21 UNL     1      -7.466   9.120 -19.134  1.00  0.00     0.129 C 
BRANCH  23  26
HETATM   26  O1  UNL     1      -7.517   7.437 -22.224  1.00  0.00    -0.393 OA
ATOM     27  H1  UNL     1      -6.837   6.928 -21.798  1.00  0.00     0.210 HD
ENDBRANCH  23  26
BRANCH  24  28
HETATM   28  O2  UNL     1      -9.578   8.498 -19.879  1.00  0.00    -0.392 OA
ATOM     29  H2  UNL     1     -10.095   7.896 -20.401  1.00  0.00     0.210 HD
ENDBRANCH  24  28
ENDBRANCH  19  20
ENDBRANCH  16  19
ENDBRANCH   1  16
TORSDOF 13
ENDMDL
