MODEL 1
REMARK VINA RESULT: -7.597259647      0.000      0.000
REMARK  12 active torsions:
REMARK  status: ('A' for Active; 'I' for Inactive)
REMARK    1  A    between atoms: C2_2  and  C3_3 
REMARK    2  A    between atoms: C3_3  and  C4_4 
REMARK    3  A    between atoms: C4_4  and  C5_5 
REMARK    4  A    between atoms: C5_5  and  C6_6 
REMARK    5  A    between atoms: C6_6  and  N1_7 
REMARK    6  A    between atoms: N1_7  and  C7_8 
REMARK       I    between atoms: N1_7  and  C10_11 
REMARK    7  A    between atoms: C7_8  and  C8_9 
REMARK    8  A    between atoms: C10_11  and  C11_13 
REMARK    9  A    between atoms: C13_15  and  O2_17 
REMARK   10  A    between atoms: C15_19  and  C16_20 
REMARK   11  A    between atoms: C16_20  and  O3_21 
REMARK   12  A    between atoms: C21_27  and  O4_28 
ROOT
HETATM    1  C11 UNL     1      -4.375   9.758 -15.633  1.00  0.00     0.079 C 
HETATM    2  C12 UNL     1      -3.671  10.249 -16.856  1.00  0.00     0.061 C 
HETATM    3  C13 UNL     1      -4.268   9.485 -17.996  1.00  0.00     0.068 C 
HETATM    4  C14 UNL     1      -3.401   9.377 -19.195  1.00  0.00     0.047 C 
HETATM    5  C15 UNL     1      -4.598   8.169 -17.345  1.00  0.00     0.044 C 
HETATM    6  C17 UNL     1      -3.380   7.375 -16.978  1.00  0.00     0.018 C 
HETATM    7  C18 UNL     1      -2.699   7.879 -15.730  1.00  0.00     0.007 C 
HETATM    8  C19 UNL     1      -3.650   8.645 -14.882  1.00  0.00     0.009 C 
HETATM    9  C20 UNL     1      -4.981   7.880 -14.888  1.00  0.00     0.046 C 
HETATM   10  C21 UNL     1      -5.327   8.653 -16.114  1.00  0.00     0.087 C 
ENDROOT
BRANCH   1  11
HETATM   11  C10 UNL     1      -4.989  10.731 -14.734  1.00  0.00     0.232 C 
HETATM   12  N1  UNL     1      -4.686  10.919 -13.379  1.00  0.00    -0.351 N 
HETATM   13  O1  UNL     1      -5.896  11.477 -15.248  1.00  0.00    -0.272 OA
BRANCH  12  14
HETATM   14  C6  UNL     1      -5.466  11.901 -12.628  1.00  0.00     0.125 C 
BRANCH  14  15
HETATM   15  C5  UNL     1      -6.716  11.315 -12.030  1.00  0.00     0.020 C 
BRANCH  15  16
HETATM   16  C4  UNL     1      -7.859  12.255 -11.875  1.00  0.00     0.002 C 
BRANCH  16  17
HETATM   17  C3  UNL     1      -7.377  13.715 -11.840  1.00  0.00    -0.000 C 
BRANCH  17  18
HETATM   18  C2  UNL     1      -8.400  14.504 -11.035  1.00  0.00    -0.005 C 
HETATM   19  C1  UNL     1      -7.770  15.825 -10.651  1.00  0.00     0.005 C 
ENDBRANCH  17  18
ENDBRANCH  16  17
ENDBRANCH  15  16
ENDBRANCH  14  15
ENDBRANCH  12  14
BRANCH  12  20
HETATM   20  C7  UNL     1      -3.648  10.253 -12.638  1.00  0.00     0.125 C 
BRANCH  20  21
HETATM   21  C8  UNL     1      -2.554  11.116 -12.122  1.00  0.00     0.015 C 
HETATM   22  C9  UNL     1      -2.164  10.539 -10.750  1.00  0.00     0.006 C 
ENDBRANCH  20  21
ENDBRANCH  12  20
ENDBRANCH   1  11
BRANCH  10  23
HETATM   23  O4  UNL     1      -6.632   9.018 -16.287  1.00  0.00    -0.388 OA
ATOM     24  H4  UNL     1      -7.270   8.548 -15.763  1.00  0.00     0.210 HD
ENDBRANCH  10  23
BRANCH   3  25
HETATM   25  O2  UNL     1      -5.508  10.080 -18.327  1.00  0.00    -0.389 OA
ATOM     26  H2  UNL     1      -6.183   9.681 -17.791  1.00  0.00     0.210 HD
ENDBRANCH   3  25
BRANCH   5  27
HETATM   27  C16 UNL     1      -5.510   7.370 -18.252  1.00  0.00     0.179 C 
BRANCH  27  28
HETATM   28  O3  UNL     1      -5.877   6.180 -17.637  1.00  0.00    -0.400 OA
ATOM     29  H3  UNL     1      -6.530   5.728 -18.158  1.00  0.00     0.209 HD
ENDBRANCH  27  28
ENDBRANCH   5  27
TORSDOF 12
ENDMDL
MODEL 2
REMARK VINA RESULT: -7.206414626      1.158      1.528
REMARK  12 active torsions:
REMARK  status: ('A' for Active; 'I' for Inactive)
REMARK    1  A    between atoms: C2_2  and  C3_3 
REMARK    2  A    between atoms: C3_3  and  C4_4 
REMARK    3  A    between atoms: C4_4  and  C5_5 
REMARK    4  A    between atoms: C5_5  and  C6_6 
REMARK    5  A    between atoms: C6_6  and  N1_7 
REMARK    6  A    between atoms: N1_7  and  C7_8 
REMARK       I    between atoms: N1_7  and  C10_11 
REMARK    7  A    between atoms: C7_8  and  C8_9 
REMARK    8  A    between atoms: C10_11  and  C11_13 
REMARK    9  A    between atoms: C13_15  and  O2_17 
REMARK   10  A    between atoms: C15_19  and  C16_20 
REMARK   11  A    between atoms: C16_20  and  O3_21 
REMARK   12  A    between atoms: C21_27  and  O4_28 
ROOT
HETATM    1  C11 UNL     1      -4.218   9.809 -15.675  1.00  0.00     0.079 C 
HETATM    2  C12 UNL     1      -2.772  10.035 -15.980  1.00  0.00     0.061 C 
HETATM    3  C13 UNL     1      -2.688  10.139 -17.470  1.00  0.00     0.068 C 
HETATM    4  C14 UNL     1      -1.358   9.815 -18.043  1.00  0.00     0.047 C 
HETATM    5  C15 UNL     1      -3.795   9.216 -17.906  1.00  0.00     0.044 C 
HETATM    6  C17 UNL     1      -3.499   7.773 -17.628  1.00  0.00     0.018 C 
HETATM    7  C18 UNL     1      -3.688   7.398 -16.179  1.00  0.00     0.007 C 
HETATM    8  C19 UNL     1      -4.614   8.346 -15.505  1.00  0.00     0.009 C 
HETATM    9  C20 UNL     1      -5.766   8.625 -16.481  1.00  0.00     0.046 C 
HETATM   10  C21 UNL     1      -4.922   9.720 -17.037  1.00  0.00     0.087 C 
ENDROOT
BRANCH   1  11
HETATM   11  C10 UNL     1      -4.880  10.683 -14.711  1.00  0.00     0.232 C 
HETATM   12  N1  UNL     1      -4.718  10.663 -13.320  1.00  0.00    -0.351 N 
HETATM   13  O1  UNL     1      -5.691  11.548 -15.201  1.00  0.00    -0.272 OA
BRANCH  12  14
HETATM   14  C6  UNL     1      -5.529  11.576 -12.517  1.00  0.00     0.125 C 
BRANCH  14  15
HETATM   15  C5  UNL     1      -6.917  11.053 -12.266  1.00  0.00     0.020 C 
BRANCH  15  16
HETATM   16  C4  UNL     1      -7.955  12.083 -11.989  1.00  0.00     0.002 C 
BRANCH  16  17
HETATM   17  C3  UNL     1      -7.333  13.485 -11.888  1.00  0.00    -0.000 C 
BRANCH  17  18
HETATM   18  C2  UNL     1      -8.321  14.359 -11.130  1.00  0.00    -0.005 C 
HETATM   19  C1  UNL     1      -7.680  15.714 -10.923  1.00  0.00     0.005 C 
ENDBRANCH  17  18
ENDBRANCH  16  17
ENDBRANCH  15  16
ENDBRANCH  14  15
ENDBRANCH  12  14
BRANCH  12  20
HETATM   20  C7  UNL     1      -3.798   9.838 -12.582  1.00  0.00     0.125 C 
BRANCH  20  21
HETATM   21  C8  UNL     1      -2.859  10.550 -11.679  1.00  0.00     0.015 C 
HETATM   22  C9  UNL     1      -1.785  11.176 -12.585  1.00  0.00     0.006 C 
ENDBRANCH  20  21
ENDBRANCH  12  20
ENDBRANCH   1  11
BRANCH  10  23
HETATM   23  O4  UNL     1      -5.554  10.854 -17.461  1.00  0.00    -0.388 OA
ATOM     24  H4  UNL     1      -5.361  11.134 -18.348  1.00  0.00     0.210 HD
ENDBRANCH  10  23
BRANCH   3  25
HETATM   25  O2  UNL     1      -3.092  11.441 -17.848  1.00  0.00    -0.389 OA
ATOM     26  H2  UNL     1      -3.445  11.877 -17.081  1.00  0.00     0.210 HD
ENDBRANCH   3  25
BRANCH   5  27
HETATM   27  C16 UNL     1      -4.087   9.435 -19.375  1.00  0.00     0.179 C 
BRANCH  27  28
HETATM   28  O3  UNL     1      -5.336   8.920 -19.698  1.00  0.00    -0.400 OA
ATOM     29  H3  UNL     1      -5.377   8.715 -20.625  1.00  0.00     0.209 HD
ENDBRANCH  27  28
ENDBRANCH   5  27
TORSDOF 12
ENDMDL
MODEL 3
REMARK VINA RESULT: -6.947149863      1.657      2.655
REMARK  12 active torsions:
REMARK  status: ('A' for Active; 'I' for Inactive)
REMARK    1  A    between atoms: C2_2  and  C3_3 
REMARK    2  A    between atoms: C3_3  and  C4_4 
REMARK    3  A    between atoms: C4_4  and  C5_5 
REMARK    4  A    between atoms: C5_5  and  C6_6 
REMARK    5  A    between atoms: C6_6  and  N1_7 
REMARK    6  A    between atoms: N1_7  and  C7_8 
REMARK       I    between atoms: N1_7  and  C10_11 
REMARK    7  A    between atoms: C7_8  and  C8_9 
REMARK    8  A    between atoms: C10_11  and  C11_13 
REMARK    9  A    between atoms: C13_15  and  O2_17 
REMARK   10  A    between atoms: C15_19  and  C16_20 
REMARK   11  A    between atoms: C16_20  and  O3_21 
REMARK   12  A    between atoms: C21_27  and  O4_28 
ROOT
HETATM    1  C11 UNL     1      -4.485   9.027 -15.975  1.00  0.00     0.079 C 
HETATM    2  C12 UNL     1      -3.576   8.274 -15.057  1.00  0.00     0.061 C 
HETATM    3  C13 UNL     1      -2.204   8.435 -15.632  1.00  0.00     0.068 C 
HETATM    4  C14 UNL     1      -1.241   7.371 -15.251  1.00  0.00     0.047 C 
HETATM    5  C15 UNL     1      -2.494   8.512 -17.107  1.00  0.00     0.044 C 
HETATM    6  C17 UNL     1      -2.976   7.212 -17.679  1.00  0.00     0.018 C 
HETATM    7  C18 UNL     1      -4.420   6.922 -17.358  1.00  0.00     0.007 C 
HETATM    8  C19 UNL     1      -5.155   8.178 -17.049  1.00  0.00     0.009 C 
HETATM    9  C20 UNL     1      -4.692   9.234 -18.064  1.00  0.00     0.046 C 
HETATM   10  C21 UNL     1      -3.592   9.550 -17.110  1.00  0.00     0.087 C 
ENDROOT
BRANCH   1  11
HETATM   11  C10 UNL     1      -5.386  10.028 -15.410  1.00  0.00     0.232 C 
HETATM   12  N1  UNL     1      -5.430  10.449 -14.075  1.00  0.00    -0.351 N 
HETATM   13  O1  UNL     1      -6.216  10.562 -16.229  1.00  0.00    -0.272 OA
BRANCH  12  14
HETATM   14  C6  UNL     1      -6.458  11.414 -13.690  1.00  0.00     0.125 C 
BRANCH  14  15
HETATM   15  C5  UNL     1      -7.274  10.956 -12.511  1.00  0.00     0.020 C 
BRANCH  15  16
HETATM   16  C4  UNL     1      -7.464  11.959 -11.429  1.00  0.00     0.002 C 
BRANCH  16  17
HETATM   17  C3  UNL     1      -7.300  13.391 -11.963  1.00  0.00    -0.000 C 
BRANCH  17  18
HETATM   18  C2  UNL     1      -8.241  14.278 -11.161  1.00  0.00    -0.005 C 
HETATM   19  C1  UNL     1      -7.995  15.712 -11.576  1.00  0.00     0.005 C 
ENDBRANCH  17  18
ENDBRANCH  16  17
ENDBRANCH  15  16
ENDBRANCH  14  15
ENDBRANCH  12  14
BRANCH  12  20
HETATM   20  C7  UNL     1      -4.535  10.044 -13.024  1.00  0.00     0.125 C 
BRANCH  20  21
HETATM   21  C8  UNL     1      -3.592  11.080 -12.531  1.00  0.00     0.015 C 
HETATM   22  C9  UNL     1      -2.505  10.329 -11.742  1.00  0.00     0.006 C 
ENDBRANCH  20  21
ENDBRANCH  12  20
ENDBRANCH   1  11
BRANCH  10  23
HETATM   23  O4  UNL     1      -3.194  10.853 -17.010  1.00  0.00    -0.388 OA
ATOM     24  H4  UNL     1      -3.501  11.326 -16.246  1.00  0.00     0.210 HD
ENDBRANCH  10  23
BRANCH   3  25
HETATM   25  O2  UNL     1      -1.714   9.709 -15.262  1.00  0.00    -0.389 OA
ATOM     26  H2  UNL     1      -0.938   9.892 -15.780  1.00  0.00     0.210 HD
ENDBRANCH   3  25
BRANCH   5  27
HETATM   27  C16 UNL     1      -1.265   9.003 -17.840  1.00  0.00     0.179 C 
BRANCH  27  28
HETATM   28  O3  UNL     1      -1.627   9.593 -19.044  1.00  0.00    -0.400 OA
ATOM     29  H3  UNL     1      -1.050   9.300 -19.740  1.00  0.00     0.209 HD
ENDBRANCH  27  28
ENDBRANCH   5  27
TORSDOF 12
ENDMDL
MODEL 4
REMARK VINA RESULT: -6.706183973      2.743      7.435
REMARK  12 active torsions:
REMARK  status: ('A' for Active; 'I' for Inactive)
REMARK    1  A    between atoms: C2_2  and  C3_3 
REMARK    2  A    between atoms: C3_3  and  C4_4 
REMARK    3  A    between atoms: C4_4  and  C5_5 
REMARK    4  A    between atoms: C5_5  and  C6_6 
REMARK    5  A    between atoms: C6_6  and  N1_7 
REMARK    6  A    between atoms: N1_7  and  C7_8 
REMARK       I    between atoms: N1_7  and  C10_11 
REMARK    7  A    between atoms: C7_8  and  C8_9 
REMARK    8  A    between atoms: C10_11  and  C11_13 
REMARK    9  A    between atoms: C13_15  and  O2_17 
REMARK   10  A    between atoms: C15_19  and  C16_20 
REMARK   11  A    between atoms: C16_20  and  O3_21 
REMARK   12  A    between atoms: C21_27  and  O4_28 
ROOT
HETATM    1  C11 UNL     1      -5.160   9.189 -16.408  1.00  0.00     0.079 C 
HETATM    2  C12 UNL     1      -6.171   8.673 -15.435  1.00  0.00     0.061 C 
HETATM    3  C13 UNL     1      -6.319   9.749 -14.405  1.00  0.00     0.068 C 
HETATM    4  C14 UNL     1      -6.814   9.283 -13.086  1.00  0.00     0.047 C 
HETATM    5  C15 UNL     1      -4.936  10.342 -14.377  1.00  0.00     0.044 C 
HETATM    6  C17 UNL     1      -3.913   9.418 -13.787  1.00  0.00     0.018 C 
HETATM    7  C18 UNL     1      -3.482   8.329 -14.738  1.00  0.00     0.007 C 
HETATM    8  C19 UNL     1      -3.729   8.730 -16.148  1.00  0.00     0.009 C 
HETATM    9  C20 UNL     1      -3.315  10.203 -16.279  1.00  0.00     0.046 C 
HETATM   10  C21 UNL     1      -4.702  10.546 -15.855  1.00  0.00     0.087 C 
ENDROOT
BRANCH   1  11
HETATM   11  C10 UNL     1      -5.493   9.201 -17.830  1.00  0.00     0.232 C 
HETATM   12  N1  UNL     1      -5.118   8.244 -18.781  1.00  0.00    -0.351 N 
HETATM   13  O1  UNL     1      -6.197  10.194 -18.234  1.00  0.00    -0.272 OA
BRANCH  12  14
HETATM   14  C6  UNL     1      -5.491   8.473 -20.176  1.00  0.00     0.125 C 
BRANCH  14  15
HETATM   15  C5  UNL     1      -6.826   7.873 -20.526  1.00  0.00     0.020 C 
BRANCH  15  16
HETATM   16  C4  UNL     1      -6.780   6.614 -21.317  1.00  0.00     0.002 C 
BRANCH  16  17
HETATM   17  C3  UNL     1      -8.172   6.243 -21.853  1.00  0.00    -0.000 C 
BRANCH  17  18
HETATM   18  C2  UNL     1      -8.207   4.728 -21.996  1.00  0.00    -0.005 C 
HETATM   19  C1  UNL     1      -9.652   4.287 -21.916  1.00  0.00     0.005 C 
ENDBRANCH  17  18
ENDBRANCH  16  17
ENDBRANCH  15  16
ENDBRANCH  14  15
ENDBRANCH  12  14
BRANCH  12  20
HETATM   20  C7  UNL     1      -4.409   7.018 -18.522  1.00  0.00     0.125 C 
BRANCH  20  21
HETATM   21  C8  UNL     1      -5.218   5.894 -17.985  1.00  0.00     0.015 C 
HETATM   22  C9  UNL     1      -4.793   4.645 -18.776  1.00  0.00     0.006 C 
ENDBRANCH  20  21
ENDBRANCH  12  20
ENDBRANCH   1  11
BRANCH  10  23
HETATM   23  O4  UNL     1      -5.281  11.650 -16.414  1.00  0.00    -0.388 OA
ATOM     24  H4  UNL     1      -5.464  11.599 -17.345  1.00  0.00     0.210 HD
ENDBRANCH  10  23
BRANCH   3  25
HETATM   25  O2  UNL     1      -7.166  10.753 -14.931  1.00  0.00    -0.389 OA
ATOM     26  H2  UNL     1      -7.454  10.477 -15.793  1.00  0.00     0.210 HD
ENDBRANCH   3  25
BRANCH   5  27
HETATM   27  C16 UNL     1      -4.966  11.660 -13.633  1.00  0.00     0.179 C 
BRANCH  27  28
HETATM   28  O3  UNL     1      -3.756  11.874 -12.986  1.00  0.00    -0.400 OA
ATOM     29  H3  UNL     1      -3.862  11.773 -12.048  1.00  0.00     0.209 HD
ENDBRANCH  27  28
ENDBRANCH   5  27
TORSDOF 12
ENDMDL
MODEL 5
REMARK VINA RESULT: -6.638537671      1.247      1.473
REMARK  12 active torsions:
REMARK  status: ('A' for Active; 'I' for Inactive)
REMARK    1  A    between atoms: C2_2  and  C3_3 
REMARK    2  A    between atoms: C3_3  and  C4_4 
REMARK    3  A    between atoms: C4_4  and  C5_5 
REMARK    4  A    between atoms: C5_5  and  C6_6 
REMARK    5  A    between atoms: C6_6  and  N1_7 
REMARK    6  A    between atoms: N1_7  and  C7_8 
REMARK       I    between atoms: N1_7  and  C10_11 
REMARK    7  A    between atoms: C7_8  and  C8_9 
REMARK    8  A    between atoms: C10_11  and  C11_13 
REMARK    9  A    between atoms: C13_15  and  O2_17 
REMARK   10  A    between atoms: C15_19  and  C16_20 
REMARK   11  A    between atoms: C16_20  and  O3_21 
REMARK   12  A    between atoms: C21_27  and  O4_28 
ROOT
HETATM    1  C11 UNL     1      -4.685   9.758 -15.408  1.00  0.00     0.079 C 
HETATM    2  C12 UNL     1      -5.146  10.145 -16.776  1.00  0.00     0.061 C 
HETATM    3  C13 UNL     1      -5.242   8.863 -17.544  1.00  0.00     0.068 C 
HETATM    4  C14 UNL     1      -5.138   9.011 -19.016  1.00  0.00     0.047 C 
HETATM    5  C15 UNL     1      -4.141   8.048 -16.921  1.00  0.00     0.044 C 
HETATM    6  C17 UNL     1      -2.771   8.564 -17.249  1.00  0.00     0.018 C 
HETATM    7  C18 UNL     1      -2.390   9.784 -16.448  1.00  0.00     0.007 C 
HETATM    8  C19 UNL     1      -3.179   9.857 -15.190  1.00  0.00     0.009 C 
HETATM    9  C20 UNL     1      -3.247   8.435 -14.614  1.00  0.00     0.046 C 
HETATM   10  C21 UNL     1      -4.460   8.240 -15.457  1.00  0.00     0.087 C 
ENDROOT
BRANCH   1  11
HETATM   11  C10 UNL     1      -5.449  10.216 -14.251  1.00  0.00     0.232 C 
HETATM   12  N1  UNL     1      -4.944  10.901 -13.139  1.00  0.00    -0.351 N 
HETATM   13  O1  UNL     1      -6.704   9.955 -14.267  1.00  0.00    -0.272 OA
BRANCH  12  14
HETATM   14  C6  UNL     1      -5.862  11.212 -12.044  1.00  0.00     0.125 C 
BRANCH  14  15
HETATM   15  C5  UNL     1      -6.529  12.550 -12.207  1.00  0.00     0.020 C 
BRANCH  15  16
HETATM   16  C4  UNL     1      -7.965  12.606 -11.819  1.00  0.00     0.002 C 
BRANCH  16  17
HETATM   17  C3  UNL     1      -8.280  13.894 -11.041  1.00  0.00    -0.000 C 
BRANCH  17  18
HETATM   18  C2  UNL     1      -7.479  15.015 -11.687  1.00  0.00    -0.005 C 
HETATM   19  C1  UNL     1      -7.472  16.190 -10.734  1.00  0.00     0.005 C 
ENDBRANCH  17  18
ENDBRANCH  16  17
ENDBRANCH  15  16
ENDBRANCH  14  15
ENDBRANCH  12  14
BRANCH  12  20
HETATM   20  C7  UNL     1      -3.593  11.366 -12.966  1.00  0.00     0.125 C 
BRANCH  20  21
HETATM   21  C8  UNL     1      -2.887  10.890 -11.749  1.00  0.00     0.015 C 
HETATM   22  C9  UNL     1      -1.434  11.379 -11.877  1.00  0.00     0.006 C 
ENDBRANCH  20  21
ENDBRANCH  12  20
ENDBRANCH   1  11
BRANCH  10  23
HETATM   23  O4  UNL     1      -5.466   7.467 -14.950  1.00  0.00    -0.388 OA
ATOM     24  H4  UNL     1      -6.069   7.097 -15.584  1.00  0.00     0.210 HD
ENDBRANCH  10  23
BRANCH   3  25
HETATM   25  O2  UNL     1      -6.452   8.223 -17.188  1.00  0.00    -0.389 OA
ATOM     26  H2  UNL     1      -6.615   7.526 -17.813  1.00  0.00     0.210 HD
ENDBRANCH   3  25
BRANCH   5  27
HETATM   27  C16 UNL     1      -4.286   6.600 -17.335  1.00  0.00     0.179 C 
BRANCH  27  28
HETATM   28  O3  UNL     1      -3.216   6.218 -18.134  1.00  0.00    -0.400 OA
ATOM     29  H3  UNL     1      -2.413   6.615 -17.818  1.00  0.00     0.209 HD
ENDBRANCH  27  28
ENDBRANCH   5  27
TORSDOF 12
ENDMDL
