MODEL 1
REMARK VINA RESULT: -5.804026287      0.000      0.000
REMARK  3 active torsions:
REMARK  status: ('A' for Active; 'I' for Inactive)
REMARK    1  A    between atoms: C2_2  and  N1_3 
REMARK    2  A    between atoms: N1_3  and  C3_5 
REMARK    3  A    between atoms: N2_6  and  N3_8 
ROOT
HETATM    1  C3  UNL     1      18.100  15.149  25.999  1.00  0.00     0.194 C 
HETATM    2  N2  UNL     1      18.891  14.128  25.937  1.00  0.00    -0.283 N 
ATOM      3  H2  UNL     1      18.965  13.478  26.720  1.00  0.00     0.189 HD
ENDROOT
BRANCH   2   4
HETATM    4  N3  UNL     1      19.636  13.936  24.785  1.00  0.00    -0.248 N 
HETATM    5  N4  UNL     1      20.315  12.886  24.668  1.00  0.00    -0.331 N 
ATOM      6  H42 UNL     1      20.307  12.195  25.419  1.00  0.00     0.178 HD
ATOM      7  H41 UNL     1      20.864  12.745  23.820  1.00  0.00     0.178 HD
ATOM      8  H3  UNL     1      19.633  14.636  24.043  1.00  0.00     0.207 HD
ENDBRANCH   2   4
BRANCH   1   9
HETATM    9  N1  UNL     1      17.284  15.459  27.120  1.00  0.00    -0.385 N 
ATOM     10  H1  UNL     1      16.650  14.769  27.523  1.00  0.00     0.160 HD
BRANCH   9  11
HETATM   11  C2  UNL     1      17.389  16.795  27.667  1.00  0.00     0.116 C 
HETATM   12  C1  UNL     1      16.864  17.863  26.751  1.00  0.00     0.026 C 
ENDBRANCH   9  11
ENDBRANCH   1   9
TORSDOF 3
ENDMDL
MODEL 2
REMARK VINA RESULT: -5.785809673      1.149      1.365
REMARK  3 active torsions:
REMARK  status: ('A' for Active; 'I' for Inactive)
REMARK    1  A    between atoms: C2_2  and  N1_3 
REMARK    2  A    between atoms: N1_3  and  C3_5 
REMARK    3  A    between atoms: N2_6  and  N3_8 
ROOT
HETATM    1  C3  UNL     1      18.511  15.120  25.642  1.00  0.00     0.194 C 
HETATM    2  N2  UNL     1      19.229  14.129  25.227  1.00  0.00    -0.283 N 
ATOM      3  H2  UNL     1      19.965  13.737  25.814  1.00  0.00     0.189 HD
ENDROOT
BRANCH   2   4
HETATM    4  N3  UNL     1      18.978  13.611  23.967  1.00  0.00    -0.248 N 
HETATM    5  N4  UNL     1      17.918  13.935  23.376  1.00  0.00    -0.331 N 
ATOM      6  H42 UNL     1      17.263  14.571  23.830  1.00  0.00     0.178 HD
ATOM      7  H41 UNL     1      17.734  13.553  22.448  1.00  0.00     0.178 HD
ATOM      8  H3  UNL     1      19.644  12.976  23.526  1.00  0.00     0.207 HD
ENDBRANCH   2   4
BRANCH   1   9
HETATM    9  N1  UNL     1      18.666  15.742  26.909  1.00  0.00    -0.385 N 
ATOM     10  H1  UNL     1      19.573  15.779  27.376  1.00  0.00     0.160 HD
BRANCH   9  11
HETATM   11  C2  UNL     1      17.485  16.323  27.513  1.00  0.00     0.116 C 
HETATM   12  C1  UNL     1      17.002  17.563  26.817  1.00  0.00     0.026 C 
ENDBRANCH   9  11
ENDBRANCH   1   9
TORSDOF 3
ENDMDL
MODEL 3
REMARK VINA RESULT: -5.468471757      3.768      5.661
REMARK  3 active torsions:
REMARK  status: ('A' for Active; 'I' for Inactive)
REMARK    1  A    between atoms: C2_2  and  N1_3 
REMARK    2  A    between atoms: N1_3  and  C3_5 
REMARK    3  A    between atoms: N2_6  and  N3_8 
ROOT
HETATM    1  C3  UNL     1      16.380  18.661  26.604  1.00  0.00     0.194 C 
HETATM    2  N2  UNL     1      15.412  19.512  26.501  1.00  0.00    -0.283 N 
ATOM      3  H2  UNL     1      14.451  19.236  26.702  1.00  0.00     0.189 HD
ENDROOT
BRANCH   2   4
HETATM    4  N3  UNL     1      15.709  20.808  26.111  1.00  0.00    -0.248 N 
HETATM    5  N4  UNL     1      15.532  21.138  24.911  1.00  0.00    -0.331 N 
ATOM      6  H42 UNL     1      15.176  20.450  24.248  1.00  0.00     0.178 HD
ATOM      7  H41 UNL     1      15.750  22.092  24.624  1.00  0.00     0.178 HD
ATOM      8  H3  UNL     1      16.064  21.485  26.787  1.00  0.00     0.207 HD
ENDBRANCH   2   4
BRANCH   1   9
HETATM    9  N1  UNL     1      16.211  17.305  26.993  1.00  0.00    -0.385 N 
ATOM     10  H1  UNL     1      15.335  16.810  26.828  1.00  0.00     0.160 HD
BRANCH   9  11
HETATM   11  C2  UNL     1      17.335  16.655  27.634  1.00  0.00     0.116 C 
HETATM   12  C1  UNL     1      17.677  15.320  27.037  1.00  0.00     0.026 C 
ENDBRANCH   9  11
ENDBRANCH   1   9
TORSDOF 3
ENDMDL
MODEL 4
REMARK VINA RESULT: -5.439375421      1.461      1.869
REMARK  3 active torsions:
REMARK  status: ('A' for Active; 'I' for Inactive)
REMARK    1  A    between atoms: C2_2  and  N1_3 
REMARK    2  A    between atoms: N1_3  and  C3_5 
REMARK    3  A    between atoms: N2_6  and  N3_8 
ROOT
HETATM    1  C3  UNL     1      17.155  15.619  27.044  1.00  0.00     0.194 C 
HETATM    2  N2  UNL     1      18.104  15.468  26.179  1.00  0.00    -0.283 N 
ATOM      3  H2  UNL     1      18.317  16.203  25.505  1.00  0.00     0.189 HD
ENDROOT
BRANCH   2   4
HETATM    4  N3  UNL     1      18.826  14.285  26.188  1.00  0.00    -0.248 N 
HETATM    5  N4  UNL     1      18.649  13.471  27.128  1.00  0.00    -0.331 N 
ATOM      6  H42 UNL     1      17.981  13.692  27.866  1.00  0.00     0.178 HD
ATOM      7  H41 UNL     1      19.181  12.601  27.135  1.00  0.00     0.178 HD
ATOM      8  H3  UNL     1      19.491  14.078  25.442  1.00  0.00     0.207 HD
ENDBRANCH   2   4
BRANCH   1   9
HETATM    9  N1  UNL     1      16.341  16.779  27.140  1.00  0.00    -0.385 N 
ATOM     10  H1  UNL     1      15.387  16.730  27.497  1.00  0.00     0.160 HD
BRANCH   9  11
HETATM   11  C2  UNL     1      16.922  18.034  26.711  1.00  0.00     0.116 C 
HETATM   12  C1  UNL     1      15.910  19.125  26.504  1.00  0.00     0.026 C 
ENDBRANCH   9  11
ENDBRANCH   1   9
TORSDOF 3
ENDMDL
MODEL 5
REMARK VINA RESULT: -5.259555600      1.269      1.387
REMARK  3 active torsions:
REMARK  status: ('A' for Active; 'I' for Inactive)
REMARK    1  A    between atoms: C2_2  and  N1_3 
REMARK    2  A    between atoms: N1_3  and  C3_5 
REMARK    3  A    between atoms: N2_6  and  N3_8 
ROOT
HETATM    1  C3  UNL     1      18.729  14.787  25.145  1.00  0.00     0.194 C 
HETATM    2  N2  UNL     1      18.672  14.027  24.102  1.00  0.00    -0.283 N 
ATOM      3  H2  UNL     1      17.858  13.436  23.931  1.00  0.00     0.189 HD
ENDROOT
BRANCH   2   4
HETATM    4  N3  UNL     1      19.741  14.030  23.219  1.00  0.00    -0.248 N 
HETATM    5  N4  UNL     1      20.910  14.034  23.680  1.00  0.00    -0.331 N 
ATOM      6  H42 UNL     1      21.053  14.035  24.690  1.00  0.00     0.178 HD
ATOM      7  H41 UNL     1      21.696  14.037  23.030  1.00  0.00     0.178 HD
ATOM      8  H3  UNL     1      19.581  14.030  22.212  1.00  0.00     0.207 HD
ENDBRANCH   2   4
BRANCH   1   9
HETATM    9  N1  UNL     1      17.705  14.876  26.125  1.00  0.00    -0.385 N 
ATOM     10  H1  UNL     1      16.879  14.278  26.085  1.00  0.00     0.160 HD
BRANCH   9  11
HETATM   11  C2  UNL     1      17.880  15.849  27.182  1.00  0.00     0.116 C 
HETATM   12  C1  UNL     1      16.977  17.042  27.057  1.00  0.00     0.026 C 
ENDBRANCH   9  11
ENDBRANCH   1   9
TORSDOF 3
ENDMDL
