MODEL 1
REMARK VINA RESULT: -5.459093155      0.000      0.000
REMARK  2 active torsions:
REMARK  status: ('A' for Active; 'I' for Inactive)
REMARK    1  A    between atoms: C2_2  and  N1_3 
REMARK    2  A    between atoms: N2_5  and  N3_7 
ROOT
HETATM    1  N1  UNL     1      18.572  14.557  25.754  1.00  0.00    -0.317 N 
HETATM    2  C3  UNL     1      18.615  15.507  24.676  1.00  0.00     0.172 C 
HETATM    3  N2  UNL     1      19.358  13.565  25.685  1.00  0.00    -0.231 N 
ATOM      4  H2  UNL     1      19.339  12.875  26.435  1.00  0.00     0.209 HD
ENDROOT
BRANCH   3   5
HETATM    5  N3  UNL     1      20.242  13.376  24.635  1.00  0.00    -0.235 N 
HETATM    6  N4  UNL     1      20.434  12.288  24.033  1.00  0.00    -0.330 N 
ATOM      7  H42 UNL     1      19.886  11.491  24.356  1.00  0.00     0.178 HD
ATOM      8  H41 UNL     1      21.085  12.148  23.260  1.00  0.00     0.178 HD
ATOM      9  H3  UNL     1      20.781  14.184  24.325  1.00  0.00     0.209 HD
ENDBRANCH   3   5
BRANCH   1  10
HETATM   10  C2  UNL     1      17.663  14.723  26.873  1.00  0.00     0.139 C 
HETATM   11  C1  UNL     1      17.419  16.174  27.227  1.00  0.00     0.028 C 
ENDBRANCH   1  10
TORSDOF 2
ENDMDL
MODEL 2
REMARK VINA RESULT: -5.270832921      1.085      1.550
REMARK  2 active torsions:
REMARK  status: ('A' for Active; 'I' for Inactive)
REMARK    1  A    between atoms: C2_2  and  N1_3 
REMARK    2  A    between atoms: N2_5  and  N3_7 
ROOT
HETATM    1  N1  UNL     1      18.328  15.143  26.213  1.00  0.00    -0.317 N 
HETATM    2  C3  UNL     1      18.042  14.106  27.164  1.00  0.00     0.172 C 
HETATM    3  N2  UNL     1      19.092  14.849  25.244  1.00  0.00    -0.231 N 
ATOM      4  H2  UNL     1      19.314  15.573  24.561  1.00  0.00     0.209 HD
ENDROOT
BRANCH   3   5
HETATM    5  N3  UNL     1      19.637  13.588  25.072  1.00  0.00    -0.235 N 
HETATM    6  N4  UNL     1      20.638  13.319  24.357  1.00  0.00    -0.330 N 
ATOM      7  H42 UNL     1      21.070  14.105  23.873  1.00  0.00     0.178 HD
ATOM      8  H41 UNL     1      21.039  12.389  24.231  1.00  0.00     0.178 HD
ATOM      9  H3  UNL     1      19.192  12.813  25.565  1.00  0.00     0.209 HD
ENDBRANCH   3   5
BRANCH   1  10
HETATM   10  C2  UNL     1      17.772  16.477  26.356  1.00  0.00     0.139 C 
HETATM   11  C1  UNL     1      17.265  16.759  27.754  1.00  0.00     0.028 C 
ENDBRANCH   1  10
TORSDOF 2
ENDMDL
MODEL 3
REMARK VINA RESULT: -5.126361376      1.032      1.159
REMARK  2 active torsions:
REMARK  status: ('A' for Active; 'I' for Inactive)
REMARK    1  A    between atoms: C2_2  and  N1_3 
REMARK    2  A    between atoms: N2_5  and  N3_7 
ROOT
HETATM    1  N1  UNL     1      18.933  14.908  24.783  1.00  0.00    -0.317 N 
HETATM    2  C3  UNL     1      18.970  15.584  23.515  1.00  0.00     0.172 C 
HETATM    3  N2  UNL     1      19.654  13.872  24.910  1.00  0.00    -0.231 N 
ATOM      4  H2  UNL     1      19.637  13.373  25.799  1.00  0.00     0.209 HD
ENDROOT
BRANCH   3   5
HETATM    5  N3  UNL     1      20.462  13.388  23.895  1.00  0.00    -0.235 N 
HETATM    6  N4  UNL     1      20.755  12.178  23.713  1.00  0.00    -0.330 N 
ATOM      7  H42 UNL     1      20.356  11.513  24.375  1.00  0.00     0.178 HD
ATOM      8  H41 UNL     1      21.351  11.822  22.965  1.00  0.00     0.178 HD
ATOM      9  H3  UNL     1      20.852  14.068  23.242  1.00  0.00     0.209 HD
ENDBRANCH   3   5
BRANCH   1  10
HETATM   10  C2  UNL     1      18.102  15.387  25.872  1.00  0.00     0.139 C 
HETATM   11  C1  UNL     1      18.032  14.418  27.033  1.00  0.00     0.028 C 
ENDBRANCH   1  10
TORSDOF 2
ENDMDL
MODEL 4
REMARK VINA RESULT: -4.780512252      1.455      2.108
REMARK  2 active torsions:
REMARK  status: ('A' for Active; 'I' for Inactive)
REMARK    1  A    between atoms: C2_2  and  N1_3 
REMARK    2  A    between atoms: N2_5  and  N3_7 
ROOT
HETATM    1  N1  UNL     1      17.916  15.740  26.880  1.00  0.00    -0.317 N 
HETATM    2  C3  UNL     1      16.774  14.876  26.755  1.00  0.00     0.172 C 
HETATM    3  N2  UNL     1      19.027  15.299  26.456  1.00  0.00    -0.231 N 
ATOM      4  H2  UNL     1      19.851  15.893  26.542  1.00  0.00     0.209 HD
ENDROOT
BRANCH   3   5
HETATM    5  N3  UNL     1      19.171  14.047  25.882  1.00  0.00    -0.235 N 
HETATM    6  N4  UNL     1      19.679  13.818  24.754  1.00  0.00    -0.330 N 
ATOM      7  H42 UNL     1      20.008  14.631  24.234  1.00  0.00     0.178 HD
ATOM      8  H41 UNL     1      19.785  12.895  24.331  1.00  0.00     0.178 HD
ATOM      9  H3  UNL     1      18.837  13.245  26.417  1.00  0.00     0.209 HD
ENDBRANCH   3   5
BRANCH   1  10
HETATM   10  C2  UNL     1      17.804  17.060  27.472  1.00  0.00     0.139 C 
HETATM   11  C1  UNL     1      16.819  17.952  26.748  1.00  0.00     0.028 C 
ENDBRANCH   1  10
TORSDOF 2
ENDMDL
MODEL 5
REMARK VINA RESULT: -4.477308800      1.752      2.293
REMARK  2 active torsions:
REMARK  status: ('A' for Active; 'I' for Inactive)
REMARK    1  A    between atoms: C2_2  and  N1_3 
REMARK    2  A    between atoms: N2_5  and  N3_7 
ROOT
HETATM    1  N1  UNL     1      17.586  15.640  27.054  1.00  0.00    -0.317 N 
HETATM    2  C3  UNL     1      18.850  16.165  27.492  1.00  0.00     0.172 C 
HETATM    3  N2  UNL     1      17.567  14.443  26.636  1.00  0.00    -0.231 N 
ATOM      4  H2  UNL     1      16.682  14.053  26.313  1.00  0.00     0.209 HD
ENDROOT
BRANCH   3   5
HETATM    5  N3  UNL     1      18.696  13.641  26.598  1.00  0.00    -0.235 N 
HETATM    6  N4  UNL     1      19.436  13.474  25.595  1.00  0.00    -0.330 N 
ATOM      7  H42 UNL     1      19.170  13.977  24.749  1.00  0.00     0.178 HD
ATOM      8  H41 UNL     1      20.268  12.882  25.567  1.00  0.00     0.178 HD
ATOM      9  H3  UNL     1      18.947  13.145  27.453  1.00  0.00     0.209 HD
ENDBRANCH   3   5
BRANCH   1  10
HETATM   10  C2  UNL     1      16.381  16.448  27.082  1.00  0.00     0.139 C 
HETATM   11  C1  UNL     1      16.630  17.895  26.712  1.00  0.00     0.028 C 
ENDBRANCH   1  10
TORSDOF 2
ENDMDL
