MODEL 1
REMARK VINA RESULT: -6.635909759      0.000      0.000
REMARK  3 active torsions:
REMARK  status: ('A' for Active; 'I' for Inactive)
REMARK    1  A    between atoms: C2_2  and  C3_3 
REMARK    2  A    between atoms: C3_3  and  C4_4 
REMARK    3  A    between atoms: N1_5  and  N2_7 
ROOT
HETATM    1  C4  UNL     1      17.747  14.622  26.638  1.00  0.00     0.162 C 
HETATM    2  N1  UNL     1      18.726  13.699  26.710  1.00  0.00    -0.309 N 
ATOM      3  H1  UNL     1      18.934  13.156  27.548  1.00  0.00     0.186 HD
ENDROOT
BRANCH   2   4
HETATM    4  N2  UNL     1      19.399  13.577  25.552  1.00  0.00    -0.341 N 
HETATM    5  C5  UNL     1      19.108  14.311  24.327  1.00  0.00     0.167 C 
ATOM      6  H2  UNL     1      20.176  12.916  25.529  1.00  0.00     0.179 HD
ENDBRANCH   2   4
BRANCH   1   7
HETATM    7  C3  UNL     1      17.488  15.751  27.111  1.00  0.00    -0.111 C 
BRANCH   7   8
HETATM    8  C2  UNL     1      17.220  16.914  27.599  1.00  0.00     0.047 C 
HETATM    9  C1  UNL     1      16.826  17.941  26.765  1.00  0.00     0.020 C 
ENDBRANCH   7   8
ENDBRANCH   1   7
TORSDOF 3
ENDMDL
MODEL 2
REMARK VINA RESULT: -5.946081263      1.182      1.335
REMARK  3 active torsions:
REMARK  status: ('A' for Active; 'I' for Inactive)
REMARK    1  A    between atoms: C2_2  and  C3_3 
REMARK    2  A    between atoms: C3_3  and  C4_4 
REMARK    3  A    between atoms: N1_5  and  N2_7 
ROOT
HETATM    1  C4  UNL     1      18.563  15.208  25.362  1.00  0.00     0.162 C 
HETATM    2  N1  UNL     1      18.583  13.958  24.858  1.00  0.00    -0.309 N 
ATOM      3  H1  UNL     1      17.808  13.540  24.344  1.00  0.00     0.186 HD
ENDROOT
BRANCH   2   4
HETATM    4  N2  UNL     1      19.743  13.325  25.112  1.00  0.00    -0.341 N 
HETATM    5  C5  UNL     1      20.725  12.934  24.108  1.00  0.00     0.167 C 
ATOM      6  H2  UNL     1      19.951  13.100  26.085  1.00  0.00     0.179 HD
ENDBRANCH   2   4
BRANCH   1   7
HETATM    7  C3  UNL     1      17.971  15.845  26.261  1.00  0.00    -0.111 C 
BRANCH   7   8
HETATM    8  C2  UNL     1      17.361  16.502  27.188  1.00  0.00     0.047 C 
HETATM    9  C1  UNL     1      16.864  17.763  26.930  1.00  0.00     0.020 C 
ENDBRANCH   7   8
ENDBRANCH   1   7
TORSDOF 3
ENDMDL
MODEL 3
REMARK VINA RESULT: -5.537280445      1.543      1.992
REMARK  3 active torsions:
REMARK  status: ('A' for Active; 'I' for Inactive)
REMARK    1  A    between atoms: C2_2  and  C3_3 
REMARK    2  A    between atoms: C3_3  and  C4_4 
REMARK    3  A    between atoms: N1_5  and  N2_7 
ROOT
HETATM    1  C4  UNL     1      18.398  15.053  24.786  1.00  0.00     0.162 C 
HETATM    2  N1  UNL     1      18.483  14.016  23.929  1.00  0.00    -0.309 N 
ATOM      3  H1  UNL     1      17.679  13.477  23.608  1.00  0.00     0.186 HD
ENDROOT
BRANCH   2   4
HETATM    4  N2  UNL     1      19.749  13.774  23.545  1.00  0.00    -0.341 N 
HETATM    5  C5  UNL     1      20.683  12.891  24.233  1.00  0.00     0.167 C 
ATOM      6  H2  UNL     1      20.083  14.246  22.705  1.00  0.00     0.179 HD
ENDBRANCH   2   4
BRANCH   1   7
HETATM    7  C3  UNL     1      18.120  15.253  25.989  1.00  0.00    -0.111 C 
BRANCH   7   8
HETATM    8  C2  UNL     1      17.833  15.459  27.229  1.00  0.00     0.047 C 
HETATM    9  C1  UNL     1      17.356  16.689  27.634  1.00  0.00     0.020 C 
ENDBRANCH   7   8
ENDBRANCH   1   7
TORSDOF 3
ENDMDL
MODEL 4
REMARK VINA RESULT: -4.921246050      2.829      4.351
REMARK  3 active torsions:
REMARK  status: ('A' for Active; 'I' for Inactive)
REMARK    1  A    between atoms: C2_2  and  C3_3 
REMARK    2  A    between atoms: C3_3  and  C4_4 
REMARK    3  A    between atoms: N1_5  and  N2_7 
ROOT
HETATM    1  C4  UNL     1      17.146  16.576  27.323  1.00  0.00     0.162 C 
HETATM    2  N1  UNL     1      16.134  17.417  27.030  1.00  0.00    -0.309 N 
ATOM      3  H1  UNL     1      15.151  17.146  27.037  1.00  0.00     0.186 HD
ENDROOT
BRANCH   2   4
HETATM    4  N2  UNL     1      16.569  18.653  26.728  1.00  0.00    -0.341 N 
HETATM    5  C5  UNL     1      15.721  19.772  26.338  1.00  0.00     0.167 C 
ATOM      6  H2  UNL     1      17.575  18.821  26.775  1.00  0.00     0.179 HD
ENDBRANCH   2   4
BRANCH   1   7
HETATM    7  C3  UNL     1      17.696  15.566  26.832  1.00  0.00    -0.111 C 
BRANCH   7   8
HETATM    8  C2  UNL     1      18.263  14.524  26.326  1.00  0.00     0.047 C 
HETATM    9  C1  UNL     1      18.764  14.564  25.041  1.00  0.00     0.020 C 
ENDBRANCH   7   8
ENDBRANCH   1   7
TORSDOF 3
ENDMDL
MODEL 5
REMARK VINA RESULT: -4.830610590      2.052      3.929
REMARK  3 active torsions:
REMARK  status: ('A' for Active; 'I' for Inactive)
REMARK    1  A    between atoms: C2_2  and  C3_3 
REMARK    2  A    between atoms: C3_3  and  C4_4 
REMARK    3  A    between atoms: N1_5  and  N2_7 
ROOT
HETATM    1  C4  UNL     1      18.076  15.876  26.540  1.00  0.00     0.162 C 
HETATM    2  N1  UNL     1      17.048  15.917  27.411  1.00  0.00    -0.309 N 
ATOM      3  H1  UNL     1      16.915  15.243  28.165  1.00  0.00     0.186 HD
ENDROOT
BRANCH   2   4
HETATM    4  N2  UNL     1      16.218  16.948  27.173  1.00  0.00    -0.341 N 
HETATM    5  C5  UNL     1      16.618  18.248  26.647  1.00  0.00     0.167 C 
ATOM      6  H2  UNL     1      15.227  16.809  27.376  1.00  0.00     0.179 HD
ENDBRANCH   2   4
BRANCH   1   7
HETATM    7  C3  UNL     1      18.482  15.151  25.605  1.00  0.00    -0.111 C 
BRANCH   7   8
HETATM    8  C2  UNL     1      18.900  14.404  24.641  1.00  0.00     0.047 C 
HETATM    9  C1  UNL     1      18.991  14.911  23.361  1.00  0.00     0.020 C 
ENDBRANCH   7   8
ENDBRANCH   1   7
TORSDOF 3
ENDMDL
