MODEL 1
REMARK VINA RESULT: -5.462664637      0.000      0.000
REMARK  6 active torsions:
REMARK  status: ('A' for Active; 'I' for Inactive)
REMARK    1  A    between atoms: C2_2  and  N1_3 
REMARK    2  A    between atoms: N1_3  and  N2_4 
REMARK    3  A    between atoms: N2_4  and  C3_5 
REMARK    4  A    between atoms: C3_5  and  C4_6 
REMARK    5  A    between atoms: C4_6  and  N3_7 
REMARK    6  A    between atoms: N3_7  and  C5_9 
ROOT
HETATM    1  C3  UNL     1      20.728  30.599  34.515  1.00  0.00     0.149 C 
ENDROOT
BRANCH   1   2
HETATM    2  N2  UNL     1      21.350  29.834  33.428  1.00  0.00    -0.147 NA
BRANCH   2   3
HETATM    3  N1  UNL     1      22.719  29.852  33.474  1.00  0.00    -0.149 NA
BRANCH   3   4
HETATM    4  C2  UNL     1      23.367  29.633  32.200  1.00  0.00     0.126 C 
HETATM    5  C1  UNL     1      24.743  29.035  32.524  1.00  0.00     0.023 C 
ENDBRANCH   3   4
ENDBRANCH   2   3
ENDBRANCH   1   2
BRANCH   1   6
HETATM    6  C4  UNL     1      19.295  30.194  34.652  1.00  0.00     0.139 C 
BRANCH   6   7
HETATM    7  N3  UNL     1      18.800  30.180  36.005  1.00  0.00    -0.367 N 
ATOM      8  H3  UNL     1      19.372  29.771  36.744  1.00  0.00     0.161 HD
BRANCH   7   9
HETATM    9  C5  UNL     1      17.538  30.723  36.325  1.00  0.00     0.348 C 
HETATM   10  O1  UNL     1      16.596  30.743  35.471  1.00  0.00    -0.284 OA
ENDBRANCH   7   9
ENDBRANCH   6   7
ENDBRANCH   1   6
TORSDOF 6
ENDMDL
MODEL 2
REMARK VINA RESULT: -5.413116500      1.872      2.740
REMARK  6 active torsions:
REMARK  status: ('A' for Active; 'I' for Inactive)
REMARK    1  A    between atoms: C2_2  and  N1_3 
REMARK    2  A    between atoms: N1_3  and  N2_4 
REMARK    3  A    between atoms: N2_4  and  C3_5 
REMARK    4  A    between atoms: C3_5  and  C4_6 
REMARK    5  A    between atoms: C4_6  and  N3_7 
REMARK    6  A    between atoms: N3_7  and  C5_9 
ROOT
HETATM    1  C3  UNL     1      23.292  30.084  33.147  1.00  0.00     0.149 C 
ENDROOT
BRANCH   1   2
HETATM    2  N2  UNL     1      23.700  29.694  31.791  1.00  0.00    -0.147 NA
BRANCH   2   3
HETATM    3  N1  UNL     1      24.224  28.430  31.731  1.00  0.00    -0.149 NA
BRANCH   3   4
HETATM    4  C2  UNL     1      25.465  28.258  32.453  1.00  0.00     0.126 C 
HETATM    5  C1  UNL     1      25.386  26.870  33.103  1.00  0.00     0.023 C 
ENDBRANCH   3   4
ENDBRANCH   2   3
ENDBRANCH   1   2
BRANCH   1   6
HETATM    6  C4  UNL     1      21.852  29.733  33.352  1.00  0.00     0.139 C 
BRANCH   6   7
HETATM    7  N3  UNL     1      21.156  30.578  34.289  1.00  0.00    -0.367 N 
ATOM      8  H3  UNL     1      21.597  31.439  34.612  1.00  0.00     0.161 HD
BRANCH   7   9
HETATM    9  C5  UNL     1      19.873  30.233  34.767  1.00  0.00     0.348 C 
HETATM   10  O1  UNL     1      19.051  31.125  35.146  1.00  0.00    -0.284 OA
ENDBRANCH   7   9
ENDBRANCH   6   7
ENDBRANCH   1   6
TORSDOF 6
ENDMDL
MODEL 3
REMARK VINA RESULT: -5.383020641      4.241      6.422
REMARK  6 active torsions:
REMARK  status: ('A' for Active; 'I' for Inactive)
REMARK    1  A    between atoms: C2_2  and  N1_3 
REMARK    2  A    between atoms: N1_3  and  N2_4 
REMARK    3  A    between atoms: N2_4  and  C3_5 
REMARK    4  A    between atoms: C3_5  and  C4_6 
REMARK    5  A    between atoms: C4_6  and  N3_7 
REMARK    6  A    between atoms: N3_7  and  C5_9 
ROOT
HETATM    1  C3  UNL     1      24.562  29.066  32.762  1.00  0.00     0.149 C 
ENDROOT
BRANCH   1   2
HETATM    2  N2  UNL     1      23.576  29.497  31.763  1.00  0.00    -0.147 NA
BRANCH   2   3
HETATM    3  N1  UNL     1      22.322  29.666  32.285  1.00  0.00    -0.149 NA
BRANCH   3   4
HETATM    4  C2  UNL     1      22.286  29.852  33.719  1.00  0.00     0.126 C 
HETATM    5  C1  UNL     1      20.832  30.202  34.063  1.00  0.00     0.023 C 
ENDBRANCH   3   4
ENDBRANCH   2   3
ENDBRANCH   1   2
BRANCH   1   6
HETATM    6  C4  UNL     1      25.716  28.412  32.071  1.00  0.00     0.139 C 
BRANCH   6   7
HETATM    7  N3  UNL     1      25.862  27.004  32.346  1.00  0.00    -0.367 N 
ATOM      8  H3  UNL     1      26.548  26.459  31.824  1.00  0.00     0.161 HD
BRANCH   7   9
HETATM    9  C5  UNL     1      25.069  26.369  33.326  1.00  0.00     0.348 C 
HETATM   10  O1  UNL     1      25.557  25.474  34.087  1.00  0.00    -0.284 OA
ENDBRANCH   7   9
ENDBRANCH   6   7
ENDBRANCH   1   6
TORSDOF 6
ENDMDL
MODEL 4
REMARK VINA RESULT: -5.366463476      1.207      1.432
REMARK  6 active torsions:
REMARK  status: ('A' for Active; 'I' for Inactive)
REMARK    1  A    between atoms: C2_2  and  N1_3 
REMARK    2  A    between atoms: N1_3  and  N2_4 
REMARK    3  A    between atoms: N2_4  and  C3_5 
REMARK    4  A    between atoms: C3_5  and  C4_6 
REMARK    5  A    between atoms: C4_6  and  N3_7 
REMARK    6  A    between atoms: N3_7  and  C5_9 
ROOT
HETATM    1  C3  UNL     1      19.677  29.874  35.193  1.00  0.00     0.149 C 
ENDROOT
BRANCH   1   2
HETATM    2  N2  UNL     1      20.689  30.670  34.487  1.00  0.00    -0.147 NA
BRANCH   2   3
HETATM    3  N1  UNL     1      21.287  29.989  33.460  1.00  0.00    -0.149 NA
BRANCH   3   4
HETATM    4  C2  UNL     1      22.727  29.894  33.559  1.00  0.00     0.126 C 
HETATM    5  C1  UNL     1      23.233  29.659  32.129  1.00  0.00     0.023 C 
ENDBRANCH   3   4
ENDBRANCH   2   3
ENDBRANCH   1   2
BRANCH   1   6
HETATM    6  C4  UNL     1      18.393  30.638  35.249  1.00  0.00     0.139 C 
BRANCH   6   7
HETATM    7  N3  UNL     1      17.691  30.543  36.504  1.00  0.00    -0.367 N 
ATOM      8  H3  UNL     1      18.012  29.881  37.210  1.00  0.00     0.161 HD
BRANCH   7   9
HETATM    9  C5  UNL     1      16.566  31.352  36.771  1.00  0.00     0.348 C 
HETATM   10  O1  UNL     1      15.400  30.997  36.410  1.00  0.00    -0.284 OA
ENDBRANCH   7   9
ENDBRANCH   6   7
ENDBRANCH   1   6
TORSDOF 6
ENDMDL
MODEL 5
REMARK VINA RESULT: -5.271887722      3.950      6.386
REMARK  6 active torsions:
REMARK  status: ('A' for Active; 'I' for Inactive)
REMARK    1  A    between atoms: C2_2  and  N1_3 
REMARK    2  A    between atoms: N1_3  and  N2_4 
REMARK    3  A    between atoms: N2_4  and  C3_5 
REMARK    4  A    between atoms: C3_5  and  C4_6 
REMARK    5  A    between atoms: C4_6  and  N3_7 
REMARK    6  A    between atoms: N3_7  and  C5_9 
ROOT
HETATM    1  C3  UNL     1      23.431  29.559  32.207  1.00  0.00     0.149 C 
ENDROOT
BRANCH   1   2
HETATM    2  N2  UNL     1      22.704  29.557  33.483  1.00  0.00    -0.147 NA
BRANCH   2   3
HETATM    3  N1  UNL     1      21.379  29.878  33.346  1.00  0.00    -0.149 NA
BRANCH   3   4
HETATM    4  C2  UNL     1      20.831  30.649  34.439  1.00  0.00     0.126 C 
HETATM    5  C1  UNL     1      19.381  30.174  34.605  1.00  0.00     0.023 C 
ENDBRANCH   3   4
ENDBRANCH   2   3
ENDBRANCH   1   2
BRANCH   1   6
HETATM    6  C4  UNL     1      24.823  29.059  32.428  1.00  0.00     0.139 C 
BRANCH   6   7
HETATM    7  N3  UNL     1      25.010  27.657  32.151  1.00  0.00    -0.367 N 
ATOM      8  H3  UNL     1      24.913  27.317  31.194  1.00  0.00     0.161 HD
BRANCH   7   9
HETATM    9  C5  UNL     1      25.324  26.747  33.183  1.00  0.00     0.348 C 
HETATM   10  O1  UNL     1      25.962  25.675  32.942  1.00  0.00    -0.284 OA
ENDBRANCH   7   9
ENDBRANCH   6   7
ENDBRANCH   1   6
TORSDOF 6
ENDMDL
