MODEL 1
REMARK VINA RESULT: -5.601575507      0.000      0.000
REMARK  6 active torsions:
REMARK  status: ('A' for Active; 'I' for Inactive)
REMARK    1  A    between atoms: C2_2  and  C3_3 
REMARK    2  A    between atoms: C3_3  and  N1_4 
REMARK    3  A    between atoms: N1_4  and  N2_5 
REMARK    4  A    between atoms: N2_5  and  C4_7 
REMARK    5  A    between atoms: C4_7  and  C5_8 
REMARK    6  A    between atoms: C5_8  and  N3_9 
ROOT
HETATM    1  N2  UNL     1      20.674  30.548  34.266  1.00  0.00    -0.338 N 
ATOM      2  H2  UNL     1      20.787  31.557  34.372  1.00  0.00     0.175 HD
ENDROOT
BRANCH   1   3
HETATM    3  N1  UNL     1      21.367  29.884  33.272  1.00  0.00    -0.146 NA
BRANCH   3   4
HETATM    4  C3  UNL     1      22.777  29.826  33.465  1.00  0.00     0.134 C 
BRANCH   4   5
HETATM    5  C2  UNL     1      23.504  29.702  32.139  1.00  0.00     0.013 C 
HETATM    6  C1  UNL     1      24.755  28.911  32.451  1.00  0.00     0.006 C 
ENDBRANCH   4   5
ENDBRANCH   3   4
ENDBRANCH   1   3
BRANCH   1   7
HETATM    7  C4  UNL     1      19.819  29.855  35.129  1.00  0.00     0.162 C 
BRANCH   7   8
HETATM    8  C5  UNL     1      18.465  30.600  35.210  1.00  0.00     0.252 C 
BRANCH   8   9
HETATM    9  N3  UNL     1      17.913  30.478  36.522  1.00  0.00    -0.077 N 
HETATM   10  C6  UNL     1      16.654  31.137  36.654  1.00  0.00     0.267 C 
ATOM     11  H32 UNL     1      17.844  29.499  36.800  1.00  0.00     0.276 HD
ATOM     12  H31 UNL     1      18.572  30.804  37.229  1.00  0.00     0.276 HD
ENDBRANCH   8   9
ENDBRANCH   7   8
ENDBRANCH   1   7
TORSDOF 6
ENDMDL
MODEL 2
REMARK VINA RESULT: -5.579194138      0.870      1.053
REMARK  6 active torsions:
REMARK  status: ('A' for Active; 'I' for Inactive)
REMARK    1  A    between atoms: C2_2  and  C3_3 
REMARK    2  A    between atoms: C3_3  and  N1_4 
REMARK    3  A    between atoms: N1_4  and  N2_5 
REMARK    4  A    between atoms: N2_5  and  C4_7 
REMARK    5  A    between atoms: C4_7  and  C5_8 
REMARK    6  A    between atoms: C5_8  and  N3_9 
ROOT
HETATM    1  N2  UNL     1      21.167  30.007  33.630  1.00  0.00    -0.338 N 
ATOM      2  H2  UNL     1      20.641  29.588  32.862  1.00  0.00     0.175 HD
ENDROOT
BRANCH   1   3
HETATM    3  N1  UNL     1      22.539  29.846  33.686  1.00  0.00    -0.146 NA
BRANCH   3   4
HETATM    4  C3  UNL     1      23.158  29.570  32.433  1.00  0.00     0.134 C 
BRANCH   4   5
HETATM    5  C2  UNL     1      24.657  29.400  32.591  1.00  0.00     0.013 C 
HETATM    6  C1  UNL     1      24.898  27.912  32.468  1.00  0.00     0.006 C 
ENDBRANCH   4   5
ENDBRANCH   3   4
ENDBRANCH   1   3
BRANCH   1   7
HETATM    7  C4  UNL     1      20.491  30.737  34.613  1.00  0.00     0.162 C 
BRANCH   7   8
HETATM    8  C5  UNL     1      19.037  30.221  34.720  1.00  0.00     0.252 C 
BRANCH   8   9
HETATM    9  N3  UNL     1      18.583  30.302  36.072  1.00  0.00    -0.077 N 
HETATM   10  C6  UNL     1      17.290  30.894  36.185  1.00  0.00     0.267 C 
ATOM     11  H32 UNL     1      18.606  29.387  36.521  1.00  0.00     0.276 HD
ATOM     12  H31 UNL     1      19.261  30.791  36.657  1.00  0.00     0.276 HD
ENDBRANCH   8   9
ENDBRANCH   7   8
ENDBRANCH   1   7
TORSDOF 6
ENDMDL
MODEL 3
REMARK VINA RESULT: -5.388668865      3.560      6.419
REMARK  6 active torsions:
REMARK  status: ('A' for Active; 'I' for Inactive)
REMARK    1  A    between atoms: C2_2  and  C3_3 
REMARK    2  A    between atoms: C3_3  and  N1_4 
REMARK    3  A    between atoms: N1_4  and  N2_5 
REMARK    4  A    between atoms: N2_5  and  C4_7 
REMARK    5  A    between atoms: C4_7  and  C5_8 
REMARK    6  A    between atoms: C5_8  and  N3_9 
ROOT
HETATM    1  N2  UNL     1      24.280  28.473  31.698  1.00  0.00    -0.338 N 
ATOM      2  H2  UNL     1      23.883  27.590  31.376  1.00  0.00     0.175 HD
ENDROOT
BRANCH   1   3
HETATM    3  N1  UNL     1      23.469  29.587  31.809  1.00  0.00    -0.146 NA
BRANCH   3   4
HETATM    4  C3  UNL     1      23.033  29.878  33.134  1.00  0.00     0.134 C 
BRANCH   4   5
HETATM    5  C2  UNL     1      21.527  29.747  33.253  1.00  0.00     0.013 C 
HETATM    6  C1  UNL     1      21.145  30.657  34.400  1.00  0.00     0.006 C 
ENDBRANCH   4   5
ENDBRANCH   3   4
ENDBRANCH   1   3
BRANCH   1   7
HETATM    7  C4  UNL     1      25.639  28.541  32.022  1.00  0.00     0.162 C 
BRANCH   7   8
HETATM    8  C5  UNL     1      25.929  27.584  33.202  1.00  0.00     0.252 C 
BRANCH   8   9
HETATM    9  N3  UNL     1      25.717  26.229  32.801  1.00  0.00    -0.077 N 
HETATM   10  C6  UNL     1      24.886  25.508  33.710  1.00  0.00     0.267 C 
ATOM     11  H32 UNL     1      25.348  26.182  31.852  1.00  0.00     0.276 HD
ATOM     12  H31 UNL     1      26.605  25.747  32.657  1.00  0.00     0.276 HD
ENDBRANCH   8   9
ENDBRANCH   7   8
ENDBRANCH   1   7
TORSDOF 6
ENDMDL
MODEL 4
REMARK VINA RESULT: -5.377285389      1.930      6.178
REMARK  6 active torsions:
REMARK  status: ('A' for Active; 'I' for Inactive)
REMARK    1  A    between atoms: C2_2  and  C3_3 
REMARK    2  A    between atoms: C3_3  and  N1_4 
REMARK    3  A    between atoms: N1_4  and  N2_5 
REMARK    4  A    between atoms: N2_5  and  C4_7 
REMARK    5  A    between atoms: C4_7  and  C5_8 
REMARK    6  A    between atoms: C5_8  and  N3_9 
ROOT
HETATM    1  N2  UNL     1      22.872  30.212  33.316  1.00  0.00    -0.338 N 
ATOM      2  H2  UNL     1      23.297  30.926  33.907  1.00  0.00     0.175 HD
ENDROOT
BRANCH   1   3
HETATM    3  N1  UNL     1      21.637  29.691  33.655  1.00  0.00    -0.146 NA
BRANCH   3   4
HETATM    4  C3  UNL     1      20.782  30.591  34.355  1.00  0.00     0.134 C 
BRANCH   4   5
HETATM    5  C2  UNL     1      19.758  29.838  35.182  1.00  0.00     0.013 C 
HETATM    6  C1  UNL     1      18.482  30.641  35.052  1.00  0.00     0.006 C 
ENDBRANCH   4   5
ENDBRANCH   3   4
ENDBRANCH   1   3
BRANCH   1   7
HETATM    7  C4  UNL     1      23.545  29.771  32.172  1.00  0.00     0.162 C 
BRANCH   7   8
HETATM    8  C5  UNL     1      24.883  29.117  32.590  1.00  0.00     0.252 C 
BRANCH   8   9
HETATM    9  N3  UNL     1      25.007  27.823  31.996  1.00  0.00    -0.077 N 
HETATM   10  C6  UNL     1      25.396  26.821  32.934  1.00  0.00     0.267 C 
ATOM     11  H32 UNL     1      24.148  27.559  31.514  1.00  0.00     0.276 HD
ATOM     12  H31 UNL     1      25.644  27.846  31.199  1.00  0.00     0.276 HD
ENDBRANCH   8   9
ENDBRANCH   7   8
ENDBRANCH   1   7
TORSDOF 6
ENDMDL
MODEL 5
REMARK VINA RESULT: -5.327305510      2.763      6.330
REMARK  6 active torsions:
REMARK  status: ('A' for Active; 'I' for Inactive)
REMARK    1  A    between atoms: C2_2  and  C3_3 
REMARK    2  A    between atoms: C3_3  and  N1_4 
REMARK    3  A    between atoms: N1_4  and  N2_5 
REMARK    4  A    between atoms: N2_5  and  C4_7 
REMARK    5  A    between atoms: C4_7  and  C5_8 
REMARK    6  A    between atoms: C5_8  and  N3_9 
ROOT
HETATM    1  N2  UNL     1      23.676  29.727  32.071  1.00  0.00    -0.338 N 
ATOM      2  H2  UNL     1      23.814  30.399  31.316  1.00  0.00     0.175 HD
ENDROOT
BRANCH   1   3
HETATM    3  N1  UNL     1      23.077  30.136  33.248  1.00  0.00    -0.146 NA
BRANCH   3   4
HETATM    4  C3  UNL     1      21.693  29.818  33.355  1.00  0.00     0.134 C 
BRANCH   4   5
HETATM    5  C2  UNL     1      21.022  30.656  34.426  1.00  0.00     0.013 C 
HETATM    6  C1  UNL     1      19.593  30.160  34.474  1.00  0.00     0.006 C 
ENDBRANCH   4   5
ENDBRANCH   3   4
ENDBRANCH   1   3
BRANCH   1   7
HETATM    7  C4  UNL     1      24.094  28.403  31.903  1.00  0.00     0.162 C 
BRANCH   7   8
HETATM    8  C5  UNL     1      25.582  28.285  32.310  1.00  0.00     0.252 C 
BRANCH   8   9
HETATM    9  N3  UNL     1      25.958  26.910  32.412  1.00  0.00    -0.077 N 
HETATM   10  C6  UNL     1      25.171  26.193  33.363  1.00  0.00     0.267 C 
ATOM     11  H32 UNL     1      25.932  26.456  31.500  1.00  0.00     0.276 HD
ATOM     12  H31 UNL     1      26.953  26.817  32.616  1.00  0.00     0.276 HD
ENDBRANCH   8   9
ENDBRANCH   7   8
ENDBRANCH   1   7
TORSDOF 6
ENDMDL
