MODEL 1
REMARK VINA RESULT: -6.087311752      0.000      0.000
REMARK  7 active torsions:
REMARK  status: ('A' for Active; 'I' for Inactive)
REMARK    1  A    between atoms: C2_2  and  C3_3 
REMARK    2  A    between atoms: C3_3  and  N1_4 
REMARK    3  A    between atoms: N1_4  and  N2_6 
REMARK    4  A    between atoms: N2_6  and  C4_7 
REMARK    5  A    between atoms: C4_7  and  C5_8 
REMARK    6  A    between atoms: C5_8  and  C6_9 
REMARK    7  A    between atoms: C6_9  and  O1_10 
ROOT
HETATM    1  N2  UNL     1      23.742  30.151  32.537  1.00  0.00    -0.146 NA
ENDROOT
BRANCH   1   2
HETATM    2  N1  UNL     1      22.918  30.311  33.637  1.00  0.00    -0.336 N 
ATOM      3  H1  UNL     1      23.253  30.739  34.500  1.00  0.00     0.176 HD
BRANCH   2   4
HETATM    4  C3  UNL     1      21.584  29.846  33.501  1.00  0.00     0.161 C 
BRANCH   4   5
HETATM    5  C2  UNL     1      20.720  30.611  34.432  1.00  0.00    -0.017 C 
HETATM    6  C1  UNL     1      19.496  30.185  34.658  1.00  0.00     0.008 C 
ENDBRANCH   4   5
ENDBRANCH   2   4
ENDBRANCH   1   2
BRANCH   1   7
HETATM    7  C4  UNL     1      23.984  28.772  32.298  1.00  0.00     0.136 C 
BRANCH   7   8
HETATM    8  C5  UNL     1      25.434  28.366  32.410  1.00  0.00     0.044 C 
BRANCH   8   9
HETATM    9  C6  UNL     1      25.492  26.976  32.999  1.00  0.00     0.165 C 
BRANCH   9  10
HETATM   10  O1  UNL     1      26.354  26.184  32.199  1.00  0.00    -0.401 OA
ATOM     11  H1  UNL     1      26.854  25.612  32.770  1.00  0.00     0.209 HD
ENDBRANCH   9  10
ENDBRANCH   8   9
ENDBRANCH   7   8
ENDBRANCH   1   7
TORSDOF 7
ENDMDL
MODEL 2
REMARK VINA RESULT: -5.888055675      4.018      6.258
REMARK  7 active torsions:
REMARK  status: ('A' for Active; 'I' for Inactive)
REMARK    1  A    between atoms: C2_2  and  C3_3 
REMARK    2  A    between atoms: C3_3  and  N1_4 
REMARK    3  A    between atoms: N1_4  and  N2_6 
REMARK    4  A    between atoms: N2_6  and  C4_7 
REMARK    5  A    between atoms: C4_7  and  C5_8 
REMARK    6  A    between atoms: C5_8  and  C6_9 
REMARK    7  A    between atoms: C6_9  and  O1_10 
ROOT
HETATM    1  N2  UNL     1      20.012  31.182  34.858  1.00  0.00    -0.146 NA
ENDROOT
BRANCH   1   2
HETATM    2  N1  UNL     1      21.336  30.930  34.545  1.00  0.00    -0.336 N 
ATOM      3  H1  UNL     1      22.099  31.443  34.987  1.00  0.00     0.176 HD
BRANCH   2   4
HETATM    4  C3  UNL     1      21.577  29.921  33.576  1.00  0.00     0.161 C 
BRANCH   4   5
HETATM    5  C2  UNL     1      23.036  29.851  33.319  1.00  0.00    -0.017 C 
HETATM    6  C1  UNL     1      23.454  29.639  32.090  1.00  0.00     0.008 C 
ENDBRANCH   4   5
ENDBRANCH   2   4
ENDBRANCH   1   2
BRANCH   1   7
HETATM    7  C4  UNL     1      19.244  29.993  34.743  1.00  0.00     0.136 C 
BRANCH   7   8
HETATM    8  C5  UNL     1      17.750  30.214  34.754  1.00  0.00     0.044 C 
BRANCH   8   9
HETATM    9  C6  UNL     1      17.384  30.910  36.044  1.00  0.00     0.165 C 
BRANCH   9  10
HETATM   10  O1  UNL     1      18.001  30.222  37.118  1.00  0.00    -0.401 OA
ATOM     11  H1  UNL     1      17.321  29.846  37.665  1.00  0.00     0.209 HD
ENDBRANCH   9  10
ENDBRANCH   8   9
ENDBRANCH   7   8
ENDBRANCH   1   7
TORSDOF 7
ENDMDL
MODEL 3
REMARK VINA RESULT: -5.863076211      1.249      1.652
REMARK  7 active torsions:
REMARK  status: ('A' for Active; 'I' for Inactive)
REMARK    1  A    between atoms: C2_2  and  C3_3 
REMARK    2  A    between atoms: C3_3  and  N1_4 
REMARK    3  A    between atoms: N1_4  and  N2_6 
REMARK    4  A    between atoms: N2_6  and  C4_7 
REMARK    5  A    between atoms: C4_7  and  C5_8 
REMARK    6  A    between atoms: C5_8  and  C6_9 
REMARK    7  A    between atoms: C6_9  and  O1_10 
ROOT
HETATM    1  N2  UNL     1      24.493  28.736  31.724  1.00  0.00    -0.146 NA
ENDROOT
BRANCH   1   2
HETATM    2  N1  UNL     1      23.394  29.569  31.829  1.00  0.00    -0.336 N 
ATOM      3  H1  UNL     1      22.863  29.863  31.009  1.00  0.00     0.176 HD
BRANCH   2   4
HETATM    4  C3  UNL     1      23.043  29.994  33.137  1.00  0.00     0.161 C 
BRANCH   4   5
HETATM    5  C2  UNL     1      21.578  29.845  33.307  1.00  0.00    -0.017 C 
HETATM    6  C1  UNL     1      20.985  30.481  34.294  1.00  0.00     0.008 C 
ENDBRANCH   4   5
ENDBRANCH   2   4
ENDBRANCH   1   2
BRANCH   1   7
HETATM    7  C4  UNL     1      24.704  28.043  32.946  1.00  0.00     0.136 C 
BRANCH   7   8
HETATM    8  C5  UNL     1      25.678  26.893  32.848  1.00  0.00     0.044 C 
BRANCH   8   9
HETATM    9  C6  UNL     1      25.087  25.709  33.578  1.00  0.00     0.165 C 
BRANCH   9  10
HETATM   10  O1  UNL     1      25.536  24.522  32.948  1.00  0.00    -0.401 OA
ATOM     11  H1  UNL     1      24.961  24.333  32.216  1.00  0.00     0.209 HD
ENDBRANCH   9  10
ENDBRANCH   8   9
ENDBRANCH   7   8
ENDBRANCH   1   7
TORSDOF 7
ENDMDL
MODEL 4
REMARK VINA RESULT: -5.775978521      4.995      7.294
REMARK  7 active torsions:
REMARK  status: ('A' for Active; 'I' for Inactive)
REMARK    1  A    between atoms: C2_2  and  C3_3 
REMARK    2  A    between atoms: C3_3  and  N1_4 
REMARK    3  A    between atoms: N1_4  and  N2_6 
REMARK    4  A    between atoms: N2_6  and  C4_7 
REMARK    5  A    between atoms: C4_7  and  C5_8 
REMARK    6  A    between atoms: C5_8  and  C6_9 
REMARK    7  A    between atoms: C6_9  and  O1_10 
ROOT
HETATM    1  N2  UNL     1      19.614  30.135  35.548  1.00  0.00    -0.146 NA
ENDROOT
BRANCH   1   2
HETATM    2  N1  UNL     1      20.530  30.774  34.733  1.00  0.00    -0.336 N 
ATOM      3  H1  UNL     1      20.836  31.730  34.916  1.00  0.00     0.176 HD
BRANCH   2   4
HETATM    4  C3  UNL     1      21.021  30.031  33.627  1.00  0.00     0.161 C 
BRANCH   4   5
HETATM    5  C2  UNL     1      22.503  30.047  33.667  1.00  0.00    -0.017 C 
HETATM    6  C1  UNL     1      23.171  29.654  32.605  1.00  0.00     0.008 C 
ENDBRANCH   4   5
ENDBRANCH   2   4
ENDBRANCH   1   2
BRANCH   1   7
HETATM    7  C4  UNL     1      18.316  30.679  35.355  1.00  0.00     0.136 C 
BRANCH   7   8
HETATM    8  C5  UNL     1      17.398  30.536  36.545  1.00  0.00     0.044 C 
BRANCH   8   9
HETATM    9  C6  UNL     1      16.385  31.657  36.499  1.00  0.00     0.165 C 
BRANCH   9  10
HETATM   10  O1  UNL     1      15.231  31.251  37.213  1.00  0.00    -0.401 OA
ATOM     11  H1  UNL     1      14.465  31.593  36.767  1.00  0.00     0.209 HD
ENDBRANCH   9  10
ENDBRANCH   8   9
ENDBRANCH   7   8
ENDBRANCH   1   7
TORSDOF 7
ENDMDL
MODEL 5
REMARK VINA RESULT: -5.715402590      3.447      5.804
REMARK  7 active torsions:
REMARK  status: ('A' for Active; 'I' for Inactive)
REMARK    1  A    between atoms: C2_2  and  C3_3 
REMARK    2  A    between atoms: C3_3  and  N1_4 
REMARK    3  A    between atoms: N1_4  and  N2_6 
REMARK    4  A    between atoms: N2_6  and  C4_7 
REMARK    5  A    between atoms: C4_7  and  C5_8 
REMARK    6  A    between atoms: C5_8  and  C6_9 
REMARK    7  A    between atoms: C6_9  and  O1_10 
ROOT
HETATM    1  N2  UNL     1      21.421  29.842  33.397  1.00  0.00    -0.146 NA
ENDROOT
BRANCH   1   2
HETATM    2  N1  UNL     1      22.767  30.159  33.388  1.00  0.00    -0.336 N 
ATOM      3  H1  UNL     1      23.208  30.653  34.164  1.00  0.00     0.176 HD
BRANCH   2   4
HETATM    4  C3  UNL     1      23.504  29.760  32.242  1.00  0.00     0.161 C 
BRANCH   4   5
HETATM    5  C2  UNL     1      24.796  29.185  32.686  1.00  0.00    -0.017 C 
HETATM    6  C1  UNL     1      25.043  27.916  32.444  1.00  0.00     0.008 C 
ENDBRANCH   4   5
ENDBRANCH   2   4
ENDBRANCH   1   2
BRANCH   1   7
HETATM    7  C4  UNL     1      20.741  30.605  34.384  1.00  0.00     0.136 C 
BRANCH   7   8
HETATM    8  C5  UNL     1      19.675  29.844  35.135  1.00  0.00     0.044 C 
BRANCH   8   9
HETATM    9  C6  UNL     1      18.411  30.671  35.131  1.00  0.00     0.165 C 
BRANCH   9  10
HETATM   10  O1  UNL     1      17.384  29.921  34.504  1.00  0.00    -0.401 OA
ATOM     11  H1  UNL     1      17.672  29.688  33.630  1.00  0.00     0.209 HD
ENDBRANCH   9  10
ENDBRANCH   8   9
ENDBRANCH   7   8
ENDBRANCH   1   7
TORSDOF 7
ENDMDL
