MODEL 1
REMARK VINA RESULT: -6.337884327      0.000      0.000
REMARK  7 active torsions:
REMARK  status: ('A' for Active; 'I' for Inactive)
REMARK    1  A    between atoms: C2_2  and  C3_3 
REMARK    2  A    between atoms: C2_2  and  N2_10 
REMARK    3  A    between atoms: C3_3  and  C4_4 
REMARK    4  A    between atoms: C4_4  and  C5_5 
REMARK    5  A    between atoms: C5_5  and  N1_6 
REMARK    6  A    between atoms: N1_6  and  C6_8 
REMARK    7  A    between atoms: N2_10  and  O2_12 
ROOT
HETATM    1  C3  UNL     1      25.537  28.163  32.490  1.00  0.00     0.059 C 
ENDROOT
BRANCH   1   2
HETATM    2  C2  UNL     1      25.618  26.685  32.845  1.00  0.00     0.022 C 
HETATM    3  C1  UNL     1      24.910  26.149  33.819  1.00  0.00     0.040 C 
BRANCH   2   4
HETATM    4  N2  UNL     1      26.513  25.924  32.048  1.00  0.00    -0.274 N 
ATOM      5  H2  UNL     1      27.177  26.392  31.432  1.00  0.00     0.193 HD
BRANCH   4   6
HETATM    6  O2  UNL     1      26.479  24.577  32.112  1.00  0.00    -0.290 OA
ATOM      7  H2  UNL     1      25.682  24.141  32.391  1.00  0.00     0.244 HD
ENDBRANCH   4   6
ENDBRANCH   2   4
ENDBRANCH   1   2
BRANCH   1   8
HETATM    8  C4  UNL     1      24.119  28.532  32.620  1.00  0.00     0.026 C 
BRANCH   8   9
HETATM    9  C5  UNL     1      23.668  29.922  32.633  1.00  0.00     0.122 C 
BRANCH   9  10
HETATM   10  N1  UNL     1      22.803  30.373  33.668  1.00  0.00    -0.368 N 
ATOM     11  H1  UNL     1      23.227  31.013  34.340  1.00  0.00     0.161 HD
BRANCH  10  12
HETATM   12  C6  UNL     1      21.456  30.069  33.902  1.00  0.00     0.348 C 
HETATM   13  O1  UNL     1      20.695  30.783  34.591  1.00  0.00    -0.284 OA
ENDBRANCH  10  12
ENDBRANCH   9  10
ENDBRANCH   8   9
ENDBRANCH   1   8
TORSDOF 7
ENDMDL
MODEL 2
REMARK VINA RESULT: -6.278334461      1.864      2.156
REMARK  7 active torsions:
REMARK  status: ('A' for Active; 'I' for Inactive)
REMARK    1  A    between atoms: C2_2  and  C3_3 
REMARK    2  A    between atoms: C2_2  and  N2_10 
REMARK    3  A    between atoms: C3_3  and  C4_4 
REMARK    4  A    between atoms: C4_4  and  C5_5 
REMARK    5  A    between atoms: C5_5  and  N1_6 
REMARK    6  A    between atoms: N1_6  and  C6_8 
REMARK    7  A    between atoms: N2_10  and  O2_12 
ROOT
HETATM    1  C3  UNL     1      24.080  29.415  31.991  1.00  0.00     0.059 C 
ENDROOT
BRANCH   1   2
HETATM    2  C2  UNL     1      25.081  28.356  32.427  1.00  0.00     0.022 C 
HETATM    3  C1  UNL     1      24.724  27.258  33.062  1.00  0.00     0.040 C 
BRANCH   2   4
HETATM    4  N2  UNL     1      26.434  28.637  32.099  1.00  0.00    -0.274 N 
ATOM      5  H2  UNL     1      27.021  29.162  32.747  1.00  0.00     0.193 HD
BRANCH   4   6
HETATM    6  O2  UNL     1      26.937  28.205  30.925  1.00  0.00    -0.290 OA
ATOM      7  H2  UNL     1      27.712  27.654  30.922  1.00  0.00     0.244 HD
ENDBRANCH   4   6
ENDBRANCH   2   4
ENDBRANCH   1   2
BRANCH   1   8
HETATM    8  C4  UNL     1      23.319  29.772  33.199  1.00  0.00     0.026 C 
BRANCH   8   9
HETATM    9  C5  UNL     1      21.858  29.807  33.224  1.00  0.00     0.122 C 
BRANCH   9  10
HETATM   10  N1  UNL     1      21.187  30.482  34.280  1.00  0.00    -0.368 N 
ATOM     11  H1  UNL     1      21.718  31.235  34.721  1.00  0.00     0.161 HD
BRANCH  10  12
HETATM   12  C6  UNL     1      19.907  30.268  34.807  1.00  0.00     0.348 C 
HETATM   13  O1  UNL     1      19.119  31.192  35.108  1.00  0.00    -0.284 OA
ENDBRANCH  10  12
ENDBRANCH   9  10
ENDBRANCH   8   9
ENDBRANCH   1   8
TORSDOF 7
ENDMDL
MODEL 3
REMARK VINA RESULT: -6.008252605      1.059      1.469
REMARK  7 active torsions:
REMARK  status: ('A' for Active; 'I' for Inactive)
REMARK    1  A    between atoms: C2_2  and  C3_3 
REMARK    2  A    between atoms: C2_2  and  N2_10 
REMARK    3  A    between atoms: C3_3  and  C4_4 
REMARK    4  A    between atoms: C4_4  and  C5_5 
REMARK    5  A    between atoms: C5_5  and  N1_6 
REMARK    6  A    between atoms: N1_6  and  C6_8 
REMARK    7  A    between atoms: N2_10  and  O2_12 
ROOT
HETATM    1  C3  UNL     1      24.252  28.025  32.916  1.00  0.00     0.059 C 
ENDROOT
BRANCH   1   2
HETATM    2  C2  UNL     1      25.618  27.684  32.338  1.00  0.00     0.022 C 
HETATM    3  C1  UNL     1      26.306  28.526  31.596  1.00  0.00     0.040 C 
BRANCH   2   4
HETATM    4  N2  UNL     1      26.098  26.387  32.659  1.00  0.00    -0.274 N 
ATOM      5  H2  UNL     1      25.887  25.970  33.566  1.00  0.00     0.193 HD
BRANCH   4   6
HETATM    6  O2  UNL     1      26.837  25.709  31.757  1.00  0.00    -0.290 OA
ATOM      7  H2  UNL     1      26.964  24.774  31.863  1.00  0.00     0.244 HD
ENDBRANCH   4   6
ENDBRANCH   2   4
ENDBRANCH   1   2
BRANCH   1   8
HETATM    8  C4  UNL     1      24.090  29.476  32.736  1.00  0.00     0.026 C 
BRANCH   8   9
HETATM    9  C5  UNL     1      22.780  30.125  32.732  1.00  0.00     0.122 C 
BRANCH   9  10
HETATM   10  N1  UNL     1      22.061  30.269  33.951  1.00  0.00    -0.368 N 
ATOM     11  H1  UNL     1      22.636  30.438  34.777  1.00  0.00     0.161 HD
BRANCH  10  12
HETATM   12  C6  UNL     1      20.681  30.214  34.185  1.00  0.00     0.348 C 
HETATM   13  O1  UNL     1      20.060  31.063  34.861  1.00  0.00    -0.284 OA
ENDBRANCH  10  12
ENDBRANCH   9  10
ENDBRANCH   8   9
ENDBRANCH   1   8
TORSDOF 7
ENDMDL
MODEL 4
REMARK VINA RESULT: -5.914243896      3.634      7.120
REMARK  7 active torsions:
REMARK  status: ('A' for Active; 'I' for Inactive)
REMARK    1  A    between atoms: C2_2  and  C3_3 
REMARK    2  A    between atoms: C2_2  and  N2_10 
REMARK    3  A    between atoms: C3_3  and  C4_4 
REMARK    4  A    between atoms: C4_4  and  C5_5 
REMARK    5  A    between atoms: C5_5  and  N1_6 
REMARK    6  A    between atoms: N1_6  and  C6_8 
REMARK    7  A    between atoms: N2_10  and  O2_12 
ROOT
HETATM    1  C3  UNL     1      18.750  30.242  34.436  1.00  0.00     0.059 C 
ENDROOT
BRANCH   1   2
HETATM    2  C2  UNL     1      18.113  30.481  35.798  1.00  0.00     0.022 C 
HETATM    3  C1  UNL     1      17.156  31.366  35.989  1.00  0.00     0.040 C 
BRANCH   2   4
HETATM    4  N2  UNL     1      18.626  29.678  36.850  1.00  0.00    -0.274 N 
ATOM      5  H2  UNL     1      19.626  29.483  36.907  1.00  0.00     0.193 HD
BRANCH   4   6
HETATM    6  O2  UNL     1      17.784  29.174  37.774  1.00  0.00    -0.290 OA
ATOM      7  H2  UNL     1      17.681  28.232  37.851  1.00  0.00     0.244 HD
ENDBRANCH   4   6
ENDBRANCH   2   4
ENDBRANCH   1   2
BRANCH   1   8
HETATM    8  C4  UNL     1      20.202  30.350  34.646  1.00  0.00     0.026 C 
BRANCH   8   9
HETATM    9  C5  UNL     1      21.174  29.940  33.634  1.00  0.00     0.122 C 
BRANCH   9  10
HETATM   10  N1  UNL     1      22.538  30.318  33.773  1.00  0.00    -0.368 N 
ATOM     11  H1  UNL     1      22.744  30.916  34.574  1.00  0.00     0.161 HD
BRANCH  10  12
HETATM   12  C6  UNL     1      23.641  29.990  32.975  1.00  0.00     0.348 C 
HETATM   13  O1  UNL     1      23.552  29.677  31.767  1.00  0.00    -0.284 OA
ENDBRANCH  10  12
ENDBRANCH   9  10
ENDBRANCH   8   9
ENDBRANCH   1   8
TORSDOF 7
ENDMDL
MODEL 5
REMARK VINA RESULT: -5.841804064      2.688      6.493
REMARK  7 active torsions:
REMARK  status: ('A' for Active; 'I' for Inactive)
REMARK    1  A    between atoms: C2_2  and  C3_3 
REMARK    2  A    between atoms: C2_2  and  N2_10 
REMARK    3  A    between atoms: C3_3  and  C4_4 
REMARK    4  A    between atoms: C4_4  and  C5_5 
REMARK    5  A    between atoms: C5_5  and  N1_6 
REMARK    6  A    between atoms: N1_6  and  C6_8 
REMARK    7  A    between atoms: N2_10  and  O2_12 
ROOT
HETATM    1  C3  UNL     1      20.682  30.826  34.562  1.00  0.00     0.059 C 
ENDROOT
BRANCH   1   2
HETATM    2  C2  UNL     1      19.385  30.137  34.961  1.00  0.00     0.022 C 
HETATM    3  C1  UNL     1      18.422  29.882  34.100  1.00  0.00     0.040 C 
BRANCH   2   4
HETATM    4  N2  UNL     1      19.289  29.786  36.334  1.00  0.00    -0.274 N 
ATOM      5  H2  UNL     1      20.076  29.341  36.806  1.00  0.00     0.193 HD
BRANCH   4   6
HETATM    6  O2  UNL     1      18.151  30.046  37.008  1.00  0.00    -0.290 OA
ATOM      7  H2  UNL     1      17.834  29.420  37.650  1.00  0.00     0.244 HD
ENDBRANCH   4   6
ENDBRANCH   2   4
ENDBRANCH   1   2
BRANCH   1   8
HETATM    8  C4  UNL     1      21.406  29.864  33.716  1.00  0.00     0.026 C 
BRANCH   8   9
HETATM    9  C5  UNL     1      22.831  29.996  33.421  1.00  0.00     0.122 C 
BRANCH   9  10
HETATM   10  N1  UNL     1      23.393  29.287  32.324  1.00  0.00    -0.368 N 
ATOM     11  H1  UNL     1      22.891  29.385  31.441  1.00  0.00     0.161 HD
BRANCH  10  12
HETATM   12  C6  UNL     1      24.532  28.472  32.276  1.00  0.00     0.348 C 
HETATM   13  O1  UNL     1      25.512  28.697  31.533  1.00  0.00    -0.284 OA
ENDBRANCH  10  12
ENDBRANCH   9  10
ENDBRANCH   8   9
ENDBRANCH   1   8
TORSDOF 7
ENDMDL
