MODEL 1
REMARK VINA RESULT: -5.594872861      0.000      0.000
REMARK  6 active torsions:
REMARK  status: ('A' for Active; 'I' for Inactive)
REMARK    1  A    between atoms: C2_2  and  N1_3 
REMARK    2  A    between atoms: N1_3  and  N2_5 
REMARK    3  A    between atoms: N2_5  and  C3_6 
REMARK    4  A    between atoms: C3_6  and  C4_7 
REMARK    5  A    between atoms: C4_7  and  N3_8 
REMARK    6  A    between atoms: N3_8  and  C5_11 
ROOT
HETATM    1  C3  UNL     1      24.821  29.365  32.766  1.00  0.00     0.162 C 
ENDROOT
BRANCH   1   2
HETATM    2  N2  UNL     1      25.303  28.533  31.674  1.00  0.00    -0.140 NA
BRANCH   2   3
HETATM    3  N1  UNL     1      25.759  27.278  32.091  1.00  0.00    -0.316 N 
ATOM      4  H1  UNL     1      26.249  26.681  31.425  1.00  0.00     0.181 HD
BRANCH   3   5
HETATM    5  C2  UNL     1      25.558  26.813  33.416  1.00  0.00     0.092 C 
HETATM    6  C1  UNL     1      24.912  25.696  33.624  1.00  0.00     0.031 C 
ENDBRANCH   3   5
ENDBRANCH   2   3
ENDBRANCH   1   2
BRANCH   1   7
HETATM    7  C4  UNL     1      23.445  29.876  32.444  1.00  0.00     0.250 C 
BRANCH   7   8
HETATM    8  N3  UNL     1      22.720  30.306  33.580  1.00  0.00    -0.074 N 
ATOM      9  H32 UNL     1      23.172  30.011  34.446  1.00  0.00     0.277 HD
ATOM     10  H31 UNL     1      22.784  31.316  33.705  1.00  0.00     0.277 HD
BRANCH   8  11
HETATM   11  C5  UNL     1      21.345  29.866  33.526  1.00  0.00     0.228 C 
HETATM   12  C6  UNL     1      20.495  30.600  34.557  1.00  0.00     0.034 C 
ENDBRANCH   8  11
ENDBRANCH   7   8
ENDBRANCH   1   7
TORSDOF 6
ENDMDL
MODEL 2
REMARK VINA RESULT: -5.562854093      2.583      6.328
REMARK  6 active torsions:
REMARK  status: ('A' for Active; 'I' for Inactive)
REMARK    1  A    between atoms: C2_2  and  N1_3 
REMARK    2  A    between atoms: N1_3  and  N2_5 
REMARK    3  A    between atoms: N2_5  and  C3_6 
REMARK    4  A    between atoms: C3_6  and  C4_7 
REMARK    5  A    between atoms: C4_7  and  N3_8 
REMARK    6  A    between atoms: N3_8  and  C5_11 
ROOT
HETATM    1  C3  UNL     1      20.648  30.576  34.487  1.00  0.00     0.162 C 
ENDROOT
BRANCH   1   2
HETATM    2  N2  UNL     1      19.772  29.621  35.149  1.00  0.00    -0.140 NA
BRANCH   2   3
HETATM    3  N1  UNL     1      18.889  30.215  36.058  1.00  0.00    -0.316 N 
ATOM      4  H1  UNL     1      19.131  30.225  37.049  1.00  0.00     0.181 HD
BRANCH   3   5
HETATM    5  C2  UNL     1      17.668  30.802  35.639  1.00  0.00     0.092 C 
HETATM    6  C1  UNL     1      16.782  31.166  36.527  1.00  0.00     0.031 C 
ENDBRANCH   3   5
ENDBRANCH   2   3
ENDBRANCH   1   2
BRANCH   1   7
HETATM    7  C4  UNL     1      21.507  29.862  33.482  1.00  0.00     0.250 C 
BRANCH   7   8
HETATM    8  N3  UNL     1      22.871  30.237  33.534  1.00  0.00    -0.074 N 
ATOM      9  H32 UNL     1      22.978  31.227  33.756  1.00  0.00     0.277 HD
ATOM     10  H31 UNL     1      23.336  29.842  34.352  1.00  0.00     0.277 HD
BRANCH   8  11
HETATM   11  C5  UNL     1      23.560  29.890  32.314  1.00  0.00     0.228 C 
HETATM   12  C6  UNL     1      24.677  28.888  32.583  1.00  0.00     0.034 C 
ENDBRANCH   8  11
ENDBRANCH   7   8
ENDBRANCH   1   7
TORSDOF 6
ENDMDL
MODEL 3
REMARK VINA RESULT: -5.369899858      2.442      4.262
REMARK  6 active torsions:
REMARK  status: ('A' for Active; 'I' for Inactive)
REMARK    1  A    between atoms: C2_2  and  N1_3 
REMARK    2  A    between atoms: N1_3  and  N2_5 
REMARK    3  A    between atoms: N2_5  and  C3_6 
REMARK    4  A    between atoms: C3_6  and  C4_7 
REMARK    5  A    between atoms: C4_7  and  N3_8 
REMARK    6  A    between atoms: N3_8  and  C5_11 
ROOT
HETATM    1  C3  UNL     1      20.857  30.594  34.484  1.00  0.00     0.162 C 
ENDROOT
BRANCH   1   2
HETATM    2  N2  UNL     1      21.589  29.829  33.486  1.00  0.00    -0.140 NA
BRANCH   2   3
HETATM    3  N1  UNL     1      22.920  30.237  33.339  1.00  0.00    -0.316 N 
ATOM      4  H1  UNL     1      23.319  30.883  34.020  1.00  0.00     0.181 HD
BRANCH   3   5
HETATM    5  C2  UNL     1      23.728  29.776  32.268  1.00  0.00     0.092 C 
HETATM    6  C1  UNL     1      24.731  28.974  32.507  1.00  0.00     0.031 C 
ENDBRANCH   3   5
ENDBRANCH   2   3
ENDBRANCH   1   2
BRANCH   1   7
HETATM    7  C4  UNL     1      19.414  30.178  34.482  1.00  0.00     0.250 C 
BRANCH   7   8
HETATM    8  N3  UNL     1      18.787  30.301  35.745  1.00  0.00    -0.074 N 
ATOM      9  H32 UNL     1      18.801  29.419  36.257  1.00  0.00     0.277 HD
ATOM     10  H31 UNL     1      19.346  30.864  36.386  1.00  0.00     0.277 HD
BRANCH   8  11
HETATM   11  C5  UNL     1      17.444  30.819  35.619  1.00  0.00     0.228 C 
HETATM   12  C6  UNL     1      16.832  31.089  36.988  1.00  0.00     0.034 C 
ENDBRANCH   8  11
ENDBRANCH   7   8
ENDBRANCH   1   7
TORSDOF 6
ENDMDL
MODEL 4
REMARK VINA RESULT: -5.369303050      3.392      5.557
REMARK  6 active torsions:
REMARK  status: ('A' for Active; 'I' for Inactive)
REMARK    1  A    between atoms: C2_2  and  N1_3 
REMARK    2  A    between atoms: N1_3  and  N2_5 
REMARK    3  A    between atoms: N2_5  and  C3_6 
REMARK    4  A    between atoms: C3_6  and  C4_7 
REMARK    5  A    between atoms: C4_7  and  N3_8 
REMARK    6  A    between atoms: N3_8  and  C5_11 
ROOT
HETATM    1  C3  UNL     1      19.338  30.154  34.530  1.00  0.00     0.162 C 
ENDROOT
BRANCH   1   2
HETATM    2  N2  UNL     1      20.349  31.164  34.803  1.00  0.00    -0.140 NA
BRANCH   2   3
HETATM    3  N1  UNL     1      21.635  30.787  34.399  1.00  0.00    -0.316 N 
ATOM      4  H1  UNL     1      22.443  31.233  34.834  1.00  0.00     0.181 HD
BRANCH   3   5
HETATM    5  C2  UNL     1      21.845  29.802  33.400  1.00  0.00     0.092 C 
HETATM    6  C1  UNL     1      23.014  29.692  32.829  1.00  0.00     0.031 C 
ENDBRANCH   3   5
ENDBRANCH   2   3
ENDBRANCH   1   2
BRANCH   1   7
HETATM    7  C4  UNL     1      18.072  30.494  35.263  1.00  0.00     0.250 C 
BRANCH   7   8
HETATM    8  N3  UNL     1      18.125  30.210  36.648  1.00  0.00    -0.074 N 
ATOM      9  H32 UNL     1      18.205  29.208  36.821  1.00  0.00     0.277 HD
ATOM     10  H31 UNL     1      19.010  30.511  37.058  1.00  0.00     0.277 HD
BRANCH   8  11
HETATM   11  C5  UNL     1      16.997  30.780  37.347  1.00  0.00     0.228 C 
HETATM   12  C6  UNL     1      16.202  31.709  36.437  1.00  0.00     0.034 C 
ENDBRANCH   8  11
ENDBRANCH   7   8
ENDBRANCH   1   7
TORSDOF 6
ENDMDL
MODEL 5
REMARK VINA RESULT: -5.368021184      3.111      6.791
REMARK  6 active torsions:
REMARK  status: ('A' for Active; 'I' for Inactive)
REMARK    1  A    between atoms: C2_2  and  N1_3 
REMARK    2  A    between atoms: N1_3  and  N2_5 
REMARK    3  A    between atoms: N2_5  and  C3_6 
REMARK    4  A    between atoms: C3_6  and  C4_7 
REMARK    5  A    between atoms: C4_7  and  N3_8 
REMARK    6  A    between atoms: N3_8  and  C5_11 
ROOT
HETATM    1  C3  UNL     1      19.478  30.235  34.582  1.00  0.00     0.162 C 
ENDROOT
BRANCH   1   2
HETATM    2  N2  UNL     1      19.351  29.695  35.927  1.00  0.00    -0.140 NA
BRANCH   2   3
HETATM    3  N1  UNL     1      18.272  30.229  36.640  1.00  0.00    -0.316 N 
ATOM      4  H1  UNL     1      18.213  30.067  37.646  1.00  0.00     0.181 HD
BRANCH   3   5
HETATM    5  C2  UNL     1      17.259  30.990  36.003  1.00  0.00     0.092 C 
HETATM    6  C1  UNL     1      16.202  31.360  36.675  1.00  0.00     0.031 C 
ENDBRANCH   3   5
ENDBRANCH   2   3
ENDBRANCH   1   2
BRANCH   1   7
HETATM    7  C4  UNL     1      20.909  30.611  34.320  1.00  0.00     0.250 C 
BRANCH   7   8
HETATM    8  N3  UNL     1      21.532  29.816  33.328  1.00  0.00    -0.074 N 
ATOM      9  H32 UNL     1      21.220  28.846  33.376  1.00  0.00     0.277 HD
ATOM     10  H31 UNL     1      21.188  30.046  32.395  1.00  0.00     0.277 HD
BRANCH   8  11
HETATM   11  C5  UNL     1      22.971  29.913  33.401  1.00  0.00     0.228 C 
HETATM   12  C6  UNL     1      23.611  29.568  32.061  1.00  0.00     0.034 C 
ENDBRANCH   8  11
ENDBRANCH   7   8
ENDBRANCH   1   7
TORSDOF 6
ENDMDL
