MODEL 1
REMARK VINA RESULT: -6.204384650      0.000      0.000
REMARK  7 active torsions:
REMARK  status: ('A' for Active; 'I' for Inactive)
REMARK    1  A    between atoms: C2_2  and  C3_3 
REMARK    2  A    between atoms: C3_3  and  C4_4 
REMARK    3  A    between atoms: C4_4  and  N1_5 
REMARK    4  A    between atoms: N1_5  and  N2_6 
REMARK    5  A    between atoms: N2_6  and  C5_7 
REMARK    6  A    between atoms: C5_7  and  C6_8 
REMARK    7  A    between atoms: C6_8  and  O1_9 
ROOT
HETATM    1  N1  UNL     1      23.750  29.839  31.761  1.00  0.00    -0.148 NA
ENDROOT
BRANCH   1   2
HETATM    2  C4  UNL     1      23.389  30.151  33.153  1.00  0.00     0.134 C 
BRANCH   2   3
HETATM    3  C3  UNL     1      22.014  29.548  33.368  1.00  0.00     0.043 C 
BRANCH   3   4
HETATM    4  C2  UNL     1      21.201  30.532  34.148  1.00  0.00    -0.036 C 
HETATM    5  C1  UNL     1      19.993  30.226  34.559  1.00  0.00     0.007 C 
ENDBRANCH   3   4
ENDBRANCH   2   3
ENDBRANCH   1   2
BRANCH   1   6
HETATM    6  N2  UNL     1      24.128  28.499  31.756  1.00  0.00    -0.147 NA
BRANCH   6   7
HETATM    7  C5  UNL     1      25.440  28.338  32.405  1.00  0.00     0.156 C 
BRANCH   7   8
HETATM    8  C6  UNL     1      25.477  26.942  32.994  1.00  0.00     0.181 C 
BRANCH   8   9
HETATM    9  O1  UNL     1      26.334  26.150  32.204  1.00  0.00    -0.400 OA
ATOM     10  H1  UNL     1      27.166  26.602  32.124  1.00  0.00     0.209 HD
ENDBRANCH   8   9
ENDBRANCH   7   8
ENDBRANCH   6   7
ENDBRANCH   1   6
TORSDOF 7
ENDMDL
MODEL 2
REMARK VINA RESULT: -6.111990236      5.673      7.539
REMARK  7 active torsions:
REMARK  status: ('A' for Active; 'I' for Inactive)
REMARK    1  A    between atoms: C2_2  and  C3_3 
REMARK    2  A    between atoms: C3_3  and  C4_4 
REMARK    3  A    between atoms: C4_4  and  N1_5 
REMARK    4  A    between atoms: N1_5  and  N2_6 
REMARK    5  A    between atoms: N2_6  and  C5_7 
REMARK    6  A    between atoms: C5_7  and  C6_8 
REMARK    7  A    between atoms: C6_8  and  O1_9 
ROOT
HETATM    1  N1  UNL     1      19.276  30.245  35.681  1.00  0.00    -0.148 NA
ENDROOT
BRANCH   1   2
HETATM    2  C4  UNL     1      19.744  30.119  34.292  1.00  0.00     0.134 C 
BRANCH   2   3
HETATM    3  C3  UNL     1      21.195  30.559  34.304  1.00  0.00     0.043 C 
BRANCH   3   4
HETATM    4  C2  UNL     1      21.919  29.773  33.256  1.00  0.00    -0.036 C 
HETATM    5  C1  UNL     1      23.219  29.885  33.113  1.00  0.00     0.007 C 
ENDBRANCH   3   4
ENDBRANCH   2   3
ENDBRANCH   1   2
BRANCH   1   6
HETATM    6  N2  UNL     1      18.100  30.987  35.622  1.00  0.00    -0.147 NA
BRANCH   6   7
HETATM    7  C5  UNL     1      17.253  30.694  36.791  1.00  0.00     0.156 C 
BRANCH   7   8
HETATM    8  C6  UNL     1      15.974  31.490  36.625  1.00  0.00     0.181 C 
BRANCH   8   9
HETATM    9  O1  UNL     1      14.886  30.595  36.681  1.00  0.00    -0.400 OA
ATOM     10  H1  UNL     1      14.618  30.508  37.588  1.00  0.00     0.209 HD
ENDBRANCH   8   9
ENDBRANCH   7   8
ENDBRANCH   6   7
ENDBRANCH   1   6
TORSDOF 7
ENDMDL
MODEL 3
REMARK VINA RESULT: -5.990373801      4.670      6.533
REMARK  7 active torsions:
REMARK  status: ('A' for Active; 'I' for Inactive)
REMARK    1  A    between atoms: C2_2  and  C3_3 
REMARK    2  A    between atoms: C3_3  and  C4_4 
REMARK    3  A    between atoms: C4_4  and  N1_5 
REMARK    4  A    between atoms: N1_5  and  N2_6 
REMARK    5  A    between atoms: N2_6  and  C5_7 
REMARK    6  A    between atoms: C5_7  and  C6_8 
REMARK    7  A    between atoms: C6_8  and  O1_9 
ROOT
HETATM    1  N1  UNL     1      20.233  30.992  34.866  1.00  0.00    -0.148 NA
ENDROOT
BRANCH   1   2
HETATM    2  C4  UNL     1      20.776  30.059  33.866  1.00  0.00     0.134 C 
BRANCH   2   3
HETATM    3  C3  UNL     1      22.277  30.273  33.874  1.00  0.00     0.043 C 
BRANCH   3   4
HETATM    4  C2  UNL     1      22.840  29.603  32.661  1.00  0.00    -0.036 C 
HETATM    5  C1  UNL     1      24.134  29.426  32.533  1.00  0.00     0.007 C 
ENDBRANCH   3   4
ENDBRANCH   2   3
ENDBRANCH   1   2
BRANCH   1   6
HETATM    6  N2  UNL     1      19.326  30.255  35.623  1.00  0.00    -0.147 NA
BRANCH   6   7
HETATM    7  C5  UNL     1      17.948  30.672  35.315  1.00  0.00     0.156 C 
BRANCH   7   8
HETATM    8  C6  UNL     1      17.222  30.823  36.637  1.00  0.00     0.181 C 
BRANCH   8   9
HETATM    9  O1  UNL     1      17.567  29.730  37.458  1.00  0.00    -0.400 OA
ATOM     10  H1  UNL     1      16.789  29.453  37.927  1.00  0.00     0.209 HD
ENDBRANCH   8   9
ENDBRANCH   7   8
ENDBRANCH   6   7
ENDBRANCH   1   6
TORSDOF 7
ENDMDL
MODEL 4
REMARK VINA RESULT: -5.951184985      1.083      1.332
REMARK  7 active torsions:
REMARK  status: ('A' for Active; 'I' for Inactive)
REMARK    1  A    between atoms: C2_2  and  C3_3 
REMARK    2  A    between atoms: C3_3  and  C4_4 
REMARK    3  A    between atoms: C4_4  and  N1_5 
REMARK    4  A    between atoms: N1_5  and  N2_6 
REMARK    5  A    between atoms: N2_6  and  C5_7 
REMARK    6  A    between atoms: C5_7  and  C6_8 
REMARK    7  A    between atoms: C6_8  and  O1_9 
ROOT
HETATM    1  N1  UNL     1      24.576  28.831  31.887  1.00  0.00    -0.148 NA
ENDROOT
BRANCH   1   2
HETATM    2  C4  UNL     1      23.382  29.691  31.907  1.00  0.00     0.134 C 
BRANCH   2   3
HETATM    3  C3  UNL     1      22.953  29.766  33.360  1.00  0.00     0.043 C 
BRANCH   3   4
HETATM    4  C2  UNL     1      21.462  29.892  33.389  1.00  0.00    -0.036 C 
HETATM    5  C1  UNL     1      20.860  30.505  34.381  1.00  0.00     0.007 C 
ENDBRANCH   3   4
ENDBRANCH   2   3
ENDBRANCH   1   2
BRANCH   1   6
HETATM    6  N2  UNL     1      24.460  27.991  32.991  1.00  0.00    -0.147 NA
BRANCH   6   7
HETATM    7  C5  UNL     1      25.544  26.994  32.989  1.00  0.00     0.156 C 
BRANCH   7   8
HETATM    8  C6  UNL     1      24.988  25.729  33.611  1.00  0.00     0.181 C 
BRANCH   8   9
HETATM    9  O1  UNL     1      25.551  24.623  32.941  1.00  0.00    -0.400 OA
ATOM     10  H1  UNL     1      24.873  23.968  32.827  1.00  0.00     0.209 HD
ENDBRANCH   8   9
ENDBRANCH   7   8
ENDBRANCH   6   7
ENDBRANCH   1   6
TORSDOF 7
ENDMDL
MODEL 5
REMARK VINA RESULT: -5.949659221      5.376      7.146
REMARK  7 active torsions:
REMARK  status: ('A' for Active; 'I' for Inactive)
REMARK    1  A    between atoms: C2_2  and  C3_3 
REMARK    2  A    between atoms: C3_3  and  C4_4 
REMARK    3  A    between atoms: C4_4  and  N1_5 
REMARK    4  A    between atoms: N1_5  and  N2_6 
REMARK    5  A    between atoms: N2_6  and  C5_7 
REMARK    6  A    between atoms: C5_7  and  C6_8 
REMARK    7  A    between atoms: C6_8  and  O1_9 
ROOT
HETATM    1  N1  UNL     1      19.355  30.245  34.481  1.00  0.00    -0.148 NA
ENDROOT
BRANCH   1   2
HETATM    2  C4  UNL     1      20.786  30.590  34.507  1.00  0.00     0.134 C 
BRANCH   2   3
HETATM    3  C3  UNL     1      21.414  29.835  33.353  1.00  0.00     0.043 C 
BRANCH   3   4
HETATM    4  C2  UNL     1      22.883  30.118  33.367  1.00  0.00    -0.036 C 
HETATM    5  C1  UNL     1      23.697  29.480  32.560  1.00  0.00     0.007 C 
ENDBRANCH   3   4
ENDBRANCH   2   3
ENDBRANCH   1   2
BRANCH   1   6
HETATM    6  N2  UNL     1      18.859  30.579  35.737  1.00  0.00    -0.147 NA
BRANCH   6   7
HETATM    7  C5  UNL     1      17.397  30.750  35.679  1.00  0.00     0.156 C 
BRANCH   7   8
HETATM    8  C6  UNL     1      16.910  30.917  37.104  1.00  0.00     0.181 C 
BRANCH   8   9
HETATM    9  O1  UNL     1      15.549  31.284  37.066  1.00  0.00    -0.400 OA
ATOM     10  H1  UNL     1      15.320  31.663  37.906  1.00  0.00     0.209 HD
ENDBRANCH   8   9
ENDBRANCH   7   8
ENDBRANCH   6   7
ENDBRANCH   1   6
TORSDOF 7
ENDMDL
