MODEL 1
REMARK VINA RESULT: -9.290702425      0.000      0.000
REMARK  12 active torsions:
REMARK  status: ('A' for Active; 'I' for Inactive)
REMARK    1  A    between atoms: C7_8  and  C8_9 
REMARK    2  A    between atoms: C11_12  and  N2_13 
REMARK    3  A    between atoms: N2_13  and  C12_14 
REMARK       I    between atoms: N2_13  and  C27_42 
REMARK    4  A    between atoms: C12_14  and  C13_15 
REMARK    5  A    between atoms: C13_15  and  N3_16 
REMARK    6  A    between atoms: N3_16  and  C14_18 
REMARK    7  A    between atoms: C16_20  and  N4_21 
REMARK    8  A    between atoms: N7_32  and  C22_34 
REMARK    9  A    between atoms: C22_34  and  C23_35 
REMARK   10  A    between atoms: C23_35  and  C24_36 
REMARK   11  A    between atoms: C24_36  and  N8_37 
REMARK   12  A    between atoms: C27_42  and  C28_44 
ROOT
HETATM    1  C1  UNL     1      -9.713  15.517  24.512  1.00  0.00     0.050 C 
HETATM    2  C2  UNL     1      -8.751  16.280  23.699  1.00  0.00    -0.033 A 
HETATM    3  C3  UNL     1      -8.902  16.305  22.336  1.00  0.00     0.031 A 
HETATM    4  C4  UNL     1      -8.035  17.056  21.580  1.00  0.00     0.045 A 
HETATM    5  C5  UNL     1      -8.132  17.131  20.139  1.00  0.00     0.099 C 
HETATM    6  N1  UNL     1      -8.193  17.191  18.973  1.00  0.00    -0.191 NA
HETATM    7  C6  UNL     1      -7.047  17.758  22.218  1.00  0.00     0.032 A 
HETATM    8  C7  UNL     1      -6.850  17.766  23.608  1.00  0.00    -0.025 A 
HETATM    9  C11 UNL     1      -7.731  17.005  24.356  1.00  0.00     0.054 A 
ENDROOT
BRANCH   8  10
HETATM   10  C8  UNL     1      -5.750  18.489  24.222  1.00  0.00     0.013 C 
HETATM   11  C9  UNL     1      -5.380  19.577  23.171  1.00  0.00     0.015 C 
HETATM   12  C10 UNL     1      -4.427  17.713  24.185  1.00  0.00     0.015 C 
ENDBRANCH   8  10
BRANCH   9  13
HETATM   13  N2  UNL     1      -7.734  16.983  25.769  1.00  0.00    -0.290 N 
HETATM   14  C27 UNL     1      -6.951  16.013  26.468  1.00  0.00     0.232 C 
HETATM   15  O1  UNL     1      -6.205  15.321  25.674  1.00  0.00    -0.272 OA
BRANCH  13  16
HETATM   16  C12 UNL     1      -8.345  17.918  26.619  1.00  0.00     0.117 C 
BRANCH  16  17
HETATM   17  C13 UNL     1      -9.756  18.263  26.670  1.00  0.00     0.107 C 
BRANCH  17  18
HETATM   18  N3  UNL     1     -10.612  17.941  27.703  1.00  0.00    -0.350 N 
ATOM     19  H3  UNL     1     -11.199  18.722  27.995  1.00  0.00     0.166 HD
BRANCH  18  20
HETATM   20  C14 UNL     1     -10.828  16.881  28.368  1.00  0.00     0.124 A 
HETATM   21  C15 UNL     1     -11.545  15.808  27.822  1.00  0.00     0.098 A 
HETATM   22  C16 UNL     1     -11.796  14.658  28.510  1.00  0.00     0.122 A 
HETATM   23  N6  UNL     1     -11.341  14.556  29.750  1.00  0.00    -0.177 N 
HETATM   24  C21 UNL     1     -10.639  15.578  30.316  1.00  0.00     0.681 A 
ATOM     25  H6  UNL     1     -11.516  13.705  30.285  1.00  0.00     0.185 HD
HETATM   26  N7  UNL     1     -10.230  15.413  31.520  1.00  0.00    -0.226 N 
HETATM   27  N9  UNL     1     -10.390  16.728  29.619  1.00  0.00    -0.177 N 
ATOM     28  H7  UNL     1     -10.436  14.544  32.014  1.00  0.00     0.177 HD
ATOM     29  H9  UNL     1      -9.862  17.480  30.062  1.00  0.00     0.186 HD
BRANCH  22  30
HETATM   30  N4  UNL     1     -12.530  13.604  27.891  1.00  0.00    -0.364 N 
HETATM   31  C17 UNL     1     -13.981  13.760  27.698  1.00  0.00     0.152 C 
HETATM   32  C18 UNL     1     -14.427  12.727  26.676  1.00  0.00     0.252 C 
HETATM   33  N5  UNL     1     -13.511  12.751  25.548  1.00  0.00    -0.072 N 
HETATM   34  C19 UNL     1     -12.190  12.295  25.911  1.00  0.00     0.252 C 
ATOM     35  H52 UNL     1     -13.881  12.220  24.760  1.00  0.00     0.277 HD
ATOM     36  H51 UNL     1     -13.477  13.675  25.119  1.00  0.00     0.277 HD
HETATM   37  C20 UNL     1     -11.983  12.371  27.429  1.00  0.00     0.152 C 
ENDBRANCH  22  30
BRANCH  26  38
HETATM   38  C22 UNL     1      -9.483  16.453  32.177  1.00  0.00     0.140 C 
BRANCH  38  39
HETATM   39  C23 UNL     1      -9.191  16.091  33.630  1.00  0.00     0.050 C 
BRANCH  39  40
HETATM   40  C24 UNL     1      -9.309  14.597  33.753  1.00  0.00     0.273 C 
BRANCH  40  41
HETATM   41  N8  UNL     1     -10.213  14.216  34.825  1.00  0.00     0.080 N 
HETATM   42  C25 UNL     1     -11.280  15.202  34.980  1.00  0.00     0.309 C 
HETATM   43  C26 UNL     1     -10.793  12.912  34.544  1.00  0.00     0.309 C 
ENDBRANCH  40  41
ENDBRANCH  39  40
ENDBRANCH  38  39
ENDBRANCH  26  38
ENDBRANCH  18  20
ENDBRANCH  17  18
ENDBRANCH  16  17
ENDBRANCH  13  16
BRANCH  14  44
HETATM   44  C28 UNL     1      -6.847  15.670  27.853  1.00  0.00     0.070 C 
HETATM   45  C29 UNL     1      -7.984  14.669  28.186  1.00  0.00     0.019 C 
HETATM   46  C30 UNL     1      -7.100  16.785  28.839  1.00  0.00     0.019 C 
ENDBRANCH  14  44
ENDBRANCH   9  13
TORSDOF 12
ENDMDL
MODEL 2
REMARK VINA RESULT: -9.154380318      2.163      9.724
REMARK  12 active torsions:
REMARK  status: ('A' for Active; 'I' for Inactive)
REMARK    1  A    between atoms: C7_8  and  C8_9 
REMARK    2  A    between atoms: C11_12  and  N2_13 
REMARK    3  A    between atoms: N2_13  and  C12_14 
REMARK       I    between atoms: N2_13  and  C27_42 
REMARK    4  A    between atoms: C12_14  and  C13_15 
REMARK    5  A    between atoms: C13_15  and  N3_16 
REMARK    6  A    between atoms: N3_16  and  C14_18 
REMARK    7  A    between atoms: C16_20  and  N4_21 
REMARK    8  A    between atoms: N7_32  and  C22_34 
REMARK    9  A    between atoms: C22_34  and  C23_35 
REMARK   10  A    between atoms: C23_35  and  C24_36 
REMARK   11  A    between atoms: C24_36  and  N8_37 
REMARK   12  A    between atoms: C27_42  and  C28_44 
ROOT
HETATM    1  C1  UNL     1      -8.715  15.586  29.769  1.00  0.00     0.050 C 
HETATM    2  C2  UNL     1      -9.824  15.082  30.595  1.00  0.00    -0.033 A 
HETATM    3  C3  UNL     1      -9.618  14.875  31.935  1.00  0.00     0.031 A 
HETATM    4  C4  UNL     1     -10.667  14.452  32.716  1.00  0.00     0.045 A 
HETATM    5  C5  UNL     1     -10.525  14.214  34.135  1.00  0.00     0.099 C 
HETATM    6  N1  UNL     1     -10.421  14.007  35.282  1.00  0.00    -0.191 NA
HETATM    7  C6  UNL     1     -11.886  14.251  32.126  1.00  0.00     0.032 A 
HETATM    8  C7  UNL     1     -12.149  14.448  30.761  1.00  0.00    -0.025 A 
HETATM    9  C11 UNL     1     -11.084  14.875  29.988  1.00  0.00     0.054 A 
ENDROOT
BRANCH   8  10
HETATM   10  C8  UNL     1     -13.451  14.168  30.183  1.00  0.00     0.013 C 
HETATM   11  C9  UNL     1     -14.450  14.465  31.341  1.00  0.00     0.015 C 
HETATM   12  C10 UNL     1     -13.737  12.666  30.050  1.00  0.00     0.015 C 
ENDBRANCH   8  10
BRANCH   9  13
HETATM   13  N2  UNL     1     -11.202  15.215  28.621  1.00  0.00    -0.290 N 
HETATM   14  C27 UNL     1     -11.080  14.201  27.621  1.00  0.00     0.232 C 
HETATM   15  O1  UNL     1     -10.994  13.017  28.131  1.00  0.00    -0.272 OA
BRANCH  13  16
HETATM   16  C12 UNL     1     -11.563  16.466  28.098  1.00  0.00     0.117 C 
BRANCH  16  17
HETATM   17  C13 UNL     1     -10.687  17.602  27.862  1.00  0.00     0.107 C 
BRANCH  17  18
HETATM   18  N3  UNL     1     -10.188  17.974  26.631  1.00  0.00    -0.350 N 
ATOM     19  H3  UNL     1     -10.761  18.676  26.162  1.00  0.00     0.166 HD
BRANCH  18  20
HETATM   20  C14 UNL     1      -9.170  17.631  25.955  1.00  0.00     0.124 A 
HETATM   21  C15 UNL     1      -7.889  17.601  26.526  1.00  0.00     0.098 A 
HETATM   22  C16 UNL     1      -6.775  17.241  25.827  1.00  0.00     0.122 A 
HETATM   23  N6  UNL     1      -6.914  16.906  24.553  1.00  0.00    -0.177 N 
HETATM   24  C21 UNL     1      -8.142  16.923  23.963  1.00  0.00     0.681 A 
ATOM     25  H6  UNL     1      -6.095  16.633  24.010  1.00  0.00     0.185 HD
HETATM   26  N7  UNL     1      -8.203  16.591  22.725  1.00  0.00    -0.226 N 
HETATM   27  N9  UNL     1      -9.255  17.285  24.670  1.00  0.00    -0.177 N 
ATOM     28  H7  UNL     1      -7.353  16.329  22.225  1.00  0.00     0.177 HD
ATOM     29  H9  UNL     1     -10.164  17.290  24.208  1.00  0.00     0.186 HD
BRANCH  22  30
HETATM   30  N4  UNL     1      -5.504  17.229  26.472  1.00  0.00    -0.364 N 
HETATM   31  C17 UNL     1      -4.473  18.186  26.040  1.00  0.00     0.152 C 
HETATM   32  C18 UNL     1      -3.413  18.250  27.127  1.00  0.00     0.252 C 
HETATM   33  N5  UNL     1      -4.067  18.381  28.418  1.00  0.00    -0.072 N 
HETATM   34  C19 UNL     1      -4.817  17.200  28.770  1.00  0.00     0.252 C 
ATOM     35  H52 UNL     1      -3.397  18.624  29.148  1.00  0.00     0.277 HD
ATOM     36  H51 UNL     1      -4.653  19.215  28.452  1.00  0.00     0.277 HD
HETATM   37  C20 UNL     1      -5.116  16.352  27.528  1.00  0.00     0.152 C 
ENDBRANCH  22  30
BRANCH  26  38
HETATM   38  C22 UNL     1      -9.469  16.587  22.041  1.00  0.00     0.140 C 
BRANCH  38  39
HETATM   39  C23 UNL     1      -9.296  16.264  20.560  1.00  0.00     0.050 C 
BRANCH  39  40
HETATM   40  C24 UNL     1      -8.072  15.401  20.429  1.00  0.00     0.273 C 
BRANCH  40  41
HETATM   41  N8  UNL     1      -7.154  15.920  19.429  1.00  0.00     0.080 N 
HETATM   42  C25 UNL     1      -7.392  17.341  19.194  1.00  0.00     0.309 C 
HETATM   43  C26 UNL     1      -5.781  15.722  19.867  1.00  0.00     0.309 C 
ENDBRANCH  40  41
ENDBRANCH  39  40
ENDBRANCH  38  39
ENDBRANCH  26  38
ENDBRANCH  18  20
ENDBRANCH  17  18
ENDBRANCH  16  17
ENDBRANCH  13  16
BRANCH  14  44
HETATM   44  C28 UNL     1     -11.032  14.251  26.192  1.00  0.00     0.070 C 
HETATM   45  C29 UNL     1     -11.817  13.031  25.642  1.00  0.00     0.019 C 
HETATM   46  C30 UNL     1      -9.671  14.068  25.563  1.00  0.00     0.019 C 
ENDBRANCH  14  44
ENDBRANCH   9  13
TORSDOF 12
ENDMDL
MODEL 3
REMARK VINA RESULT: -8.963280228      1.572      4.681
REMARK  12 active torsions:
REMARK  status: ('A' for Active; 'I' for Inactive)
REMARK    1  A    between atoms: C7_8  and  C8_9 
REMARK    2  A    between atoms: C11_12  and  N2_13 
REMARK    3  A    between atoms: N2_13  and  C12_14 
REMARK       I    between atoms: N2_13  and  C27_42 
REMARK    4  A    between atoms: C12_14  and  C13_15 
REMARK    5  A    between atoms: C13_15  and  N3_16 
REMARK    6  A    between atoms: N3_16  and  C14_18 
REMARK    7  A    between atoms: C16_20  and  N4_21 
REMARK    8  A    between atoms: N7_32  and  C22_34 
REMARK    9  A    between atoms: C22_34  and  C23_35 
REMARK   10  A    between atoms: C23_35  and  C24_36 
REMARK   11  A    between atoms: C24_36  and  N8_37 
REMARK   12  A    between atoms: C27_42  and  C28_44 
ROOT
HETATM    1  C1  UNL     1      -7.703  14.777  25.669  1.00  0.00     0.050 C 
HETATM    2  C2  UNL     1      -7.414  15.552  24.451  1.00  0.00    -0.033 A 
HETATM    3  C3  UNL     1      -7.901  15.111  23.248  1.00  0.00     0.031 A 
HETATM    4  C4  UNL     1      -7.674  15.859  22.118  1.00  0.00     0.045 A 
HETATM    5  C5  UNL     1      -8.158  15.457  20.816  1.00  0.00     0.099 C 
HETATM    6  N1  UNL     1      -8.533  15.139  19.755  1.00  0.00    -0.191 NA
HETATM    7  C6  UNL     1      -6.966  17.026  22.235  1.00  0.00     0.032 A 
HETATM    8  C7  UNL     1      -6.447  17.521  23.441  1.00  0.00    -0.025 A 
HETATM    9  C11 UNL     1      -6.684  16.757  24.570  1.00  0.00     0.054 A 
ENDROOT
BRANCH   8  10
HETATM   10  C8  UNL     1      -5.658  18.739  23.493  1.00  0.00     0.013 C 
HETATM   11  C9  UNL     1      -6.031  19.486  22.178  1.00  0.00     0.015 C 
HETATM   12  C10 UNL     1      -4.174  18.506  23.180  1.00  0.00     0.015 C 
ENDBRANCH   8  10
BRANCH   9  13
HETATM   13  N2  UNL     1      -6.317  17.161  25.874  1.00  0.00    -0.290 N 
HETATM   14  C27 UNL     1      -5.041  16.793  26.401  1.00  0.00     0.232 C 
HETATM   15  O1  UNL     1      -4.296  16.209  25.523  1.00  0.00    -0.272 OA
BRANCH  13  16
HETATM   16  C12 UNL     1      -7.035  18.024  26.715  1.00  0.00     0.117 C 
BRANCH  16  17
HETATM   17  C13 UNL     1      -8.447  17.946  27.049  1.00  0.00     0.107 C 
BRANCH  17  18
HETATM   18  N3  UNL     1      -8.950  17.671  28.305  1.00  0.00    -0.350 N 
ATOM     19  H3  UNL     1      -9.045  18.502  28.889  1.00  0.00     0.166 HD
BRANCH  18  20
HETATM   20  C14 UNL     1      -9.319  16.607  28.890  1.00  0.00     0.124 A 
HETATM   21  C15 UNL     1      -9.195  16.454  30.278  1.00  0.00     0.098 A 
HETATM   22  C16 UNL     1      -9.579  15.324  30.936  1.00  0.00     0.122 A 
HETATM   23  N6  UNL     1     -10.090  14.328  30.228  1.00  0.00    -0.177 N 
HETATM   24  C21 UNL     1     -10.227  14.438  28.877  1.00  0.00     0.681 A 
ATOM     25  H6  UNL     1     -10.384  13.471  30.698  1.00  0.00     0.185 HD
HETATM   26  N7  UNL     1     -10.726  13.435  28.253  1.00  0.00    -0.226 N 
HETATM   27  N9  UNL     1      -9.841  15.576  28.223  1.00  0.00    -0.177 N 
ATOM     28  H7  UNL     1     -11.001  12.599  28.770  1.00  0.00     0.177 HD
ATOM     29  H9  UNL     1      -9.952  15.637  27.211  1.00  0.00     0.186 HD
BRANCH  22  30
HETATM   30  N4  UNL     1      -9.427  15.238  32.351  1.00  0.00    -0.364 N 
HETATM   31  C17 UNL     1      -9.312  16.478  33.135  1.00  0.00     0.152 C 
HETATM   32  C18 UNL     1      -9.581  16.134  34.591  1.00  0.00     0.252 C 
HETATM   33  N5  UNL     1     -10.770  15.301  34.668  1.00  0.00    -0.072 N 
HETATM   34  C19 UNL     1     -10.568  14.007  34.064  1.00  0.00     0.252 C 
ATOM     35  H52 UNL     1     -11.097  15.213  35.630  1.00  0.00     0.277 HD
ATOM     36  H51 UNL     1     -11.579  15.774  34.266  1.00  0.00     0.277 HD
HETATM   37  C20 UNL     1      -9.368  14.031  33.108  1.00  0.00     0.152 C 
ENDBRANCH  22  30
BRANCH  26  38
HETATM   38  C22 UNL     1     -10.899  13.485  26.825  1.00  0.00     0.140 C 
BRANCH  38  39
HETATM   39  C23 UNL     1     -12.259  12.932  26.412  1.00  0.00     0.050 C 
BRANCH  39  40
HETATM   40  C24 UNL     1     -13.297  13.935  26.833  1.00  0.00     0.273 C 
BRANCH  40  41
HETATM   41  N8  UNL     1     -14.231  13.371  27.793  1.00  0.00     0.080 N 
HETATM   42  C25 UNL     1     -13.972  11.948  27.994  1.00  0.00     0.309 C 
HETATM   43  C26 UNL     1     -14.118  14.070  29.063  1.00  0.00     0.309 C 
ENDBRANCH  40  41
ENDBRANCH  39  40
ENDBRANCH  38  39
ENDBRANCH  26  38
ENDBRANCH  18  20
ENDBRANCH  17  18
ENDBRANCH  16  17
ENDBRANCH  13  16
BRANCH  14  44
HETATM   44  C28 UNL     1      -4.448  16.942  27.695  1.00  0.00     0.070 C 
HETATM   45  C29 UNL     1      -5.561  16.748  28.757  1.00  0.00     0.019 C 
HETATM   46  C30 UNL     1      -3.917  18.315  28.032  1.00  0.00     0.019 C 
ENDBRANCH  14  44
ENDBRANCH   9  13
TORSDOF 12
ENDMDL
MODEL 4
REMARK VINA RESULT: -8.756667574      2.319      9.773
REMARK  12 active torsions:
REMARK  status: ('A' for Active; 'I' for Inactive)
REMARK    1  A    between atoms: C7_8  and  C8_9 
REMARK    2  A    between atoms: C11_12  and  N2_13 
REMARK    3  A    between atoms: N2_13  and  C12_14 
REMARK       I    between atoms: N2_13  and  C27_42 
REMARK    4  A    between atoms: C12_14  and  C13_15 
REMARK    5  A    between atoms: C13_15  and  N3_16 
REMARK    6  A    between atoms: N3_16  and  C14_18 
REMARK    7  A    between atoms: C16_20  and  N4_21 
REMARK    8  A    between atoms: N7_32  and  C22_34 
REMARK    9  A    between atoms: C22_34  and  C23_35 
REMARK   10  A    between atoms: C23_35  and  C24_36 
REMARK   11  A    between atoms: C24_36  and  N8_37 
REMARK   12  A    between atoms: C27_42  and  C28_44 
ROOT
HETATM    1  C1  UNL     1      -9.108  14.204  28.683  1.00  0.00     0.050 C 
HETATM    2  C2  UNL     1      -9.838  14.314  29.957  1.00  0.00    -0.033 A 
HETATM    3  C3  UNL     1      -9.140  14.593  31.104  1.00  0.00     0.031 A 
HETATM    4  C4  UNL     1      -9.825  14.745  32.285  1.00  0.00     0.045 A 
HETATM    5  C5  UNL     1      -9.157  15.040  33.533  1.00  0.00     0.099 C 
HETATM    6  N1  UNL     1      -8.628  15.268  34.551  1.00  0.00    -0.191 NA
HETATM    7  C6  UNL     1     -11.188  14.611  32.275  1.00  0.00     0.032 A 
HETATM    8  C7  UNL     1     -11.949  14.326  31.130  1.00  0.00    -0.025 A 
HETATM    9  C11 UNL     1     -11.244  14.177  29.948  1.00  0.00     0.054 A 
ENDROOT
BRANCH   8  10
HETATM   10  C8  UNL     1     -13.388  14.145  31.192  1.00  0.00     0.013 C 
HETATM   11  C9  UNL     1     -13.819  14.967  32.443  1.00  0.00     0.015 C 
HETATM   12  C10 UNL     1     -13.796  12.759  31.710  1.00  0.00     0.015 C 
ENDBRANCH   8  10
BRANCH   9  13
HETATM   13  N2  UNL     1     -11.864  13.988  28.692  1.00  0.00    -0.290 N 
HETATM   14  C27 UNL     1     -12.136  12.664  28.224  1.00  0.00     0.232 C 
HETATM   15  O1  UNL     1     -11.876  11.766  29.114  1.00  0.00    -0.272 OA
BRANCH  13  16
HETATM   16  C12 UNL     1     -12.383  14.988  27.856  1.00  0.00     0.117 C 
BRANCH  16  17
HETATM   17  C13 UNL     1     -11.660  16.107  27.277  1.00  0.00     0.107 C 
BRANCH  17  18
HETATM   18  N3  UNL     1     -11.073  16.110  26.028  1.00  0.00    -0.350 N 
ATOM     19  H3  UNL     1     -11.680  15.734  25.300  1.00  0.00     0.166 HD
BRANCH  18  20
HETATM   20  C14 UNL     1      -9.941  16.480  25.590  1.00  0.00     0.124 A 
HETATM   21  C15 UNL     1      -8.936  16.937  26.454  1.00  0.00     0.098 A 
HETATM   22  C16 UNL     1      -7.711  17.344  26.015  1.00  0.00     0.122 A 
HETATM   23  N6  UNL     1      -7.464  17.304  24.714  1.00  0.00    -0.177 N 
HETATM   24  C21 UNL     1      -8.415  16.866  23.843  1.00  0.00     0.681 A 
ATOM     25  H6  UNL     1      -6.555  17.604  24.362  1.00  0.00     0.185 HD
HETATM   26  N7  UNL     1      -8.111  16.856  22.597  1.00  0.00    -0.226 N 
HETATM   27  N9  UNL     1      -9.642  16.458  24.290  1.00  0.00    -0.177 N 
ATOM     28  H7  UNL     1      -7.188  17.170  22.296  1.00  0.00     0.177 HD
ATOM     29  H9  UNL     1     -10.339  16.133  23.620  1.00  0.00     0.186 HD
BRANCH  22  30
HETATM   30  N4  UNL     1      -6.734  17.795  26.951  1.00  0.00    -0.364 N 
HETATM   31  C17 UNL     1      -6.147  16.830  27.894  1.00  0.00     0.152 C 
HETATM   32  C18 UNL     1      -4.881  17.449  28.464  1.00  0.00     0.252 C 
HETATM   33  N5  UNL     1      -4.097  18.009  27.376  1.00  0.00    -0.072 N 
HETATM   34  C19 UNL     1      -4.754  19.134  26.756  1.00  0.00     0.252 C 
ATOM     35  H52 UNL     1      -3.157  18.255  27.686  1.00  0.00     0.277 HD
ATOM     36  H51 UNL     1      -3.859  17.296  26.687  1.00  0.00     0.277 HD
HETATM   37  C20 UNL     1      -6.255  19.133  27.071  1.00  0.00     0.152 C 
ENDBRANCH  22  30
BRANCH  26  38
HETATM   38  C22 UNL     1      -9.069  16.404  21.623  1.00  0.00     0.140 C 
BRANCH  38  39
HETATM   39  C23 UNL     1      -8.384  15.988  20.325  1.00  0.00     0.050 C 
BRANCH  39  40
HETATM   40  C24 UNL     1      -7.819  17.231  19.697  1.00  0.00     0.273 C 
BRANCH  40  41
HETATM   41  N8  UNL     1      -6.388  17.116  19.473  1.00  0.00     0.080 N 
HETATM   42  C25 UNL     1      -5.649  17.999  20.372  1.00  0.00     0.309 C 
HETATM   43  C26 UNL     1      -5.962  15.741  19.683  1.00  0.00     0.309 C 
ENDBRANCH  40  41
ENDBRANCH  39  40
ENDBRANCH  38  39
ENDBRANCH  26  38
ENDBRANCH  18  20
ENDBRANCH  17  18
ENDBRANCH  16  17
ENDBRANCH  13  16
BRANCH  14  44
HETATM   44  C28 UNL     1     -12.627  12.160  26.979  1.00  0.00     0.070 C 
HETATM   45  C29 UNL     1     -11.769  12.775  25.841  1.00  0.00     0.019 C 
HETATM   46  C30 UNL     1     -14.025  12.581  26.591  1.00  0.00     0.019 C 
ENDBRANCH  14  44
ENDBRANCH   9  13
TORSDOF 12
ENDMDL
MODEL 5
REMARK VINA RESULT: -8.749273181      2.109      8.528
REMARK  12 active torsions:
REMARK  status: ('A' for Active; 'I' for Inactive)
REMARK    1  A    between atoms: C7_8  and  C8_9 
REMARK    2  A    between atoms: C11_12  and  N2_13 
REMARK    3  A    between atoms: N2_13  and  C12_14 
REMARK       I    between atoms: N2_13  and  C27_42 
REMARK    4  A    between atoms: C12_14  and  C13_15 
REMARK    5  A    between atoms: C13_15  and  N3_16 
REMARK    6  A    between atoms: N3_16  and  C14_18 
REMARK    7  A    between atoms: C16_20  and  N4_21 
REMARK    8  A    between atoms: N7_32  and  C22_34 
REMARK    9  A    between atoms: C22_34  and  C23_35 
REMARK   10  A    between atoms: C23_35  and  C24_36 
REMARK   11  A    between atoms: C24_36  and  N8_37 
REMARK   12  A    between atoms: C27_42  and  C28_44 
ROOT
HETATM    1  C1  UNL     1      -8.808  15.486  29.804  1.00  0.00     0.050 C 
HETATM    2  C2  UNL     1      -9.934  14.967  30.597  1.00  0.00    -0.033 A 
HETATM    3  C3  UNL     1      -9.753  14.725  31.934  1.00  0.00     0.031 A 
HETATM    4  C4  UNL     1     -10.817  14.287  32.686  1.00  0.00     0.045 A 
HETATM    5  C5  UNL     1     -10.701  14.013  34.101  1.00  0.00     0.099 C 
HETATM    6  N1  UNL     1     -10.619  13.777  35.243  1.00  0.00    -0.191 NA
HETATM    7  C6  UNL     1     -12.026  14.108  32.070  1.00  0.00     0.032 A 
HETATM    8  C7  UNL     1     -12.264  14.340  30.706  1.00  0.00    -0.025 A 
HETATM    9  C11 UNL     1     -11.183  14.780  29.962  1.00  0.00     0.054 A 
ENDROOT
BRANCH   8  10
HETATM   10  C8  UNL     1     -13.557  14.080  30.098  1.00  0.00     0.013 C 
HETATM   11  C9  UNL     1     -14.578  14.412  31.226  1.00  0.00     0.015 C 
HETATM   12  C10 UNL     1     -13.872  12.583  29.975  1.00  0.00     0.015 C 
ENDBRANCH   8  10
BRANCH   9  13
HETATM   13  N2  UNL     1     -11.276  15.155  28.602  1.00  0.00    -0.290 N 
HETATM   14  C27 UNL     1     -11.103  14.172  27.579  1.00  0.00     0.232 C 
HETATM   15  O1  UNL     1     -10.999  12.978  28.058  1.00  0.00    -0.272 OA
BRANCH  13  16
HETATM   16  C12 UNL     1     -11.656  16.411  28.105  1.00  0.00     0.117 C 
BRANCH  16  17
HETATM   17  C13 UNL     1     -10.786  17.540  27.821  1.00  0.00     0.107 C 
BRANCH  17  18
HETATM   18  N3  UNL     1     -10.264  17.845  26.580  1.00  0.00    -0.350 N 
ATOM     19  H3  UNL     1     -10.784  18.576  26.096  1.00  0.00     0.166 HD
BRANCH  18  20
HETATM   20  C14 UNL     1      -9.276  17.412  25.911  1.00  0.00     0.124 A 
HETATM   21  C15 UNL     1      -9.298  17.381  24.510  1.00  0.00     0.098 A 
HETATM   22  C16 UNL     1      -8.256  16.919  23.762  1.00  0.00     0.122 A 
HETATM   23  N6  UNL     1      -7.177  16.480  24.393  1.00  0.00    -0.177 N 
HETATM   24  C21 UNL     1      -7.117  16.494  25.754  1.00  0.00     0.681 A 
ATOM     25  H6  UNL     1      -6.384  16.129  23.855  1.00  0.00     0.185 HD
HETATM   26  N7  UNL     1      -6.044  16.051  26.299  1.00  0.00    -0.226 N 
HETATM   27  N9  UNL     1      -8.166  16.959  26.497  1.00  0.00    -0.177 N 
ATOM     28  H7  UNL     1      -5.280  15.708  25.716  1.00  0.00     0.177 HD
ATOM     29  H9  UNL     1      -8.100  16.960  27.515  1.00  0.00     0.186 HD
BRANCH  22  30
HETATM   30  N4  UNL     1      -8.345  16.920  22.340  1.00  0.00    -0.364 N 
HETATM   31  C17 UNL     1      -7.447  17.792  21.566  1.00  0.00     0.152 C 
HETATM   32  C18 UNL     1      -7.452  17.305  20.126  1.00  0.00     0.252 C 
HETATM   33  N5  UNL     1      -7.292  15.861  20.115  1.00  0.00    -0.072 N 
HETATM   34  C19 UNL     1      -8.430  15.183  20.688  1.00  0.00     0.252 C 
ATOM     35  H52 UNL     1      -7.093  15.518  19.175  1.00  0.00     0.277 HD
ATOM     36  H51 UNL     1      -6.426  15.582  20.576  1.00  0.00     0.277 HD
HETATM   37  C20 UNL     1      -9.251  16.137  21.564  1.00  0.00     0.152 C 
ENDBRANCH  22  30
BRANCH  26  38
HETATM   38  C22 UNL     1      -5.914  16.038  27.733  1.00  0.00     0.140 C 
BRANCH  38  39
HETATM   39  C23 UNL     1      -4.674  16.802  28.184  1.00  0.00     0.050 C 
BRANCH  39  40
HETATM   40  C24 UNL     1      -5.021  18.265  28.174  1.00  0.00     0.273 C 
BRANCH  40  41
HETATM   41  N8  UNL     1      -4.304  18.980  27.131  1.00  0.00     0.080 N 
HETATM   42  C25 UNL     1      -3.351  18.100  26.459  1.00  0.00     0.309 C 
HETATM   43  C26 UNL     1      -5.245  19.511  26.158  1.00  0.00     0.309 C 
ENDBRANCH  40  41
ENDBRANCH  39  40
ENDBRANCH  38  39
ENDBRANCH  26  38
ENDBRANCH  18  20
ENDBRANCH  17  18
ENDBRANCH  16  17
ENDBRANCH  13  16
BRANCH  14  44
HETATM   44  C28 UNL     1     -11.019  14.263  26.154  1.00  0.00     0.070 C 
HETATM   45  C29 UNL     1     -11.899  13.138  25.549  1.00  0.00     0.019 C 
HETATM   46  C30 UNL     1      -9.667  13.978  25.544  1.00  0.00     0.019 C 
ENDBRANCH  14  44
ENDBRANCH   9  13
TORSDOF 12
ENDMDL
