MODEL 1
REMARK VINA RESULT: -8.836007632      0.000      0.000
REMARK  12 active torsions:
REMARK  status: ('A' for Active; 'I' for Inactive)
REMARK    1  A    between atoms: C2_2  and  N1_3 
REMARK    2  A    between atoms: N1_3  and  C3_5 
REMARK    3  A    between atoms: C4_8  and  C5_9 
REMARK    4  A    between atoms: N3_12  and  C8_13 
REMARK    5  A    between atoms: C8_13  and  C9_14 
REMARK    6  A    between atoms: C9_14  and  C10_15 
REMARK    7  A    between atoms: C10_15  and  C11_16 
REMARK    8  A    between atoms: C11_16  and  C12_17 
REMARK    9  A    between atoms: C12_17  and  N4_18 
REMARK       I    between atoms: N4_18  and  C13_20 
REMARK   10  A    between atoms: C13_20  and  C14_22 
REMARK   11  A    between atoms: N5_25  and  C17_26 
REMARK   12  A    between atoms: C18_27  and  C19_28 
ROOT
HETATM    1  N4  UNL     1      -9.326  16.060  27.107  1.00  0.00    -0.340 N 
ATOM      2  H4  UNL     1      -9.053  16.205  26.135  1.00  0.00     0.167 HD
HETATM    3  C13 UNL     1      -8.304  16.339  28.027  1.00  0.00     0.225 C 
HETATM    4  O1  UNL     1      -8.528  16.209  29.253  1.00  0.00    -0.273 OA
ENDROOT
BRANCH   1   5
HETATM    5  C12 UNL     1     -10.640  15.623  27.257  1.00  0.00     0.064 C 
BRANCH   5   6
HETATM    6  C11 UNL     1     -11.330  15.166  25.956  1.00  0.00     0.045 C 
BRANCH   6   7
HETATM    7  C10 UNL     1     -11.141  13.672  25.987  1.00  0.00     0.010 C 
BRANCH   7   8
HETATM    8  C9  UNL     1     -12.320  12.799  26.033  1.00  0.00     0.044 C 
BRANCH   8   9
HETATM    9  C8  UNL     1     -13.575  13.328  26.626  1.00  0.00     0.058 C 
BRANCH   9  10
HETATM   10  N3  UNL     1     -13.687  13.069  28.004  1.00  0.00    -0.393 N 
HETATM   11  C7  UNL     1     -13.573  11.772  28.530  1.00  0.00     0.122 C 
HETATM   12  C6  UNL     1     -12.646  11.921  29.782  1.00  0.00     0.032 C 
HETATM   13  C5  UNL     1     -12.075  13.258  29.631  1.00  0.00     0.055 C 
HETATM   14  C26 UNL     1     -13.236  14.008  28.948  1.00  0.00     0.132 C 
BRANCH  13  15
HETATM   15  C4  UNL     1     -11.792  13.961  30.951  1.00  0.00     0.023 A 
HETATM   16  N2  UNL     1     -10.697  14.687  31.056  1.00  0.00    -0.340 N 
HETATM   17  C3  UNL     1     -10.462  15.294  32.214  1.00  0.00     0.144 A 
ATOM     18  H2  UNL     1     -10.050  14.779  30.273  1.00  0.00     0.168 HD
HETATM   19  S1  UNL     1     -11.788  14.847  33.181  1.00  0.00    -0.064 SA
HETATM   20  C27 UNL     1     -12.610  13.883  32.042  1.00  0.00     0.078 A 
BRANCH  17  21
HETATM   21  N1  UNL     1      -9.429  16.056  32.485  1.00  0.00    -0.371 N 
ATOM     22  H1  UNL     1      -8.740  16.247  31.759  1.00  0.00     0.161 HD
BRANCH  21  23
HETATM   23  C2  UNL     1      -9.258  16.619  33.785  1.00  0.00     0.117 C 
HETATM   24  C1  UNL     1      -8.302  15.744  34.581  1.00  0.00     0.026 C 
ENDBRANCH  21  23
ENDBRANCH  17  21
ENDBRANCH  13  15
ENDBRANCH   9  10
ENDBRANCH   8   9
ENDBRANCH   7   8
ENDBRANCH   6   7
ENDBRANCH   5   6
ENDBRANCH   1   5
BRANCH   3  25
HETATM   25  C14 UNL     1      -6.941  16.791  27.530  1.00  0.00     0.081 C 
HETATM   26  C15 UNL     1      -6.998  18.216  27.193  1.00  0.00     0.034 C 
HETATM   27  C16 UNL     1      -6.082  18.655  26.076  1.00  0.00     0.125 C 
HETATM   28  N5  UNL     1      -5.825  17.662  25.071  1.00  0.00    -0.366 N 
HETATM   29  C24 UNL     1      -5.433  16.352  25.578  1.00  0.00     0.125 C 
HETATM   30  C25 UNL     1      -6.522  15.847  26.468  1.00  0.00     0.034 C 
BRANCH  28  31
HETATM   31  C17 UNL     1      -5.886  17.837  23.674  1.00  0.00     0.120 A 
HETATM   32  C18 UNL     1      -7.020  17.668  22.914  1.00  0.00     0.054 A 
HETATM   33  C21 UNL     1      -7.003  17.878  21.532  1.00  0.00     0.259 A 
HETATM   34  O2  UNL     1      -8.056  17.713  20.888  1.00  0.00    -0.267 OA
HETATM   35  N6  UNL     1      -5.887  18.245  20.921  1.00  0.00    -0.275 N 
HETATM   36  C22 UNL     1      -4.794  18.407  21.656  1.00  0.00     0.330 A 
ATOM     37  H6  UNL     1      -5.868  18.399  19.913  1.00  0.00     0.173 HD
HETATM   38  O3  UNL     1      -3.728  18.760  21.056  1.00  0.00    -0.246 OA
HETATM   39  N7  UNL     1      -4.782  18.209  23.009  1.00  0.00    -0.289 N 
HETATM   40  C23 UNL     1      -3.541  18.411  23.680  1.00  0.00     0.163 C 
BRANCH  32  41
HETATM   41  C19 UNL     1      -8.289  17.231  23.551  1.00  0.00     0.044 C 
HETATM   42  C20 UNL     1      -8.393  15.713  23.438  1.00  0.00     0.010 C 
ENDBRANCH  32  41
ENDBRANCH  28  31
ENDBRANCH   3  25
TORSDOF 12
ENDMDL
MODEL 2
REMARK VINA RESULT: -8.694983684      3.346     10.440
REMARK  12 active torsions:
REMARK  status: ('A' for Active; 'I' for Inactive)
REMARK    1  A    between atoms: C2_2  and  N1_3 
REMARK    2  A    between atoms: N1_3  and  C3_5 
REMARK    3  A    between atoms: C4_8  and  C5_9 
REMARK    4  A    between atoms: N3_12  and  C8_13 
REMARK    5  A    between atoms: C8_13  and  C9_14 
REMARK    6  A    between atoms: C9_14  and  C10_15 
REMARK    7  A    between atoms: C10_15  and  C11_16 
REMARK    8  A    between atoms: C11_16  and  C12_17 
REMARK    9  A    between atoms: C12_17  and  N4_18 
REMARK       I    between atoms: N4_18  and  C13_20 
REMARK   10  A    between atoms: C13_20  and  C14_22 
REMARK   11  A    between atoms: N5_25  and  C17_26 
REMARK   12  A    between atoms: C18_27  and  C19_28 
ROOT
HETATM    1  N4  UNL     1      -9.503  15.863  27.081  1.00  0.00    -0.340 N 
ATOM      2  H4  UNL     1      -9.589  15.650  28.075  1.00  0.00     0.167 HD
HETATM    3  C13 UNL     1     -10.475  15.236  26.285  1.00  0.00     0.225 C 
HETATM    4  O1  UNL     1     -10.478  15.435  25.048  1.00  0.00    -0.273 OA
ENDROOT
BRANCH   1   5
HETATM    5  C12 UNL     1      -8.444  16.717  26.783  1.00  0.00     0.064 C 
BRANCH   5   6
HETATM    6  C11 UNL     1      -7.731  17.326  28.007  1.00  0.00     0.045 C 
BRANCH   6   7
HETATM    7  C10 UNL     1      -6.524  16.438  28.164  1.00  0.00     0.010 C 
BRANCH   7   8
HETATM    8  C9  UNL     1      -5.188  17.042  28.204  1.00  0.00     0.044 C 
BRANCH   8   9
HETATM    9  C8  UNL     1      -4.997  18.389  27.607  1.00  0.00     0.058 C 
BRANCH   9  10
HETATM   10  N3  UNL     1      -4.603  18.345  26.258  1.00  0.00    -0.393 N 
HETATM   11  C7  UNL     1      -3.508  17.579  25.825  1.00  0.00     0.122 C 
HETATM   12  C6  UNL     1      -4.006  16.854  24.531  1.00  0.00     0.032 C 
HETATM   13  C5  UNL     1      -5.454  17.050  24.561  1.00  0.00     0.055 C 
HETATM   14  C26 UNL     1      -5.558  18.435  25.229  1.00  0.00     0.132 C 
BRANCH  13  15
HETATM   15  C4  UNL     1      -6.090  17.162  23.182  1.00  0.00     0.023 A 
HETATM   16  N2  UNL     1      -6.805  16.149  22.734  1.00  0.00    -0.340 N 
HETATM   17  C3  UNL     1      -7.353  16.259  21.530  1.00  0.00     0.144 A 
ATOM     18  H2  UNL     1      -6.934  15.308  23.295  1.00  0.00     0.168 HD
HETATM   19  S1  UNL     1      -6.863  17.801  21.002  1.00  0.00    -0.064 SA
HETATM   20  C27 UNL     1      -5.960  18.254  22.373  1.00  0.00     0.078 A 
BRANCH  17  21
HETATM   21  N1  UNL     1      -8.096  15.354  20.939  1.00  0.00    -0.371 N 
ATOM     22  H1  UNL     1      -7.739  14.406  20.824  1.00  0.00     0.161 HD
BRANCH  21  23
HETATM   23  C2  UNL     1      -9.398  15.680  20.455  1.00  0.00     0.117 C 
HETATM   24  C1  UNL     1      -9.513  15.234  19.005  1.00  0.00     0.026 C 
ENDBRANCH  21  23
ENDBRANCH  17  21
ENDBRANCH  13  15
ENDBRANCH   9  10
ENDBRANCH   8   9
ENDBRANCH   7   8
ENDBRANCH   6   7
ENDBRANCH   5   6
ENDBRANCH   1   5
BRANCH   3  25
HETATM   25  C14 UNL     1     -11.508  14.326  26.928  1.00  0.00     0.081 C 
HETATM   26  C15 UNL     1     -12.636  15.134  27.400  1.00  0.00     0.034 C 
HETATM   27  C16 UNL     1     -13.346  14.602  28.622  1.00  0.00     0.125 C 
HETATM   28  N5  UNL     1     -12.518  13.872  29.540  1.00  0.00    -0.366 N 
HETATM   29  C24 UNL     1     -11.684  12.839  28.937  1.00  0.00     0.125 C 
HETATM   30  C25 UNL     1     -10.799  13.484  27.919  1.00  0.00     0.034 C 
BRANCH  28  31
HETATM   31  C17 UNL     1     -12.459  14.033  30.938  1.00  0.00     0.120 A 
HETATM   32  C18 UNL     1     -11.647  14.935  31.588  1.00  0.00     0.054 A 
HETATM   33  C21 UNL     1     -11.658  15.047  32.981  1.00  0.00     0.259 A 
HETATM   34  O2  UNL     1     -10.906  15.879  33.521  1.00  0.00    -0.267 OA
HETATM   35  N6  UNL     1     -12.455  14.281  33.711  1.00  0.00    -0.275 N 
HETATM   36  C22 UNL     1     -13.236  13.411  33.083  1.00  0.00     0.330 A 
ATOM     37  H6  UNL     1     -12.467  14.357  34.728  1.00  0.00     0.173 HD
HETATM   38  O3  UNL     1     -13.997  12.681  33.797  1.00  0.00    -0.246 OA
HETATM   39  N7  UNL     1     -13.246  13.281  31.722  1.00  0.00    -0.289 N 
HETATM   40  C23 UNL     1     -14.128  12.305  31.173  1.00  0.00     0.163 C 
BRANCH  32  41
HETATM   41  C19 UNL     1     -10.718  15.796  30.812  1.00  0.00     0.044 C 
HETATM   42  C20 UNL     1      -9.357  15.108  30.747  1.00  0.00     0.010 C 
ENDBRANCH  32  41
ENDBRANCH  28  31
ENDBRANCH   3  25
TORSDOF 12
ENDMDL
MODEL 3
REMARK VINA RESULT: -8.453043472      2.284      5.482
REMARK  12 active torsions:
REMARK  status: ('A' for Active; 'I' for Inactive)
REMARK    1  A    between atoms: C2_2  and  N1_3 
REMARK    2  A    between atoms: N1_3  and  C3_5 
REMARK    3  A    between atoms: C4_8  and  C5_9 
REMARK    4  A    between atoms: N3_12  and  C8_13 
REMARK    5  A    between atoms: C8_13  and  C9_14 
REMARK    6  A    between atoms: C9_14  and  C10_15 
REMARK    7  A    between atoms: C10_15  and  C11_16 
REMARK    8  A    between atoms: C11_16  and  C12_17 
REMARK    9  A    between atoms: C12_17  and  N4_18 
REMARK       I    between atoms: N4_18  and  C13_20 
REMARK   10  A    between atoms: C13_20  and  C14_22 
REMARK   11  A    between atoms: N5_25  and  C17_26 
REMARK   12  A    between atoms: C18_27  and  C19_28 
ROOT
HETATM    1  N4  UNL     1     -10.678  16.091  29.986  1.00  0.00    -0.340 N 
ATOM      2  H4  UNL     1     -10.154  16.922  29.715  1.00  0.00     0.167 HD
HETATM    3  C13 UNL     1     -11.285  15.431  28.906  1.00  0.00     0.225 C 
HETATM    4  O1  UNL     1     -11.945  14.387  29.115  1.00  0.00    -0.273 OA
ENDROOT
BRANCH   1   5
HETATM    5  C12 UNL     1     -10.650  15.835  31.354  1.00  0.00     0.064 C 
BRANCH   5   6
HETATM    6  C11 UNL     1      -9.242  15.785  31.982  1.00  0.00     0.045 C 
BRANCH   6   7
HETATM    7  C10 UNL     1      -9.472  16.358  33.357  1.00  0.00     0.010 C 
BRANCH   7   8
HETATM    8  C9  UNL     1      -9.654  15.449  34.493  1.00  0.00     0.044 C 
BRANCH   8   9
HETATM    9  C8  UNL     1     -11.026  15.236  35.021  1.00  0.00     0.058 C 
BRANCH   9  10
HETATM   10  N3  UNL     1     -11.461  13.903  34.908  1.00  0.00    -0.393 N 
HETATM   11  C7  UNL     1     -12.477  13.379  35.723  1.00  0.00     0.122 C 
HETATM   12  C6  UNL     1     -13.404  12.577  34.751  1.00  0.00     0.032 C 
HETATM   13  C5  UNL     1     -12.974  13.014  33.425  1.00  0.00     0.055 C 
HETATM   14  C26 UNL     1     -11.469  13.256  33.659  1.00  0.00     0.132 C 
BRANCH  13  15
HETATM   15  C4  UNL     1     -13.099  11.942  32.351  1.00  0.00     0.023 A 
HETATM   16  N2  UNL     1     -12.943  12.292  31.089  1.00  0.00    -0.340 N 
HETATM   17  C3  UNL     1     -13.057  11.347  30.163  1.00  0.00     0.144 A 
ATOM     18  H2  UNL     1     -12.742  13.258  30.833  1.00  0.00     0.168 HD
HETATM   19  S1  UNL     1     -13.390   9.940  31.059  1.00  0.00    -0.064 SA
HETATM   20  C27 UNL     1     -13.369  10.629  32.617  1.00  0.00     0.078 A 
BRANCH  17  21
HETATM   21  N1  UNL     1     -12.925  11.521  28.870  1.00  0.00    -0.371 N 
ATOM     22  H1  UNL     1     -12.012  11.389  28.435  1.00  0.00     0.161 HD
BRANCH  21  23
HETATM   23  C2  UNL     1     -14.042  11.891  28.064  1.00  0.00     0.117 C 
HETATM   24  C1  UNL     1     -13.541  12.340  26.700  1.00  0.00     0.026 C 
ENDBRANCH  21  23
ENDBRANCH  17  21
ENDBRANCH  13  15
ENDBRANCH   9  10
ENDBRANCH   8   9
ENDBRANCH   7   8
ENDBRANCH   6   7
ENDBRANCH   5   6
ENDBRANCH   1   5
BRANCH   3  25
HETATM   25  C14 UNL     1     -11.137  15.987  27.499  1.00  0.00     0.081 C 
HETATM   26  C15 UNL     1     -10.752  14.905  26.590  1.00  0.00     0.034 C 
HETATM   27  C16 UNL     1      -9.892  15.318  25.419  1.00  0.00     0.125 C 
HETATM   28  N5  UNL     1      -9.018  16.429  25.666  1.00  0.00    -0.366 N 
HETATM   29  C24 UNL     1      -9.648  17.592  26.280  1.00  0.00     0.125 C 
HETATM   30  C25 UNL     1     -10.247  17.168  27.583  1.00  0.00     0.034 C 
BRANCH  28  31
HETATM   31  C17 UNL     1      -7.647  16.513  25.351  1.00  0.00     0.120 A 
HETATM   32  C18 UNL     1      -6.625  16.244  26.232  1.00  0.00     0.054 A 
HETATM   33  C21 UNL     1      -5.286  16.333  25.838  1.00  0.00     0.259 A 
HETATM   34  O2  UNL     1      -4.398  16.078  26.672  1.00  0.00    -0.267 OA
HETATM   35  N6  UNL     1      -4.972  16.682  24.600  1.00  0.00    -0.275 N 
HETATM   36  C22 UNL     1      -5.959  16.942  23.752  1.00  0.00     0.330 A 
ATOM     37  H6  UNL     1      -3.998  16.750  24.306  1.00  0.00     0.173 HD
HETATM   38  O3  UNL     1      -5.642  17.277  22.565  1.00  0.00    -0.246 OA
HETATM   39  N7  UNL     1      -7.276  16.862  24.110  1.00  0.00    -0.289 N 
HETATM   40  C23 UNL     1      -8.238  17.172  23.106  1.00  0.00     0.163 C 
BRANCH  32  41
HETATM   41  C19 UNL     1      -6.928  15.874  27.639  1.00  0.00     0.044 C 
HETATM   42  C20 UNL     1      -6.748  17.110  28.516  1.00  0.00     0.010 C 
ENDBRANCH  32  41
ENDBRANCH  28  31
ENDBRANCH   3  25
TORSDOF 12
ENDMDL
MODEL 4
REMARK VINA RESULT: -8.394040340      0.905      1.095
REMARK  12 active torsions:
REMARK  status: ('A' for Active; 'I' for Inactive)
REMARK    1  A    between atoms: C2_2  and  N1_3 
REMARK    2  A    between atoms: N1_3  and  C3_5 
REMARK    3  A    between atoms: C4_8  and  C5_9 
REMARK    4  A    between atoms: N3_12  and  C8_13 
REMARK    5  A    between atoms: C8_13  and  C9_14 
REMARK    6  A    between atoms: C9_14  and  C10_15 
REMARK    7  A    between atoms: C10_15  and  C11_16 
REMARK    8  A    between atoms: C11_16  and  C12_17 
REMARK    9  A    between atoms: C12_17  and  N4_18 
REMARK       I    between atoms: N4_18  and  C13_20 
REMARK   10  A    between atoms: C13_20  and  C14_22 
REMARK   11  A    between atoms: N5_25  and  C17_26 
REMARK   12  A    between atoms: C18_27  and  C19_28 
ROOT
HETATM    1  N4  UNL     1      -8.923  16.390  27.177  1.00  0.00    -0.340 N 
ATOM      2  H4  UNL     1      -8.740  16.570  26.190  1.00  0.00     0.167 HD
HETATM    3  C13 UNL     1      -7.817  16.630  28.008  1.00  0.00     0.225 C 
HETATM    4  O1  UNL     1      -7.928  16.456  29.244  1.00  0.00    -0.273 OA
ENDROOT
BRANCH   1   5
HETATM    5  C12 UNL     1     -10.220  15.954  27.433  1.00  0.00     0.064 C 
BRANCH   5   6
HETATM    6  C11 UNL     1     -10.962  15.360  26.218  1.00  0.00     0.045 C 
BRANCH   6   7
HETATM    7  C10 UNL     1     -10.663  13.888  26.334  1.00  0.00     0.010 C 
BRANCH   7   8
HETATM    8  C9  UNL     1     -11.772  12.934  26.441  1.00  0.00     0.044 C 
BRANCH   8   9
HETATM    9  C8  UNL     1     -12.101  12.370  27.775  1.00  0.00     0.058 C 
BRANCH   9  10
HETATM   10  N3  UNL     1     -12.490  13.348  28.708  1.00  0.00    -0.393 N 
HETATM   11  C7  UNL     1     -13.821  13.781  28.824  1.00  0.00     0.122 C 
HETATM   12  C6  UNL     1     -14.104  13.818  30.362  1.00  0.00     0.032 C 
HETATM   13  C5  UNL     1     -12.980  13.083  30.938  1.00  0.00     0.055 C 
HETATM   14  C26 UNL     1     -11.847  13.443  29.956  1.00  0.00     0.132 C 
BRANCH  13  15
HETATM   15  C4  UNL     1     -12.560  13.576  32.316  1.00  0.00     0.023 A 
HETATM   16  N2  UNL     1     -11.744  14.608  32.394  1.00  0.00    -0.340 N 
HETATM   17  C3  UNL     1     -11.385  15.026  33.602  1.00  0.00     0.144 A 
ATOM     18  H2  UNL     1     -11.399  15.070  31.554  1.00  0.00     0.168 HD
HETATM   19  S1  UNL     1     -12.195  13.964  34.655  1.00  0.00    -0.064 SA
HETATM   20  C27 UNL     1     -12.979  13.007  33.485  1.00  0.00     0.078 A 
BRANCH  17  21
HETATM   21  N1  UNL     1     -10.590  16.037  33.859  1.00  0.00    -0.371 N 
ATOM     22  H1  UNL     1     -10.965  16.869  34.315  1.00  0.00     0.161 HD
BRANCH  21  23
HETATM   23  C2  UNL     1      -9.208  15.988  33.510  1.00  0.00     0.117 C 
HETATM   24  C1  UNL     1      -8.376  15.978  34.783  1.00  0.00     0.026 C 
ENDBRANCH  21  23
ENDBRANCH  17  21
ENDBRANCH  13  15
ENDBRANCH   9  10
ENDBRANCH   8   9
ENDBRANCH   7   8
ENDBRANCH   6   7
ENDBRANCH   5   6
ENDBRANCH   1   5
BRANCH   3  25
HETATM   25  C14 UNL     1      -6.502  17.094  27.403  1.00  0.00     0.081 C 
HETATM   26  C15 UNL     1      -6.629  18.493  26.989  1.00  0.00     0.034 C 
HETATM   27  C16 UNL     1      -5.796  18.893  25.795  1.00  0.00     0.125 C 
HETATM   28  N5  UNL     1      -5.565  17.851  24.835  1.00  0.00    -0.366 N 
HETATM   29  C24 UNL     1      -5.099  16.586  25.390  1.00  0.00     0.125 C 
HETATM   30  C25 UNL     1      -6.116  16.101  26.373  1.00  0.00     0.034 C 
BRANCH  28  31
HETATM   31  C17 UNL     1      -5.715  17.941  23.436  1.00  0.00     0.120 A 
HETATM   32  C18 UNL     1      -6.891  17.715  22.760  1.00  0.00     0.054 A 
HETATM   33  C21 UNL     1      -6.963  17.841  21.369  1.00  0.00     0.259 A 
HETATM   34  O2  UNL     1      -8.051  17.628  20.803  1.00  0.00    -0.267 OA
HETATM   35  N6  UNL     1      -5.892  18.182  20.669  1.00  0.00    -0.275 N 
HETATM   36  C22 UNL     1      -4.758  18.398  21.324  1.00  0.00     0.330 A 
ATOM     37  H6  UNL     1      -5.937  18.275  19.654  1.00  0.00     0.173 HD
HETATM   38  O3  UNL     1      -3.736  18.725  20.638  1.00  0.00    -0.246 OA
HETATM   39  N7  UNL     1      -4.660  18.283  22.682  1.00  0.00    -0.289 N 
HETATM   40  C23 UNL     1      -3.382  18.537  23.261  1.00  0.00     0.163 C 
BRANCH  32  41
HETATM   41  C19 UNL     1      -8.113  17.305  23.500  1.00  0.00     0.044 C 
HETATM   42  C20 UNL     1      -8.210  15.782  23.471  1.00  0.00     0.010 C 
ENDBRANCH  32  41
ENDBRANCH  28  31
ENDBRANCH   3  25
TORSDOF 12
ENDMDL
MODEL 5
REMARK VINA RESULT: -8.387436277      0.609      1.990
REMARK  12 active torsions:
REMARK  status: ('A' for Active; 'I' for Inactive)
REMARK    1  A    between atoms: C2_2  and  N1_3 
REMARK    2  A    between atoms: N1_3  and  C3_5 
REMARK    3  A    between atoms: C4_8  and  C5_9 
REMARK    4  A    between atoms: N3_12  and  C8_13 
REMARK    5  A    between atoms: C8_13  and  C9_14 
REMARK    6  A    between atoms: C9_14  and  C10_15 
REMARK    7  A    between atoms: C10_15  and  C11_16 
REMARK    8  A    between atoms: C11_16  and  C12_17 
REMARK    9  A    between atoms: C12_17  and  N4_18 
REMARK       I    between atoms: N4_18  and  C13_20 
REMARK   10  A    between atoms: C13_20  and  C14_22 
REMARK   11  A    between atoms: N5_25  and  C17_26 
REMARK   12  A    between atoms: C18_27  and  C19_28 
ROOT
HETATM    1  N4  UNL     1      -9.217  15.749  27.037  1.00  0.00    -0.340 N 
ATOM      2  H4  UNL     1      -8.880  15.793  26.075  1.00  0.00     0.167 HD
HETATM    3  C13 UNL     1      -8.298  16.238  27.979  1.00  0.00     0.225 C 
HETATM    4  O1  UNL     1      -8.608  16.246  29.193  1.00  0.00    -0.273 OA
ENDROOT
BRANCH   1   5
HETATM    5  C12 UNL     1     -10.497  15.214  27.155  1.00  0.00     0.064 C 
BRANCH   5   6
HETATM    6  C11 UNL     1     -10.671  13.798  26.567  1.00  0.00     0.045 C 
BRANCH   6   7
HETATM    7  C10 UNL     1     -11.954  13.920  25.785  1.00  0.00     0.010 C 
BRANCH   7   8
HETATM    8  C9  UNL     1     -13.065  13.010  26.082  1.00  0.00     0.044 C 
BRANCH   8   9
HETATM    9  C8  UNL     1     -14.169  13.495  26.950  1.00  0.00     0.058 C 
BRANCH   9  10
HETATM   10  N3  UNL     1     -14.028  13.105  28.294  1.00  0.00    -0.393 N 
HETATM   11  C7  UNL     1     -13.644  11.804  28.657  1.00  0.00     0.122 C 
HETATM   12  C6  UNL     1     -12.567  11.994  29.775  1.00  0.00     0.032 C 
HETATM   13  C5  UNL     1     -12.229  13.413  29.691  1.00  0.00     0.055 C 
HETATM   14  C26 UNL     1     -13.579  14.022  29.262  1.00  0.00     0.132 C 
BRANCH  13  15
HETATM   15  C4  UNL     1     -11.852  14.038  31.027  1.00  0.00     0.023 A 
HETATM   16  N2  UNL     1     -10.748  14.756  31.098  1.00  0.00    -0.340 N 
HETATM   17  C3  UNL     1     -10.431  15.294  32.269  1.00  0.00     0.144 A 
ATOM     18  H2  UNL     1     -10.157  14.893  30.278  1.00  0.00     0.168 HD
HETATM   19  S1  UNL     1     -11.689  14.793  33.299  1.00  0.00    -0.064 SA
HETATM   20  C27 UNL     1     -12.592  13.897  32.166  1.00  0.00     0.078 A 
BRANCH  17  21
HETATM   21  N1  UNL     1      -9.378  16.038  32.512  1.00  0.00    -0.371 N 
ATOM     22  H1  UNL     1      -8.698  16.205  31.771  1.00  0.00     0.161 HD
BRANCH  21  23
HETATM   23  C2  UNL     1      -9.172  16.615  33.800  1.00  0.00     0.117 C 
HETATM   24  C1  UNL     1      -8.217  15.734  34.590  1.00  0.00     0.026 C 
ENDBRANCH  21  23
ENDBRANCH  17  21
ENDBRANCH  13  15
ENDBRANCH   9  10
ENDBRANCH   8   9
ENDBRANCH   7   8
ENDBRANCH   6   7
ENDBRANCH   5   6
ENDBRANCH   1   5
BRANCH   3  25
HETATM   25  C14 UNL     1      -6.943  16.749  27.519  1.00  0.00     0.081 C 
HETATM   26  C15 UNL     1      -7.046  18.176  27.204  1.00  0.00     0.034 C 
HETATM   27  C16 UNL     1      -6.122  18.667  26.115  1.00  0.00     0.125 C 
HETATM   28  N5  UNL     1      -5.808  17.702  25.100  1.00  0.00    -0.366 N 
HETATM   29  C24 UNL     1      -5.378  16.399  25.594  1.00  0.00     0.125 C 
HETATM   30  C25 UNL     1      -6.467  15.839  26.452  1.00  0.00     0.034 C 
BRANCH  28  31
HETATM   31  C17 UNL     1      -5.845  17.898  23.705  1.00  0.00     0.120 A 
HETATM   32  C18 UNL     1      -4.772  18.297  22.943  1.00  0.00     0.054 A 
HETATM   33  C21 UNL     1      -4.884  18.453  21.558  1.00  0.00     0.259 A 
HETATM   34  O2  UNL     1      -3.884  18.815  20.912  1.00  0.00    -0.267 OA
HETATM   35  N6  UNL     1      -6.036  18.220  20.947  1.00  0.00    -0.275 N 
HETATM   36  C22 UNL     1      -7.070  17.836  21.684  1.00  0.00     0.330 A 
ATOM     37  H6  UNL     1      -6.125  18.333  19.937  1.00  0.00     0.173 HD
HETATM   38  O3  UNL     1      -8.171  17.615  21.083  1.00  0.00    -0.246 OA
HETATM   39  N7  UNL     1      -6.988  17.675  23.039  1.00  0.00    -0.289 N 
HETATM   40  C23 UNL     1      -8.174  17.263  23.713  1.00  0.00     0.163 C 
BRANCH  32  41
HETATM   41  C19 UNL     1      -3.467  18.596  23.588  1.00  0.00     0.044 C 
HETATM   42  C20 UNL     1      -2.587  17.352  23.504  1.00  0.00     0.010 C 
ENDBRANCH  32  41
ENDBRANCH  28  31
ENDBRANCH   3  25
TORSDOF 12
ENDMDL
