MODEL 1
REMARK VINA RESULT: -10.203730193      0.000      0.000
REMARK  11 active torsions:
REMARK  status: ('A' for Active; 'I' for Inactive)
REMARK    1  A    between atoms: C2_2  and  C3_3 
REMARK    2  A    between atoms: C5_5  and  C6_6 
REMARK       I    between atoms: C6_6  and  N1_8 
REMARK    3  A    between atoms: N1_8  and  C7_10 
REMARK    4  A    between atoms: C7_10  and  C8_11 
REMARK    5  A    between atoms: C8_11  and  C9_12 
REMARK    6  A    between atoms: C9_12  and  N2_13 
REMARK       I    between atoms: N2_13  and  C10_15 
REMARK       I    between atoms: C10_15  and  N3_17 
REMARK    7  A    between atoms: N3_17  and  C11_19 
REMARK    8  A    between atoms: C14_22  and  C15_23 
REMARK    9  A    between atoms: C15_23  and  N4_24 
REMARK   10  A    between atoms: C17_26  and  C18_27 
REMARK   11  A    between atoms: C18_27  and  C19_28 
REMARK       I    between atoms: C19_28  and  N5_30 
ROOT
HETATM    1  C11 UNL     1      -9.693  14.166  27.070  1.00  0.00     0.086 C 
HETATM    2  C12 UNL     1      -8.362  14.151  27.740  1.00  0.00     0.026 C 
HETATM    3  C13 UNL     1      -7.828  15.474  28.180  1.00  0.00     0.008 C 
HETATM    4  C14 UNL     1      -8.051  16.499  27.129  1.00  0.00     0.006 C 
HETATM    5  C26 UNL     1      -9.554  16.582  26.856  1.00  0.00     0.008 C 
HETATM    6  C27 UNL     1      -9.892  15.314  26.103  1.00  0.00     0.026 C 
ENDROOT
BRANCH   1   7
HETATM    7  N3  UNL     1     -10.732  14.161  28.078  1.00  0.00    -0.339 N 
HETATM    8  C10 UNL     1     -11.725  13.107  28.140  1.00  0.00     0.316 C 
HETATM    9  N2  UNL     1     -12.729  13.133  29.127  1.00  0.00    -0.343 N 
HETATM   10  O2  UNL     1     -11.585  12.226  27.255  1.00  0.00    -0.247 OA
ATOM     11  H2  UNL     1     -12.768  13.901  29.798  1.00  0.00     0.164 HD
ATOM     12  H3  UNL     1     -10.766  14.918  28.762  1.00  0.00     0.164 HD
BRANCH   9  13
HETATM   13  C9  UNL     1     -13.725  12.048  29.189  1.00  0.00     0.126 C 
BRANCH  13  14
HETATM   14  C8  UNL     1     -13.234  11.008  30.107  1.00  0.00     0.039 C 
BRANCH  14  15
HETATM   15  C7  UNL     1     -13.572  10.989  31.523  1.00  0.00     0.124 C 
BRANCH  15  16
HETATM   16  N1  UNL     1     -12.798  11.760  32.430  1.00  0.00    -0.356 N 
HETATM   17  C6  UNL     1     -12.997  13.082  32.765  1.00  0.00     0.269 C 
HETATM   18  O1  UNL     1     -13.989  13.717  32.247  1.00  0.00    -0.266 OA
ATOM     19  H1  UNL     1     -12.015  11.287  32.879  1.00  0.00     0.162 HD
BRANCH  17  20
HETATM   20  C5  UNL     1     -12.183  13.869  33.666  1.00  0.00     0.119 A 
HETATM   21  C4  UNL     1     -11.228  14.828  33.230  1.00  0.00     0.063 A 
HETATM   22  C3  UNL     1     -10.645  15.421  34.312  1.00  0.00     0.028 A 
HETATM   23  N9  UNL     1     -11.211  14.855  35.376  1.00  0.00    -0.302 N 
HETATM   24  N8  UNL     1     -12.128  13.932  34.990  1.00  0.00    -0.291 N 
ATOM     25  H9  UNL     1     -10.988  15.085  36.344  1.00  0.00     0.186 HD
HETATM   26  C28 UNL     1     -12.911  13.186  35.976  1.00  0.00     0.178 C 
BRANCH  22  27
HETATM   27  C2  UNL     1      -9.580  16.492  34.302  1.00  0.00     0.054 C 
HETATM   28  C1  UNL     1      -8.430  16.154  35.193  1.00  0.00     0.011 C 
ENDBRANCH  22  27
ENDBRANCH  17  20
ENDBRANCH  15  16
ENDBRANCH  14  15
ENDBRANCH  13  14
ENDBRANCH   9  13
ENDBRANCH   1   7
BRANCH   4  29
HETATM   29  C15 UNL     1      -7.456  17.840  27.362  1.00  0.00     0.154 C 
BRANCH  29  30
HETATM   30  N4  UNL     1      -6.641  18.222  26.244  1.00  0.00    -0.287 N 
HETATM   31  C16 UNL     1      -6.273  17.479  25.215  1.00  0.00     0.138 A 
HETATM   32  C17 UNL     1      -5.494  18.230  24.371  1.00  0.00     0.053 A 
HETATM   33  N6  UNL     1      -5.421  19.460  24.958  1.00  0.00    -0.289 N 
HETATM   34  N7  UNL     1      -6.117  19.421  26.075  1.00  0.00    -0.241 N 
ATOM     35  H6  UNL     1      -4.916  20.267  24.595  1.00  0.00     0.188 HD
ATOM     36  H7  UNL     1      -6.235  20.206  26.716  1.00  0.00     0.208 HD
BRANCH  32  37
HETATM   37  C18 UNL     1      -4.886  17.777  23.121  1.00  0.00     0.163 C 
BRANCH  37  38
HETATM   38  C19 UNL     1      -5.185  18.642  21.977  1.00  0.00     0.227 C 
HETATM   39  O3  UNL     1      -5.003  19.877  22.061  1.00  0.00    -0.273 OA
HETATM   40  N5  UNL     1      -5.677  18.091  20.779  1.00  0.00    -0.334 N 
HETATM   41  C20 UNL     1      -6.866  17.637  20.692  1.00  0.00    -0.011 C 
ATOM     42  H5  UNL     1      -5.069  18.054  19.960  1.00  0.00     0.168 HD
HETATM   43  C21 UNL     1      -7.886  17.597  21.746  1.00  0.00     0.052 C 
HETATM   44  C25 UNL     1      -7.277  17.057  19.356  1.00  0.00     0.052 C 
HETATM   45  C22 UNL     1      -8.131  16.138  22.082  1.00  0.00     0.006 C 
HETATM   46  C23 UNL     1      -7.629  15.206  21.001  1.00  0.00     0.001 C 
HETATM   47  C24 UNL     1      -7.926  15.714  19.604  1.00  0.00     0.006 C 
ENDBRANCH  37  38
ENDBRANCH  32  37
ENDBRANCH  29  30
ENDBRANCH   4  29
TORSDOF 11
ENDMDL
MODEL 2
REMARK VINA RESULT: -10.131783561      2.459      5.008
REMARK  11 active torsions:
REMARK  status: ('A' for Active; 'I' for Inactive)
REMARK    1  A    between atoms: C2_2  and  C3_3 
REMARK    2  A    between atoms: C5_5  and  C6_6 
REMARK       I    between atoms: C6_6  and  N1_8 
REMARK    3  A    between atoms: N1_8  and  C7_10 
REMARK    4  A    between atoms: C7_10  and  C8_11 
REMARK    5  A    between atoms: C8_11  and  C9_12 
REMARK    6  A    between atoms: C9_12  and  N2_13 
REMARK       I    between atoms: N2_13  and  C10_15 
REMARK       I    between atoms: C10_15  and  N3_17 
REMARK    7  A    between atoms: N3_17  and  C11_19 
REMARK    8  A    between atoms: C14_22  and  C15_23 
REMARK    9  A    between atoms: C15_23  and  N4_24 
REMARK   10  A    between atoms: C17_26  and  C18_27 
REMARK   11  A    between atoms: C18_27  and  C19_28 
REMARK       I    between atoms: C19_28  and  N5_30 
ROOT
HETATM    1  C11 UNL     1      -7.254  16.258  27.994  1.00  0.00     0.086 C 
HETATM    2  C12 UNL     1      -5.786  16.416  28.199  1.00  0.00     0.026 C 
HETATM    3  C13 UNL     1      -5.229  17.782  27.969  1.00  0.00     0.008 C 
HETATM    4  C14 UNL     1      -5.814  18.380  26.742  1.00  0.00     0.006 C 
HETATM    5  C26 UNL     1      -7.333  18.435  26.916  1.00  0.00     0.008 C 
HETATM    6  C27 UNL     1      -7.799  17.000  26.792  1.00  0.00     0.026 C 
ENDROOT
BRANCH   1   7
HETATM    7  N3  UNL     1      -7.948  16.658  29.199  1.00  0.00    -0.339 N 
HETATM    8  C10 UNL     1      -8.608  15.689  30.052  1.00  0.00     0.316 C 
HETATM    9  N2  UNL     1      -9.282  16.110  31.216  1.00  0.00    -0.343 N 
HETATM   10  O2  UNL     1      -8.508  14.505  29.645  1.00  0.00    -0.247 OA
ATOM     11  H2  UNL     1      -9.318  17.100  31.457  1.00  0.00     0.164 HD
ATOM     12  H3  UNL     1      -7.973  17.646  29.454  1.00  0.00     0.164 HD
BRANCH   9  13
HETATM   13  C9  UNL     1      -9.937  15.114  32.083  1.00  0.00     0.126 C 
BRANCH  13  14
HETATM   14  C8  UNL     1     -11.388  15.358  32.070  1.00  0.00     0.039 C 
BRANCH  14  15
HETATM   15  C7  UNL     1     -12.297  14.636  31.191  1.00  0.00     0.124 C 
BRANCH  15  16
HETATM   16  N1  UNL     1     -12.136  14.749  29.785  1.00  0.00    -0.356 N 
HETATM   17  C6  UNL     1     -11.859  13.728  28.903  1.00  0.00     0.269 C 
HETATM   18  O1  UNL     1     -11.753  12.526  29.349  1.00  0.00    -0.266 OA
ATOM     19  H1  UNL     1     -12.236  15.683  29.387  1.00  0.00     0.162 HD
BRANCH  17  20
HETATM   20  C5  UNL     1     -11.665  13.858  27.474  1.00  0.00     0.119 A 
HETATM   21  C4  UNL     1     -10.538  14.497  26.888  1.00  0.00     0.063 A 
HETATM   22  C3  UNL     1     -10.630  14.435  25.529  1.00  0.00     0.028 A 
HETATM   23  N9  UNL     1     -11.765  13.787  25.278  1.00  0.00    -0.302 N 
HETATM   24  N8  UNL     1     -12.381  13.443  26.438  1.00  0.00    -0.291 N 
ATOM     25  H9  UNL     1     -12.122  13.577  24.346  1.00  0.00     0.186 HD
HETATM   26  C28 UNL     1     -13.639  12.695  26.433  1.00  0.00     0.178 C 
BRANCH  22  27
HETATM   27  C2  UNL     1      -9.649  14.988  24.521  1.00  0.00     0.054 C 
HETATM   28  C1  UNL     1      -9.988  16.383  24.109  1.00  0.00     0.011 C 
ENDBRANCH  22  27
ENDBRANCH  17  20
ENDBRANCH  15  16
ENDBRANCH  14  15
ENDBRANCH  13  14
ENDBRANCH   9  13
ENDBRANCH   1   7
BRANCH   4  29
HETATM   29  C15 UNL     1      -5.261  19.687  26.303  1.00  0.00     0.154 C 
BRANCH  29  30
HETATM   30  N4  UNL     1      -5.361  19.815  24.878  1.00  0.00    -0.287 N 
HETATM   31  C16 UNL     1      -5.170  18.881  23.963  1.00  0.00     0.138 A 
HETATM   32  C17 UNL     1      -5.363  19.421  22.717  1.00  0.00     0.053 A 
HETATM   33  N6  UNL     1      -5.679  20.729  22.945  1.00  0.00    -0.289 N 
HETATM   34  N7  UNL     1      -5.670  20.932  24.246  1.00  0.00    -0.241 N 
ATOM     35  H6  UNL     1      -5.887  21.428  22.232  1.00  0.00     0.188 HD
ATOM     36  H7  UNL     1      -5.872  21.823  24.699  1.00  0.00     0.208 HD
BRANCH  32  37
HETATM   37  C18 UNL     1      -5.245  18.720  21.439  1.00  0.00     0.163 C 
BRANCH  37  38
HETATM   38  C19 UNL     1      -4.880  17.309  21.578  1.00  0.00     0.227 C 
HETATM   39  O3  UNL     1      -3.677  16.966  21.538  1.00  0.00    -0.273 OA
HETATM   40  N5  UNL     1      -5.876  16.331  21.759  1.00  0.00    -0.334 N 
HETATM   41  C20 UNL     1      -6.658  15.991  20.809  1.00  0.00    -0.011 C 
ATOM     42  H5  UNL     1      -5.976  15.883  22.670  1.00  0.00     0.168 HD
HETATM   43  C21 UNL     1      -6.677  16.513  19.438  1.00  0.00     0.052 C 
HETATM   44  C25 UNL     1      -7.698  14.938  21.128  1.00  0.00     0.052 C 
HETATM   45  C22 UNL     1      -7.978  17.273  19.263  1.00  0.00     0.006 C 
HETATM   46  C23 UNL     1      -9.001  16.914  20.318  1.00  0.00     0.001 C 
HETATM   47  C24 UNL     1      -9.035  15.428  20.620  1.00  0.00     0.006 C 
ENDBRANCH  37  38
ENDBRANCH  32  37
ENDBRANCH  29  30
ENDBRANCH   4  29
TORSDOF 11
ENDMDL
MODEL 3
REMARK VINA RESULT: -9.943886678      1.100      1.451
REMARK  11 active torsions:
REMARK  status: ('A' for Active; 'I' for Inactive)
REMARK    1  A    between atoms: C2_2  and  C3_3 
REMARK    2  A    between atoms: C5_5  and  C6_6 
REMARK       I    between atoms: C6_6  and  N1_8 
REMARK    3  A    between atoms: N1_8  and  C7_10 
REMARK    4  A    between atoms: C7_10  and  C8_11 
REMARK    5  A    between atoms: C8_11  and  C9_12 
REMARK    6  A    between atoms: C9_12  and  N2_13 
REMARK       I    between atoms: N2_13  and  C10_15 
REMARK       I    between atoms: C10_15  and  N3_17 
REMARK    7  A    between atoms: N3_17  and  C11_19 
REMARK    8  A    between atoms: C14_22  and  C15_23 
REMARK    9  A    between atoms: C15_23  and  N4_24 
REMARK   10  A    between atoms: C17_26  and  C18_27 
REMARK   11  A    between atoms: C18_27  and  C19_28 
REMARK       I    between atoms: C19_28  and  N5_30 
ROOT
HETATM    1  C11 UNL     1     -10.110  14.336  26.282  1.00  0.00     0.086 C 
HETATM    2  C12 UNL     1      -8.849  14.054  27.024  1.00  0.00     0.026 C 
HETATM    3  C13 UNL     1      -8.195  15.223  27.685  1.00  0.00     0.008 C 
HETATM    4  C14 UNL     1      -8.207  16.402  26.782  1.00  0.00     0.006 C 
HETATM    5  C26 UNL     1      -9.662  16.719  26.431  1.00  0.00     0.008 C 
HETATM    6  C27 UNL     1     -10.090  15.621  25.481  1.00  0.00     0.026 C 
ENDROOT
BRANCH   1   7
HETATM    7  N3  UNL     1     -11.220  14.330  27.211  1.00  0.00    -0.339 N 
HETATM    8  C10 UNL     1     -12.056  13.158  27.388  1.00  0.00     0.316 C 
HETATM    9  N2  UNL     1     -13.134  13.185  28.295  1.00  0.00    -0.343 N 
HETATM   10  O2  UNL     1     -11.717  12.181  26.674  1.00  0.00    -0.247 OA
ATOM     11  H2  UNL     1     -13.337  14.034  28.824  1.00  0.00     0.164 HD
ATOM     12  H3  UNL     1     -11.419  15.170  27.754  1.00  0.00     0.164 HD
BRANCH   9  13
HETATM   13  C9  UNL     1     -13.967  11.983  28.477  1.00  0.00     0.126 C 
BRANCH  13  14
HETATM   14  C8  UNL     1     -13.424  11.197  29.596  1.00  0.00     0.039 C 
BRANCH  14  15
HETATM   15  C7  UNL     1     -13.605  11.585  30.988  1.00  0.00     0.124 C 
BRANCH  15  16
HETATM   16  N1  UNL     1     -12.615  12.384  31.618  1.00  0.00    -0.356 N 
HETATM   17  C6  UNL     1     -12.616  13.757  31.736  1.00  0.00     0.269 C 
HETATM   18  O1  UNL     1     -13.609  14.425  31.264  1.00  0.00    -0.266 OA
ATOM     19  H1  UNL     1     -11.821  11.891  32.025  1.00  0.00     0.162 HD
BRANCH  17  20
HETATM   20  C5  UNL     1     -11.586  14.565  32.352  1.00  0.00     0.119 A 
HETATM   21  C4  UNL     1     -11.290  14.538  33.742  1.00  0.00     0.063 A 
HETATM   22  C3  UNL     1     -10.256  15.387  34.009  1.00  0.00     0.028 A 
HETATM   23  N9  UNL     1      -9.923  15.921  32.836  1.00  0.00    -0.302 N 
HETATM   24  N8  UNL     1     -10.715  15.431  31.850  1.00  0.00    -0.291 N 
ATOM     25  H9  UNL     1      -9.176  16.603  32.699  1.00  0.00     0.186 HD
HETATM   26  C28 UNL     1     -10.531  15.842  30.457  1.00  0.00     0.178 C 
BRANCH  22  27
HETATM   27  C2  UNL     1      -9.625  15.663  35.354  1.00  0.00     0.054 C 
HETATM   28  C1  UNL     1      -8.219  16.151  35.229  1.00  0.00     0.011 C 
ENDBRANCH  22  27
ENDBRANCH  17  20
ENDBRANCH  15  16
ENDBRANCH  14  15
ENDBRANCH  13  14
ENDBRANCH   9  13
ENDBRANCH   1   7
BRANCH   4  29
HETATM   29  C15 UNL     1      -7.474  17.609  27.244  1.00  0.00     0.154 C 
BRANCH  29  30
HETATM   30  N4  UNL     1      -6.647  18.121  26.190  1.00  0.00    -0.287 N 
HETATM   31  C16 UNL     1      -6.196  17.480  25.126  1.00  0.00     0.138 A 
HETATM   32  C17 UNL     1      -5.437  18.337  24.369  1.00  0.00     0.053 A 
HETATM   33  N6  UNL     1      -5.463  19.522  25.045  1.00  0.00    -0.289 N 
HETATM   34  N7  UNL     1      -6.194  19.359  26.128  1.00  0.00    -0.241 N 
ATOM     35  H6  UNL     1      -4.998  20.384  24.761  1.00  0.00     0.188 HD
ATOM     36  H7  UNL     1      -6.384  20.086  26.818  1.00  0.00     0.208 HD
BRANCH  32  37
HETATM   37  C18 UNL     1      -4.758  18.015  23.115  1.00  0.00     0.163 C 
BRANCH  37  38
HETATM   38  C19 UNL     1      -5.129  18.897  22.006  1.00  0.00     0.227 C 
HETATM   39  O3  UNL     1      -5.050  20.139  22.140  1.00  0.00    -0.273 OA
HETATM   40  N5  UNL     1      -5.573  18.356  20.784  1.00  0.00    -0.334 N 
HETATM   41  C20 UNL     1      -6.720  17.808  20.676  1.00  0.00    -0.011 C 
ATOM     42  H5  UNL     1      -4.964  18.403  19.967  1.00  0.00     0.168 HD
HETATM   43  C21 UNL     1      -7.733  17.641  21.724  1.00  0.00     0.052 C 
HETATM   44  C25 UNL     1      -7.081  17.250  19.316  1.00  0.00     0.052 C 
HETATM   45  C22 UNL     1      -7.855  16.154  22.000  1.00  0.00     0.006 C 
HETATM   46  C23 UNL     1      -7.277  15.311  20.885  1.00  0.00     0.001 C 
HETATM   47  C24 UNL     1      -7.616  15.849  19.508  1.00  0.00     0.006 C 
ENDBRANCH  37  38
ENDBRANCH  32  37
ENDBRANCH  29  30
ENDBRANCH   4  29
TORSDOF 11
ENDMDL
MODEL 4
REMARK VINA RESULT: -9.839981104      2.225     11.196
REMARK  11 active torsions:
REMARK  status: ('A' for Active; 'I' for Inactive)
REMARK    1  A    between atoms: C2_2  and  C3_3 
REMARK    2  A    between atoms: C5_5  and  C6_6 
REMARK       I    between atoms: C6_6  and  N1_8 
REMARK    3  A    between atoms: N1_8  and  C7_10 
REMARK    4  A    between atoms: C7_10  and  C8_11 
REMARK    5  A    between atoms: C8_11  and  C9_12 
REMARK    6  A    between atoms: C9_12  and  N2_13 
REMARK       I    between atoms: N2_13  and  C10_15 
REMARK       I    between atoms: C10_15  and  N3_17 
REMARK    7  A    between atoms: N3_17  and  C11_19 
REMARK    8  A    between atoms: C14_22  and  C15_23 
REMARK    9  A    between atoms: C15_23  and  N4_24 
REMARK   10  A    between atoms: C17_26  and  C18_27 
REMARK   11  A    between atoms: C18_27  and  C19_28 
REMARK       I    between atoms: C19_28  and  N5_30 
ROOT
HETATM    1  C11 UNL     1      -9.188  17.624  26.954  1.00  0.00     0.086 C 
HETATM    2  C12 UNL     1     -10.153  17.397  28.068  1.00  0.00     0.026 C 
HETATM    3  C13 UNL     1     -10.798  16.051  28.120  1.00  0.00     0.008 C 
HETATM    4  C14 UNL     1     -11.212  15.623  26.760  1.00  0.00     0.006 C 
HETATM    5  C26 UNL     1      -9.969  15.596  25.868  1.00  0.00     0.008 C 
HETATM    6  C27 UNL     1      -9.625  17.049  25.623  1.00  0.00     0.026 C 
ENDROOT
BRANCH   1   7
HETATM    7  N3  UNL     1      -7.891  17.105  27.335  1.00  0.00    -0.339 N 
HETATM    8  C10 UNL     1      -6.695  17.920  27.259  1.00  0.00     0.316 C 
HETATM    9  N2  UNL     1      -5.446  17.385  27.629  1.00  0.00    -0.343 N 
HETATM   10  O2  UNL     1      -6.903  19.088  26.846  1.00  0.00    -0.247 OA
ATOM     11  H2  UNL     1      -5.376  16.416  27.943  1.00  0.00     0.164 HD
ATOM     12  H3  UNL     1      -7.819  16.142  27.665  1.00  0.00     0.164 HD
BRANCH   9  13
HETATM   13  C9  UNL     1      -4.238  18.227  27.561  1.00  0.00     0.126 C 
BRANCH  13  14
HETATM   14  C8  UNL     1      -3.566  17.986  26.275  1.00  0.00     0.039 C 
BRANCH  14  15
HETATM   15  C7  UNL     1      -3.919  16.875  25.402  1.00  0.00     0.124 C 
BRANCH  15  16
HETATM   16  N1  UNL     1      -4.776  17.110  24.295  1.00  0.00    -0.356 N 
HETATM   17  C6  UNL     1      -6.017  16.552  24.081  1.00  0.00     0.269 C 
HETATM   18  O1  UNL     1      -6.503  15.748  24.960  1.00  0.00    -0.266 OA
ATOM     19  H1  UNL     1      -4.438  17.759  23.585  1.00  0.00     0.162 HD
BRANCH  17  20
HETATM   20  C5  UNL     1      -6.870  16.774  22.933  1.00  0.00     0.119 A 
HETATM   21  C4  UNL     1      -7.877  15.862  22.512  1.00  0.00     0.063 A 
HETATM   22  C3  UNL     1      -8.525  16.363  21.421  1.00  0.00     0.028 A 
HETATM   23  N9  UNL     1      -7.947  17.536  21.172  1.00  0.00    -0.302 N 
HETATM   24  N8  UNL     1      -6.962  17.779  22.073  1.00  0.00    -0.291 N 
ATOM     25  H9  UNL     1      -8.208  18.163  20.411  1.00  0.00     0.186 HD
HETATM   26  C28 UNL     1      -6.189  19.022  22.030  1.00  0.00     0.178 C 
BRANCH  22  27
HETATM   27  C2  UNL     1      -9.659  15.720  20.658  1.00  0.00     0.054 C 
HETATM   28  C1  UNL     1      -9.272  15.373  19.257  1.00  0.00     0.011 C 
ENDBRANCH  22  27
ENDBRANCH  17  20
ENDBRANCH  15  16
ENDBRANCH  14  15
ENDBRANCH  13  14
ENDBRANCH   9  13
ENDBRANCH   1   7
BRANCH   4  29
HETATM   29  C15 UNL     1     -11.990  14.361  26.662  1.00  0.00     0.154 C 
BRANCH  29  30
HETATM   30  N4  UNL     1     -12.676  14.104  27.895  1.00  0.00    -0.287 N 
HETATM   31  C16 UNL     1     -12.171  13.644  29.026  1.00  0.00     0.138 A 
HETATM   32  C17 UNL     1     -13.170  13.542  29.961  1.00  0.00     0.053 A 
HETATM   33  N6  UNL     1     -14.297  13.968  29.320  1.00  0.00    -0.289 N 
HETATM   34  N7  UNL     1     -13.968  14.297  28.088  1.00  0.00    -0.241 N 
ATOM     35  H6  UNL     1     -15.232  14.023  29.724  1.00  0.00     0.188 HD
ATOM     36  H7  UNL     1     -14.617  14.650  27.385  1.00  0.00     0.208 HD
BRANCH  32  37
HETATM   37  C18 UNL     1     -13.025  13.072  31.337  1.00  0.00     0.163 C 
BRANCH  37  38
HETATM   38  C19 UNL     1     -13.460  14.048  32.338  1.00  0.00     0.227 C 
HETATM   39  O3  UNL     1     -14.572  14.610  32.224  1.00  0.00    -0.273 OA
HETATM   40  N5  UNL     1     -12.632  14.360  33.434  1.00  0.00    -0.334 N 
HETATM   41  C20 UNL     1     -11.566  15.045  33.290  1.00  0.00    -0.011 C 
ATOM     42  H5  UNL     1     -12.892  14.030  34.364  1.00  0.00     0.168 HD
HETATM   43  C21 UNL     1     -11.024  15.604  32.047  1.00  0.00     0.052 C 
HETATM   44  C25 UNL     1     -10.751  15.304  34.539  1.00  0.00     0.052 C 
HETATM   45  C22 UNL     1      -9.727  14.874  31.752  1.00  0.00     0.006 C 
HETATM   46  C23 UNL     1      -9.179  14.159  32.966  1.00  0.00     0.001 C 
HETATM   47  C24 UNL     1      -9.306  14.978  34.236  1.00  0.00     0.006 C 
ENDBRANCH  37  38
ENDBRANCH  32  37
ENDBRANCH  29  30
ENDBRANCH   4  29
TORSDOF 11
ENDMDL
MODEL 5
REMARK VINA RESULT: -9.779911369      1.707      2.081
REMARK  11 active torsions:
REMARK  status: ('A' for Active; 'I' for Inactive)
REMARK    1  A    between atoms: C2_2  and  C3_3 
REMARK    2  A    between atoms: C5_5  and  C6_6 
REMARK       I    between atoms: C6_6  and  N1_8 
REMARK    3  A    between atoms: N1_8  and  C7_10 
REMARK    4  A    between atoms: C7_10  and  C8_11 
REMARK    5  A    between atoms: C8_11  and  C9_12 
REMARK    6  A    between atoms: C9_12  and  N2_13 
REMARK       I    between atoms: N2_13  and  C10_15 
REMARK       I    between atoms: C10_15  and  N3_17 
REMARK    7  A    between atoms: N3_17  and  C11_19 
REMARK    8  A    between atoms: C14_22  and  C15_23 
REMARK    9  A    between atoms: C15_23  and  N4_24 
REMARK   10  A    between atoms: C17_26  and  C18_27 
REMARK   11  A    between atoms: C18_27  and  C19_28 
REMARK       I    between atoms: C19_28  and  N5_30 
ROOT
HETATM    1  C11 UNL     1     -10.517  16.849  27.577  1.00  0.00     0.086 C 
HETATM    2  C12 UNL     1      -9.953  17.584  26.409  1.00  0.00     0.026 C 
HETATM    3  C13 UNL     1      -8.474  17.498  26.224  1.00  0.00     0.008 C 
HETATM    4  C14 UNL     1      -7.779  17.654  27.528  1.00  0.00     0.006 C 
HETATM    5  C26 UNL     1      -8.275  16.552  28.467  1.00  0.00     0.008 C 
HETATM    6  C27 UNL     1      -9.686  16.953  28.839  1.00  0.00     0.026 C 
ENDROOT
BRANCH   1   7
HETATM    7  N3  UNL     1     -10.722  15.463  27.212  1.00  0.00    -0.339 N 
HETATM    8  C10 UNL     1     -12.035  14.851  27.265  1.00  0.00     0.316 C 
HETATM    9  N2  UNL     1     -12.203  13.498  26.911  1.00  0.00    -0.343 N 
HETATM   10  O2  UNL     1     -12.944  15.633  27.643  1.00  0.00    -0.247 OA
ATOM     11  H2  UNL     1     -11.398  12.939  26.626  1.00  0.00     0.164 HD
ATOM     12  H3  UNL     1      -9.924  14.904  26.912  1.00  0.00     0.164 HD
BRANCH   9  13
HETATM   13  C9  UNL     1     -13.546  12.891  26.955  1.00  0.00     0.126 C 
BRANCH  13  14
HETATM   14  C8  UNL     1     -13.661  12.089  28.183  1.00  0.00     0.039 C 
BRANCH  14  15
HETATM   15  C7  UNL     1     -12.529  11.835  29.064  1.00  0.00     0.124 C 
BRANCH  15  16
HETATM   16  N1  UNL     1     -12.314  12.688  30.177  1.00  0.00    -0.356 N 
HETATM   17  C6  UNL     1     -11.243  13.532  30.374  1.00  0.00     0.269 C 
HETATM   18  O1  UNL     1     -10.331  13.608  29.469  1.00  0.00    -0.266 OA
ATOM     19  H1  UNL     1     -13.026  12.675  30.908  1.00  0.00     0.162 HD
BRANCH  17  20
HETATM   20  C5  UNL     1     -11.016  14.375  31.529  1.00  0.00     0.119 A 
HETATM   21  C4  UNL     1      -9.736  14.868  31.904  1.00  0.00     0.063 A 
HETATM   22  C3  UNL     1      -9.853  15.651  33.015  1.00  0.00     0.028 A 
HETATM   23  N9  UNL     1     -11.149  15.646  33.319  1.00  0.00    -0.302 N 
HETATM   24  N8  UNL     1     -11.840  14.885  32.433  1.00  0.00    -0.291 N 
ATOM     25  H9  UNL     1     -11.564  16.143  34.107  1.00  0.00     0.186 HD
HETATM   26  C28 UNL     1     -13.294  14.740  32.535  1.00  0.00     0.178 C 
BRANCH  22  27
HETATM   27  C2  UNL     1      -8.743  16.372  33.745  1.00  0.00     0.054 C 
HETATM   28  C1  UNL     1      -8.654  15.966  35.179  1.00  0.00     0.011 C 
ENDBRANCH  22  27
ENDBRANCH  17  20
ENDBRANCH  15  16
ENDBRANCH  14  15
ENDBRANCH  13  14
ENDBRANCH   9  13
ENDBRANCH   1   7
BRANCH   4  29
HETATM   29  C15 UNL     1      -6.296  17.724  27.493  1.00  0.00     0.154 C 
BRANCH  29  30
HETATM   30  N4  UNL     1      -5.848  18.125  26.191  1.00  0.00    -0.287 N 
HETATM   31  C16 UNL     1      -5.419  17.356  25.206  1.00  0.00     0.138 A 
HETATM   32  C17 UNL     1      -5.086  18.140  24.130  1.00  0.00     0.053 A 
HETATM   33  N6  UNL     1      -5.343  19.419  24.533  1.00  0.00    -0.289 N 
HETATM   34  N7  UNL     1      -5.797  19.375  25.768  1.00  0.00    -0.241 N 
ATOM     35  H6  UNL     1      -5.207  20.261  23.975  1.00  0.00     0.188 HD
ATOM     36  H7  UNL     1      -6.071  20.189  26.319  1.00  0.00     0.208 HD
BRANCH  32  37
HETATM   37  C18 UNL     1      -4.568  17.675  22.845  1.00  0.00     0.163 C 
BRANCH  37  38
HETATM   38  C19 UNL     1      -4.943  18.531  21.718  1.00  0.00     0.227 C 
HETATM   39  O3  UNL     1      -4.694  19.757  21.753  1.00  0.00    -0.273 OA
HETATM   40  N5  UNL     1      -5.582  17.982  20.590  1.00  0.00    -0.334 N 
HETATM   41  C20 UNL     1      -6.794  17.587  20.637  1.00  0.00    -0.011 C 
ATOM     42  H5  UNL     1      -5.065  17.900  19.714  1.00  0.00     0.168 HD
HETATM   43  C21 UNL     1      -7.700  17.618  21.790  1.00  0.00     0.052 C 
HETATM   44  C25 UNL     1      -7.369  17.003  19.364  1.00  0.00     0.052 C 
HETATM   45  C22 UNL     1      -7.978  16.180  22.185  1.00  0.00     0.006 C 
HETATM   46  C23 UNL     1      -7.636  15.204  21.081  1.00  0.00     0.001 C 
HETATM   47  C24 UNL     1      -8.052  15.699  19.710  1.00  0.00     0.006 C 
ENDBRANCH  37  38
ENDBRANCH  32  37
ENDBRANCH  29  30
ENDBRANCH   4  29
TORSDOF 11
ENDMDL
