MODEL 1
REMARK VINA RESULT: -8.220479509      0.000      0.000
REMARK  13 active torsions:
REMARK  status: ('A' for Active; 'I' for Inactive)
REMARK    1  A    between atoms: C2_2  and  C3_3 
REMARK    2  A    between atoms: C3_3  and  C4_4 
REMARK    3  A    between atoms: C4_4  and  C5_5 
REMARK    4  A    between atoms: C5_5  and  O1_6 
REMARK    5  A    between atoms: O1_6  and  C6_7 
REMARK       I    between atoms: C6_7  and  N1_9 
REMARK       I    between atoms: N2_12  and  C9_13 
REMARK    6  A    between atoms: C9_13  and  C10_15 
REMARK    7  A    between atoms: C10_15  and  C11_16 
REMARK    8  A    between atoms: C10_15  and  N3_21 
REMARK    9  A    between atoms: C11_16  and  C12_17 
REMARK   10  A    between atoms: C12_17  and  C13_18 
REMARK       I    between atoms: N3_21  and  C14_23 
REMARK   11  A    between atoms: C14_23  and  C15_25 
REMARK   12  A    between atoms: C16_28  and  C17_29 
REMARK   13  A    between atoms: C21_33  and  S1_34 
ROOT
HETATM    1  C10 UNL     1      -7.326  17.712  26.932  1.00  0.00     0.177 C 
ENDROOT
BRANCH   1   2
HETATM    2  C9  UNL     1      -7.397  16.409  27.608  1.00  0.00     0.242 C 
HETATM    3  N2  UNL     1      -8.542  15.908  28.210  1.00  0.00    -0.347 N 
HETATM    4  C8  UNL     1      -9.789  16.598  28.232  1.00  0.00     0.146 C 
HETATM    5  C24 UNL     1      -8.501  14.596  28.870  1.00  0.00     0.146 C 
HETATM    6  C7  UNL     1     -10.918  15.540  28.210  1.00  0.00     0.148 C 
HETATM    7  N1  UNL     1     -10.782  14.819  29.469  1.00  0.00    -0.325 N 
HETATM    8  C6  UNL     1     -11.922  14.337  30.118  1.00  0.00     0.362 C 
HETATM    9  C25 UNL     1      -9.463  14.626  30.015  1.00  0.00     0.148 C 
HETATM   10  O2  UNL     1     -11.761  13.720  31.215  1.00  0.00    -0.238 OA
HETATM   11  O3  UNL     1      -6.351  15.667  27.657  1.00  0.00    -0.271 OA
BRANCH   8  12
HETATM   12  O1  UNL     1     -13.191  14.496  29.637  1.00  0.00    -0.304 OA
BRANCH  12  13
HETATM   13  C5  UNL     1     -13.945  13.497  29.022  1.00  0.00     0.180 C 
BRANCH  13  14
HETATM   14  C4  UNL     1     -14.172  13.674  27.552  1.00  0.00     0.027 C 
BRANCH  14  15
HETATM   15  C3  UNL     1     -13.715  12.464  26.808  1.00  0.00     0.002 C 
BRANCH  15  16
HETATM   16  C2  UNL     1     -12.261  12.483  26.487  1.00  0.00    -0.004 C 
HETATM   17  C1  UNL     1     -12.008  13.482  25.361  1.00  0.00     0.005 C 
ENDBRANCH  15  16
ENDBRANCH  14  15
ENDBRANCH  13  14
ENDBRANCH  12  13
ENDBRANCH   8  12
ENDBRANCH   1   2
BRANCH   1  18
HETATM   18  C11 UNL     1      -6.491  18.734  27.640  1.00  0.00     0.045 C 
BRANCH  18  19
HETATM   19  C12 UNL     1      -5.239  19.108  26.910  1.00  0.00     0.116 C 
BRANCH  19  20
HETATM   20  C13 UNL     1      -4.076  18.297  27.265  1.00  0.00     0.172 C 
HETATM   21  O4  UNL     1      -3.499  17.557  26.455  1.00  0.00    -0.648 OA
HETATM   22  O5  UNL     1      -3.564  18.332  28.560  1.00  0.00    -0.648 OA
ENDBRANCH  19  20
ENDBRANCH  18  19
ENDBRANCH   1  18
BRANCH   1  23
HETATM   23  N3  UNL     1      -6.673  17.457  25.610  1.00  0.00    -0.342 N 
HETATM   24  C14 UNL     1      -7.463  17.183  24.500  1.00  0.00     0.274 C 
HETATM   25  O6  UNL     1      -8.738  17.163  24.686  1.00  0.00    -0.266 OA
ATOM     26  H3  UNL     1      -5.656  17.484  25.525  1.00  0.00     0.163 HD
BRANCH  24  27
HETATM   27  C15 UNL     1      -7.042  16.916  23.153  1.00  0.00     0.169 A 
HETATM   28  N4  UNL     1      -7.939  16.511  22.206  1.00  0.00    -0.348 N 
HETATM   29  C16 UNL     1      -7.591  16.250  20.934  1.00  0.00     0.051 A 
ATOM     30  H4  UNL     1      -8.916  16.400  22.476  1.00  0.00     0.166 HD
HETATM   31  C21 UNL     1      -6.285  16.386  20.530  1.00  0.00     0.096 A 
HETATM   32  N5  UNL     1      -5.399  16.783  21.453  1.00  0.00    -0.314 N 
HETATM   33  C23 UNL     1      -5.744  17.043  22.720  1.00  0.00     0.278 A 
ATOM     34  H5  UNL     1      -4.423  16.891  21.180  1.00  0.00     0.170 HD
HETATM   35  O7  UNL     1      -4.819  17.416  23.523  1.00  0.00    -0.265 OA
BRANCH  29  36
HETATM   36  C17 UNL     1      -8.653  15.799  19.998  1.00  0.00    -0.006 C 
HETATM   37  C18 UNL     1      -8.366  16.082  18.549  1.00  0.00     0.021 C 
HETATM   38  C19 UNL     1      -8.977  14.328  20.207  1.00  0.00     0.021 C 
HETATM   39  C20 UNL     1      -9.930  16.544  20.365  1.00  0.00     0.021 C 
ENDBRANCH  29  36
BRANCH  31  40
HETATM   40  S1  UNL     1      -5.791  16.010  18.859  1.00  0.00    -0.115 SA
HETATM   41  C22 UNL     1      -4.888  17.425  18.128  1.00  0.00     0.097 C 
ENDBRANCH  31  40
ENDBRANCH  24  27
ENDBRANCH   1  23
TORSDOF 13
ENDMDL
MODEL 2
REMARK VINA RESULT: -8.214202398      2.498      4.650
REMARK  13 active torsions:
REMARK  status: ('A' for Active; 'I' for Inactive)
REMARK    1  A    between atoms: C2_2  and  C3_3 
REMARK    2  A    between atoms: C3_3  and  C4_4 
REMARK    3  A    between atoms: C4_4  and  C5_5 
REMARK    4  A    between atoms: C5_5  and  O1_6 
REMARK    5  A    between atoms: O1_6  and  C6_7 
REMARK       I    between atoms: C6_7  and  N1_9 
REMARK       I    between atoms: N2_12  and  C9_13 
REMARK    6  A    between atoms: C9_13  and  C10_15 
REMARK    7  A    between atoms: C10_15  and  C11_16 
REMARK    8  A    between atoms: C10_15  and  N3_21 
REMARK    9  A    between atoms: C11_16  and  C12_17 
REMARK   10  A    between atoms: C12_17  and  C13_18 
REMARK       I    between atoms: N3_21  and  C14_23 
REMARK   11  A    between atoms: C14_23  and  C15_25 
REMARK   12  A    between atoms: C16_28  and  C17_29 
REMARK   13  A    between atoms: C21_33  and  S1_34 
ROOT
HETATM    1  C10 UNL     1      -9.458  15.711  27.837  1.00  0.00     0.177 C 
ENDROOT
BRANCH   1   2
HETATM    2  C9  UNL     1     -10.601  14.788  27.870  1.00  0.00     0.242 C 
HETATM    3  N2  UNL     1     -11.218  14.356  29.035  1.00  0.00    -0.347 N 
HETATM    4  C8  UNL     1     -10.818  14.770  30.340  1.00  0.00     0.146 C 
HETATM    5  C24 UNL     1     -12.349  13.421  28.956  1.00  0.00     0.146 C 
HETATM    6  C7  UNL     1     -12.078  14.799  31.236  1.00  0.00     0.148 C 
HETATM    7  N1  UNL     1     -12.513  13.410  31.319  1.00  0.00    -0.325 N 
HETATM    8  C6  UNL     1     -13.101  12.937  32.495  1.00  0.00     0.362 C 
HETATM    9  C25 UNL     1     -12.318  12.556  30.176  1.00  0.00     0.148 C 
HETATM   10  O2  UNL     1     -13.460  11.720  32.529  1.00  0.00    -0.238 OA
HETATM   11  O3  UNL     1     -11.081  14.340  26.767  1.00  0.00    -0.271 OA
BRANCH   8  12
HETATM   12  O1  UNL     1     -13.307  13.711  33.603  1.00  0.00    -0.304 OA
BRANCH  12  13
HETATM   13  C5  UNL     1     -12.619  13.580  34.810  1.00  0.00     0.180 C 
BRANCH  13  14
HETATM   14  C4  UNL     1     -11.155  13.888  34.753  1.00  0.00     0.027 C 
BRANCH  14  15
HETATM   15  C3  UNL     1     -10.925  15.351  34.932  1.00  0.00     0.002 C 
BRANCH  15  16
HETATM   16  C2  UNL     1      -9.829  15.886  34.077  1.00  0.00    -0.004 C 
HETATM   17  C1  UNL     1      -8.583  16.101  34.934  1.00  0.00     0.005 C 
ENDBRANCH  15  16
ENDBRANCH  14  15
ENDBRANCH  13  14
ENDBRANCH  12  13
ENDBRANCH   8  12
ENDBRANCH   1   2
BRANCH   1  18
HETATM   18  C11 UNL     1      -8.328  15.331  28.743  1.00  0.00     0.045 C 
BRANCH  18  19
HETATM   19  C12 UNL     1      -7.464  16.482  29.153  1.00  0.00     0.116 C 
BRANCH  19  20
HETATM   20  C13 UNL     1      -6.154  16.506  28.505  1.00  0.00     0.172 C 
HETATM   21  O4  UNL     1      -5.925  15.932  27.429  1.00  0.00    -0.648 OA
HETATM   22  O5  UNL     1      -5.092  17.191  29.090  1.00  0.00    -0.648 OA
ENDBRANCH  19  20
ENDBRANCH  18  19
ENDBRANCH   1  18
BRANCH   1  23
HETATM   23  N3  UNL     1      -8.929  15.663  26.438  1.00  0.00    -0.342 N 
HETATM   24  C14 UNL     1      -8.697  16.853  25.756  1.00  0.00     0.274 C 
HETATM   25  O6  UNL     1      -8.964  17.944  26.386  1.00  0.00    -0.266 OA
ATOM     26  H3  UNL     1      -8.739  14.767  25.990  1.00  0.00     0.163 HD
BRANCH  24  27
HETATM   27  C15 UNL     1      -8.192  17.029  24.423  1.00  0.00     0.169 A 
HETATM   28  N4  UNL     1      -7.013  17.681  24.201  1.00  0.00    -0.348 N 
HETATM   29  C16 UNL     1      -6.502  17.868  22.972  1.00  0.00     0.051 A 
ATOM     30  H4  UNL     1      -6.497  18.042  25.003  1.00  0.00     0.166 HD
HETATM   31  C21 UNL     1      -7.166  17.398  21.865  1.00  0.00     0.096 A 
HETATM   32  N5  UNL     1      -8.324  16.758  22.074  1.00  0.00    -0.314 N 
HETATM   33  C23 UNL     1      -8.834  16.570  23.297  1.00  0.00     0.278 A 
ATOM     34  H5  UNL     1      -8.837  16.399  21.269  1.00  0.00     0.170 HD
HETATM   35  O7  UNL     1      -9.948  15.944  23.386  1.00  0.00    -0.265 OA
BRANCH  29  36
HETATM   36  C17 UNL     1      -5.219  18.608  22.854  1.00  0.00    -0.006 C 
HETATM   37  C18 UNL     1      -4.241  18.007  21.883  1.00  0.00     0.021 C 
HETATM   38  C19 UNL     1      -5.462  20.077  22.538  1.00  0.00     0.021 C 
HETATM   39  C20 UNL     1      -4.562  18.602  24.229  1.00  0.00     0.021 C 
ENDBRANCH  29  36
BRANCH  31  40
HETATM   40  S1  UNL     1      -6.529  17.667  20.222  1.00  0.00    -0.115 SA
HETATM   41  C22 UNL     1      -6.902  16.230  19.151  1.00  0.00     0.097 C 
ENDBRANCH  31  40
ENDBRANCH  24  27
ENDBRANCH   1  23
TORSDOF 13
ENDMDL
MODEL 3
REMARK VINA RESULT: -8.189265874      3.513      9.847
REMARK  13 active torsions:
REMARK  status: ('A' for Active; 'I' for Inactive)
REMARK    1  A    between atoms: C2_2  and  C3_3 
REMARK    2  A    between atoms: C3_3  and  C4_4 
REMARK    3  A    between atoms: C4_4  and  C5_5 
REMARK    4  A    between atoms: C5_5  and  O1_6 
REMARK    5  A    between atoms: O1_6  and  C6_7 
REMARK       I    between atoms: C6_7  and  N1_9 
REMARK       I    between atoms: N2_12  and  C9_13 
REMARK    6  A    between atoms: C9_13  and  C10_15 
REMARK    7  A    between atoms: C10_15  and  C11_16 
REMARK    8  A    between atoms: C10_15  and  N3_21 
REMARK    9  A    between atoms: C11_16  and  C12_17 
REMARK   10  A    between atoms: C12_17  and  C13_18 
REMARK       I    between atoms: N3_21  and  C14_23 
REMARK   11  A    between atoms: C14_23  and  C15_25 
REMARK   12  A    between atoms: C16_28  and  C17_29 
REMARK   13  A    between atoms: C21_33  and  S1_34 
ROOT
HETATM    1  C10 UNL     1      -9.121  16.263  26.223  1.00  0.00     0.177 C 
ENDROOT
BRANCH   1   2
HETATM    2  C9  UNL     1      -7.807  16.908  26.092  1.00  0.00     0.242 C 
HETATM    3  N2  UNL     1      -7.165  17.123  24.881  1.00  0.00    -0.347 N 
HETATM    4  C8  UNL     1      -7.714  16.752  23.619  1.00  0.00     0.146 C 
HETATM    5  C24 UNL     1      -5.844  17.767  24.863  1.00  0.00     0.146 C 
HETATM    6  C7  UNL     1      -7.223  17.774  22.567  1.00  0.00     0.148 C 
HETATM    7  N1  UNL     1      -5.779  17.582  22.503  1.00  0.00    -0.325 N 
HETATM    8  C6  UNL     1      -5.111  17.753  21.287  1.00  0.00     0.362 C 
HETATM    9  C25 UNL     1      -5.077  17.214  23.705  1.00  0.00     0.148 C 
HETATM   10  O2  UNL     1      -3.856  17.571  21.272  1.00  0.00    -0.238 OA
HETATM   11  O3  UNL     1      -7.194  17.309  27.146  1.00  0.00    -0.271 OA
BRANCH   8  12
HETATM   12  O1  UNL     1      -5.736  18.103  20.123  1.00  0.00    -0.304 OA
BRANCH  12  13
HETATM   13  C5  UNL     1      -5.669  17.383  18.931  1.00  0.00     0.180 C 
BRANCH  13  14
HETATM   14  C4  UNL     1      -6.629  16.239  18.815  1.00  0.00     0.027 C 
BRANCH  14  15
HETATM   15  C3  UNL     1      -8.016  16.693  19.118  1.00  0.00     0.002 C 
BRANCH  15  16
HETATM   16  C2  UNL     1      -8.993  15.574  19.229  1.00  0.00    -0.004 C 
HETATM   17  C1  UNL     1      -9.713  15.668  20.572  1.00  0.00     0.005 C 
ENDBRANCH  15  16
ENDBRANCH  14  15
ENDBRANCH  13  14
ENDBRANCH  12  13
ENDBRANCH   8  12
ENDBRANCH   1   2
BRANCH   1  18
HETATM   18  C11 UNL     1      -9.314  15.064  25.347  1.00  0.00     0.045 C 
BRANCH  18  19
HETATM   19  C12 UNL     1     -10.744  14.781  25.009  1.00  0.00     0.116 C 
BRANCH  19  20
HETATM   20  C13 UNL     1     -11.309  13.633  25.716  1.00  0.00     0.172 C 
HETATM   21  O4  UNL     1     -10.818  13.179  26.760  1.00  0.00    -0.648 OA
HETATM   22  O5  UNL     1     -12.446  12.996  25.226  1.00  0.00    -0.648 OA
ENDBRANCH  19  20
ENDBRANCH  18  19
ENDBRANCH   1  18
BRANCH   1  23
HETATM   23  N3  UNL     1      -9.208  15.785  27.638  1.00  0.00    -0.342 N 
HETATM   24  C14 UNL     1     -10.347  16.066  28.385  1.00  0.00     0.274 C 
HETATM   25  O6  UNL     1     -11.274  16.739  27.796  1.00  0.00    -0.266 OA
ATOM     26  H3  UNL     1      -8.438  15.257  28.052  1.00  0.00     0.163 HD
BRANCH  24  27
HETATM   27  C15 UNL     1     -10.631  15.700  29.744  1.00  0.00     0.169 A 
HETATM   28  N4  UNL     1     -11.751  14.983  30.057  1.00  0.00    -0.348 N 
HETATM   29  C16 UNL     1     -12.057  14.618  31.314  1.00  0.00     0.051 A 
ATOM     30  H4  UNL     1     -12.383  14.713  29.303  1.00  0.00     0.166 HD
HETATM   31  C21 UNL     1     -11.233  14.962  32.357  1.00  0.00     0.096 A 
HETATM   32  N5  UNL     1     -10.133  15.666  32.059  1.00  0.00    -0.314 N 
HETATM   33  C23 UNL     1      -9.826  16.030  30.808  1.00  0.00     0.278 A 
ATOM     34  H5  UNL     1      -9.504  15.935  32.815  1.00  0.00     0.170 HD
HETATM   35  O7  UNL     1      -8.750  16.702  30.632  1.00  0.00    -0.265 OA
BRANCH  29  36
HETATM   36  C17 UNL     1     -13.313  13.854  31.532  1.00  0.00    -0.006 C 
HETATM   37  C18 UNL     1     -13.183  12.707  32.497  1.00  0.00     0.021 C 
HETATM   38  C19 UNL     1     -14.451  14.777  31.940  1.00  0.00     0.021 C 
HETATM   39  C20 UNL     1     -13.734  13.275  30.187  1.00  0.00     0.021 C 
ENDBRANCH  29  36
BRANCH  31  40
HETATM   40  S1  UNL     1     -11.636  14.523  34.037  1.00  0.00    -0.115 SA
HETATM   41  C22 UNL     1     -10.331  15.108  35.179  1.00  0.00     0.097 C 
ENDBRANCH  31  40
ENDBRANCH  24  27
ENDBRANCH   1  23
TORSDOF 13
ENDMDL
MODEL 4
REMARK VINA RESULT: -8.133567089      3.601     10.155
REMARK  13 active torsions:
REMARK  status: ('A' for Active; 'I' for Inactive)
REMARK    1  A    between atoms: C2_2  and  C3_3 
REMARK    2  A    between atoms: C3_3  and  C4_4 
REMARK    3  A    between atoms: C4_4  and  C5_5 
REMARK    4  A    between atoms: C5_5  and  O1_6 
REMARK    5  A    between atoms: O1_6  and  C6_7 
REMARK       I    between atoms: C6_7  and  N1_9 
REMARK       I    between atoms: N2_12  and  C9_13 
REMARK    6  A    between atoms: C9_13  and  C10_15 
REMARK    7  A    between atoms: C10_15  and  C11_16 
REMARK    8  A    between atoms: C10_15  and  N3_21 
REMARK    9  A    between atoms: C11_16  and  C12_17 
REMARK   10  A    between atoms: C12_17  and  C13_18 
REMARK       I    between atoms: N3_21  and  C14_23 
REMARK   11  A    between atoms: C14_23  and  C15_25 
REMARK   12  A    between atoms: C16_28  and  C17_29 
REMARK   13  A    between atoms: C21_33  and  S1_34 
ROOT
HETATM    1  C10 UNL     1      -9.686  15.626  26.614  1.00  0.00     0.177 C 
ENDROOT
BRANCH   1   2
HETATM    2  C9  UNL     1      -8.355  16.249  26.630  1.00  0.00     0.242 C 
HETATM    3  N2  UNL     1      -7.652  16.609  25.490  1.00  0.00    -0.347 N 
HETATM    4  C8  UNL     1      -8.148  16.425  24.166  1.00  0.00     0.146 C 
HETATM    5  C24 UNL     1      -6.320  17.217  25.618  1.00  0.00     0.146 C 
HETATM    6  C7  UNL     1      -7.587  17.567  23.285  1.00  0.00     0.148 C 
HETATM    7  N1  UNL     1      -6.146  17.349  23.260  1.00  0.00    -0.325 N 
HETATM    8  C6  UNL     1      -5.418  17.665  22.110  1.00  0.00     0.362 C 
HETATM    9  C25 UNL     1      -5.509  16.805  24.432  1.00  0.00     0.148 C 
HETATM   10  O2  UNL     1      -4.166  17.455  22.126  1.00  0.00    -0.238 OA
HETATM   11  O3  UNL     1      -7.786  16.489  27.755  1.00  0.00    -0.271 OA
BRANCH   8  12
HETATM   12  O1  UNL     1      -5.979  18.184  20.977  1.00  0.00    -0.304 OA
BRANCH  12  13
HETATM   13  C5  UNL     1      -6.282  17.455  19.827  1.00  0.00     0.180 C 
BRANCH  13  14
HETATM   14  C4  UNL     1      -7.742  17.279  19.542  1.00  0.00     0.027 C 
BRANCH  14  15
HETATM   15  C3  UNL     1      -7.981  15.987  18.837  1.00  0.00     0.002 C 
BRANCH  15  16
HETATM   16  C2  UNL     1      -9.307  15.383  19.145  1.00  0.00    -0.004 C 
HETATM   17  C1  UNL     1      -9.692  15.726  20.583  1.00  0.00     0.005 C 
ENDBRANCH  15  16
ENDBRANCH  14  15
ENDBRANCH  13  14
ENDBRANCH  12  13
ENDBRANCH   8  12
ENDBRANCH   1   2
BRANCH   1  18
HETATM   18  C11 UNL     1      -9.831  14.498  25.639  1.00  0.00     0.045 C 
BRANCH  18  19
HETATM   19  C12 UNL     1     -11.237  14.265  25.182  1.00  0.00     0.116 C 
BRANCH  19  20
HETATM   20  C13 UNL     1     -11.896  13.133  25.830  1.00  0.00     0.172 C 
HETATM   21  O4  UNL     1     -11.391  12.515  26.779  1.00  0.00    -0.648 OA
HETATM   22  O5  UNL     1     -13.145  12.702  25.391  1.00  0.00    -0.648 OA
ENDBRANCH  19  20
ENDBRANCH  18  19
ENDBRANCH   1  18
BRANCH   1  23
HETATM   23  N3  UNL     1      -9.889  15.048  27.979  1.00  0.00    -0.342 N 
HETATM   24  C14 UNL     1     -11.065  15.323  28.668  1.00  0.00     0.274 C 
HETATM   25  O6  UNL     1     -11.923  16.079  28.073  1.00  0.00    -0.266 OA
ATOM     26  H3  UNL     1      -9.171  14.458  28.401  1.00  0.00     0.163 HD
BRANCH  24  27
HETATM   27  C15 UNL     1     -11.457  14.870  29.973  1.00  0.00     0.169 A 
HETATM   28  N4  UNL     1     -10.697  15.157  31.072  1.00  0.00    -0.348 N 
HETATM   29  C16 UNL     1     -11.024  14.754  32.312  1.00  0.00     0.051 A 
ATOM     30  H4  UNL     1      -9.843  15.700  30.945  1.00  0.00     0.166 HD
HETATM   31  C21 UNL     1     -12.166  14.021  32.525  1.00  0.00     0.096 A 
HETATM   32  N5  UNL     1     -12.916  13.735  31.453  1.00  0.00    -0.314 N 
HETATM   33  C23 UNL     1     -12.592  14.135  30.217  1.00  0.00     0.278 A 
ATOM     34  H5  UNL     1     -13.769  13.191  31.583  1.00  0.00     0.170 HD
HETATM   35  O7  UNL     1     -13.379  13.808  29.261  1.00  0.00    -0.265 OA
BRANCH  29  36
HETATM   36  C17 UNL     1     -10.109  15.113  33.426  1.00  0.00    -0.006 C 
HETATM   37  C18 UNL     1     -10.805  15.519  34.696  1.00  0.00     0.021 C 
HETATM   38  C19 UNL     1      -9.108  13.998  33.691  1.00  0.00     0.021 C 
HETATM   39  C20 UNL     1      -9.271  16.298  32.964  1.00  0.00     0.021 C 
ENDBRANCH  29  36
BRANCH  31  40
HETATM   40  S1  UNL     1     -12.602  13.443  34.154  1.00  0.00    -0.115 SA
HETATM   41  C22 UNL     1     -11.982  11.740  34.412  1.00  0.00     0.097 C 
ENDBRANCH  31  40
ENDBRANCH  24  27
ENDBRANCH   1  23
TORSDOF 13
ENDMDL
MODEL 5
REMARK VINA RESULT: -8.107261879      2.904      8.616
REMARK  13 active torsions:
REMARK  status: ('A' for Active; 'I' for Inactive)
REMARK    1  A    between atoms: C2_2  and  C3_3 
REMARK    2  A    between atoms: C3_3  and  C4_4 
REMARK    3  A    between atoms: C4_4  and  C5_5 
REMARK    4  A    between atoms: C5_5  and  O1_6 
REMARK    5  A    between atoms: O1_6  and  C6_7 
REMARK       I    between atoms: C6_7  and  N1_9 
REMARK       I    between atoms: N2_12  and  C9_13 
REMARK    6  A    between atoms: C9_13  and  C10_15 
REMARK    7  A    between atoms: C10_15  and  C11_16 
REMARK    8  A    between atoms: C10_15  and  N3_21 
REMARK    9  A    between atoms: C11_16  and  C12_17 
REMARK   10  A    between atoms: C12_17  and  C13_18 
REMARK       I    between atoms: N3_21  and  C14_23 
REMARK   11  A    between atoms: C14_23  and  C15_25 
REMARK   12  A    between atoms: C16_28  and  C17_29 
REMARK   13  A    between atoms: C21_33  and  S1_34 
ROOT
HETATM    1  C10 UNL     1      -7.022  16.122  27.228  1.00  0.00     0.177 C 
ENDROOT
BRANCH   1   2
HETATM    2  C9  UNL     1      -7.285  17.195  26.258  1.00  0.00     0.242 C 
HETATM    3  N2  UNL     1      -6.863  17.168  24.937  1.00  0.00    -0.347 N 
HETATM    4  C8  UNL     1      -6.131  16.087  24.364  1.00  0.00     0.146 C 
HETATM    5  C24 UNL     1      -7.170  18.300  24.053  1.00  0.00     0.146 C 
HETATM    6  C7  UNL     1      -6.523  15.986  22.871  1.00  0.00     0.148 C 
HETATM    7  N1  UNL     1      -6.040  17.223  22.271  1.00  0.00    -0.325 N 
HETATM    8  C6  UNL     1      -5.571  17.218  20.955  1.00  0.00     0.362 C 
HETATM    9  C25 UNL     1      -6.056  18.427  23.062  1.00  0.00     0.148 C 
HETATM   10  O2  UNL     1      -5.153  18.314  20.471  1.00  0.00    -0.238 OA
HETATM   11  O3  UNL     1      -7.947  18.230  26.628  1.00  0.00    -0.271 OA
BRANCH   8  12
HETATM   12  O1  UNL     1      -5.538  16.101  20.167  1.00  0.00    -0.304 OA
BRANCH  12  13
HETATM   13  C5  UNL     1      -6.357  15.877  19.061  1.00  0.00     0.180 C 
BRANCH  13  14
HETATM   14  C4  UNL     1      -7.672  16.595  19.077  1.00  0.00     0.027 C 
BRANCH  14  15
HETATM   15  C3  UNL     1      -8.773  15.671  18.678  1.00  0.00     0.002 C 
BRANCH  15  16
HETATM   16  C2  UNL     1      -9.493  15.075  19.837  1.00  0.00    -0.004 C 
HETATM   17  C1  UNL     1      -9.608  16.119  20.946  1.00  0.00     0.005 C 
ENDBRANCH  15  16
ENDBRANCH  14  15
ENDBRANCH  13  14
ENDBRANCH  12  13
ENDBRANCH   8  12
ENDBRANCH   1   2
BRANCH   1  18
HETATM   18  C11 UNL     1      -5.994  16.461  28.264  1.00  0.00     0.045 C 
BRANCH  18  19
HETATM   19  C12 UNL     1      -4.608  16.607  27.720  1.00  0.00     0.116 C 
BRANCH  19  20
HETATM   20  C13 UNL     1      -4.097  17.976  27.746  1.00  0.00     0.172 C 
HETATM   21  O4  UNL     1      -3.504  18.454  28.724  1.00  0.00    -0.648 OA
HETATM   22  O5  UNL     1      -4.265  18.810  26.643  1.00  0.00    -0.648 OA
ENDBRANCH  19  20
ENDBRANCH  18  19
ENDBRANCH   1  18
BRANCH   1  23
HETATM   23  N3  UNL     1      -8.311  15.896  27.954  1.00  0.00    -0.342 N 
HETATM   24  C14 UNL     1      -8.800  14.601  28.088  1.00  0.00     0.274 C 
HETATM   25  O6  UNL     1      -8.096  13.658  27.563  1.00  0.00    -0.266 OA
ATOM     26  H3  UNL     1      -8.826  16.684  28.347  1.00  0.00     0.163 HD
BRANCH  24  27
HETATM   27  C15 UNL     1     -10.002  14.169  28.744  1.00  0.00     0.169 A 
HETATM   28  N4  UNL     1     -11.099  13.795  28.021  1.00  0.00    -0.348 N 
HETATM   29  C16 UNL     1     -12.244  13.384  28.591  1.00  0.00     0.051 A 
ATOM     30  H4  UNL     1     -11.047  13.830  27.003  1.00  0.00     0.166 HD
HETATM   31  C21 UNL     1     -12.355  13.322  29.959  1.00  0.00     0.096 A 
HETATM   32  N5  UNL     1     -11.285  13.688  30.675  1.00  0.00    -0.314 N 
HETATM   33  C23 UNL     1     -10.143  14.098  30.109  1.00  0.00     0.278 A 
ATOM     34  H5  UNL     1     -11.341  13.652  31.693  1.00  0.00     0.170 HD
HETATM   35  O7  UNL     1      -9.178  14.424  30.886  1.00  0.00    -0.265 OA
BRANCH  29  36
HETATM   36  C17 UNL     1     -13.376  13.019  27.700  1.00  0.00    -0.006 C 
HETATM   37  C18 UNL     1     -14.035  11.709  28.037  1.00  0.00     0.021 C 
HETATM   38  C19 UNL     1     -14.403  14.139  27.635  1.00  0.00     0.021 C 
HETATM   39  C20 UNL     1     -12.823  12.904  26.286  1.00  0.00     0.021 C 
ENDBRANCH  29  36
BRANCH  31  40
HETATM   40  S1  UNL     1     -13.876  12.817  30.740  1.00  0.00    -0.115 SA
HETATM   41  C22 UNL     1     -13.606  11.310  31.744  1.00  0.00     0.097 C 
ENDBRANCH  31  40
ENDBRANCH  24  27
ENDBRANCH   1  23
TORSDOF 13
ENDMDL
