MODEL 1
REMARK VINA RESULT: -7.303392102      0.000      0.000
REMARK  9 active torsions:
REMARK  status: ('A' for Active; 'I' for Inactive)
REMARK    1  A    between atoms: C2_2  and  C3_3 
REMARK    2  A    between atoms: C3_3  and  C4_4 
REMARK    3  A    between atoms: C10_17  and  O3_18 
REMARK    4  A    between atoms: S1_22  and  C12_23 
REMARK    5  A    between atoms: C12_23  and  C13_24 
REMARK    6  A    between atoms: C13_24  and  C14_25 
REMARK    7  A    between atoms: C14_25  and  C15_26 
REMARK    8  A    between atoms: C15_26  and  N5_27 
REMARK    9  A    between atoms: N5_27  and  C16_28 
ROOT
HETATM    1  C4  UNL     1      31.070   1.543  26.099  1.00  0.00     0.177 C 
HETATM    2  N1  UNL     1      29.644   1.652  26.216  1.00  0.00    -0.346 N 
ATOM      3  H1  UNL     1      29.164   0.805  26.523  1.00  0.00     0.163 HD
HETATM    4  C5  UNL     1      28.816   2.754  25.971  1.00  0.00     0.244 C 
HETATM    5  O1  UNL     1      27.885   2.896  26.848  1.00  0.00    -0.272 OA
HETATM    6  C6  UNL     1      28.921   3.704  24.859  1.00  0.00     0.344 C 
HETATM    7  N2  UNL     1      28.838   3.161  23.559  1.00  0.00    -0.013 N 
HETATM    8  C7  UNL     1      29.592   2.016  23.228  1.00  0.00     0.287 C 
HETATM    9  C8  UNL     1      31.071   2.123  23.208  1.00  0.00     0.091 C 
HETATM   10  N3  UNL     1      31.701   2.957  24.153  1.00  0.00    -0.337 N 
ATOM     11  H3  UNL     1      32.158   3.801  23.806  1.00  0.00     0.167 HD
HETATM   12  C9  UNL     1      31.751   2.710  25.572  1.00  0.00     0.244 C 
HETATM   13  O2  UNL     1      32.383   3.502  26.349  1.00  0.00    -0.271 OA
HETATM   14  C10 UNL     1      29.024   4.198  22.552  1.00  0.00     0.348 C 
HETATM   15  C11 UNL     1      27.549   4.377  22.467  1.00  0.00     0.184 C 
HETATM   16  N4  UNL     1      26.949   4.439  21.190  1.00  0.00    -0.171 NA
HETATM   17  S1  UNL     1      26.699   2.800  20.662  1.00  0.00    -0.060 SA
HETATM   18  C23 UNL     1      27.096   2.012  22.187  1.00  0.00     0.224 C 
HETATM   19  O4  UNL     1      27.080   0.839  22.398  1.00  0.00    -0.283 OA
HETATM   20  C24 UNL     1      27.438   3.077  23.108  1.00  0.00     0.299 C 
ENDROOT
BRANCH  14  21
HETATM   21  O3  UNL     1      29.697   5.303  23.060  1.00  0.00    -0.368 OA
ATOM     22  H3  UNL     1      30.553   5.413  22.662  1.00  0.00     0.212 HD
ENDBRANCH  14  21
BRANCH  17  23
HETATM   23  C12 UNL     1      24.935   2.566  20.409  1.00  0.00     0.089 C 
BRANCH  23  24
HETATM   24  C13 UNL     1      24.266   3.876  20.034  1.00  0.00     0.013 C 
BRANCH  24  25
HETATM   25  C14 UNL     1      24.589   4.232  18.576  1.00  0.00     0.029 C 
BRANCH  25  26
HETATM   26  C15 UNL     1      24.594   5.698  18.486  1.00  0.00     0.237 C 
BRANCH  26  27
HETATM   27  N5  UNL     1      23.666   6.303  17.547  1.00  0.00    -0.067 N 
HETATM   28  C18 UNL     1      23.504   5.356  16.471  1.00  0.00     0.237 C 
HETATM   29  C19 UNL     1      23.560   5.916  15.099  1.00  0.00     0.028 C 
HETATM   30  C20 UNL     1      24.745   6.829  14.852  1.00  0.00     0.003 C 
HETATM   31  C21 UNL     1      25.056   7.684  16.042  1.00  0.00     0.028 C 
HETATM   32  C22 UNL     1      24.046   7.609  17.134  1.00  0.00     0.237 C 
BRANCH  27  33
HETATM   33  C16 UNL     1      22.432   6.366  18.354  1.00  0.00     0.233 C 
HETATM   34  C17 UNL     1      22.558   7.226  19.557  1.00  0.00     0.035 C 
ENDBRANCH  27  33
ENDBRANCH  26  27
ENDBRANCH  25  26
ENDBRANCH  24  25
ENDBRANCH  23  24
ENDBRANCH  17  23
BRANCH   1  35
HETATM   35  C3  UNL     1      31.612   1.253  27.492  1.00  0.00     0.034 C 
BRANCH  35  36
HETATM   36  C2  UNL     1      30.571   0.581  28.370  1.00  0.00    -0.002 C 
HETATM   37  C1  UNL     1      30.750  -0.901  28.420  1.00  0.00     0.005 C 
ENDBRANCH  35  36
ENDBRANCH   1  35
TORSDOF 9
ENDMDL
MODEL 2
REMARK VINA RESULT: -7.033327526      1.777      3.028
REMARK  9 active torsions:
REMARK  status: ('A' for Active; 'I' for Inactive)
REMARK    1  A    between atoms: C2_2  and  C3_3 
REMARK    2  A    between atoms: C3_3  and  C4_4 
REMARK    3  A    between atoms: C10_17  and  O3_18 
REMARK    4  A    between atoms: S1_22  and  C12_23 
REMARK    5  A    between atoms: C12_23  and  C13_24 
REMARK    6  A    between atoms: C13_24  and  C14_25 
REMARK    7  A    between atoms: C14_25  and  C15_26 
REMARK    8  A    between atoms: C15_26  and  N5_27 
REMARK    9  A    between atoms: N5_27  and  C16_28 
ROOT
HETATM    1  C4  UNL     1      32.270   4.016  26.423  1.00  0.00     0.177 C 
HETATM    2  N1  UNL     1      32.157   3.504  25.087  1.00  0.00    -0.346 N 
ATOM      3  H1  UNL     1      32.803   3.907  24.408  1.00  0.00     0.163 HD
HETATM    4  C5  UNL     1      31.287   2.529  24.583  1.00  0.00     0.244 C 
HETATM    5  O1  UNL     1      31.857   1.716  23.763  1.00  0.00    -0.272 OA
HETATM    6  C6  UNL     1      29.864   2.372  24.896  1.00  0.00     0.344 C 
HETATM    7  N2  UNL     1      29.032   3.476  24.613  1.00  0.00    -0.013 N 
HETATM    8  C7  UNL     1      29.427   4.770  25.011  1.00  0.00     0.287 C 
HETATM    9  C8  UNL     1      29.517   5.069  26.461  1.00  0.00     0.091 C 
HETATM   10  N3  UNL     1      29.957   4.055  27.334  1.00  0.00    -0.337 N 
ATOM     11  H3  UNL     1      29.275   3.669  27.989  1.00  0.00     0.167 HD
HETATM   12  C9  UNL     1      31.294   3.520  27.374  1.00  0.00     0.244 C 
HETATM   13  O2  UNL     1      31.614   2.628  28.231  1.00  0.00    -0.271 OA
HETATM   14  C10 UNL     1      27.662   3.212  25.033  1.00  0.00     0.348 C 
HETATM   15  C11 UNL     1      27.335   2.738  23.660  1.00  0.00     0.184 C 
HETATM   16  N4  UNL     1      26.153   3.209  23.048  1.00  0.00    -0.171 NA
HETATM   17  S1  UNL     1      26.525   4.753  22.337  1.00  0.00    -0.060 SA
HETATM   18  C23 UNL     1      28.271   4.689  22.568  1.00  0.00     0.224 C 
HETATM   19  O4  UNL     1      29.055   5.525  22.241  1.00  0.00    -0.283 OA
HETATM   20  C24 UNL     1      28.539   3.427  23.226  1.00  0.00     0.299 C 
ENDROOT
BRANCH  14  21
HETATM   21  O3  UNL     1      27.595   2.220  26.003  1.00  0.00    -0.368 OA
ATOM     22  H3  UNL     1      27.088   2.493  26.759  1.00  0.00     0.212 HD
ENDBRANCH  14  21
BRANCH  17  23
HETATM   23  C12 UNL     1      26.238   4.629  20.567  1.00  0.00     0.089 C 
BRANCH  23  24
HETATM   24  C13 UNL     1      24.826   4.149  20.283  1.00  0.00     0.013 C 
BRANCH  24  25
HETATM   25  C14 UNL     1      24.513   4.296  18.787  1.00  0.00     0.029 C 
BRANCH  25  26
HETATM   26  C15 UNL     1      24.682   5.717  18.453  1.00  0.00     0.237 C 
BRANCH  26  27
HETATM   27  N5  UNL     1      23.724   6.294  17.527  1.00  0.00    -0.067 N 
HETATM   28  C18 UNL     1      23.613   5.366  16.428  1.00  0.00     0.237 C 
HETATM   29  C19 UNL     1      23.639   5.963  15.070  1.00  0.00     0.028 C 
HETATM   30  C20 UNL     1      24.773   6.943  14.848  1.00  0.00     0.003 C 
HETATM   31  C21 UNL     1      25.037   7.784  16.059  1.00  0.00     0.028 C 
HETATM   32  C22 UNL     1      24.032   7.628  17.147  1.00  0.00     0.237 C 
BRANCH  27  33
HETATM   33  C16 UNL     1      22.488   6.271  18.334  1.00  0.00     0.233 C 
HETATM   34  C17 UNL     1      22.491   7.254  19.446  1.00  0.00     0.035 C 
ENDBRANCH  27  33
ENDBRANCH  26  27
ENDBRANCH  25  26
ENDBRANCH  24  25
ENDBRANCH  23  24
ENDBRANCH  17  23
BRANCH   1  35
HETATM   35  C3  UNL     1      33.663   3.654  26.924  1.00  0.00     0.034 C 
BRANCH  35  36
HETATM   36  C2  UNL     1      34.578   4.864  26.955  1.00  0.00    -0.002 C 
HETATM   37  C1  UNL     1      35.848   4.629  26.205  1.00  0.00     0.005 C 
ENDBRANCH  35  36
ENDBRANCH   1  35
TORSDOF 9
ENDMDL
MODEL 3
REMARK VINA RESULT: -6.835614935      3.002      8.577
REMARK  9 active torsions:
REMARK  status: ('A' for Active; 'I' for Inactive)
REMARK    1  A    between atoms: C2_2  and  C3_3 
REMARK    2  A    between atoms: C3_3  and  C4_4 
REMARK    3  A    between atoms: C10_17  and  O3_18 
REMARK    4  A    between atoms: S1_22  and  C12_23 
REMARK    5  A    between atoms: C12_23  and  C13_24 
REMARK    6  A    between atoms: C13_24  and  C14_25 
REMARK    7  A    between atoms: C14_25  and  C15_26 
REMARK    8  A    between atoms: C15_26  and  N5_27 
REMARK    9  A    between atoms: N5_27  and  C16_28 
ROOT
HETATM    1  C4  UNL     1      24.091   2.929  20.670  1.00  0.00     0.177 C 
HETATM    2  N1  UNL     1      24.960   2.250  21.587  1.00  0.00    -0.346 N 
ATOM      3  H1  UNL     1      24.506   1.570  22.199  1.00  0.00     0.163 HD
HETATM    4  C5  UNL     1      26.343   2.385  21.764  1.00  0.00     0.244 C 
HETATM    5  O1  UNL     1      26.945   1.261  21.937  1.00  0.00    -0.272 OA
HETATM    6  C6  UNL     1      27.112   3.633  21.767  1.00  0.00     0.344 C 
HETATM    7  N2  UNL     1      26.743   4.597  22.730  1.00  0.00    -0.013 N 
HETATM    8  C7  UNL     1      25.382   4.922  22.909  1.00  0.00     0.287 C 
HETATM    9  C8  UNL     1      24.661   5.592  21.800  1.00  0.00     0.091 C 
HETATM   10  N3  UNL     1      24.985   5.242  20.474  1.00  0.00    -0.337 N 
ATOM     11  H3  UNL     1      25.451   5.946  19.901  1.00  0.00     0.167 HD
HETATM   12  C9  UNL     1      24.709   3.964  19.865  1.00  0.00     0.244 C 
HETATM   13  O2  UNL     1      25.002   3.751  18.639  1.00  0.00    -0.271 OA
HETATM   14  C10 UNL     1      27.537   5.809  22.579  1.00  0.00     0.348 C 
HETATM   15  C11 UNL     1      28.498   5.302  23.598  1.00  0.00     0.184 C 
HETATM   16  N4  UNL     1      28.916   6.177  24.624  1.00  0.00    -0.171 NA
HETATM   17  S1  UNL     1      27.698   6.127  25.867  1.00  0.00    -0.060 SA
HETATM   18  C23 UNL     1      26.777   4.771  25.220  1.00  0.00     0.224 C 
HETATM   19  O4  UNL     1      25.798   4.291  25.703  1.00  0.00    -0.283 OA
HETATM   20  C24 UNL     1      27.453   4.376  24.001  1.00  0.00     0.299 C 
ENDROOT
BRANCH  14  21
HETATM   21  O3  UNL     1      28.077   5.924  21.304  1.00  0.00    -0.368 OA
ATOM     22  H3  UNL     1      28.452   5.106  21.000  1.00  0.00     0.212 HD
ENDBRANCH  14  21
BRANCH  17  23
HETATM   23  C12 UNL     1      28.477   5.542  27.378  1.00  0.00     0.089 C 
BRANCH  23  24
HETATM   24  C13 UNL     1      28.648   4.034  27.347  1.00  0.00     0.013 C 
BRANCH  24  25
HETATM   25  C14 UNL     1      30.028   3.673  26.781  1.00  0.00     0.029 C 
BRANCH  25  26
HETATM   26  C15 UNL     1      29.841   2.502  25.914  1.00  0.00     0.237 C 
BRANCH  26  27
HETATM   27  N5  UNL     1      30.993   2.057  25.151  1.00  0.00    -0.067 N 
HETATM   28  C18 UNL     1      31.674   3.252  24.712  1.00  0.00     0.237 C 
HETATM   29  C19 UNL     1      32.109   3.268  23.294  1.00  0.00     0.028 C 
HETATM   30  C20 UNL     1      31.028   2.861  22.313  1.00  0.00     0.003 C 
HETATM   31  C21 UNL     1      30.177   1.748  22.840  1.00  0.00     0.028 C 
HETATM   32  C22 UNL     1      30.669   1.145  24.110  1.00  0.00     0.237 C 
BRANCH  27  33
HETATM   33  C16 UNL     1      31.789   1.376  26.191  1.00  0.00     0.233 C 
HETATM   34  C17 UNL     1      31.100   0.204  26.787  1.00  0.00     0.035 C 
ENDBRANCH  27  33
ENDBRANCH  26  27
ENDBRANCH  25  26
ENDBRANCH  24  25
ENDBRANCH  23  24
ENDBRANCH  17  23
BRANCH   1  35
HETATM   35  C3  UNL     1      23.510   1.873  19.739  1.00  0.00     0.034 C 
BRANCH  35  36
HETATM   36  C2  UNL     1      23.056   0.642  20.503  1.00  0.00    -0.002 C 
HETATM   37  C1  UNL     1      21.857   0.005  19.881  1.00  0.00     0.005 C 
ENDBRANCH  35  36
ENDBRANCH   1  35
TORSDOF 9
ENDMDL
MODEL 4
REMARK VINA RESULT: -6.829438652      2.660      9.465
REMARK  9 active torsions:
REMARK  status: ('A' for Active; 'I' for Inactive)
REMARK    1  A    between atoms: C2_2  and  C3_3 
REMARK    2  A    between atoms: C3_3  and  C4_4 
REMARK    3  A    between atoms: C10_17  and  O3_18 
REMARK    4  A    between atoms: S1_22  and  C12_23 
REMARK    5  A    between atoms: C12_23  and  C13_24 
REMARK    6  A    between atoms: C13_24  and  C14_25 
REMARK    7  A    between atoms: C14_25  and  C15_26 
REMARK    8  A    between atoms: C15_26  and  N5_27 
REMARK    9  A    between atoms: N5_27  and  C16_28 
ROOT
HETATM    1  C4  UNL     1      24.363   4.765  17.373  1.00  0.00     0.177 C 
HETATM    2  N1  UNL     1      24.539   5.927  18.196  1.00  0.00    -0.346 N 
ATOM      3  H1  UNL     1      25.154   6.645  17.813  1.00  0.00     0.163 HD
HETATM    4  C5  UNL     1      23.989   6.216  19.451  1.00  0.00     0.244 C 
HETATM    5  O1  UNL     1      23.602   7.438  19.566  1.00  0.00    -0.272 OA
HETATM    6  C6  UNL     1      23.828   5.290  20.577  1.00  0.00     0.344 C 
HETATM    7  N2  UNL     1      25.005   4.685  21.065  1.00  0.00    -0.013 N 
HETATM    8  C7  UNL     1      25.928   4.118  20.162  1.00  0.00     0.287 C 
HETATM    9  C8  UNL     1      25.513   2.931  19.375  1.00  0.00     0.091 C 
HETATM   10  N3  UNL     1      24.175   2.843  18.940  1.00  0.00    -0.337 N 
ATOM     11  H3  UNL     1      23.591   2.119  19.359  1.00  0.00     0.167 HD
HETATM   12  C9  UNL     1      23.569   3.697  17.950  1.00  0.00     0.244 C 
HETATM   13  O2  UNL     1      22.358   3.515  17.587  1.00  0.00    -0.271 OA
HETATM   14  C10 UNL     1      24.697   3.742  22.133  1.00  0.00     0.348 C 
HETATM   15  C11 UNL     1      24.943   4.808  23.142  1.00  0.00     0.184 C 
HETATM   16  N4  UNL     1      25.744   4.503  24.264  1.00  0.00    -0.171 NA
HETATM   17  S1  UNL     1      27.403   4.697  23.776  1.00  0.00    -0.060 SA
HETATM   18  C23 UNL     1      27.089   5.445  22.212  1.00  0.00     0.224 C 
HETATM   19  O4  UNL     1      27.909   5.807  21.427  1.00  0.00    -0.283 OA
HETATM   20  C24 UNL     1      25.647   5.524  22.092  1.00  0.00     0.299 C 
ENDROOT
BRANCH  14  21
HETATM   21  O3  UNL     1      23.378   3.308  22.081  1.00  0.00    -0.368 OA
ATOM     22  H3  UNL     1      23.316   2.366  21.972  1.00  0.00     0.212 HD
ENDBRANCH  14  21
BRANCH  17  23
HETATM   23  C12 UNL     1      28.138   5.967  24.813  1.00  0.00     0.089 C 
BRANCH  23  24
HETATM   24  C13 UNL     1      28.912   5.345  25.960  1.00  0.00     0.013 C 
BRANCH  24  25
HETATM   25  C14 UNL     1      30.178   4.658  25.429  1.00  0.00     0.029 C 
BRANCH  25  26
HETATM   26  C15 UNL     1      29.877   3.224  25.333  1.00  0.00     0.237 C 
BRANCH  26  27
HETATM   27  N5  UNL     1      30.704   2.437  24.436  1.00  0.00    -0.067 N 
HETATM   28  C18 UNL     1      31.840   3.262  24.103  1.00  0.00     0.237 C 
HETATM   29  C19 UNL     1      32.222   3.294  22.670  1.00  0.00     0.028 C 
HETATM   30  C20 UNL     1      31.063   3.551  21.728  1.00  0.00     0.003 C 
HETATM   31  C21 UNL     1      29.812   2.860  22.171  1.00  0.00     0.028 C 
HETATM   32  C22 UNL     1      29.998   1.923  23.314  1.00  0.00     0.237 C 
BRANCH  27  33
HETATM   33  C16 UNL     1      31.124   1.331  25.319  1.00  0.00     0.233 C 
HETATM   34  C17 UNL     1      31.505   0.100  24.582  1.00  0.00     0.035 C 
ENDBRANCH  27  33
ENDBRANCH  26  27
ENDBRANCH  25  26
ENDBRANCH  24  25
ENDBRANCH  23  24
ENDBRANCH  17  23
BRANCH   1  35
HETATM   35  C3  UNL     1      23.691   5.227  16.086  1.00  0.00     0.034 C 
BRANCH  35  36
HETATM   36  C2  UNL     1      23.986   6.687  15.794  1.00  0.00    -0.002 C 
HETATM   37  C1  UNL     1      25.085   6.851  14.796  1.00  0.00     0.005 C 
ENDBRANCH  35  36
ENDBRANCH   1  35
TORSDOF 9
ENDMDL
MODEL 5
REMARK VINA RESULT: -6.696057718      3.894      8.843
REMARK  9 active torsions:
REMARK  status: ('A' for Active; 'I' for Inactive)
REMARK    1  A    between atoms: C2_2  and  C3_3 
REMARK    2  A    between atoms: C3_3  and  C4_4 
REMARK    3  A    between atoms: C10_17  and  O3_18 
REMARK    4  A    between atoms: S1_22  and  C12_23 
REMARK    5  A    between atoms: C12_23  and  C13_24 
REMARK    6  A    between atoms: C13_24  and  C14_25 
REMARK    7  A    between atoms: C14_25  and  C15_26 
REMARK    8  A    between atoms: C15_26  and  N5_27 
REMARK    9  A    between atoms: N5_27  and  C16_28 
ROOT
HETATM    1  C4  UNL     1      25.747   1.298  22.061  1.00  0.00     0.177 C 
HETATM    2  N1  UNL     1      26.906   1.319  22.906  1.00  0.00    -0.346 N 
ATOM      3  H1  UNL     1      26.864   0.709  23.723  1.00  0.00     0.163 HD
HETATM    4  C5  UNL     1      28.088   2.057  22.769  1.00  0.00     0.244 C 
HETATM    5  O1  UNL     1      29.146   1.377  23.047  1.00  0.00    -0.272 OA
HETATM    6  C6  UNL     1      28.209   3.460  22.360  1.00  0.00     0.344 C 
HETATM    7  N2  UNL     1      27.532   4.407  23.156  1.00  0.00    -0.013 N 
HETATM    8  C7  UNL     1      26.192   4.176  23.533  1.00  0.00     0.287 C 
HETATM    9  C8  UNL     1      25.151   4.155  22.477  1.00  0.00     0.091 C 
HETATM   10  N3  UNL     1      25.480   3.621  21.215  1.00  0.00    -0.337 N 
ATOM     11  H3  UNL     1      25.525   4.268  20.427  1.00  0.00     0.167 HD
HETATM   12  C9  UNL     1      25.757   2.231  20.952  1.00  0.00     0.244 C 
HETATM   13  O2  UNL     1      26.005   1.831  19.764  1.00  0.00    -0.271 OA
HETATM   14  C10 UNL     1      27.677   5.747  22.602  1.00  0.00     0.348 C 
HETATM   15  C11 UNL     1      28.849   5.984  23.489  1.00  0.00     0.184 C 
HETATM   16  N4  UNL     1      28.917   7.197  24.207  1.00  0.00    -0.171 NA
HETATM   17  S1  UNL     1      27.968   6.991  25.652  1.00  0.00    -0.060 SA
HETATM   18  C23 UNL     1      27.704   5.256  25.498  1.00  0.00     0.224 C 
HETATM   19  O4  UNL     1      27.095   4.567  26.256  1.00  0.00    -0.283 OA
HETATM   20  C24 UNL     1      28.375   4.858  24.277  1.00  0.00     0.299 C 
ENDROOT
BRANCH  14  21
HETATM   21  O3  UNL     1      27.991   5.720  21.249  1.00  0.00    -0.368 OA
ATOM     22  H3  UNL     1      28.881   6.009  21.083  1.00  0.00     0.212 HD
ENDBRANCH  14  21
BRANCH  17  23
HETATM   23  C12 UNL     1      29.058   7.220  27.063  1.00  0.00     0.089 C 
BRANCH  23  24
HETATM   24  C13 UNL     1      30.387   7.807  26.628  1.00  0.00     0.013 C 
BRANCH  24  25
HETATM   25  C14 UNL     1      31.543   6.978  27.206  1.00  0.00     0.029 C 
BRANCH  25  26
HETATM   26  C15 UNL     1      30.968   5.705  27.661  1.00  0.00     0.237 C 
BRANCH  26  27
HETATM   27  N5  UNL     1      31.704   4.497  27.336  1.00  0.00    -0.067 N 
HETATM   28  C18 UNL     1      31.489   4.257  25.929  1.00  0.00     0.237 C 
HETATM   29  C19 UNL     1      31.168   2.860  25.550  1.00  0.00     0.028 C 
HETATM   30  C20 UNL     1      30.074   2.228  26.387  1.00  0.00     0.003 C 
HETATM   31  C21 UNL     1      30.162   2.630  27.827  1.00  0.00     0.028 C 
HETATM   32  C22 UNL     1      31.391   3.395  28.178  1.00  0.00     0.237 C 
BRANCH  27  33
HETATM   33  C16 UNL     1      33.096   4.930  27.567  1.00  0.00     0.233 C 
HETATM   34  C17 UNL     1      34.052   3.802  27.691  1.00  0.00     0.035 C 
ENDBRANCH  27  33
ENDBRANCH  26  27
ENDBRANCH  25  26
ENDBRANCH  24  25
ENDBRANCH  23  24
ENDBRANCH  17  23
BRANCH   1  35
HETATM   35  C3  UNL     1      25.625  -0.115  21.504  1.00  0.00     0.034 C 
BRANCH  35  36
HETATM   36  C2  UNL     1      24.177  -0.490  21.240  1.00  0.00    -0.002 C 
HETATM   37  C1  UNL     1      23.957  -1.965  21.312  1.00  0.00     0.005 C 
ENDBRANCH  35  36
ENDBRANCH   1  35
TORSDOF 9
ENDMDL
