MODEL 1
REMARK VINA RESULT: -7.376996448      0.000      0.000
REMARK  14 active torsions:
REMARK  status: ('A' for Active; 'I' for Inactive)
REMARK    1  A    between atoms: C2_2  and  S1_3 
REMARK    2  A    between atoms: S1_3  and  C4_5 
REMARK    3  A    between atoms: S1_3  and  C5_8 
REMARK    4  A    between atoms: C4_5  and  O1_6 
REMARK    5  A    between atoms: N1_11  and  C8_12 
REMARK    6  A    between atoms: C8_12  and  C9_13 
REMARK    7  A    between atoms: C9_13  and  N2_14 
REMARK    8  A    between atoms: N3_17  and  C12_18 
REMARK    9  A    between atoms: C12_18  and  C13_19 
REMARK   10  A    between atoms: C13_19  and  C14_20 
REMARK   11  A    between atoms: C14_20  and  C15_21 
REMARK   12  A    between atoms: C15_21  and  N4_22 
REMARK   13  A    between atoms: C17_24  and  N5_25 
REMARK   14  A    between atoms: N5_25  and  C18_27 
ROOT
HETATM    1  N2  UNL     1      29.301   4.022  22.040  1.00  0.00    -0.350 N 
HETATM    2  C10 UNL     1      28.562   5.120  22.007  1.00  0.00     0.109 A 
HETATM    3  C11 UNL     1      27.230   4.772  22.053  1.00  0.00     0.110 A 
HETATM    4  N3  UNL     1      27.166   3.433  22.116  1.00  0.00    -0.341 N 
HETATM    5  C22 UNL     1      28.421   2.982  22.107  1.00  0.00     0.185 A 
ENDROOT
BRANCH   4   6
HETATM    6  C12 UNL     1      25.986   2.563  22.183  1.00  0.00     0.223 C 
BRANCH   6   7
HETATM    7  C13 UNL     1      25.264   2.774  20.906  1.00  0.00    -0.085 C 
BRANCH   7   8
HETATM    8  C14 UNL     1      24.674   2.969  19.876  1.00  0.00    -0.083 C 
BRANCH   8   9
HETATM    9  C15 UNL     1      23.935   3.206  18.640  1.00  0.00     0.242 C 
BRANCH   9  10
HETATM   10  N4  UNL     1      23.795   4.606  18.326  1.00  0.00    -0.275 N 
HETATM   11  C16 UNL     1      23.776   5.111  17.081  1.00  0.00     0.160 A 
HETATM   12  C17 UNL     1      23.647   6.464  16.836  1.00  0.00     0.134 A 
HETATM   13  N6  UNL     1      23.538   7.281  17.900  1.00  0.00    -0.175 N 
HETATM   14  C21 UNL     1      23.555   6.784  19.143  1.00  0.00     0.692 A 
ATOM     15  H6  UNL     1      23.441   8.286  17.758  1.00  0.00     0.186 HD
HETATM   16  N7  UNL     1      23.450   7.573  20.157  1.00  0.00    -0.233 N 
HETATM   17  N8  UNL     1      23.683   5.466  19.322  1.00  0.00    -0.130 N 
ATOM     18  H72 UNL     1      23.352   8.580  20.020  1.00  0.00     0.174 HD
ATOM     19  H71 UNL     1      23.464   7.195  21.104  1.00  0.00     0.174 HD
ATOM     20  H8  UNL     1      23.694   5.106  20.276  1.00  0.00     0.206 HD
BRANCH  12  21
HETATM   21  N5  UNL     1      23.625   6.997  15.672  1.00  0.00    -0.371 N 
ATOM     22  H5  UNL     1      22.705   7.126  15.249  1.00  0.00     0.161 HD
BRANCH  21  23
HETATM   23  C18 UNL     1      24.744   7.431  14.899  1.00  0.00     0.075 C 
HETATM   24  C19 UNL     1      25.719   6.333  14.542  1.00  0.00     0.031 C 
HETATM   25  C20 UNL     1      25.460   8.590  15.575  1.00  0.00     0.031 C 
ENDBRANCH  21  23
ENDBRANCH  12  21
ENDBRANCH   9  10
ENDBRANCH   8   9
ENDBRANCH   7   8
ENDBRANCH   6   7
ENDBRANCH   4   6
BRANCH   1  26
HETATM   26  C9  UNL     1      30.747   3.862  22.015  1.00  0.00     0.149 C 
BRANCH  26  27
HETATM   27  C8  UNL     1      31.184   2.476  22.367  1.00  0.00     0.148 C 
BRANCH  27  28
HETATM   28  N1  UNL     1      31.297   2.206  23.768  1.00  0.00    -0.365 N 
HETATM   29  C7  UNL     1      31.242   0.952  24.280  1.00  0.00     0.091 A 
HETATM   30  C6  UNL     1      31.353   0.701  25.628  1.00  0.00     0.034 A 
HETATM   31  C5  UNL     1      31.530   1.745  26.542  1.00  0.00    -0.013 A 
HETATM   32  C24 UNL     1      31.584   3.015  26.013  1.00  0.00     0.034 A 
HETATM   33  C23 UNL     1      31.467   3.220  24.631  1.00  0.00     0.091 A 
BRANCH  31  34
HETATM   34  S1  UNL     1      31.667   1.361  28.253  1.00  0.00    -0.208 SA
HETATM   35  C3  UNL     1      30.744   2.617  29.191  1.00  0.00     0.075 C 
BRANCH  34  36
HETATM   36  C2  UNL     1      30.939  -0.242  28.633  1.00  0.00     0.056 C 
HETATM   37  C1  UNL     1      29.443  -0.162  28.745  1.00  0.00     0.015 C 
ENDBRANCH  34  36
BRANCH  34  38
HETATM   38  C4  UNL     1      33.362   1.356  28.833  1.00  0.00     0.223 C 
BRANCH  38  39
HETATM   39  O1  UNL     1      34.200   1.313  27.732  1.00  0.00    -0.392 OA
ATOM     40  H1  UNL     1      34.899   0.695  27.912  1.00  0.00     0.210 HD
ENDBRANCH  38  39
ENDBRANCH  34  38
ENDBRANCH  31  34
ENDBRANCH  27  28
ENDBRANCH  26  27
ENDBRANCH   1  26
TORSDOF 14
ENDMDL
MODEL 2
REMARK VINA RESULT: -7.364475102      2.836      5.674
REMARK  14 active torsions:
REMARK  status: ('A' for Active; 'I' for Inactive)
REMARK    1  A    between atoms: C2_2  and  S1_3 
REMARK    2  A    between atoms: S1_3  and  C4_5 
REMARK    3  A    between atoms: S1_3  and  C5_8 
REMARK    4  A    between atoms: C4_5  and  O1_6 
REMARK    5  A    between atoms: N1_11  and  C8_12 
REMARK    6  A    between atoms: C8_12  and  C9_13 
REMARK    7  A    between atoms: C9_13  and  N2_14 
REMARK    8  A    between atoms: N3_17  and  C12_18 
REMARK    9  A    between atoms: C12_18  and  C13_19 
REMARK   10  A    between atoms: C13_19  and  C14_20 
REMARK   11  A    between atoms: C14_20  and  C15_21 
REMARK   12  A    between atoms: C15_21  and  N4_22 
REMARK   13  A    between atoms: C17_24  and  N5_25 
REMARK   14  A    between atoms: N5_25  and  C18_27 
ROOT
HETATM    1  N2  UNL     1      23.456   6.162  24.183  1.00  0.00    -0.350 N 
HETATM    2  C10 UNL     1      22.681   6.784  25.057  1.00  0.00     0.109 A 
HETATM    3  C11 UNL     1      21.689   7.461  24.383  1.00  0.00     0.110 A 
HETATM    4  N3  UNL     1      21.871   7.240  23.072  1.00  0.00    -0.341 N 
HETATM    5  C22 UNL     1      22.941   6.455  22.954  1.00  0.00     0.185 A 
ENDROOT
BRANCH   4   6
HETATM    6  C12 UNL     1      21.089   7.732  21.932  1.00  0.00     0.223 C 
BRANCH   6   7
HETATM    7  C13 UNL     1      21.983   7.617  20.757  1.00  0.00    -0.085 C 
BRANCH   7   8
HETATM    8  C14 UNL     1      22.728   7.519  19.817  1.00  0.00    -0.083 C 
BRANCH   8   9
HETATM    9  C15 UNL     1      23.654   7.406  18.695  1.00  0.00     0.242 C 
BRANCH   9  10
HETATM   10  N4  UNL     1      23.820   6.050  18.234  1.00  0.00    -0.275 N 
HETATM   11  C16 UNL     1      24.445   5.081  18.922  1.00  0.00     0.160 A 
HETATM   12  C17 UNL     1      24.583   3.798  18.431  1.00  0.00     0.134 A 
HETATM   13  N6  UNL     1      24.062   3.539  17.217  1.00  0.00    -0.175 N 
HETATM   14  C21 UNL     1      23.437   4.500  16.525  1.00  0.00     0.692 A 
ATOM     15  H6  UNL     1      24.144   2.602  16.821  1.00  0.00     0.186 HD
HETATM   16  N7  UNL     1      22.941   4.243  15.364  1.00  0.00    -0.233 N 
HETATM   17  N8  UNL     1      23.334   5.724  17.050  1.00  0.00    -0.130 N 
ATOM     18  H72 UNL     1      23.020   3.308  14.963  1.00  0.00     0.174 HD
ATOM     19  H71 UNL     1      22.465   4.975  14.836  1.00  0.00     0.174 HD
ATOM     20  H8  UNL     1      22.854   6.443  16.509  1.00  0.00     0.206 HD
BRANCH  12  21
HETATM   21  N5  UNL     1      25.170   2.839  19.043  1.00  0.00    -0.371 N 
ATOM     22  H5  UNL     1      25.991   2.443  18.585  1.00  0.00     0.161 HD
BRANCH  21  23
HETATM   23  C18 UNL     1      24.804   2.263  20.297  1.00  0.00     0.075 C 
HETATM   24  C19 UNL     1      25.836   1.324  20.878  1.00  0.00     0.031 C 
HETATM   25  C20 UNL     1      23.444   1.586  20.213  1.00  0.00     0.031 C 
ENDBRANCH  21  23
ENDBRANCH  12  21
ENDBRANCH   9  10
ENDBRANCH   8   9
ENDBRANCH   7   8
ENDBRANCH   6   7
ENDBRANCH   4   6
BRANCH   1  26
HETATM   26  C9  UNL     1      24.626   5.323  24.394  1.00  0.00     0.149 C 
BRANCH  26  27
HETATM   27  C8  UNL     1      25.069   4.620  23.151  1.00  0.00     0.148 C 
BRANCH  27  28
HETATM   28  N1  UNL     1      26.409   4.118  23.176  1.00  0.00    -0.365 N 
HETATM   29  C7  UNL     1      27.386   4.596  22.366  1.00  0.00     0.091 A 
HETATM   30  C6  UNL     1      28.673   4.109  22.396  1.00  0.00     0.034 A 
HETATM   31  C5  UNL     1      29.033   3.084  23.277  1.00  0.00    -0.013 A 
HETATM   32  C24 UNL     1      28.034   2.604  24.095  1.00  0.00     0.034 A 
HETATM   33  C23 UNL     1      26.738   3.134  24.028  1.00  0.00     0.091 A 
BRANCH  31  34
HETATM   34  S1  UNL     1      30.693   2.504  23.270  1.00  0.00    -0.208 SA
HETATM   35  C3  UNL     1      31.506   3.130  21.768  1.00  0.00     0.075 C 
BRANCH  34  36
HETATM   36  C2  UNL     1      31.618   3.124  24.685  1.00  0.00     0.056 C 
HETATM   37  C1  UNL     1      30.865   4.200  25.415  1.00  0.00     0.015 C 
ENDBRANCH  34  36
BRANCH  34  38
HETATM   38  C4  UNL     1      30.807   0.715  23.269  1.00  0.00     0.223 C 
BRANCH  38  39
HETATM   39  O1  UNL     1      30.760   0.274  24.580  1.00  0.00    -0.392 OA
ATOM     40  H1  UNL     1      30.650  -0.669  24.574  1.00  0.00     0.210 HD
ENDBRANCH  38  39
ENDBRANCH  34  38
ENDBRANCH  31  34
ENDBRANCH  27  28
ENDBRANCH  26  27
ENDBRANCH   1  26
TORSDOF 14
ENDMDL
MODEL 3
REMARK VINA RESULT: -7.215641519      3.101      5.856
REMARK  14 active torsions:
REMARK  status: ('A' for Active; 'I' for Inactive)
REMARK    1  A    between atoms: C2_2  and  S1_3 
REMARK    2  A    between atoms: S1_3  and  C4_5 
REMARK    3  A    between atoms: S1_3  and  C5_8 
REMARK    4  A    between atoms: C4_5  and  O1_6 
REMARK    5  A    between atoms: N1_11  and  C8_12 
REMARK    6  A    between atoms: C8_12  and  C9_13 
REMARK    7  A    between atoms: C9_13  and  N2_14 
REMARK    8  A    between atoms: N3_17  and  C12_18 
REMARK    9  A    between atoms: C12_18  and  C13_19 
REMARK   10  A    between atoms: C13_19  and  C14_20 
REMARK   11  A    between atoms: C14_20  and  C15_21 
REMARK   12  A    between atoms: C15_21  and  N4_22 
REMARK   13  A    between atoms: C17_24  and  N5_25 
REMARK   14  A    between atoms: N5_25  and  C18_27 
ROOT
HETATM    1  N2  UNL     1      24.092   7.757  24.203  1.00  0.00    -0.350 N 
HETATM    2  C10 UNL     1      23.386   8.749  24.724  1.00  0.00     0.109 A 
HETATM    3  C11 UNL     1      22.258   8.953  23.960  1.00  0.00     0.110 A 
HETATM    4  N3  UNL     1      22.285   8.063  22.957  1.00  0.00    -0.341 N 
HETATM    5  C22 UNL     1      23.396   7.341  23.106  1.00  0.00     0.185 A 
ENDROOT
BRANCH   4   6
HETATM    6  C12 UNL     1      21.320   7.862  21.870  1.00  0.00     0.223 C 
BRANCH   6   7
HETATM    7  C13 UNL     1      22.133   7.641  20.651  1.00  0.00    -0.085 C 
BRANCH   7   8
HETATM    8  C14 UNL     1      22.790   7.437  19.664  1.00  0.00    -0.083 C 
BRANCH   8   9
HETATM    9  C15 UNL     1      23.566   7.174  18.456  1.00  0.00     0.242 C 
BRANCH   9  10
HETATM   10  N4  UNL     1      23.804   5.769  18.233  1.00  0.00    -0.275 N 
HETATM   11  C16 UNL     1      23.915   4.850  19.206  1.00  0.00     0.160 A 
HETATM   12  C17 UNL     1      24.151   3.516  18.938  1.00  0.00     0.134 A 
HETATM   13  N6  UNL     1      24.269   3.154  17.647  1.00  0.00    -0.175 N 
HETATM   14  C21 UNL     1      24.159   4.064  16.672  1.00  0.00     0.692 A 
ATOM     15  H6  UNL     1      24.444   2.177  17.410  1.00  0.00     0.186 HD
HETATM   16  N7  UNL     1      24.273   3.709  15.439  1.00  0.00    -0.233 N 
HETATM   17  N8  UNL     1      23.930   5.342  16.990  1.00  0.00    -0.130 N 
ATOM     18  H72 UNL     1      24.447   2.733  15.196  1.00  0.00     0.174 HD
ATOM     19  H71 UNL     1      24.189   4.403  14.695  1.00  0.00     0.174 HD
ATOM     20  H8  UNL     1      23.849   6.021  16.234  1.00  0.00     0.206 HD
BRANCH  12  21
HETATM   21  N5  UNL     1      24.267   2.601  19.826  1.00  0.00    -0.371 N 
ATOM     22  H5  UNL     1      23.436   2.038  20.010  1.00  0.00     0.161 HD
BRANCH  21  23
HETATM   23  C18 UNL     1      25.431   2.280  20.588  1.00  0.00     0.075 C 
HETATM   24  C19 UNL     1      25.474   0.856  21.092  1.00  0.00     0.031 C 
HETATM   25  C20 UNL     1      25.626   3.264  21.731  1.00  0.00     0.031 C 
ENDBRANCH  21  23
ENDBRANCH  12  21
ENDBRANCH   9  10
ENDBRANCH   8   9
ENDBRANCH   7   8
ENDBRANCH   6   7
ENDBRANCH   4   6
BRANCH   1  26
HETATM   26  C9  UNL     1      25.349   7.168  24.639  1.00  0.00     0.149 C 
BRANCH  26  27
HETATM   27  C8  UNL     1      26.487   7.483  23.722  1.00  0.00     0.148 C 
BRANCH  27  28
HETATM   28  N1  UNL     1      27.513   6.487  23.655  1.00  0.00    -0.365 N 
HETATM   29  C7  UNL     1      28.226   6.244  22.527  1.00  0.00     0.091 A 
HETATM   30  C6  UNL     1      29.212   5.285  22.471  1.00  0.00     0.034 A 
HETATM   31  C5  UNL     1      29.524   4.509  23.592  1.00  0.00    -0.013 A 
HETATM   32  C24 UNL     1      28.794   4.762  24.732  1.00  0.00     0.034 A 
HETATM   33  C23 UNL     1      27.800   5.750  24.740  1.00  0.00     0.091 A 
BRANCH  31  34
HETATM   34  S1  UNL     1      30.795   3.300  23.459  1.00  0.00    -0.208 SA
HETATM   35  C3  UNL     1      31.750   3.309  25.007  1.00  0.00     0.075 C 
BRANCH  34  36
HETATM   36  C2  UNL     1      30.117   1.645  23.251  1.00  0.00     0.056 C 
HETATM   37  C1  UNL     1      28.691   1.682  22.777  1.00  0.00     0.015 C 
ENDBRANCH  34  36
BRANCH  34  38
HETATM   38  C4  UNL     1      31.920   3.618  22.101  1.00  0.00     0.223 C 
BRANCH  38  39
HETATM   39  O1  UNL     1      31.542   2.827  21.028  1.00  0.00    -0.392 OA
ATOM     40  H1  UNL     1      32.290   2.732  20.449  1.00  0.00     0.210 HD
ENDBRANCH  38  39
ENDBRANCH  34  38
ENDBRANCH  31  34
ENDBRANCH  27  28
ENDBRANCH  26  27
ENDBRANCH   1  26
TORSDOF 14
ENDMDL
MODEL 4
REMARK VINA RESULT: -7.194677748      1.264      1.782
REMARK  14 active torsions:
REMARK  status: ('A' for Active; 'I' for Inactive)
REMARK    1  A    between atoms: C2_2  and  S1_3 
REMARK    2  A    between atoms: S1_3  and  C4_5 
REMARK    3  A    between atoms: S1_3  and  C5_8 
REMARK    4  A    between atoms: C4_5  and  O1_6 
REMARK    5  A    between atoms: N1_11  and  C8_12 
REMARK    6  A    between atoms: C8_12  and  C9_13 
REMARK    7  A    between atoms: C9_13  and  N2_14 
REMARK    8  A    between atoms: N3_17  and  C12_18 
REMARK    9  A    between atoms: C12_18  and  C13_19 
REMARK   10  A    between atoms: C13_19  and  C14_20 
REMARK   11  A    between atoms: C14_20  and  C15_21 
REMARK   12  A    between atoms: C15_21  and  N4_22 
REMARK   13  A    between atoms: C17_24  and  N5_25 
REMARK   14  A    between atoms: N5_25  and  C18_27 
ROOT
HETATM    1  N2  UNL     1      29.608   3.543  21.927  1.00  0.00    -0.350 N 
HETATM    2  C10 UNL     1      29.172   4.760  22.213  1.00  0.00     0.109 A 
HETATM    3  C11 UNL     1      27.834   4.700  22.533  1.00  0.00     0.110 A 
HETATM    4  N3  UNL     1      27.455   3.416  22.437  1.00  0.00    -0.341 N 
HETATM    5  C22 UNL     1      28.530   2.719  22.070  1.00  0.00     0.185 A 
ENDROOT
BRANCH   4   6
HETATM    6  C12 UNL     1      26.136   2.819  22.674  1.00  0.00     0.223 C 
BRANCH   6   7
HETATM    7  C13 UNL     1      25.390   2.986  21.404  1.00  0.00    -0.085 C 
BRANCH   7   8
HETATM    8  C14 UNL     1      24.806   3.120  20.361  1.00  0.00    -0.083 C 
BRANCH   8   9
HETATM    9  C15 UNL     1      24.123   3.284  19.082  1.00  0.00     0.242 C 
BRANCH   9  10
HETATM   10  N4  UNL     1      23.973   4.665  18.696  1.00  0.00    -0.275 N 
HETATM   11  C16 UNL     1      24.140   5.131  17.447  1.00  0.00     0.160 A 
HETATM   12  C17 UNL     1      23.991   6.467  17.133  1.00  0.00     0.134 A 
HETATM   13  N6  UNL     1      23.667   7.309  18.132  1.00  0.00    -0.175 N 
HETATM   14  C21 UNL     1      23.498   6.851  19.379  1.00  0.00     0.692 A 
ATOM     15  H6  UNL     1      23.549   8.303  17.938  1.00  0.00     0.186 HD
HETATM   16  N7  UNL     1      23.188   7.663  20.330  1.00  0.00    -0.233 N 
HETATM   17  N8  UNL     1      23.655   5.547  19.626  1.00  0.00    -0.130 N 
ATOM     18  H72 UNL     1      23.068   8.658  20.141  1.00  0.00     0.174 HD
ATOM     19  H71 UNL     1      23.059   7.314  21.280  1.00  0.00     0.174 HD
ATOM     20  H8  UNL     1      23.522   5.217  20.581  1.00  0.00     0.206 HD
BRANCH  12  21
HETATM   21  N5  UNL     1      24.141   6.964  15.962  1.00  0.00    -0.371 N 
ATOM     22  H5  UNL     1      23.337   6.904  15.337  1.00  0.00     0.161 HD
BRANCH  21  23
HETATM   23  C18 UNL     1      25.308   7.593  15.433  1.00  0.00     0.075 C 
HETATM   24  C19 UNL     1      25.465   9.045  15.823  1.00  0.00     0.031 C 
HETATM   25  C20 UNL     1      25.384   7.427  13.923  1.00  0.00     0.031 C 
ENDBRANCH  21  23
ENDBRANCH  12  21
ENDBRANCH   9  10
ENDBRANCH   8   9
ENDBRANCH   7   8
ENDBRANCH   6   7
ENDBRANCH   4   6
BRANCH   1  26
HETATM   26  C9  UNL     1      30.933   3.087  21.536  1.00  0.00     0.149 C 
BRANCH  26  27
HETATM   27  C8  UNL     1      31.961   3.308  22.598  1.00  0.00     0.148 C 
BRANCH  27  28
HETATM   28  N1  UNL     1      31.673   2.708  23.865  1.00  0.00    -0.365 N 
HETATM   29  C7  UNL     1      31.460   1.377  24.015  1.00  0.00     0.091 A 
HETATM   30  C6  UNL     1      31.184   0.808  25.237  1.00  0.00     0.034 A 
HETATM   31  C5  UNL     1      31.110   1.591  26.394  1.00  0.00    -0.013 A 
HETATM   32  C24 UNL     1      31.327   2.941  26.232  1.00  0.00     0.034 A 
HETATM   33  C23 UNL     1      31.605   3.474  24.966  1.00  0.00     0.091 A 
BRANCH  31  34
HETATM   34  S1  UNL     1      30.756   0.806  27.928  1.00  0.00    -0.208 SA
HETATM   35  C3  UNL     1      30.708  -0.991  27.647  1.00  0.00     0.075 C 
BRANCH  34  36
HETATM   36  C2  UNL     1      32.037   1.129  29.150  1.00  0.00     0.056 C 
HETATM   37  C1  UNL     1      31.771   2.394  29.916  1.00  0.00     0.015 C 
ENDBRANCH  34  36
BRANCH  34  38
HETATM   38  C4  UNL     1      29.182   1.310  28.622  1.00  0.00     0.223 C 
BRANCH  38  39
HETATM   39  O1  UNL     1      28.244   1.334  27.603  1.00  0.00    -0.392 OA
ATOM     40  H1  UNL     1      27.981   2.236  27.461  1.00  0.00     0.210 HD
ENDBRANCH  38  39
ENDBRANCH  34  38
ENDBRANCH  31  34
ENDBRANCH  27  28
ENDBRANCH  26  27
ENDBRANCH   1  26
TORSDOF 14
ENDMDL
MODEL 5
REMARK VINA RESULT: -7.126340805      1.472      3.119
REMARK  14 active torsions:
REMARK  status: ('A' for Active; 'I' for Inactive)
REMARK    1  A    between atoms: C2_2  and  S1_3 
REMARK    2  A    between atoms: S1_3  and  C4_5 
REMARK    3  A    between atoms: S1_3  and  C5_8 
REMARK    4  A    between atoms: C4_5  and  O1_6 
REMARK    5  A    between atoms: N1_11  and  C8_12 
REMARK    6  A    between atoms: C8_12  and  C9_13 
REMARK    7  A    between atoms: C9_13  and  N2_14 
REMARK    8  A    between atoms: N3_17  and  C12_18 
REMARK    9  A    between atoms: C12_18  and  C13_19 
REMARK   10  A    between atoms: C13_19  and  C14_20 
REMARK   11  A    between atoms: C14_20  and  C15_21 
REMARK   12  A    between atoms: C15_21  and  N4_22 
REMARK   13  A    between atoms: C17_24  and  N5_25 
REMARK   14  A    between atoms: N5_25  and  C18_27 
ROOT
HETATM    1  N2  UNL     1      27.079   2.367  21.822  1.00  0.00    -0.350 N 
HETATM    2  C10 UNL     1      27.048   1.072  22.098  1.00  0.00     0.109 A 
HETATM    3  C11 UNL     1      25.849   0.546  21.669  1.00  0.00     0.110 A 
HETATM    4  N3  UNL     1      25.142   1.548  21.124  1.00  0.00    -0.341 N 
HETATM    5  C22 UNL     1      25.889   2.648  21.218  1.00  0.00     0.185 A 
ENDROOT
BRANCH   4   6
HETATM    6  C12 UNL     1      23.805   1.517  20.521  1.00  0.00     0.223 C 
BRANCH   6   7
HETATM    7  C13 UNL     1      23.889   2.382  19.321  1.00  0.00    -0.085 C 
BRANCH   7   8
HETATM    8  C14 UNL     1      23.941   3.069  18.335  1.00  0.00    -0.083 C 
BRANCH   8   9
HETATM    9  C15 UNL     1      23.999   3.879  17.122  1.00  0.00     0.242 C 
BRANCH   9  10
HETATM   10  N4  UNL     1      24.012   5.296  17.391  1.00  0.00    -0.275 N 
HETATM   11  C16 UNL     1      23.684   5.852  18.568  1.00  0.00     0.160 A 
HETATM   12  C17 UNL     1      23.706   7.218  18.770  1.00  0.00     0.134 A 
HETATM   13  N6  UNL     1      24.073   7.994  17.733  1.00  0.00    -0.175 N 
HETATM   14  C21 UNL     1      24.401   7.446  16.557  1.00  0.00     0.692 A 
ATOM     15  H6  UNL     1      24.101   9.008  17.845  1.00  0.00     0.186 HD
HETATM   16  N7  UNL     1      24.751   8.196  15.569  1.00  0.00    -0.233 N 
HETATM   17  N8  UNL     1      24.362   6.117  16.418  1.00  0.00    -0.130 N 
ATOM     18  H72 UNL     1      24.781   9.210  15.675  1.00  0.00     0.174 HD
ATOM     19  H71 UNL     1      25.001   7.778  14.672  1.00  0.00     0.174 HD
ATOM     20  H8  UNL     1      24.616   5.718  15.515  1.00  0.00     0.206 HD
BRANCH  12  21
HETATM   21  N5  UNL     1      23.402   7.800  19.870  1.00  0.00    -0.371 N 
ATOM     22  H5  UNL     1      23.716   8.765  19.975  1.00  0.00     0.161 HD
BRANCH  21  23
HETATM   23  C18 UNL     1      22.672   7.248  20.966  1.00  0.00     0.075 C 
HETATM   24  C19 UNL     1      21.403   7.993  21.308  1.00  0.00     0.031 C 
HETATM   25  C20 UNL     1      23.557   7.095  22.193  1.00  0.00     0.031 C 
ENDBRANCH  21  23
ENDBRANCH  12  21
ENDBRANCH   9  10
ENDBRANCH   8   9
ENDBRANCH   7   8
ENDBRANCH   6   7
ENDBRANCH   4   6
BRANCH   1  26
HETATM   26  C9  UNL     1      28.117   3.356  22.071  1.00  0.00     0.149 C 
BRANCH  26  27
HETATM   27  C8  UNL     1      29.476   2.751  22.207  1.00  0.00     0.148 C 
BRANCH  27  28
HETATM   28  N1  UNL     1      29.918   2.530  23.550  1.00  0.00    -0.365 N 
HETATM   29  C7  UNL     1      30.717   1.491  23.899  1.00  0.00     0.091 A 
HETATM   30  C6  UNL     1      31.138   1.286  25.192  1.00  0.00     0.034 A 
HETATM   31  C5  UNL     1      30.752   2.155  26.220  1.00  0.00    -0.013 A 
HETATM   32  C24 UNL     1      29.940   3.206  25.857  1.00  0.00     0.034 A 
HETATM   33  C23 UNL     1      29.539   3.372  24.525  1.00  0.00     0.091 A 
BRANCH  31  34
HETATM   34  S1  UNL     1      31.324   1.841  27.854  1.00  0.00    -0.208 SA
HETATM   35  C3  UNL     1      30.340   2.853  29.002  1.00  0.00     0.075 C 
BRANCH  34  36
HETATM   36  C2  UNL     1      31.093   0.117  28.317  1.00  0.00     0.056 C 
HETATM   37  C1  UNL     1      29.639  -0.225  28.485  1.00  0.00     0.015 C 
ENDBRANCH  34  36
BRANCH  34  38
HETATM   38  C4  UNL     1      33.053   2.253  28.079  1.00  0.00     0.223 C 
BRANCH  38  39
HETATM   39  O1  UNL     1      33.816   1.174  27.667  1.00  0.00    -0.392 OA
ATOM     40  H1  UNL     1      34.626   1.504  27.297  1.00  0.00     0.210 HD
ENDBRANCH  38  39
ENDBRANCH  34  38
ENDBRANCH  31  34
ENDBRANCH  27  28
ENDBRANCH  26  27
ENDBRANCH   1  26
TORSDOF 14
ENDMDL
