MODEL 1
REMARK VINA RESULT: -8.354337661      0.000      0.000
REMARK  10 active torsions:
REMARK  status: ('A' for Active; 'I' for Inactive)
REMARK       I    between atoms: C3_3  and  N1_5 
REMARK    1  A    between atoms: C4_7  and  C5_8 
REMARK    2  A    between atoms: C5_8  and  C6_9 
REMARK    3  A    between atoms: C5_8  and  C23_38 
REMARK    4  A    between atoms: C6_9  and  C7_10 
REMARK    5  A    between atoms: C8_11  and  C9_12 
REMARK    6  A    between atoms: C12_15  and  C13_16 
REMARK    7  A    between atoms: C13_16  and  N2_17 
REMARK    8  A    between atoms: C20_29  and  N6_30 
REMARK    9  A    between atoms: C23_38  and  C24_39 
REMARK   10  A    between atoms: C24_39  and  O4_40 
ROOT
HETATM    1  C1  UNL     1      25.486   7.032  14.323  1.00  0.00     0.022 C 
HETATM    2  C2  UNL     1      24.928   7.155  15.370  1.00  0.00    -0.016 C 
HETATM    3  C3  UNL     1      24.271   7.312  16.629  1.00  0.00     0.299 C 
HETATM    4  O1  UNL     1      23.568   8.335  16.826  1.00  0.00    -0.258 OA
HETATM    5  N1  UNL     1      24.372   6.361  17.675  1.00  0.00    -0.330 N 
ATOM      6  H1  UNL     1      24.393   6.709  18.633  1.00  0.00     0.168 HD
HETATM    7  C4  UNL     1      24.439   5.107  17.502  1.00  0.00     0.070 C 
ENDROOT
BRANCH   7   8
HETATM    8  C5  UNL     1      24.545   4.208  18.705  1.00  0.00     0.029 C 
BRANCH   8   9
HETATM    9  C6  UNL     1      24.596   5.002  19.930  1.00  0.00     0.037 C 
BRANCH   9  10
HETATM   10  C7  UNL     1      25.709   4.843  20.863  1.00  0.00    -0.025 C 
HETATM   11  C8  UNL     1      26.447   3.792  21.077  1.00  0.00     0.007 C 
BRANCH  11  12
HETATM   12  C9  UNL     1      27.536   3.734  22.030  1.00  0.00    -0.036 A 
HETATM   13  C10 UNL     1      27.315   3.290  23.346  1.00  0.00     0.012 A 
HETATM   14  C11 UNL     1      28.311   3.217  24.286  1.00  0.00     0.009 A 
HETATM   15  C12 UNL     1      29.586   3.604  23.897  1.00  0.00    -0.040 A 
HETATM   16  C21 UNL     1      29.825   4.036  22.633  1.00  0.00     0.009 A 
HETATM   17  C22 UNL     1      28.801   4.104  21.688  1.00  0.00     0.012 A 
BRANCH  15  18
HETATM   18  C13 UNL     1      30.714   3.546  24.904  1.00  0.00     0.170 C 
BRANCH  18  19
HETATM   19  N2  UNL     1      30.800   2.207  25.413  1.00  0.00    -0.322 N 
HETATM   20  C14 UNL     1      31.192   1.136  24.645  1.00  0.00     0.186 A 
HETATM   21  N3  UNL     1      31.297   0.054  25.400  1.00  0.00    -0.334 N 
HETATM   22  C15 UNL     1      30.982   0.385  26.640  1.00  0.00     0.175 A 
ATOM     23  H3  UNL     1      31.572  -0.874  25.079  1.00  0.00     0.168 HD
HETATM   24  C16 UNL     1      30.665   1.748  26.656  1.00  0.00     0.157 A 
HETATM   25  N8  UNL     1      30.939  -0.406  27.722  1.00  0.00    -0.215 N 
HETATM   26  N4  UNL     1      30.289   2.254  27.841  1.00  0.00    -0.341 N 
HETATM   27  C17 UNL     1      29.853   3.627  27.931  1.00  0.00     0.157 C 
HETATM   28  C18 UNL     1      30.241   1.457  28.952  1.00  0.00     0.142 A 
HETATM   29  C19 UNL     1      30.568   0.118  28.897  1.00  0.00     0.147 A 
HETATM   30  N5  UNL     1      30.602  -0.861  29.823  1.00  0.00    -0.305 N 
HETATM   31  C20 UNL     1      30.994  -1.999  29.227  1.00  0.00     0.267 A 
ATOM     32  H5  UNL     1      30.368  -0.756  30.810  1.00  0.00     0.170 HD
HETATM   33  N7  UNL     1      31.196  -1.698  27.934  1.00  0.00    -0.256 N 
ATOM     34  H7  UNL     1      31.501  -2.360  27.220  1.00  0.00     0.191 HD
BRANCH  31  35
HETATM   35  N6  UNL     1      31.137  -3.143  29.817  1.00  0.00    -0.078 N 
HETATM   36  O2  UNL     1      32.255  -3.904  29.582  1.00  0.00    -0.529 OA
HETATM   37  O3  UNL     1      30.176  -3.599  30.674  1.00  0.00    -0.529 OA
ENDBRANCH  31  35
ENDBRANCH  18  19
ENDBRANCH  15  18
ENDBRANCH  11  12
ENDBRANCH   9  10
ENDBRANCH   8   9
BRANCH   8  38
HETATM   38  C23 UNL     1      23.641   3.043  18.601  1.00  0.00     0.036 C 
BRANCH  38  39
HETATM   39  C24 UNL     1      23.905   2.003  19.624  1.00  0.00     0.165 C 
BRANCH  39  40
HETATM   40  O4  UNL     1      22.846   1.629  20.414  1.00  0.00    -0.401 OA
ATOM     41  H4  UNL     1      22.533   0.737  20.317  1.00  0.00     0.209 HD
ENDBRANCH  39  40
ENDBRANCH  38  39
ENDBRANCH   8  38
ENDBRANCH   7   8
TORSDOF 10
ENDMDL
MODEL 2
REMARK VINA RESULT: -8.139749966      3.373     11.461
REMARK  10 active torsions:
REMARK  status: ('A' for Active; 'I' for Inactive)
REMARK       I    between atoms: C3_3  and  N1_5 
REMARK    1  A    between atoms: C4_7  and  C5_8 
REMARK    2  A    between atoms: C5_8  and  C6_9 
REMARK    3  A    between atoms: C5_8  and  C23_38 
REMARK    4  A    between atoms: C6_9  and  C7_10 
REMARK    5  A    between atoms: C8_11  and  C9_12 
REMARK    6  A    between atoms: C12_15  and  C13_16 
REMARK    7  A    between atoms: C13_16  and  N2_17 
REMARK    8  A    between atoms: C20_29  and  N6_30 
REMARK    9  A    between atoms: C23_38  and  C24_39 
REMARK   10  A    between atoms: C24_39  and  O4_40 
ROOT
HETATM    1  C1  UNL     1      31.131   3.113  21.366  1.00  0.00     0.022 C 
HETATM    2  C2  UNL     1      31.342   2.476  22.350  1.00  0.00    -0.016 C 
HETATM    3  C3  UNL     1      31.579   1.705  23.531  1.00  0.00     0.299 C 
HETATM    4  O1  UNL     1      31.810   0.476  23.420  1.00  0.00    -0.258 OA
HETATM    5  N1  UNL     1      31.569   2.268  24.832  1.00  0.00    -0.330 N 
ATOM      6  H1  UNL     1      31.198   1.699  25.592  1.00  0.00     0.168 HD
HETATM    7  C4  UNL     1      31.988   3.429  25.117  1.00  0.00     0.070 C 
ENDROOT
BRANCH   7   8
HETATM    8  C5  UNL     1      31.918   3.903  26.544  1.00  0.00     0.029 C 
BRANCH   8   9
HETATM    9  C6  UNL     1      31.171   5.156  26.627  1.00  0.00     0.037 C 
BRANCH   9  10
HETATM   10  C7  UNL     1      29.783   5.215  26.180  1.00  0.00    -0.025 C 
HETATM   11  C8  UNL     1      29.271   5.911  25.206  1.00  0.00     0.007 C 
BRANCH  11  12
HETATM   12  C9  UNL     1      27.870   5.901  24.837  1.00  0.00    -0.036 A 
HETATM   13  C10 UNL     1      27.060   4.788  25.127  1.00  0.00     0.012 A 
HETATM   14  C11 UNL     1      25.730   4.728  24.798  1.00  0.00     0.009 A 
HETATM   15  C12 UNL     1      25.182   5.827  24.151  1.00  0.00    -0.040 A 
HETATM   16  C21 UNL     1      25.942   6.912  23.860  1.00  0.00     0.009 A 
HETATM   17  C22 UNL     1      27.294   6.958  24.201  1.00  0.00     0.012 A 
BRANCH  15  18
HETATM   18  C13 UNL     1      23.719   5.800  23.763  1.00  0.00     0.170 C 
BRANCH  18  19
HETATM   19  N2  UNL     1      23.591   6.323  22.433  1.00  0.00    -0.322 N 
HETATM   20  C14 UNL     1      23.122   7.588  22.166  1.00  0.00     0.186 A 
HETATM   21  N3  UNL     1      23.227   7.843  20.872  1.00  0.00    -0.334 N 
HETATM   22  C15 UNL     1      23.748   6.781  20.283  1.00  0.00     0.175 A 
ATOM     23  H3  UNL     1      22.951   8.710  20.409  1.00  0.00     0.168 HD
HETATM   24  C16 UNL     1      23.981   5.813  21.266  1.00  0.00     0.157 A 
HETATM   25  N8  UNL     1      24.009   6.602  18.980  1.00  0.00    -0.215 N 
HETATM   26  N4  UNL     1      24.486   4.645  20.838  1.00  0.00    -0.341 N 
HETATM   27  C17 UNL     1      24.669   3.557  21.769  1.00  0.00     0.157 C 
HETATM   28  C18 UNL     1      24.757   4.451  19.511  1.00  0.00     0.142 A 
HETATM   29  C19 UNL     1      24.520   5.433  18.572  1.00  0.00     0.147 A 
HETATM   30  N5  UNL     1      24.694   5.493  17.237  1.00  0.00    -0.305 N 
HETATM   31  C20 UNL     1      24.293   6.701  16.808  1.00  0.00     0.267 A 
ATOM     32  H5  UNL     1      25.068   4.747  16.651  1.00  0.00     0.170 HD
HETATM   33  N7  UNL     1      23.875   7.368  17.895  1.00  0.00    -0.256 N 
ATOM     34  H7  UNL     1      23.508   8.320  17.892  1.00  0.00     0.191 HD
BRANCH  31  35
HETATM   35  N6  UNL     1      24.319   7.106  15.578  1.00  0.00    -0.078 N 
HETATM   36  O2  UNL     1      23.571   6.463  14.625  1.00  0.00    -0.529 OA
HETATM   37  O3  UNL     1      25.092   8.175  15.224  1.00  0.00    -0.529 OA
ENDBRANCH  31  35
ENDBRANCH  18  19
ENDBRANCH  15  18
ENDBRANCH  11  12
ENDBRANCH   9  10
ENDBRANCH   8   9
BRANCH   8  38
HETATM   38  C23 UNL     1      31.631   2.794  27.478  1.00  0.00     0.036 C 
BRANCH  38  39
HETATM   39  C24 UNL     1      32.854   2.167  28.036  1.00  0.00     0.165 C 
BRANCH  39  40
HETATM   40  O4  UNL     1      33.403   1.135  27.315  1.00  0.00    -0.401 OA
ATOM     41  H4  UNL     1      34.216   0.769  27.644  1.00  0.00     0.209 HD
ENDBRANCH  39  40
ENDBRANCH  38  39
ENDBRANCH   8  38
ENDBRANCH   7   8
TORSDOF 10
ENDMDL
MODEL 3
REMARK VINA RESULT: -8.075105962      5.156     11.487
REMARK  10 active torsions:
REMARK  status: ('A' for Active; 'I' for Inactive)
REMARK       I    between atoms: C3_3  and  N1_5 
REMARK    1  A    between atoms: C4_7  and  C5_8 
REMARK    2  A    between atoms: C5_8  and  C6_9 
REMARK    3  A    between atoms: C5_8  and  C23_38 
REMARK    4  A    between atoms: C6_9  and  C7_10 
REMARK    5  A    between atoms: C8_11  and  C9_12 
REMARK    6  A    between atoms: C12_15  and  C13_16 
REMARK    7  A    between atoms: C13_16  and  N2_17 
REMARK    8  A    between atoms: C20_29  and  N6_30 
REMARK    9  A    between atoms: C23_38  and  C24_39 
REMARK   10  A    between atoms: C24_39  and  O4_40 
ROOT
HETATM    1  C1  UNL     1      29.042   7.706  25.800  1.00  0.00     0.022 C 
HETATM    2  C2  UNL     1      30.072   7.996  26.325  1.00  0.00    -0.016 C 
HETATM    3  C3  UNL     1      31.312   8.350  26.941  1.00  0.00     0.299 C 
HETATM    4  O1  UNL     1      31.463   9.518  27.378  1.00  0.00    -0.258 OA
HETATM    5  N1  UNL     1      32.388   7.438  27.086  1.00  0.00    -0.330 N 
ATOM      6  H1  UNL     1      33.335   7.804  26.994  1.00  0.00     0.168 HD
HETATM    7  C4  UNL     1      32.255   6.200  27.322  1.00  0.00     0.070 C 
ENDROOT
BRANCH   7   8
HETATM    8  C5  UNL     1      33.486   5.343  27.452  1.00  0.00     0.029 C 
BRANCH   8   9
HETATM    9  C6  UNL     1      33.312   4.090  26.721  1.00  0.00     0.037 C 
BRANCH   9  10
HETATM   10  C7  UNL     1      32.029   3.773  26.100  1.00  0.00    -0.025 C 
HETATM   11  C8  UNL     1      31.784   3.438  24.866  1.00  0.00     0.007 C 
BRANCH  11  12
HETATM   12  C9  UNL     1      30.466   3.140  24.343  1.00  0.00    -0.036 A 
HETATM   13  C10 UNL     1      29.314   3.403  25.106  1.00  0.00     0.012 A 
HETATM   14  C11 UNL     1      28.046   3.138  24.657  1.00  0.00     0.009 A 
HETATM   15  C12 UNL     1      27.919   2.587  23.390  1.00  0.00    -0.040 A 
HETATM   16  C21 UNL     1      29.015   2.324  22.634  1.00  0.00     0.009 A 
HETATM   17  C22 UNL     1      30.298   2.599  23.105  1.00  0.00     0.012 A 
BRANCH  15  18
HETATM   18  C13 UNL     1      26.538   2.273  22.857  1.00  0.00     0.170 C 
BRANCH  18  19
HETATM   19  N2  UNL     1      26.141   3.328  21.969  1.00  0.00    -0.322 N 
HETATM   20  C14 UNL     1      26.607   4.617  22.083  1.00  0.00     0.186 A 
HETATM   21  N3  UNL     1      26.173   5.344  21.065  1.00  0.00    -0.334 N 
HETATM   22  C15 UNL     1      25.435   4.568  20.290  1.00  0.00     0.175 A 
ATOM     23  H3  UNL     1      26.373   6.332  20.907  1.00  0.00     0.168 HD
HETATM   24  C16 UNL     1      25.409   3.289  20.857  1.00  0.00     0.157 A 
HETATM   25  N8  UNL     1      24.789   4.900  19.163  1.00  0.00    -0.215 N 
HETATM   26  N4  UNL     1      24.675   2.370  20.211  1.00  0.00    -0.341 N 
HETATM   27  C17 UNL     1      24.515   1.051  20.776  1.00  0.00     0.157 C 
HETATM   28  C18 UNL     1      24.011   2.696  19.060  1.00  0.00     0.142 A 
HETATM   29  C19 UNL     1      24.065   3.967  18.528  1.00  0.00     0.147 A 
HETATM   30  N5  UNL     1      23.517   4.534  17.435  1.00  0.00    -0.305 N 
HETATM   31  C20 UNL     1      23.897   5.821  17.384  1.00  0.00     0.267 A 
ATOM     32  H5  UNL     1      22.914   4.063  16.760  1.00  0.00     0.170 HD
HETATM   33  N7  UNL     1      24.678   6.027  18.456  1.00  0.00    -0.256 N 
ATOM     34  H7  UNL     1      25.122   6.913  18.695  1.00  0.00     0.191 HD
BRANCH  31  35
HETATM   35  N6  UNL     1      23.555   6.667  16.466  1.00  0.00    -0.078 N 
HETATM   36  O2  UNL     1      23.501   6.275  15.152  1.00  0.00    -0.529 OA
HETATM   37  O3  UNL     1      23.248   7.956  16.800  1.00  0.00    -0.529 OA
ENDBRANCH  31  35
ENDBRANCH  18  19
ENDBRANCH  15  18
ENDBRANCH  11  12
ENDBRANCH   9  10
ENDBRANCH   8   9
BRANCH   8  38
HETATM   38  C23 UNL     1      34.724   6.135  27.302  1.00  0.00     0.036 C 
BRANCH  38  39
HETATM   39  C24 UNL     1      35.885   5.328  26.852  1.00  0.00     0.165 C 
BRANCH  39  40
HETATM   40  O4  UNL     1      37.037   6.015  26.556  1.00  0.00    -0.401 OA
ATOM     41  H4  UNL     1      37.777   5.499  26.259  1.00  0.00     0.209 HD
ENDBRANCH  39  40
ENDBRANCH  38  39
ENDBRANCH   8  38
ENDBRANCH   7   8
TORSDOF 10
ENDMDL
MODEL 4
REMARK VINA RESULT: -7.829111363      5.115     11.151
REMARK  10 active torsions:
REMARK  status: ('A' for Active; 'I' for Inactive)
REMARK       I    between atoms: C3_3  and  N1_5 
REMARK    1  A    between atoms: C4_7  and  C5_8 
REMARK    2  A    between atoms: C5_8  and  C6_9 
REMARK    3  A    between atoms: C5_8  and  C23_38 
REMARK    4  A    between atoms: C6_9  and  C7_10 
REMARK    5  A    between atoms: C8_11  and  C9_12 
REMARK    6  A    between atoms: C12_15  and  C13_16 
REMARK    7  A    between atoms: C13_16  and  N2_17 
REMARK    8  A    between atoms: C20_29  and  N6_30 
REMARK    9  A    between atoms: C23_38  and  C24_39 
REMARK   10  A    between atoms: C24_39  and  O4_40 
ROOT
HETATM    1  C1  UNL     1      28.572   7.641  25.623  1.00  0.00     0.022 C 
HETATM    2  C2  UNL     1      29.583   7.924  26.187  1.00  0.00    -0.016 C 
HETATM    3  C3  UNL     1      30.801   8.271  26.850  1.00  0.00     0.299 C 
HETATM    4  O1  UNL     1      30.935   9.432  27.309  1.00  0.00    -0.258 OA
HETATM    5  N1  UNL     1      31.873   7.358  27.018  1.00  0.00    -0.330 N 
ATOM      6  H1  UNL     1      32.822   7.727  26.964  1.00  0.00     0.168 HD
HETATM    7  C4  UNL     1      31.734   6.117  27.231  1.00  0.00     0.070 C 
ENDROOT
BRANCH   7   8
HETATM    8  C5  UNL     1      32.961   5.260  27.391  1.00  0.00     0.029 C 
BRANCH   8   9
HETATM    9  C6  UNL     1      32.927   4.143  26.449  1.00  0.00     0.037 C 
BRANCH   9  10
HETATM   10  C7  UNL     1      31.658   3.706  25.874  1.00  0.00    -0.025 C 
HETATM   11  C8  UNL     1      31.421   3.256  24.676  1.00  0.00     0.007 C 
BRANCH  11  12
HETATM   12  C9  UNL     1      30.118   2.843  24.197  1.00  0.00    -0.036 A 
HETATM   13  C10 UNL     1      28.958   3.116  24.945  1.00  0.00     0.012 A 
HETATM   14  C11 UNL     1      27.703   2.746  24.536  1.00  0.00     0.009 A 
HETATM   15  C12 UNL     1      27.597   2.073  23.327  1.00  0.00    -0.040 A 
HETATM   16  C21 UNL     1      28.700   1.798  22.587  1.00  0.00     0.009 A 
HETATM   17  C22 UNL     1      29.971   2.181  23.016  1.00  0.00     0.012 A 
BRANCH  15  18
HETATM   18  C13 UNL     1      26.231   1.640  22.841  1.00  0.00     0.170 C 
BRANCH  18  19
HETATM   19  N2  UNL     1      26.011   2.205  21.540  1.00  0.00    -0.322 N 
HETATM   20  C14 UNL     1      26.232   1.509  20.374  1.00  0.00     0.186 A 
HETATM   21  N3  UNL     1      25.832   2.229  19.338  1.00  0.00    -0.334 N 
HETATM   22  C15 UNL     1      25.358   3.377  19.792  1.00  0.00     0.175 A 
ATOM     23  H3  UNL     1      25.883   1.948  18.359  1.00  0.00     0.168 HD
HETATM   24  C16 UNL     1      25.469   3.369  21.187  1.00  0.00     0.157 A 
HETATM   25  N8  UNL     1      24.866   4.405  19.087  1.00  0.00    -0.215 N 
HETATM   26  N4  UNL     1      25.058   4.479  21.819  1.00  0.00    -0.341 N 
HETATM   27  C17 UNL     1      25.224   4.595  23.248  1.00  0.00     0.157 C 
HETATM   28  C18 UNL     1      24.554   5.535  21.110  1.00  0.00     0.142 A 
HETATM   29  C19 UNL     1      24.454   5.503  19.735  1.00  0.00     0.147 A 
HETATM   30  N5  UNL     1      24.006   6.387  18.822  1.00  0.00    -0.305 N 
HETATM   31  C20 UNL     1      24.137   5.844  17.601  1.00  0.00     0.267 A 
ATOM     32  H5  UNL     1      23.631   7.314  19.025  1.00  0.00     0.170 HD
HETATM   33  N7  UNL     1      24.668   4.625  17.785  1.00  0.00    -0.256 N 
ATOM     34  H7  UNL     1      24.888   3.964  17.040  1.00  0.00     0.191 HD
BRANCH  31  35
HETATM   35  N6  UNL     1      23.805   6.415  16.487  1.00  0.00    -0.078 N 
HETATM   36  O2  UNL     1      23.605   5.661  15.358  1.00  0.00    -0.529 OA
HETATM   37  O3  UNL     1      23.652   7.772  16.430  1.00  0.00    -0.529 OA
ENDBRANCH  31  35
ENDBRANCH  18  19
ENDBRANCH  15  18
ENDBRANCH  11  12
ENDBRANCH   9  10
ENDBRANCH   8   9
BRANCH   8  38
HETATM   38  C23 UNL     1      34.184   6.075  27.545  1.00  0.00     0.036 C 
BRANCH  38  39
HETATM   39  C24 UNL     1      35.400   5.415  27.012  1.00  0.00     0.165 C 
BRANCH  39  40
HETATM   40  O4  UNL     1      36.492   6.218  26.788  1.00  0.00    -0.401 OA
ATOM     41  H4  UNL     1      36.773   6.767  27.510  1.00  0.00     0.209 HD
ENDBRANCH  39  40
ENDBRANCH  38  39
ENDBRANCH   8  38
ENDBRANCH   7   8
TORSDOF 10
ENDMDL
MODEL 5
REMARK VINA RESULT: -7.772333637      5.384     10.824
REMARK  10 active torsions:
REMARK  status: ('A' for Active; 'I' for Inactive)
REMARK       I    between atoms: C3_3  and  N1_5 
REMARK    1  A    between atoms: C4_7  and  C5_8 
REMARK    2  A    between atoms: C5_8  and  C6_9 
REMARK    3  A    between atoms: C5_8  and  C23_38 
REMARK    4  A    between atoms: C6_9  and  C7_10 
REMARK    5  A    between atoms: C8_11  and  C9_12 
REMARK    6  A    between atoms: C12_15  and  C13_16 
REMARK    7  A    between atoms: C13_16  and  N2_17 
REMARK    8  A    between atoms: C20_29  and  N6_30 
REMARK    9  A    between atoms: C23_38  and  C24_39 
REMARK   10  A    between atoms: C24_39  and  O4_40 
ROOT
HETATM    1  C1  UNL     1      27.377   8.215  25.671  1.00  0.00     0.022 C 
HETATM    2  C2  UNL     1      28.208   8.958  26.093  1.00  0.00    -0.016 C 
HETATM    3  C3  UNL     1      29.209   9.852  26.585  1.00  0.00     0.299 C 
HETATM    4  O1  UNL     1      28.987  11.088  26.560  1.00  0.00    -0.258 OA
HETATM    5  N1  UNL     1      30.450   9.407  27.107  1.00  0.00    -0.330 N 
ATOM      6  H1  UNL     1      31.274   9.980  26.926  1.00  0.00     0.168 HD
HETATM    7  C4  UNL     1      30.607   8.347  27.782  1.00  0.00     0.070 C 
ENDROOT
BRANCH   7   8
HETATM    8  C5  UNL     1      31.984   7.991  28.276  1.00  0.00     0.029 C 
BRANCH   8   9
HETATM    9  C6  UNL     1      32.263   6.578  28.031  1.00  0.00     0.037 C 
BRANCH   9  10
HETATM   10  C7  UNL     1      31.467   5.829  27.063  1.00  0.00    -0.025 C 
HETATM   11  C8  UNL     1      31.682   4.640  26.579  1.00  0.00     0.007 C 
BRANCH  11  12
HETATM   12  C9  UNL     1      30.826   3.977  25.617  1.00  0.00    -0.036 A 
HETATM   13  C10 UNL     1      31.342   3.530  24.386  1.00  0.00     0.012 A 
HETATM   14  C11 UNL     1      30.574   2.899  23.442  1.00  0.00     0.009 A 
HETATM   15  C12 UNL     1      29.232   2.704  23.735  1.00  0.00    -0.040 A 
HETATM   16  C21 UNL     1      28.711   3.126  24.915  1.00  0.00     0.009 A 
HETATM   17  C22 UNL     1      29.505   3.767  25.866  1.00  0.00     0.012 A 
BRANCH  15  18
HETATM   18  C13 UNL     1      28.346   2.017  22.718  1.00  0.00     0.170 C 
BRANCH  18  19
HETATM   19  N2  UNL     1      27.562   3.016  22.049  1.00  0.00    -0.322 N 
HETATM   20  C14 UNL     1      27.865   4.357  22.088  1.00  0.00     0.186 A 
HETATM   21  N3  UNL     1      27.049   5.026  21.290  1.00  0.00    -0.334 N 
HETATM   22  C15 UNL     1      26.219   4.162  20.730  1.00  0.00     0.175 A 
ATOM     23  H3  UNL     1      27.059   6.034  21.133  1.00  0.00     0.168 HD
HETATM   24  C16 UNL     1      26.538   2.886  21.209  1.00  0.00     0.157 A 
HETATM   25  N8  UNL     1      25.222   4.411  19.870  1.00  0.00    -0.215 N 
HETATM   26  N4  UNL     1      25.769   1.879  20.764  1.00  0.00    -0.341 N 
HETATM   27  C17 UNL     1      25.965   0.545  21.277  1.00  0.00     0.157 C 
HETATM   28  C18 UNL     1      24.749   2.121  19.885  1.00  0.00     0.142 A 
HETATM   29  C19 UNL     1      24.470   3.393  19.432  1.00  0.00     0.147 A 
HETATM   30  N5  UNL     1      23.544   3.888  18.586  1.00  0.00    -0.305 N 
HETATM   31  C20 UNL     1      23.717   5.217  18.494  1.00  0.00     0.267 A 
ATOM     32  H5  UNL     1      22.832   3.345  18.099  1.00  0.00     0.170 HD
HETATM   33  N7  UNL     1      24.754   5.520  19.292  1.00  0.00    -0.256 N 
ATOM     34  H7  UNL     1      25.128   6.458  19.435  1.00  0.00     0.191 HD
BRANCH  31  35
HETATM   35  N6  UNL     1      23.002   6.017  17.769  1.00  0.00    -0.078 N 
HETATM   36  O2  UNL     1      23.212   6.092  16.415  1.00  0.00    -0.529 OA
HETATM   37  O3  UNL     1      22.037   6.792  18.348  1.00  0.00    -0.529 OA
ENDBRANCH  31  35
ENDBRANCH  18  19
ENDBRANCH  15  18
ENDBRANCH  11  12
ENDBRANCH   9  10
ENDBRANCH   8   9
BRANCH   8  38
HETATM   38  C23 UNL     1      32.979   9.026  27.922  1.00  0.00     0.036 C 
BRANCH  38  39
HETATM   39  C24 UNL     1      33.673   8.757  26.639  1.00  0.00     0.165 C 
BRANCH  39  40
HETATM   40  O4  UNL     1      33.291   9.515  25.560  1.00  0.00    -0.401 OA
ATOM     41  H4  UNL     1      33.223   9.066  24.725  1.00  0.00     0.209 HD
ENDBRANCH  39  40
ENDBRANCH  38  39
ENDBRANCH   8  38
ENDBRANCH   7   8
TORSDOF 10
ENDMDL
