MODEL 1
REMARK VINA RESULT: -7.679120333      0.000      0.000
REMARK  11 active torsions:
REMARK  status: ('A' for Active; 'I' for Inactive)
REMARK    1  A    between atoms: C7_8  and  C8_9 
REMARK    2  A    between atoms: C8_9  and  C9_10 
REMARK    3  A    between atoms: C9_10  and  C10_11 
REMARK    4  A    between atoms: N1_14  and  C13_15 
REMARK    5  A    between atoms: C13_15  and  C14_16 
REMARK    6  A    between atoms: C14_16  and  C15_17 
REMARK    7  A    between atoms: C15_17  and  N2_18 
REMARK    8  A    between atoms: C20_23  and  C21_24 
REMARK    9  A    between atoms: C22_25  and  C23_26 
REMARK   10  A    between atoms: C23_26  and  O2_27 
REMARK   11  A    between atoms: C24_29  and  N3_30 
ROOT
HETATM    1  C1  UNL     1      29.498   5.774  22.769  1.00  0.00     0.077 C 
HETATM    2  C2  UNL     1      29.175   4.529  23.423  1.00  0.00     0.264 C 
HETATM    3  C3  UNL     1      28.234   4.577  24.607  1.00  0.00     0.189 C 
HETATM    4  O1  UNL     1      28.513   5.538  25.519  1.00  0.00    -0.381 OA
HETATM    5  C4  UNL     1      29.812   5.686  25.898  1.00  0.00     0.170 C 
HETATM    6  C5  UNL     1      30.291   4.338  26.318  1.00  0.00     0.052 C 
HETATM    7  C6  UNL     1      30.028   3.339  25.247  1.00  0.00     0.103 C 
HETATM    8  C7  UNL     1      28.519   3.141  25.008  1.00  0.00     0.084 C 
HETATM    9  C8  UNL     1      28.183   2.501  23.689  1.00  0.00     0.209 A 
HETATM   10  C24 UNL     1      28.946   1.626  22.887  1.00  0.00     0.276 A 
HETATM   11  C25 UNL     1      29.212   2.703  21.847  1.00  0.00     0.363 A 
HETATM   12  N4  UNL     1      30.580   3.092  21.605  1.00  0.00    -0.311 N 
ATOM     13  H4  UNL     1      31.024   3.125  20.687  1.00  0.00     0.166 HD
HETATM   14  C26 UNL     1      31.244   3.436  22.884  1.00  0.00     0.322 C 
HETATM   15  O3  UNL     1      32.442   3.488  23.072  1.00  0.00    -0.247 OA
HETATM   16  N5  UNL     1      30.317   3.707  23.911  1.00  0.00    -0.291 N 
HETATM   17  N6  UNL     1      28.400   3.555  22.642  1.00  0.00     0.158 N 
ENDROOT
BRANCH   9  18
HETATM   18  C9  UNL     1      26.670   2.225  23.779  1.00  0.00     0.084 C 
BRANCH  18  19
HETATM   19  C10 UNL     1      25.906   2.355  22.557  1.00  0.00    -0.043 A 
HETATM   20  C11 UNL     1      25.885   1.290  21.643  1.00  0.00     0.025 A 
HETATM   21  C12 UNL     1      25.149   1.314  20.491  1.00  0.00     0.091 A 
HETATM   22  N1  UNL     1      24.403   2.406  20.201  1.00  0.00    -0.366 N 
HETATM   23  C19 UNL     1      24.420   3.429  21.072  1.00  0.00     0.102 A 
HETATM   24  C20 UNL     1      25.144   3.456  22.247  1.00  0.00    -0.014 A 
BRANCH  22  25
HETATM   25  C13 UNL     1      23.600   2.508  19.029  1.00  0.00     0.129 C 
BRANCH  25  26
HETATM   26  C14 UNL     1      24.066   3.472  17.985  1.00  0.00     0.048 C 
BRANCH  26  27
HETATM   27  C15 UNL     1      22.900   4.445  17.757  1.00  0.00     0.237 C 
BRANCH  27  28
HETATM   28  N2  UNL     1      23.307   5.812  17.726  1.00  0.00    -0.079 N 
HETATM   29  C16 UNL     1      22.424   6.707  18.446  1.00  0.00     0.271 C 
HETATM   30  C17 UNL     1      24.608   5.883  18.412  1.00  0.00     0.271 C 
HETATM   31  C18 UNL     1      23.537   6.308  16.389  1.00  0.00     0.271 C 
ENDBRANCH  27  28
ENDBRANCH  26  27
ENDBRANCH  25  26
ENDBRANCH  22  25
BRANCH  24  32
HETATM   32  C21 UNL     1      25.122   4.661  23.105  1.00  0.00     0.011 C 
HETATM   33  C22 UNL     1      25.366   5.875  22.686  1.00  0.00    -0.000 C 
BRANCH  33  34
HETATM   34  C23 UNL     1      25.306   7.009  23.676  1.00  0.00     0.191 C 
BRANCH  34  35
HETATM   35  O2  UNL     1      25.105   8.223  23.000  1.00  0.00    -0.397 OA
ATOM     36  H2  UNL     1      24.209   8.515  23.119  1.00  0.00     0.209 HD
ENDBRANCH  34  35
ENDBRANCH  33  34
ENDBRANCH  24  32
ENDBRANCH  18  19
ENDBRANCH   9  18
BRANCH  10  37
HETATM   37  N3  UNL     1      30.086   0.859  23.335  1.00  0.00    -0.069 N 
ATOM     38  H33 UNL     1      30.753   1.527  23.722  1.00  0.00     0.275 HD
ATOM     39  H32 UNL     1      29.781   0.337  24.158  1.00  0.00     0.275 HD
ATOM     40  H31 UNL     1      30.623   0.209  22.762  1.00  0.00     0.275 HD
ENDBRANCH  10  37
TORSDOF 11
ENDMDL
MODEL 2
REMARK VINA RESULT: -7.544003114      0.651      1.048
REMARK  11 active torsions:
REMARK  status: ('A' for Active; 'I' for Inactive)
REMARK    1  A    between atoms: C7_8  and  C8_9 
REMARK    2  A    between atoms: C8_9  and  C9_10 
REMARK    3  A    between atoms: C9_10  and  C10_11 
REMARK    4  A    between atoms: N1_14  and  C13_15 
REMARK    5  A    between atoms: C13_15  and  C14_16 
REMARK    6  A    between atoms: C14_16  and  C15_17 
REMARK    7  A    between atoms: C15_17  and  N2_18 
REMARK    8  A    between atoms: C20_23  and  C21_24 
REMARK    9  A    between atoms: C22_25  and  C23_26 
REMARK   10  A    between atoms: C23_26  and  O2_27 
REMARK   11  A    between atoms: C24_29  and  N3_30 
ROOT
HETATM    1  C1  UNL     1      29.528   5.775  22.813  1.00  0.00     0.077 C 
HETATM    2  C2  UNL     1      29.147   4.524  23.423  1.00  0.00     0.264 C 
HETATM    3  C3  UNL     1      28.110   4.563  24.524  1.00  0.00     0.189 C 
HETATM    4  O1  UNL     1      28.316   5.511  25.469  1.00  0.00    -0.381 OA
HETATM    5  C4  UNL     1      29.578   5.649  25.956  1.00  0.00     0.170 C 
HETATM    6  C5  UNL     1      30.016   4.294  26.399  1.00  0.00     0.052 C 
HETATM    7  C6  UNL     1      29.841   3.309  25.297  1.00  0.00     0.103 C 
HETATM    8  C7  UNL     1      28.356   3.120  24.931  1.00  0.00     0.084 C 
HETATM    9  C8  UNL     1      28.130   2.497  23.581  1.00  0.00     0.209 A 
HETATM   10  C24 UNL     1      28.954   1.628  22.835  1.00  0.00     0.276 A 
HETATM   11  C25 UNL     1      29.309   2.717  21.833  1.00  0.00     0.363 A 
HETATM   12  N4  UNL     1      30.694   3.102  21.711  1.00  0.00    -0.311 N 
ATOM     13  H4  UNL     1      31.214   3.144  20.835  1.00  0.00     0.166 HD
HETATM   14  C26 UNL     1      31.251   3.429  23.045  1.00  0.00     0.322 C 
HETATM   15  O3  UNL     1      32.428   3.473  23.333  1.00  0.00    -0.247 OA
HETATM   16  N5  UNL     1      30.242   3.691  23.995  1.00  0.00    -0.291 N 
HETATM   17  N6  UNL     1      28.437   3.563  22.568  1.00  0.00     0.158 N 
ENDROOT
BRANCH   9  18
HETATM   18  C9  UNL     1      26.613   2.227  23.540  1.00  0.00     0.084 C 
BRANCH  18  19
HETATM   19  C10 UNL     1      25.938   2.463  22.282  1.00  0.00    -0.043 A 
HETATM   20  C11 UNL     1      25.986   1.480  21.282  1.00  0.00     0.025 A 
HETATM   21  C12 UNL     1      25.335   1.603  20.087  1.00  0.00     0.091 A 
HETATM   22  N1  UNL     1      24.608   2.718  19.838  1.00  0.00    -0.366 N 
HETATM   23  C19 UNL     1      24.560   3.664  20.791  1.00  0.00     0.102 A 
HETATM   24  C20 UNL     1      25.197   3.589  22.013  1.00  0.00    -0.014 A 
BRANCH  22  25
HETATM   25  C13 UNL     1      23.890   2.923  18.624  1.00  0.00     0.129 C 
BRANCH  25  26
HETATM   26  C14 UNL     1      23.534   4.336  18.291  1.00  0.00     0.048 C 
BRANCH  26  27
HETATM   27  C15 UNL     1      24.641   4.841  17.353  1.00  0.00     0.237 C 
BRANCH  27  28
HETATM   28  N2  UNL     1      24.152   5.684  16.311  1.00  0.00    -0.079 N 
HETATM   29  C16 UNL     1      25.168   6.099  15.365  1.00  0.00     0.271 C 
HETATM   30  C17 UNL     1      23.179   4.889  15.543  1.00  0.00     0.271 C 
HETATM   31  C18 UNL     1      23.427   6.833  16.800  1.00  0.00     0.271 C 
ENDBRANCH  27  28
ENDBRANCH  26  27
ENDBRANCH  25  26
ENDBRANCH  22  25
BRANCH  24  32
HETATM   32  C21 UNL     1      25.110   4.717  22.967  1.00  0.00     0.011 C 
HETATM   33  C22 UNL     1      25.210   5.977  22.635  1.00  0.00    -0.000 C 
BRANCH  33  34
HETATM   34  C23 UNL     1      25.100   7.021  23.716  1.00  0.00     0.191 C 
BRANCH  34  35
HETATM   35  O2  UNL     1      25.073   8.302  23.142  1.00  0.00    -0.397 OA
ATOM     36  H2  UNL     1      25.566   8.909  23.682  1.00  0.00     0.209 HD
ENDBRANCH  34  35
ENDBRANCH  33  34
ENDBRANCH  24  32
ENDBRANCH  18  19
ENDBRANCH   9  18
BRANCH  10  37
HETATM   37  N3  UNL     1      30.050   0.851  23.367  1.00  0.00    -0.069 N 
ATOM     38  H33 UNL     1      30.666   1.507  23.846  1.00  0.00     0.275 HD
ATOM     39  H32 UNL     1      29.668   0.296  24.133  1.00  0.00     0.275 HD
ATOM     40  H31 UNL     1      30.649   0.228  22.827  1.00  0.00     0.275 HD
ENDBRANCH  10  37
TORSDOF 11
ENDMDL
MODEL 3
REMARK VINA RESULT: -7.038137803      2.828      4.307
REMARK  11 active torsions:
REMARK  status: ('A' for Active; 'I' for Inactive)
REMARK    1  A    between atoms: C7_8  and  C8_9 
REMARK    2  A    between atoms: C8_9  and  C9_10 
REMARK    3  A    between atoms: C9_10  and  C10_11 
REMARK    4  A    between atoms: N1_14  and  C13_15 
REMARK    5  A    between atoms: C13_15  and  C14_16 
REMARK    6  A    between atoms: C14_16  and  C15_17 
REMARK    7  A    between atoms: C15_17  and  N2_18 
REMARK    8  A    between atoms: C20_23  and  C21_24 
REMARK    9  A    between atoms: C22_25  and  C23_26 
REMARK   10  A    between atoms: C23_26  and  O2_27 
REMARK   11  A    between atoms: C24_29  and  N3_30 
ROOT
HETATM    1  C1  UNL     1      28.502   6.605  22.927  1.00  0.00     0.077 C 
HETATM    2  C2  UNL     1      27.905   5.294  22.830  1.00  0.00     0.264 C 
HETATM    3  C3  UNL     1      26.463   5.207  22.380  1.00  0.00     0.189 C 
HETATM    4  O1  UNL     1      25.620   6.072  22.992  1.00  0.00    -0.381 OA
HETATM    5  C4  UNL     1      25.722   6.198  24.344  1.00  0.00     0.170 C 
HETATM    6  C5  UNL     1      25.642   4.821  24.909  1.00  0.00     0.052 C 
HETATM    7  C6  UNL     1      26.642   3.934  24.254  1.00  0.00     0.103 C 
HETATM    8  C7  UNL     1      26.339   3.741  22.755  1.00  0.00     0.084 C 
HETATM    9  C8  UNL     1      27.506   3.236  21.951  1.00  0.00     0.209 A 
HETATM   10  C24 UNL     1      28.613   2.460  22.353  1.00  0.00     0.276 A 
HETATM   11  C25 UNL     1      29.565   3.642  22.252  1.00  0.00     0.363 A 
HETATM   12  N4  UNL     1      30.243   4.072  23.451  1.00  0.00    -0.311 N 
ATOM     13  H4  UNL     1      31.250   4.206  23.536  1.00  0.00     0.166 HD
HETATM   14  C26 UNL     1      29.262   4.292  24.540  1.00  0.00     0.322 C 
HETATM   15  O3  UNL     1      29.514   4.340  25.725  1.00  0.00    -0.247 OA
HETATM   16  N5  UNL     1      27.947   4.442  24.051  1.00  0.00    -0.291 N 
HETATM   17  N6  UNL     1      28.449   4.396  21.803  1.00  0.00     0.158 N 
ENDROOT
BRANCH   9  18
HETATM   18  C9  UNL     1      26.905   2.932  20.565  1.00  0.00     0.084 C 
BRANCH  18  19
HETATM   19  C10 UNL     1      25.719   2.104  20.533  1.00  0.00    -0.043 A 
HETATM   20  C11 UNL     1      25.765   0.815  21.085  1.00  0.00     0.025 A 
HETATM   21  C12 UNL     1      24.677  -0.010  21.139  1.00  0.00     0.091 A 
HETATM   22  N1  UNL     1      23.493   0.417  20.641  1.00  0.00    -0.366 N 
HETATM   23  C19 UNL     1      23.443   1.650  20.109  1.00  0.00     0.102 A 
HETATM   24  C20 UNL     1      24.510   2.522  20.029  1.00  0.00    -0.014 A 
BRANCH  22  25
HETATM   25  C13 UNL     1      22.308  -0.374  20.667  1.00  0.00     0.129 C 
BRANCH  25  26
HETATM   26  C14 UNL     1      21.359  -0.188  19.527  1.00  0.00     0.048 C 
BRANCH  26  27
HETATM   27  C15 UNL     1      19.976  -0.592  20.059  1.00  0.00     0.237 C 
BRANCH  27  28
HETATM   28  N2  UNL     1      18.953  -0.535  19.065  1.00  0.00    -0.079 N 
HETATM   29  C16 UNL     1      19.437  -0.204  17.740  1.00  0.00     0.271 C 
HETATM   30  C17 UNL     1      18.383  -1.888  18.966  1.00  0.00     0.271 C 
HETATM   31  C18 UNL     1      17.856   0.331  19.426  1.00  0.00     0.271 C 
ENDBRANCH  27  28
ENDBRANCH  26  27
ENDBRANCH  25  26
ENDBRANCH  22  25
BRANCH  24  32
HETATM   32  C21 UNL     1      24.346   3.840  19.377  1.00  0.00     0.011 C 
HETATM   33  C22 UNL     1      24.307   4.028  18.084  1.00  0.00    -0.000 C 
BRANCH  33  34
HETATM   34  C23 UNL     1      24.134   5.430  17.561  1.00  0.00     0.191 C 
BRANCH  34  35
HETATM   35  O2  UNL     1      24.712   6.347  18.452  1.00  0.00    -0.397 OA
ATOM     36  H2  UNL     1      24.370   7.218  18.287  1.00  0.00     0.209 HD
ENDBRANCH  34  35
ENDBRANCH  33  34
ENDBRANCH  24  32
ENDBRANCH  18  19
ENDBRANCH   9  18
BRANCH  10  37
HETATM   37  N3  UNL     1      28.687   1.666  23.558  1.00  0.00    -0.069 N 
ATOM     38  H33 UNL     1      27.867   1.906  24.115  1.00  0.00     0.275 HD
ATOM     39  H32 UNL     1      28.502   0.701  23.283  1.00  0.00     0.275 HD
ATOM     40  H31 UNL     1      29.478   1.638  24.201  1.00  0.00     0.275 HD
ENDBRANCH  10  37
TORSDOF 11
ENDMDL
MODEL 4
REMARK VINA RESULT: -7.035256291      2.062      3.126
REMARK  11 active torsions:
REMARK  status: ('A' for Active; 'I' for Inactive)
REMARK    1  A    between atoms: C7_8  and  C8_9 
REMARK    2  A    between atoms: C8_9  and  C9_10 
REMARK    3  A    between atoms: C9_10  and  C10_11 
REMARK    4  A    between atoms: N1_14  and  C13_15 
REMARK    5  A    between atoms: C13_15  and  C14_16 
REMARK    6  A    between atoms: C14_16  and  C15_17 
REMARK    7  A    between atoms: C15_17  and  N2_18 
REMARK    8  A    between atoms: C20_23  and  C21_24 
REMARK    9  A    between atoms: C22_25  and  C23_26 
REMARK   10  A    between atoms: C23_26  and  O2_27 
REMARK   11  A    between atoms: C24_29  and  N3_30 
ROOT
HETATM    1  C1  UNL     1      29.603   5.831  22.637  1.00  0.00     0.077 C 
HETATM    2  C2  UNL     1      29.136   4.626  23.281  1.00  0.00     0.264 C 
HETATM    3  C3  UNL     1      28.106   4.767  24.380  1.00  0.00     0.189 C 
HETATM    4  O1  UNL     1      28.377   5.724  25.298  1.00  0.00    -0.381 OA
HETATM    5  C4  UNL     1      29.646   5.788  25.783  1.00  0.00     0.170 C 
HETATM    6  C5  UNL     1      29.990   4.419  26.263  1.00  0.00     0.052 C 
HETATM    7  C6  UNL     1      29.746   3.419  25.189  1.00  0.00     0.103 C 
HETATM    8  C7  UNL     1      28.251   3.323  24.826  1.00  0.00     0.084 C 
HETATM    9  C8  UNL     1      27.982   2.680  23.493  1.00  0.00     0.209 A 
HETATM   10  C24 UNL     1      28.744   1.736  22.772  1.00  0.00     0.276 A 
HETATM   11  C25 UNL     1      29.173   2.769  21.742  1.00  0.00     0.363 A 
HETATM   12  N4  UNL     1      30.581   3.055  21.611  1.00  0.00    -0.311 N 
ATOM     13  H4  UNL     1      31.102   3.036  20.734  1.00  0.00     0.166 HD
HETATM   14  C26 UNL     1      31.160   3.379  22.936  1.00  0.00     0.322 C 
HETATM   15  O3  UNL     1      32.337   3.350  23.224  1.00  0.00    -0.247 OA
HETATM   16  N5  UNL     1      30.172   3.736  23.877  1.00  0.00    -0.291 N 
HETATM   17  N6  UNL     1      28.362   3.694  22.452  1.00  0.00     0.158 N 
ENDROOT
BRANCH   9  18
HETATM   18  C9  UNL     1      26.450   2.514  23.458  1.00  0.00     0.084 C 
BRANCH  18  19
HETATM   19  C10 UNL     1      25.774   2.927  22.247  1.00  0.00    -0.043 A 
HETATM   20  C11 UNL     1      25.594   4.295  21.994  1.00  0.00     0.025 A 
HETATM   21  C12 UNL     1      25.011   4.769  20.852  1.00  0.00     0.091 A 
HETATM   22  N1  UNL     1      24.579   3.894  19.913  1.00  0.00    -0.366 N 
HETATM   23  C19 UNL     1      24.747   2.582  20.151  1.00  0.00     0.102 A 
HETATM   24  C20 UNL     1      25.329   2.052  21.285  1.00  0.00    -0.014 A 
BRANCH  22  25
HETATM   25  C13 UNL     1      23.971   4.303  18.691  1.00  0.00     0.129 C 
BRANCH  25  26
HETATM   26  C14 UNL     1      23.990   5.768  18.397  1.00  0.00     0.048 C 
BRANCH  26  27
HETATM   27  C15 UNL     1      24.778   5.926  17.087  1.00  0.00     0.237 C 
BRANCH  27  28
HETATM   28  N2  UNL     1      24.235   6.920  16.220  1.00  0.00    -0.079 N 
HETATM   29  C16 UNL     1      25.231   7.780  15.613  1.00  0.00     0.271 C 
HETATM   30  C17 UNL     1      23.582   6.205  15.111  1.00  0.00     0.271 C 
HETATM   31  C18 UNL     1      23.201   7.715  16.841  1.00  0.00     0.271 C 
ENDBRANCH  27  28
ENDBRANCH  26  27
ENDBRANCH  25  26
ENDBRANCH  22  25
BRANCH  24  32
HETATM   32  C21 UNL     1      25.417   0.585  21.458  1.00  0.00     0.011 C 
HETATM   33  C22 UNL     1      24.452  -0.253  21.184  1.00  0.00    -0.000 C 
BRANCH  33  34
HETATM   34  C23 UNL     1      24.685  -1.725  21.409  1.00  0.00     0.191 C 
BRANCH  34  35
HETATM   35  O2  UNL     1      23.484  -2.431  21.232  1.00  0.00    -0.397 OA
ATOM     36  H2  UNL     1      23.641  -3.363  21.327  1.00  0.00     0.209 HD
ENDBRANCH  34  35
ENDBRANCH  33  34
ENDBRANCH  24  32
ENDBRANCH  18  19
ENDBRANCH   9  18
BRANCH  10  37
HETATM   37  N3  UNL     1      29.784   0.900  23.327  1.00  0.00    -0.069 N 
ATOM     38  H33 UNL     1      30.666   1.381  23.156  1.00  0.00     0.275 HD
ATOM     39  H32 UNL     1      29.688   0.951  24.342  1.00  0.00     0.275 HD
ATOM     40  H31 UNL     1      29.938  -0.082  23.099  1.00  0.00     0.275 HD
ENDBRANCH  10  37
TORSDOF 11
ENDMDL
MODEL 5
REMARK VINA RESULT: -7.022530477      2.864      4.236
REMARK  11 active torsions:
REMARK  status: ('A' for Active; 'I' for Inactive)
REMARK    1  A    between atoms: C7_8  and  C8_9 
REMARK    2  A    between atoms: C8_9  and  C9_10 
REMARK    3  A    between atoms: C9_10  and  C10_11 
REMARK    4  A    between atoms: N1_14  and  C13_15 
REMARK    5  A    between atoms: C13_15  and  C14_16 
REMARK    6  A    between atoms: C14_16  and  C15_17 
REMARK    7  A    between atoms: C15_17  and  N2_18 
REMARK    8  A    between atoms: C20_23  and  C21_24 
REMARK    9  A    between atoms: C22_25  and  C23_26 
REMARK   10  A    between atoms: C23_26  and  O2_27 
REMARK   11  A    between atoms: C24_29  and  N3_30 
ROOT
HETATM    1  C1  UNL     1      32.441   3.627  25.591  1.00  0.00     0.077 C 
HETATM    2  C2  UNL     1      31.126   3.554  24.999  1.00  0.00     0.264 C 
HETATM    3  C3  UNL     1      30.161   4.685  25.281  1.00  0.00     0.189 C 
HETATM    4  O1  UNL     1      30.079   5.055  26.580  1.00  0.00    -0.381 OA
HETATM    5  C4  UNL     1      29.987   4.067  27.511  1.00  0.00     0.170 C 
HETATM    6  C5  UNL     1      28.857   3.190  27.093  1.00  0.00     0.052 C 
HETATM    7  C6  UNL     1      29.038   2.750  25.683  1.00  0.00     0.103 C 
HETATM    8  C7  UNL     1      28.973   3.936  24.701  1.00  0.00     0.084 C 
HETATM    9  C8  UNL     1      29.566   3.650  23.349  1.00  0.00     0.209 A 
HETATM   10  C24 UNL     1      29.702   2.425  22.661  1.00  0.00     0.276 A 
HETATM   11  C25 UNL     1      31.206   2.388  22.889  1.00  0.00     0.363 A 
HETATM   12  N4  UNL     1      31.751   1.289  23.649  1.00  0.00    -0.311 N 
ATOM     13  H4  UNL     1      32.519   0.692  23.343  1.00  0.00     0.166 HD
HETATM   14  C26 UNL     1      31.032   1.155  24.937  1.00  0.00     0.322 C 
HETATM   15  O3  UNL     1      31.018   0.170  25.645  1.00  0.00    -0.247 OA
HETATM   16  N5  UNL     1      30.328   2.327  25.280  1.00  0.00    -0.291 N 
HETATM   17  N6  UNL     1      31.056   3.643  23.535  1.00  0.00     0.158 N 
ENDROOT
BRANCH   9  18
HETATM   18  C9  UNL     1      29.198   4.886  22.507  1.00  0.00     0.084 C 
BRANCH  18  19
HETATM   19  C10 UNL     1      27.894   5.471  22.737  1.00  0.00    -0.043 A 
HETATM   20  C11 UNL     1      27.792   6.642  23.502  1.00  0.00     0.025 A 
HETATM   21  C12 UNL     1      26.605   7.284  23.724  1.00  0.00     0.091 A 
HETATM   22  N1  UNL     1      25.467   6.781  23.190  1.00  0.00    -0.366 N 
HETATM   23  C19 UNL     1      25.559   5.659  22.457  1.00  0.00     0.102 A 
HETATM   24  C20 UNL     1      26.729   4.973  22.203  1.00  0.00    -0.014 A 
BRANCH  22  25
HETATM   25  C13 UNL     1      24.192   7.393  23.362  1.00  0.00     0.129 C 
BRANCH  25  26
HETATM   26  C14 UNL     1      23.058   6.795  22.593  1.00  0.00     0.048 C 
BRANCH  26  27
HETATM   27  C15 UNL     1      22.327   7.973  21.933  1.00  0.00     0.237 C 
BRANCH  27  28
HETATM   28  N2  UNL     1      20.982   8.123  22.383  1.00  0.00    -0.079 N 
HETATM   29  C16 UNL     1      20.502   7.016  23.185  1.00  0.00     0.271 C 
HETATM   30  C17 UNL     1      20.958   9.305  23.261  1.00  0.00     0.271 C 
HETATM   31  C18 UNL     1      20.051   8.406  21.315  1.00  0.00     0.271 C 
ENDBRANCH  27  28
ENDBRANCH  26  27
ENDBRANCH  25  26
ENDBRANCH  22  25
BRANCH  24  32
HETATM   32  C21 UNL     1      26.700   3.718  21.418  1.00  0.00     0.011 C 
HETATM   33  C22 UNL     1      25.694   2.883  21.393  1.00  0.00    -0.000 C 
BRANCH  33  34
HETATM   34  C23 UNL     1      25.805   1.642  20.546  1.00  0.00     0.191 C 
BRANCH  34  35
HETATM   35  O2  UNL     1      25.614   1.969  19.194  1.00  0.00    -0.397 OA
ATOM     36  H2  UNL     1      25.872   1.238  18.645  1.00  0.00     0.209 HD
ENDBRANCH  34  35
ENDBRANCH  33  34
ENDBRANCH  24  32
ENDBRANCH  18  19
ENDBRANCH   9  18
BRANCH  10  37
HETATM   37  N3  UNL     1      28.969   1.214  22.954  1.00  0.00    -0.069 N 
ATOM     38  H33 UNL     1      27.982   1.436  22.832  1.00  0.00     0.275 HD
ATOM     39  H32 UNL     1      29.155   0.569  22.186  1.00  0.00     0.275 HD
ATOM     40  H31 UNL     1      29.043   0.672  23.814  1.00  0.00     0.275 HD
ENDBRANCH  10  37
TORSDOF 11
ENDMDL
