MODEL 1
REMARK VINA RESULT: -7.759106985      0.000      0.000
REMARK  13 active torsions:
REMARK  status: ('A' for Active; 'I' for Inactive)
REMARK    1  A    between atoms: N1_2  and  C4_5 
REMARK    2  A    between atoms: C4_5  and  C5_6 
REMARK    3  A    between atoms: C5_6  and  C6_7 
REMARK    4  A    between atoms: C6_7  and  C7_8 
REMARK    5  A    between atoms: C7_8  and  C8_9 
REMARK    6  A    between atoms: C8_9  and  C9_10 
REMARK    7  A    between atoms: C9_10  and  C10_11 
REMARK    8  A    between atoms: C10_11  and  C11_12 
REMARK    9  A    between atoms: C11_12  and  N2_13 
REMARK       I    between atoms: N2_13  and  C12_14 
REMARK   10  A    between atoms: C12_14  and  O2_16 
REMARK   11  A    between atoms: O2_16  and  C13_17 
REMARK   12  A    between atoms: C21_25  and  N3_26 
REMARK   13  A    between atoms: N3_26  and  C22_28 
ROOT
HETATM    1  O2  UNL     1     -11.633 -25.674   1.522  1.00  0.00    -0.284 OA
ENDROOT
BRANCH   1   2
HETATM    2  C12 UNL     1     -11.407 -24.316   1.921  1.00  0.00     0.439 C 
HETATM    3  N2  UNL     1     -10.421 -23.566   1.270  1.00  0.00    -0.363 NA
HETATM    4  O1  UNL     1     -12.148 -23.946   2.833  1.00  0.00    -0.221 OA
BRANCH   3   5
HETATM    5  C11 UNL     1      -9.484 -22.852   0.652  1.00  0.00     0.161 C 
BRANCH   5   6
HETATM    6  C10 UNL     1      -9.178 -21.417   1.053  1.00  0.00     0.060 C 
BRANCH   6   7
HETATM    7  C9  UNL     1      -9.283 -21.268   2.561  1.00  0.00     0.006 C 
BRANCH   7   8
HETATM    8  C8  UNL     1     -10.524 -20.587   3.026  1.00  0.00     0.000 C 
BRANCH   8   9
HETATM    9  C7  UNL     1     -10.253 -19.373   3.833  1.00  0.00     0.000 C 
BRANCH   9  10
HETATM   10  C6  UNL     1      -9.018 -18.639   3.333  1.00  0.00     0.002 C 
BRANCH  10  11
HETATM   11  C5  UNL     1      -8.789 -17.416   4.127  1.00  0.00     0.028 C 
BRANCH  11  12
HETATM   12  C4  UNL     1      -9.197 -17.519   5.542  1.00  0.00     0.236 C 
BRANCH  12  13
HETATM   13  N1  UNL     1      -9.964 -16.497   6.133  1.00  0.00    -0.079 N 
HETATM   14  C1  UNL     1     -11.126 -17.169   6.772  1.00  0.00     0.271 C 
HETATM   15  C2  UNL     1     -10.515 -15.646   5.071  1.00  0.00     0.271 C 
HETATM   16  C3  UNL     1      -9.321 -15.644   7.084  1.00  0.00     0.271 C 
ENDBRANCH  12  13
ENDBRANCH  11  12
ENDBRANCH  10  11
ENDBRANCH   9  10
ENDBRANCH   8   9
ENDBRANCH   7   8
ENDBRANCH   6   7
ENDBRANCH   5   6
ENDBRANCH   3   5
ENDBRANCH   1   2
BRANCH   1  17
HETATM   17  C13 UNL     1     -11.638 -26.057   0.161  1.00  0.00     0.167 C 
HETATM   18  C14 UNL     1     -10.547 -27.121   0.053  1.00  0.00     0.019 C 
HETATM   19  C15 UNL     1     -10.340 -27.417  -1.392  1.00  0.00     0.012 C 
HETATM   20  C19 UNL     1     -10.951 -28.310   0.877  1.00  0.00     0.012 C 
HETATM   21  C16 UNL     1     -11.616 -27.948  -1.960  1.00  0.00    -0.011 C 
HETATM   22  C17 UNL     1     -11.977 -29.217  -1.214  1.00  0.00     0.009 C 
HETATM   23  C23 UNL     1     -12.773 -26.986  -1.782  1.00  0.00     0.038 C 
HETATM   24  C18 UNL     1     -12.198 -28.887   0.230  1.00  0.00    -0.011 C 
HETATM   25  C20 UNL     1     -13.309 -27.868   0.448  1.00  0.00     0.038 C 
HETATM   26  C21 UNL     1     -12.947 -26.617  -0.316  1.00  0.00     0.060 C 
BRANCH  26  27
HETATM   27  N3  UNL     1     -13.998 -25.654  -0.179  1.00  0.00    -0.358 N 
ATOM     28  H3  UNL     1     -13.981 -25.112   0.685  1.00  0.00     0.162 HD
BRANCH  27  29
HETATM   29  C22 UNL     1     -15.042 -25.347  -1.054  1.00  0.00     0.181 C 
HETATM   30  N4  UNL     1     -15.097 -24.237  -1.926  1.00  0.00    -0.070 NA
HETATM   31  S1  UNL     1     -16.355 -26.347  -1.110  1.00  0.00    -0.044 SA
ENDBRANCH  27  29
ENDBRANCH  26  27
ENDBRANCH   1  17
TORSDOF 13
ENDMDL
MODEL 2
REMARK VINA RESULT: -7.700028191      2.057      2.985
REMARK  13 active torsions:
REMARK  status: ('A' for Active; 'I' for Inactive)
REMARK    1  A    between atoms: N1_2  and  C4_5 
REMARK    2  A    between atoms: C4_5  and  C5_6 
REMARK    3  A    between atoms: C5_6  and  C6_7 
REMARK    4  A    between atoms: C6_7  and  C7_8 
REMARK    5  A    between atoms: C7_8  and  C8_9 
REMARK    6  A    between atoms: C8_9  and  C9_10 
REMARK    7  A    between atoms: C9_10  and  C10_11 
REMARK    8  A    between atoms: C10_11  and  C11_12 
REMARK    9  A    between atoms: C11_12  and  N2_13 
REMARK       I    between atoms: N2_13  and  C12_14 
REMARK   10  A    between atoms: C12_14  and  O2_16 
REMARK   11  A    between atoms: O2_16  and  C13_17 
REMARK   12  A    between atoms: C21_25  and  N3_26 
REMARK   13  A    between atoms: N3_26  and  C22_28 
ROOT
HETATM    1  O2  UNL     1     -11.234 -25.724   1.318  1.00  0.00    -0.284 OA
ENDROOT
BRANCH   1   2
HETATM    2  C12 UNL     1     -11.177 -24.362   1.763  1.00  0.00     0.439 C 
HETATM    3  N2  UNL     1     -10.226 -23.499   1.208  1.00  0.00    -0.363 NA
HETATM    4  O1  UNL     1     -12.019 -24.095   2.622  1.00  0.00    -0.221 OA
BRANCH   3   5
HETATM    5  C11 UNL     1      -9.323 -22.676   0.680  1.00  0.00     0.161 C 
BRANCH   5   6
HETATM    6  C10 UNL     1      -9.250 -21.210   1.076  1.00  0.00     0.060 C 
BRANCH   6   7
HETATM    7  C9  UNL     1      -9.258 -21.081   2.590  1.00  0.00     0.006 C 
BRANCH   7   8
HETATM    8  C8  UNL     1     -10.537 -20.566   3.155  1.00  0.00     0.000 C 
BRANCH   8   9
HETATM    9  C7  UNL     1     -10.352 -19.376   4.020  1.00  0.00     0.000 C 
BRANCH   9  10
HETATM   10  C6  UNL     1      -9.199 -18.511   3.534  1.00  0.00     0.002 C 
BRANCH  10  11
HETATM   11  C5  UNL     1      -9.022 -17.344   4.420  1.00  0.00     0.028 C 
BRANCH  11  12
HETATM   12  C4  UNL     1     -10.282 -16.713   4.862  1.00  0.00     0.236 C 
BRANCH  12  13
HETATM   13  N1  UNL     1     -10.486 -16.418   6.222  1.00  0.00    -0.079 N 
HETATM   14  C1  UNL     1      -9.360 -17.053   6.956  1.00  0.00     0.271 C 
HETATM   15  C2  UNL     1     -11.706 -17.097   6.675  1.00  0.00     0.271 C 
HETATM   16  C3  UNL     1     -10.589 -15.042   6.600  1.00  0.00     0.271 C 
ENDBRANCH  12  13
ENDBRANCH  11  12
ENDBRANCH  10  11
ENDBRANCH   9  10
ENDBRANCH   8   9
ENDBRANCH   7   8
ENDBRANCH   6   7
ENDBRANCH   5   6
ENDBRANCH   3   5
ENDBRANCH   1   2
BRANCH   1  17
HETATM   17  C13 UNL     1     -12.442 -26.310   0.877  1.00  0.00     0.167 C 
HETATM   18  C14 UNL     1     -12.823 -25.522  -0.375  1.00  0.00     0.019 C 
HETATM   19  C15 UNL     1     -14.198 -25.935  -0.774  1.00  0.00     0.012 C 
HETATM   20  C19 UNL     1     -11.777 -25.754  -1.427  1.00  0.00     0.012 C 
HETATM   21  C16 UNL     1     -14.187 -27.396  -1.086  1.00  0.00    -0.011 C 
HETATM   22  C17 UNL     1     -13.219 -27.632  -2.228  1.00  0.00     0.009 C 
HETATM   23  C23 UNL     1     -13.705 -28.234   0.082  1.00  0.00     0.038 C 
HETATM   24  C18 UNL     1     -11.844 -27.227  -1.793  1.00  0.00    -0.011 C 
HETATM   25  C20 UNL     1     -11.349 -27.998  -0.577  1.00  0.00     0.038 C 
HETATM   26  C21 UNL     1     -12.332 -27.771   0.547  1.00  0.00     0.060 C 
BRANCH  26  27
HETATM   27  N3  UNL     1     -11.927 -28.527   1.694  1.00  0.00    -0.358 N 
ATOM     28  H3  UNL     1     -12.133 -28.096   2.594  1.00  0.00     0.162 HD
BRANCH  27  29
HETATM   29  C22 UNL     1     -11.291 -29.769   1.760  1.00  0.00     0.181 C 
HETATM   30  N4  UNL     1      -9.927 -29.990   2.050  1.00  0.00    -0.070 NA
HETATM   31  S1  UNL     1     -12.179 -31.134   1.485  1.00  0.00    -0.044 SA
ENDBRANCH  27  29
ENDBRANCH  26  27
ENDBRANCH   1  17
TORSDOF 13
ENDMDL
MODEL 3
REMARK VINA RESULT: -7.615028311      0.788      1.091
REMARK  13 active torsions:
REMARK  status: ('A' for Active; 'I' for Inactive)
REMARK    1  A    between atoms: N1_2  and  C4_5 
REMARK    2  A    between atoms: C4_5  and  C5_6 
REMARK    3  A    between atoms: C5_6  and  C6_7 
REMARK    4  A    between atoms: C6_7  and  C7_8 
REMARK    5  A    between atoms: C7_8  and  C8_9 
REMARK    6  A    between atoms: C8_9  and  C9_10 
REMARK    7  A    between atoms: C9_10  and  C10_11 
REMARK    8  A    between atoms: C10_11  and  C11_12 
REMARK    9  A    between atoms: C11_12  and  N2_13 
REMARK       I    between atoms: N2_13  and  C12_14 
REMARK   10  A    between atoms: C12_14  and  O2_16 
REMARK   11  A    between atoms: O2_16  and  C13_17 
REMARK   12  A    between atoms: C21_25  and  N3_26 
REMARK   13  A    between atoms: N3_26  and  C22_28 
ROOT
HETATM    1  O2  UNL     1     -11.766 -25.693   1.504  1.00  0.00    -0.284 OA
ENDROOT
BRANCH   1   2
HETATM    2  C12 UNL     1     -11.469 -24.350   1.907  1.00  0.00     0.439 C 
HETATM    3  N2  UNL     1     -10.446 -23.650   1.257  1.00  0.00    -0.363 NA
HETATM    4  O1  UNL     1     -12.189 -23.945   2.821  1.00  0.00    -0.221 OA
BRANCH   3   5
HETATM    5  C11 UNL     1      -9.474 -22.983   0.639  1.00  0.00     0.161 C 
BRANCH   5   6
HETATM    6  C10 UNL     1      -9.283 -21.487   0.835  1.00  0.00     0.060 C 
BRANCH   6   7
HETATM    7  C9  UNL     1      -9.171 -21.168   2.316  1.00  0.00     0.006 C 
BRANCH   7   8
HETATM    8  C8  UNL     1     -10.448 -20.731   2.947  1.00  0.00     0.000 C 
BRANCH   8   9
HETATM    9  C7  UNL     1     -10.347 -19.407   3.605  1.00  0.00     0.000 C 
BRANCH   9  10
HETATM   10  C6  UNL     1      -9.005 -18.750   3.326  1.00  0.00     0.002 C 
BRANCH  10  11
HETATM   11  C5  UNL     1      -8.838 -17.542   4.159  1.00  0.00     0.028 C 
BRANCH  11  12
HETATM   12  C4  UNL     1     -10.103 -16.922   4.599  1.00  0.00     0.236 C 
BRANCH  12  13
HETATM   13  N1  UNL     1     -10.337 -16.687   5.967  1.00  0.00    -0.079 N 
HETATM   14  C1  UNL     1     -10.352 -15.210   6.135  1.00  0.00     0.271 C 
HETATM   15  C2  UNL     1      -9.185 -17.176   6.735  1.00  0.00     0.271 C 
HETATM   16  C3  UNL     1     -11.518 -17.247   6.550  1.00  0.00     0.271 C 
ENDBRANCH  12  13
ENDBRANCH  11  12
ENDBRANCH  10  11
ENDBRANCH   9  10
ENDBRANCH   8   9
ENDBRANCH   7   8
ENDBRANCH   6   7
ENDBRANCH   5   6
ENDBRANCH   3   5
ENDBRANCH   1   2
BRANCH   1  17
HETATM   17  C13 UNL     1     -11.711 -26.090   0.149  1.00  0.00     0.167 C 
HETATM   18  C14 UNL     1     -10.571 -27.106   0.086  1.00  0.00     0.019 C 
HETATM   19  C15 UNL     1     -10.306 -27.407  -1.348  1.00  0.00     0.012 C 
HETATM   20  C19 UNL     1     -10.947 -28.303   0.912  1.00  0.00     0.012 C 
HETATM   21  C16 UNL     1     -11.539 -28.002  -1.948  1.00  0.00    -0.011 C 
HETATM   22  C17 UNL     1     -11.866 -29.277  -1.198  1.00  0.00     0.009 C 
HETATM   23  C23 UNL     1     -12.743 -27.091  -1.817  1.00  0.00     0.038 C 
HETATM   24  C18 UNL     1     -12.146 -28.942   0.235  1.00  0.00    -0.011 C 
HETATM   25  C20 UNL     1     -13.308 -27.972   0.407  1.00  0.00     0.038 C 
HETATM   26  C21 UNL     1     -12.979 -26.714  -0.361  1.00  0.00     0.060 C 
BRANCH  26  27
HETATM   27  N3  UNL     1     -14.075 -25.798  -0.268  1.00  0.00    -0.358 N 
ATOM     28  H3  UNL     1     -14.010 -25.118   0.490  1.00  0.00     0.162 HD
BRANCH  27  29
HETATM   29  C22 UNL     1     -15.220 -25.698  -1.061  1.00  0.00     0.181 C 
HETATM   30  N4  UNL     1     -16.322 -26.581  -1.046  1.00  0.00    -0.070 NA
HETATM   31  S1  UNL     1     -15.342 -24.444  -2.129  1.00  0.00    -0.044 SA
ENDBRANCH  27  29
ENDBRANCH  26  27
ENDBRANCH   1  17
TORSDOF 13
ENDMDL
MODEL 4
REMARK VINA RESULT: -7.561734229      3.315     11.039
REMARK  13 active torsions:
REMARK  status: ('A' for Active; 'I' for Inactive)
REMARK    1  A    between atoms: N1_2  and  C4_5 
REMARK    2  A    between atoms: C4_5  and  C5_6 
REMARK    3  A    between atoms: C5_6  and  C6_7 
REMARK    4  A    between atoms: C6_7  and  C7_8 
REMARK    5  A    between atoms: C7_8  and  C8_9 
REMARK    6  A    between atoms: C8_9  and  C9_10 
REMARK    7  A    between atoms: C9_10  and  C10_11 
REMARK    8  A    between atoms: C10_11  and  C11_12 
REMARK    9  A    between atoms: C11_12  and  N2_13 
REMARK       I    between atoms: N2_13  and  C12_14 
REMARK   10  A    between atoms: C12_14  and  O2_16 
REMARK   11  A    between atoms: O2_16  and  C13_17 
REMARK   12  A    between atoms: C21_25  and  N3_26 
REMARK   13  A    between atoms: N3_26  and  C22_28 
ROOT
HETATM    1  O2  UNL     1     -11.614 -18.360   4.957  1.00  0.00    -0.284 OA
ENDROOT
BRANCH   1   2
HETATM    2  C12 UNL     1     -11.275 -19.691   4.545  1.00  0.00     0.439 C 
HETATM    3  N2  UNL     1     -10.376 -19.874   3.488  1.00  0.00    -0.363 NA
HETATM    4  O1  UNL     1     -11.838 -20.565   5.207  1.00  0.00    -0.221 OA
BRANCH   3   5
HETATM    5  C11 UNL     1      -9.521 -20.049   2.483  1.00  0.00     0.161 C 
BRANCH   5   6
HETATM    6  C10 UNL     1      -9.560 -21.292   1.609  1.00  0.00     0.060 C 
BRANCH   6   7
HETATM    7  C9  UNL     1     -10.388 -22.373   2.283  1.00  0.00     0.006 C 
BRANCH   7   8
HETATM    8  C8  UNL     1     -10.590 -23.596   1.455  1.00  0.00     0.000 C 
BRANCH   8   9
HETATM    9  C7  UNL     1      -9.548 -23.771   0.414  1.00  0.00     0.000 C 
BRANCH   9  10
HETATM   10  C6  UNL     1     -10.036 -24.666  -0.713  1.00  0.00     0.002 C 
BRANCH  10  11
HETATM   11  C5  UNL     1     -11.475 -24.958  -0.554  1.00  0.00     0.028 C 
BRANCH  11  12
HETATM   12  C4  UNL     1     -11.896 -26.271  -1.084  1.00  0.00     0.236 C 
BRANCH  12  13
HETATM   13  N1  UNL     1     -12.047 -27.368  -0.216  1.00  0.00    -0.079 N 
HETATM   14  C1  UNL     1     -11.106 -28.412  -0.701  1.00  0.00     0.271 C 
HETATM   15  C2  UNL     1     -13.396 -27.922  -0.384  1.00  0.00     0.271 C 
HETATM   16  C3  UNL     1     -11.839 -27.148   1.182  1.00  0.00     0.271 C 
ENDBRANCH  12  13
ENDBRANCH  11  12
ENDBRANCH  10  11
ENDBRANCH   9  10
ENDBRANCH   8   9
ENDBRANCH   7   8
ENDBRANCH   6   7
ENDBRANCH   5   6
ENDBRANCH   3   5
ENDBRANCH   1   2
BRANCH   1  17
HETATM   17  C13 UNL     1     -10.985 -17.743   6.062  1.00  0.00     0.167 C 
HETATM   18  C14 UNL     1      -9.527 -17.578   5.638  1.00  0.00     0.019 C 
HETATM   19  C15 UNL     1      -8.752 -17.135   6.831  1.00  0.00     0.012 C 
HETATM   20  C19 UNL     1      -9.469 -16.629   4.475  1.00  0.00     0.012 C 
HETATM   21  C16 UNL     1      -9.292 -15.820   7.292  1.00  0.00    -0.011 C 
HETATM   22  C17 UNL     1      -9.134 -14.819   6.166  1.00  0.00     0.009 C 
HETATM   23  C23 UNL     1     -10.770 -15.886   7.621  1.00  0.00     0.038 C 
HETATM   24  C18 UNL     1      -9.937 -15.279   4.989  1.00  0.00    -0.011 C 
HETATM   25  C20 UNL     1     -11.422 -15.424   5.296  1.00  0.00     0.038 C 
HETATM   26  C21 UNL     1     -11.565 -16.408   6.433  1.00  0.00     0.060 C 
BRANCH  26  27
HETATM   27  N3  UNL     1     -12.947 -16.529   6.788  1.00  0.00    -0.358 N 
ATOM     28  H3  UNL     1     -13.315 -17.480   6.784  1.00  0.00     0.162 HD
BRANCH  27  29
HETATM   29  C22 UNL     1     -13.865 -15.537   7.137  1.00  0.00     0.181 C 
HETATM   30  N4  UNL     1     -13.675 -14.536   8.117  1.00  0.00    -0.070 NA
HETATM   31  S1  UNL     1     -15.320 -15.486   6.358  1.00  0.00    -0.044 SA
ENDBRANCH  27  29
ENDBRANCH  26  27
ENDBRANCH   1  17
TORSDOF 13
ENDMDL
MODEL 5
REMARK VINA RESULT: -7.532530228      4.185     12.245
REMARK  13 active torsions:
REMARK  status: ('A' for Active; 'I' for Inactive)
REMARK    1  A    between atoms: N1_2  and  C4_5 
REMARK    2  A    between atoms: C4_5  and  C5_6 
REMARK    3  A    between atoms: C5_6  and  C6_7 
REMARK    4  A    between atoms: C6_7  and  C7_8 
REMARK    5  A    between atoms: C7_8  and  C8_9 
REMARK    6  A    between atoms: C8_9  and  C9_10 
REMARK    7  A    between atoms: C9_10  and  C10_11 
REMARK    8  A    between atoms: C10_11  and  C11_12 
REMARK    9  A    between atoms: C11_12  and  N2_13 
REMARK       I    between atoms: N2_13  and  C12_14 
REMARK   10  A    between atoms: C12_14  and  O2_16 
REMARK   11  A    between atoms: O2_16  and  C13_17 
REMARK   12  A    between atoms: C21_25  and  N3_26 
REMARK   13  A    between atoms: N3_26  and  C22_28 
ROOT
HETATM    1  O2  UNL     1     -11.208 -16.284   6.028  1.00  0.00    -0.284 OA
ENDROOT
BRANCH   1   2
HETATM    2  C12 UNL     1     -11.658 -17.643   6.093  1.00  0.00     0.439 C 
HETATM    3  N2  UNL     1     -11.037 -18.610   5.295  1.00  0.00    -0.363 NA
HETATM    4  O1  UNL     1     -12.584 -17.813   6.889  1.00  0.00    -0.221 OA
BRANCH   3   5
HETATM    5  C11 UNL     1     -10.446 -19.531   4.537  1.00  0.00     0.161 C 
BRANCH   5   6
HETATM    6  C10 UNL     1     -11.249 -20.562   3.761  1.00  0.00     0.060 C 
BRANCH   6   7
HETATM    7  C9  UNL     1     -10.314 -21.576   3.125  1.00  0.00     0.006 C 
BRANCH   7   8
HETATM    8  C8  UNL     1      -9.529 -21.049   1.974  1.00  0.00     0.000 C 
BRANCH   8   9
HETATM    9  C7  UNL     1      -9.173 -22.096   0.986  1.00  0.00     0.000 C 
BRANCH   9  10
HETATM   10  C6  UNL     1     -10.145 -23.264   1.041  1.00  0.00     0.002 C 
BRANCH  10  11
HETATM   11  C5  UNL     1     -10.186 -23.963  -0.259  1.00  0.00     0.028 C 
BRANCH  11  12
HETATM   12  C4  UNL     1      -9.922 -25.414  -0.183  1.00  0.00     0.236 C 
BRANCH  12  13
HETATM   13  N1  UNL     1     -10.951 -26.334  -0.454  1.00  0.00    -0.079 N 
HETATM   14  C1  UNL     1     -11.242 -27.020   0.833  1.00  0.00     0.271 C 
HETATM   15  C2  UNL     1     -10.435 -27.366  -1.362  1.00  0.00     0.271 C 
HETATM   16  C3  UNL     1     -12.168 -25.831  -1.014  1.00  0.00     0.271 C 
ENDBRANCH  12  13
ENDBRANCH  11  12
ENDBRANCH  10  11
ENDBRANCH   9  10
ENDBRANCH   8   9
ENDBRANCH   7   8
ENDBRANCH   6   7
ENDBRANCH   5   6
ENDBRANCH   3   5
ENDBRANCH   1   2
BRANCH   1  17
HETATM   17  C13 UNL     1     -10.586 -15.655   7.130  1.00  0.00     0.167 C 
HETATM   18  C14 UNL     1      -9.276 -15.102   6.573  1.00  0.00     0.019 C 
HETATM   19  C15 UNL     1      -8.461 -14.615   7.722  1.00  0.00     0.012 C 
HETATM   20  C19 UNL     1      -9.594 -14.049   5.550  1.00  0.00     0.012 C 
HETATM   21  C16 UNL     1      -9.212 -13.524   8.413  1.00  0.00    -0.011 C 
HETATM   22  C17 UNL     1      -9.439 -12.401   7.422  1.00  0.00     0.009 C 
HETATM   23  C23 UNL     1     -10.577 -13.975   8.892  1.00  0.00     0.038 C 
HETATM   24  C18 UNL     1     -10.276 -12.912   6.289  1.00  0.00    -0.011 C 
HETATM   25  C20 UNL     1     -11.633 -13.440   6.737  1.00  0.00     0.038 C 
HETATM   26  C21 UNL     1     -11.392 -14.544   7.740  1.00  0.00     0.060 C 
BRANCH  26  27
HETATM   27  N3  UNL     1     -12.649 -15.028   8.226  1.00  0.00    -0.358 N 
ATOM     28  H3  UNL     1     -12.589 -15.732   8.961  1.00  0.00     0.162 HD
BRANCH  27  29
HETATM   29  C22 UNL     1     -13.945 -14.679   7.841  1.00  0.00     0.181 C 
HETATM   30  N4  UNL     1     -14.625 -15.141   6.692  1.00  0.00    -0.070 NA
HETATM   31  S1  UNL     1     -14.802 -13.632   8.788  1.00  0.00    -0.044 SA
ENDBRANCH  27  29
ENDBRANCH  26  27
ENDBRANCH   1  17
TORSDOF 13
ENDMDL
