MODEL 1
REMARK VINA RESULT: -5.150604435      0.000      0.000
REMARK  14 active torsions:
REMARK  status: ('A' for Active; 'I' for Inactive)
REMARK    1  A    between atoms: C2_2  and  C3_3 
REMARK    2  A    between atoms: C3_3  and  O1_4 
REMARK    3  A    between atoms: C3_3  and  C4_6 
REMARK    4  A    between atoms: C4_6  and  C5_7 
REMARK    5  A    between atoms: C5_7  and  C6_8 
REMARK    6  A    between atoms: C6_8  and  C7_9 
REMARK    7  A    between atoms: C7_9  and  C9_11 
REMARK    8  A    between atoms: C9_11  and  C10_12 
REMARK    9  A    between atoms: C15_20  and  C16_21 
REMARK   10  A    between atoms: C16_21  and  C17_22 
REMARK   11  A    between atoms: C26_31  and  O5_32 
REMARK   12  A    between atoms: C26_31  and  C27_34 
REMARK   13  A    between atoms: C27_34  and  O6_35 
REMARK   14  A    between atoms: C28_37  and  O7_38 
ROOT
HETATM    1  C10 UNL     1      24.570 -23.498 -15.758  1.00  0.00     0.021 C 
HETATM    2  C11 UNL     1      25.704 -23.628 -16.691  1.00  0.00     0.047 C 
HETATM    3  C12 UNL     1      25.638 -23.088 -18.018  1.00  0.00     0.091 A 
HETATM    4  O2  UNL     1      26.457 -23.742 -19.005  1.00  0.00    -0.306 OA
HETATM    5  C13 UNL     1      27.401 -22.770 -19.423  1.00  0.00     0.290 C 
HETATM    6  O3  UNL     1      28.485 -22.971 -20.011  1.00  0.00    -0.262 OA
HETATM    7  C14 UNL     1      26.831 -21.506 -19.019  1.00  0.00     0.237 C 
HETATM    8  O4  UNL     1      26.366 -20.580 -19.915  1.00  0.00    -0.358 OA
HETATM    9  C15 UNL     1      25.149 -21.156 -19.808  1.00  0.00     0.097 C 
HETATM   10  C21 UNL     1      23.933 -20.375 -19.486  1.00  0.00     0.009 C 
HETATM   11  C22 UNL     1      23.166 -20.604 -18.434  1.00  0.00    -0.019 C 
HETATM   12  C23 UNL     1      23.552 -21.709 -17.525  1.00  0.00     0.055 C 
HETATM   13  C24 UNL     1      24.400 -22.605 -18.372  1.00  0.00     0.050 A 
HETATM   14  C25 UNL     1      25.550 -21.773 -18.543  1.00  0.00     0.070 A 
HETATM   15  C26 UNL     1      22.536 -22.474 -16.830  1.00  0.00     0.112 C 
HETATM   16  C28 UNL     1      23.194 -23.749 -16.329  1.00  0.00     0.162 C 
ENDROOT
BRANCH   1  17
HETATM   17  C9  UNL     1      24.784 -24.540 -14.681  1.00  0.00     0.011 C 
BRANCH  17  18
HETATM   18  C7  UNL     1      25.017 -23.906 -13.325  1.00  0.00    -0.018 C 
HETATM   19  C8  UNL     1      24.091 -24.366 -12.251  1.00  0.00     0.010 C 
BRANCH  18  20
HETATM   20  C6  UNL     1      26.450 -24.215 -12.922  1.00  0.00     0.004 C 
BRANCH  20  21
HETATM   21  C5  UNL     1      27.409 -23.139 -13.300  1.00  0.00     0.003 C 
BRANCH  21  22
HETATM   22  C4  UNL     1      27.445 -22.154 -12.129  1.00  0.00     0.032 C 
BRANCH  22  23
HETATM   23  C3  UNL     1      27.834 -22.868 -10.849  1.00  0.00     0.117 C 
BRANCH  23  24
HETATM   24  C2  UNL     1      27.200 -22.160  -9.691  1.00  0.00     0.027 C 
HETATM   25  C1  UNL     1      25.708 -22.166  -9.722  1.00  0.00     0.007 C 
ENDBRANCH  23  24
BRANCH  23  26
HETATM   26  O1  UNL     1      29.200 -22.901 -10.709  1.00  0.00    -0.396 OA
ATOM     27  H1  UNL     1      29.560 -23.680 -11.118  1.00  0.00     0.210 HD
ENDBRANCH  23  26
ENDBRANCH  22  23
ENDBRANCH  21  22
ENDBRANCH  20  21
ENDBRANCH  18  20
ENDBRANCH  17  18
ENDBRANCH   1  17
BRANCH  16  28
HETATM   28  O7  UNL     1      22.383 -24.418 -15.428  1.00  0.00    -0.387 OA
HETATM   29  C29 UNL     1      21.907 -25.635 -15.823  1.00  0.00     0.202 C 
ENDBRANCH  16  28
BRANCH  15  30
HETATM   30  O5  UNL     1      22.087 -21.699 -15.727  1.00  0.00    -0.384 OA
ATOM     31  H5  UNL     1      21.143 -21.616 -15.794  1.00  0.00     0.210 HD
ENDBRANCH  15  30
BRANCH  15  32
HETATM   32  C27 UNL     1      21.308 -22.705 -17.652  1.00  0.00     0.205 C 
BRANCH  32  33
HETATM   33  O6  UNL     1      20.132 -22.856 -16.970  1.00  0.00    -0.398 OA
ATOM     34  H6  UNL     1      19.907 -23.738 -16.699  1.00  0.00     0.209 HD
ENDBRANCH  32  33
ENDBRANCH  15  32
BRANCH   9  35
HETATM   35  C16 UNL     1      24.853 -21.993 -21.022  1.00  0.00     0.070 C 
BRANCH  35  36
HETATM   36  C17 UNL     1      24.121 -21.125 -21.986  1.00  0.00    -0.021 C 
HETATM   37  C18 UNL     1      24.590 -20.784 -23.176  1.00  0.00    -0.091 C 
HETATM   38  C19 UNL     1      23.825 -19.911 -24.115  1.00  0.00     0.042 C 
HETATM   39  C20 UNL     1      25.920 -21.274 -23.616  1.00  0.00     0.042 C 
ENDBRANCH  35  36
ENDBRANCH   9  35
TORSDOF 14
ENDMDL
MODEL 2
REMARK VINA RESULT: -5.144101612      4.034      6.590
REMARK  14 active torsions:
REMARK  status: ('A' for Active; 'I' for Inactive)
REMARK    1  A    between atoms: C2_2  and  C3_3 
REMARK    2  A    between atoms: C3_3  and  O1_4 
REMARK    3  A    between atoms: C3_3  and  C4_6 
REMARK    4  A    between atoms: C4_6  and  C5_7 
REMARK    5  A    between atoms: C5_7  and  C6_8 
REMARK    6  A    between atoms: C6_8  and  C7_9 
REMARK    7  A    between atoms: C7_9  and  C9_11 
REMARK    8  A    between atoms: C9_11  and  C10_12 
REMARK    9  A    between atoms: C15_20  and  C16_21 
REMARK   10  A    between atoms: C16_21  and  C17_22 
REMARK   11  A    between atoms: C26_31  and  O5_32 
REMARK   12  A    between atoms: C26_31  and  C27_34 
REMARK   13  A    between atoms: C27_34  and  O6_35 
REMARK   14  A    between atoms: C28_37  and  O7_38 
ROOT
HETATM    1  C10 UNL     1      28.909 -25.680 -17.798  1.00  0.00     0.021 C 
HETATM    2  C11 UNL     1      28.387 -25.633 -19.176  1.00  0.00     0.047 C 
HETATM    3  C12 UNL     1      27.467 -24.612 -19.586  1.00  0.00     0.091 A 
HETATM    4  O2  UNL     1      26.581 -24.959 -20.666  1.00  0.00    -0.306 OA
HETATM    5  C13 UNL     1      26.918 -24.086 -21.732  1.00  0.00     0.290 C 
HETATM    6  O3  UNL     1      26.647 -24.229 -22.943  1.00  0.00    -0.262 OA
HETATM    7  C14 UNL     1      27.642 -23.004 -21.106  1.00  0.00     0.237 C 
HETATM    8  O4  UNL     1      27.139 -21.734 -21.008  1.00  0.00    -0.358 OA
HETATM    9  C15 UNL     1      26.628 -22.078 -19.807  1.00  0.00     0.097 C 
HETATM   10  C21 UNL     1      26.884 -21.284 -18.584  1.00  0.00     0.009 C 
HETATM   11  C22 UNL     1      27.459 -21.767 -17.497  1.00  0.00    -0.019 C 
HETATM   12  C23 UNL     1      27.873 -23.191 -17.509  1.00  0.00     0.055 C 
HETATM   13  C24 UNL     1      27.011 -23.817 -18.560  1.00  0.00     0.050 A 
HETATM   14  C25 UNL     1      27.559 -23.204 -19.730  1.00  0.00     0.070 A 
HETATM   15  C26 UNL     1      27.840 -23.973 -16.290  1.00  0.00     0.112 C 
HETATM   16  C28 UNL     1      27.912 -25.437 -16.690  1.00  0.00     0.162 C 
ENDROOT
BRANCH   1  17
HETATM   17  C9  UNL     1      29.443 -27.082 -17.594  1.00  0.00     0.011 C 
BRANCH  17  18
HETATM   18  C7  UNL     1      30.958 -27.116 -17.621  1.00  0.00    -0.018 C 
HETATM   19  C8  UNL     1      31.598 -27.515 -16.336  1.00  0.00     0.010 C 
BRANCH  18  20
HETATM   20  C6  UNL     1      31.368 -28.091 -18.713  1.00  0.00     0.004 C 
BRANCH  20  21
HETATM   21  C5  UNL     1      31.639 -27.426 -20.019  1.00  0.00     0.003 C 
BRANCH  21  22
HETATM   22  C4  UNL     1      32.337 -26.102 -19.700  1.00  0.00     0.032 C 
BRANCH  22  23
HETATM   23  C3  UNL     1      33.665 -26.016 -20.425  1.00  0.00     0.117 C 
BRANCH  23  24
HETATM   24  C2  UNL     1      34.759 -25.870 -19.412  1.00  0.00     0.027 C 
HETATM   25  C1  UNL     1      34.286 -25.402 -18.075  1.00  0.00     0.007 C 
ENDBRANCH  23  24
BRANCH  23  26
HETATM   26  O1  UNL     1      33.671 -24.957 -21.300  1.00  0.00    -0.396 OA
ATOM     27  H1  UNL     1      33.140 -25.151 -22.064  1.00  0.00     0.210 HD
ENDBRANCH  23  26
ENDBRANCH  22  23
ENDBRANCH  21  22
ENDBRANCH  20  21
ENDBRANCH  18  20
ENDBRANCH  17  18
ENDBRANCH   1  17
BRANCH  16  28
HETATM   28  O7  UNL     1      28.156 -26.250 -15.596  1.00  0.00    -0.387 OA
HETATM   29  C29 UNL     1      27.134 -27.064 -15.200  1.00  0.00     0.202 C 
ENDBRANCH  16  28
BRANCH  15  30
HETATM   30  O5  UNL     1      28.985 -23.628 -15.521  1.00  0.00    -0.384 OA
ATOM     31  H5  UNL     1      29.485 -22.989 -16.014  1.00  0.00     0.210 HD
ENDBRANCH  15  30
BRANCH  15  32
HETATM   32  C27 UNL     1      26.680 -23.639 -15.406  1.00  0.00     0.205 C 
BRANCH  32  33
HETATM   33  O6  UNL     1      26.869 -23.794 -14.061  1.00  0.00    -0.398 OA
ATOM     34  H6  UNL     1      26.098 -23.991 -13.543  1.00  0.00     0.209 HD
ENDBRANCH  32  33
ENDBRANCH  15  32
BRANCH   9  35
HETATM   35  C16 UNL     1      25.144 -22.302 -19.910  1.00  0.00     0.070 C 
BRANCH  35  36
HETATM   36  C17 UNL     1      24.477 -21.062 -19.426  1.00  0.00    -0.021 C 
HETATM   37  C18 UNL     1      23.685 -21.014 -18.366  1.00  0.00    -0.091 C 
HETATM   38  C19 UNL     1      23.035 -19.748 -17.912  1.00  0.00     0.042 C 
HETATM   39  C20 UNL     1      23.418 -22.247 -17.585  1.00  0.00     0.042 C 
ENDBRANCH  35  36
ENDBRANCH   9  35
TORSDOF 14
ENDMDL
MODEL 3
REMARK VINA RESULT: -5.000206308      1.791      2.714
REMARK  14 active torsions:
REMARK  status: ('A' for Active; 'I' for Inactive)
REMARK    1  A    between atoms: C2_2  and  C3_3 
REMARK    2  A    between atoms: C3_3  and  O1_4 
REMARK    3  A    between atoms: C3_3  and  C4_6 
REMARK    4  A    between atoms: C4_6  and  C5_7 
REMARK    5  A    between atoms: C5_7  and  C6_8 
REMARK    6  A    between atoms: C6_8  and  C7_9 
REMARK    7  A    between atoms: C7_9  and  C9_11 
REMARK    8  A    between atoms: C9_11  and  C10_12 
REMARK    9  A    between atoms: C15_20  and  C16_21 
REMARK   10  A    between atoms: C16_21  and  C17_22 
REMARK   11  A    between atoms: C26_31  and  O5_32 
REMARK   12  A    between atoms: C26_31  and  C27_34 
REMARK   13  A    between atoms: C27_34  and  O6_35 
REMARK   14  A    between atoms: C28_37  and  O7_38 
ROOT
HETATM    1  C10 UNL     1      24.298 -23.435 -16.830  1.00  0.00     0.021 C 
HETATM    2  C11 UNL     1      25.348 -24.323 -17.360  1.00  0.00     0.047 C 
HETATM    3  C12 UNL     1      25.949 -24.079 -18.640  1.00  0.00     0.091 A 
HETATM    4  O2  UNL     1      26.469 -25.236 -19.321  1.00  0.00    -0.306 OA
HETATM    5  C13 UNL     1      27.868 -25.025 -19.419  1.00  0.00     0.290 C 
HETATM    6  O3  UNL     1      28.750 -25.883 -19.637  1.00  0.00    -0.262 OA
HETATM    7  C14 UNL     1      28.042 -23.606 -19.210  1.00  0.00     0.237 C 
HETATM    8  O4  UNL     1      28.440 -22.753 -20.204  1.00  0.00    -0.358 OA
HETATM    9  C15 UNL     1      27.136 -22.545 -20.486  1.00  0.00     0.097 C 
HETATM   10  C21 UNL     1      26.552 -21.187 -20.560  1.00  0.00     0.009 C 
HETATM   11  C22 UNL     1      25.551 -20.771 -19.803  1.00  0.00    -0.019 C 
HETATM   12  C23 UNL     1      24.985 -21.727 -18.822  1.00  0.00     0.055 C 
HETATM   13  C24 UNL     1      25.352 -23.073 -19.362  1.00  0.00     0.050 A 
HETATM   14  C25 UNL     1      26.768 -23.045 -19.162  1.00  0.00     0.070 A 
HETATM   15  C26 UNL     1      23.577 -21.680 -18.483  1.00  0.00     0.112 C 
HETATM   16  C28 UNL     1      23.230 -22.995 -17.805  1.00  0.00     0.162 C 
ENDROOT
BRANCH   1  17
HETATM   17  C9  UNL     1      23.590 -24.216 -15.743  1.00  0.00     0.011 C 
BRANCH  17  18
HETATM   18  C7  UNL     1      23.901 -23.668 -14.365  1.00  0.00    -0.018 C 
HETATM   19  C8  UNL     1      22.711 -23.465 -13.489  1.00  0.00     0.010 C 
BRANCH  18  20
HETATM   20  C6  UNL     1      24.858 -24.642 -13.697  1.00  0.00     0.004 C 
BRANCH  20  21
HETATM   21  C5  UNL     1      25.826 -23.976 -12.781  1.00  0.00     0.003 C 
BRANCH  21  22
HETATM   22  C4  UNL     1      27.208 -24.130 -13.417  1.00  0.00     0.032 C 
BRANCH  22  23
HETATM   23  C3  UNL     1      27.586 -22.873 -14.176  1.00  0.00     0.117 C 
BRANCH  23  24
HETATM   24  C2  UNL     1      28.220 -23.266 -15.475  1.00  0.00     0.027 C 
HETATM   25  C1  UNL     1      28.556 -24.718 -15.569  1.00  0.00     0.007 C 
ENDBRANCH  23  24
BRANCH  23  26
HETATM   26  O1  UNL     1      28.442 -22.098 -13.433  1.00  0.00    -0.396 OA
ATOM     27  H1  UNL     1      28.140 -21.197 -13.407  1.00  0.00     0.210 HD
ENDBRANCH  23  26
ENDBRANCH  22  23
ENDBRANCH  21  22
ENDBRANCH  20  21
ENDBRANCH  18  20
ENDBRANCH  17  18
ENDBRANCH   1  17
BRANCH  16  28
HETATM   28  O7  UNL     1      21.983 -22.944 -17.206  1.00  0.00    -0.387 OA
HETATM   29  C29 UNL     1      21.017 -23.749 -17.738  1.00  0.00     0.202 C 
ENDBRANCH  16  28
BRANCH  15  30
HETATM   30  O5  UNL     1      23.383 -20.605 -17.574  1.00  0.00    -0.384 OA
ATOM     31  H5  UNL     1      22.820 -19.966 -17.994  1.00  0.00     0.210 HD
ENDBRANCH  15  30
BRANCH  15  32
HETATM   32  C27 UNL     1      22.701 -21.348 -19.650  1.00  0.00     0.205 C 
BRANCH  32  33
HETATM   33  O6  UNL     1      21.525 -20.707 -19.372  1.00  0.00    -0.398 OA
ATOM     34  H6  UNL     1      21.333 -19.930 -19.881  1.00  0.00     0.209 HD
ENDBRANCH  32  33
ENDBRANCH  15  32
BRANCH   9  35
HETATM   35  C16 UNL     1      26.742 -23.286 -21.735  1.00  0.00     0.070 C 
BRANCH  35  36
HETATM   36  C17 UNL     1      26.499 -22.266 -22.792  1.00  0.00    -0.021 C 
HETATM   37  C18 UNL     1      25.336 -22.097 -23.402  1.00  0.00    -0.091 C 
HETATM   38  C19 UNL     1      25.132 -21.062 -24.459  1.00  0.00     0.042 C 
HETATM   39  C20 UNL     1      24.178 -22.953 -23.040  1.00  0.00     0.042 C 
ENDBRANCH  35  36
ENDBRANCH   9  35
TORSDOF 14
ENDMDL
MODEL 4
REMARK VINA RESULT: -4.953506769      1.227      1.915
REMARK  14 active torsions:
REMARK  status: ('A' for Active; 'I' for Inactive)
REMARK    1  A    between atoms: C2_2  and  C3_3 
REMARK    2  A    between atoms: C3_3  and  O1_4 
REMARK    3  A    between atoms: C3_3  and  C4_6 
REMARK    4  A    between atoms: C4_6  and  C5_7 
REMARK    5  A    between atoms: C5_7  and  C6_8 
REMARK    6  A    between atoms: C6_8  and  C7_9 
REMARK    7  A    between atoms: C7_9  and  C9_11 
REMARK    8  A    between atoms: C9_11  and  C10_12 
REMARK    9  A    between atoms: C15_20  and  C16_21 
REMARK   10  A    between atoms: C16_21  and  C17_22 
REMARK   11  A    between atoms: C26_31  and  O5_32 
REMARK   12  A    between atoms: C26_31  and  C27_34 
REMARK   13  A    between atoms: C27_34  and  O6_35 
REMARK   14  A    between atoms: C28_37  and  O7_38 
ROOT
HETATM    1  C10 UNL     1      23.959 -23.287 -16.013  1.00  0.00     0.021 C 
HETATM    2  C11 UNL     1      25.182 -23.553 -16.791  1.00  0.00     0.047 C 
HETATM    3  C12 UNL     1      25.347 -23.027 -18.115  1.00  0.00     0.091 A 
HETATM    4  O2  UNL     1      26.210 -23.780 -18.988  1.00  0.00    -0.306 OA
HETATM    5  C13 UNL     1      27.301 -22.923 -19.280  1.00  0.00     0.290 C 
HETATM    6  O3  UNL     1      28.423 -23.249 -19.722  1.00  0.00    -0.262 OA
HETATM    7  C14 UNL     1      26.826 -21.599 -18.952  1.00  0.00     0.237 C 
HETATM    8  O4  UNL     1      26.585 -20.640 -19.900  1.00  0.00    -0.358 OA
HETATM    9  C15 UNL     1      25.309 -21.078 -19.952  1.00  0.00     0.097 C 
HETATM   10  C21 UNL     1      24.155 -20.166 -19.789  1.00  0.00     0.009 C 
HETATM   11  C22 UNL     1      23.237 -20.295 -18.847  1.00  0.00    -0.019 C 
HETATM   12  C23 UNL     1      23.380 -21.423 -17.896  1.00  0.00     0.055 C 
HETATM   13  C24 UNL     1      24.226 -22.418 -18.626  1.00  0.00     0.050 A 
HETATM   14  C25 UNL     1      25.473 -21.718 -18.646  1.00  0.00     0.070 A 
HETATM   15  C26 UNL     1      22.205 -22.063 -17.339  1.00  0.00     0.112 C 
HETATM   16  C28 UNL     1      22.648 -23.395 -16.757  1.00  0.00     0.162 C 
ENDROOT
BRANCH   1  17
HETATM   17  C9  UNL     1      23.917 -24.331 -14.917  1.00  0.00     0.011 C 
BRANCH  17  18
HETATM   18  C7  UNL     1      24.136 -23.719 -13.549  1.00  0.00    -0.018 C 
HETATM   19  C8  UNL     1      22.897 -23.526 -12.743  1.00  0.00     0.010 C 
BRANCH  18  20
HETATM   20  C6  UNL     1      25.091 -24.631 -12.795  1.00  0.00     0.004 C 
BRANCH  20  21
HETATM   21  C5  UNL     1      26.356 -23.952 -12.397  1.00  0.00     0.003 C 
BRANCH  21  22
HETATM   22  C4  UNL     1      27.364 -24.213 -13.518  1.00  0.00     0.032 C 
BRANCH  22  23
HETATM   23  C3  UNL     1      27.677 -22.928 -14.259  1.00  0.00     0.117 C 
BRANCH  23  24
HETATM   24  C2  UNL     1      28.407 -23.265 -15.523  1.00  0.00     0.027 C 
HETATM   25  C1  UNL     1      28.436 -24.725 -15.833  1.00  0.00     0.007 C 
ENDBRANCH  23  24
BRANCH  23  26
HETATM   26  O1  UNL     1      28.429 -22.088 -13.474  1.00  0.00    -0.396 OA
ATOM     27  H1  UNL     1      28.035 -21.224 -13.436  1.00  0.00     0.210 HD
ENDBRANCH  23  26
ENDBRANCH  22  23
ENDBRANCH  21  22
ENDBRANCH  20  21
ENDBRANCH  18  20
ENDBRANCH  17  18
ENDBRANCH   1  17
BRANCH  16  28
HETATM   28  O7  UNL     1      21.659 -23.959 -15.969  1.00  0.00    -0.387 OA
HETATM   29  C29 UNL     1      21.103 -25.120 -16.426  1.00  0.00     0.202 C 
ENDBRANCH  16  28
BRANCH  15  30
HETATM   30  O5  UNL     1      21.705 -21.229 -16.302  1.00  0.00    -0.384 OA
ATOM     31  H5  UNL     1      20.851 -21.558 -16.050  1.00  0.00     0.210 HD
ENDBRANCH  15  30
BRANCH  15  32
HETATM   32  C27 UNL     1      21.075 -22.170 -18.313  1.00  0.00     0.205 C 
BRANCH  32  33
HETATM   33  O6  UNL     1      19.812 -22.198 -17.788  1.00  0.00    -0.398 OA
ATOM     34  H6  UNL     1      19.162 -22.697 -18.267  1.00  0.00     0.209 HD
ENDBRANCH  32  33
ENDBRANCH  15  32
BRANCH   9  35
HETATM   35  C16 UNL     1      25.081 -21.895 -21.195  1.00  0.00     0.070 C 
BRANCH  35  36
HETATM   36  C17 UNL     1      24.311 -21.045 -22.144  1.00  0.00    -0.021 C 
HETATM   37  C18 UNL     1      24.710 -20.762 -23.373  1.00  0.00    -0.091 C 
HETATM   38  C19 UNL     1      23.908 -19.904 -24.296  1.00  0.00     0.042 C 
HETATM   39  C20 UNL     1      25.996 -21.305 -23.878  1.00  0.00     0.042 C 
ENDBRANCH  35  36
ENDBRANCH   9  35
TORSDOF 14
ENDMDL
MODEL 5
REMARK VINA RESULT: -4.918193854      4.034      9.066
REMARK  14 active torsions:
REMARK  status: ('A' for Active; 'I' for Inactive)
REMARK    1  A    between atoms: C2_2  and  C3_3 
REMARK    2  A    between atoms: C3_3  and  O1_4 
REMARK    3  A    between atoms: C3_3  and  C4_6 
REMARK    4  A    between atoms: C4_6  and  C5_7 
REMARK    5  A    between atoms: C5_7  and  C6_8 
REMARK    6  A    between atoms: C6_8  and  C7_9 
REMARK    7  A    between atoms: C7_9  and  C9_11 
REMARK    8  A    between atoms: C9_11  and  C10_12 
REMARK    9  A    between atoms: C15_20  and  C16_21 
REMARK   10  A    between atoms: C16_21  and  C17_22 
REMARK   11  A    between atoms: C26_31  and  O5_32 
REMARK   12  A    between atoms: C26_31  and  C27_34 
REMARK   13  A    between atoms: C27_34  and  O6_35 
REMARK   14  A    between atoms: C28_37  and  O7_38 
ROOT
HETATM    1  C10 UNL     1      23.737 -23.480 -12.437  1.00  0.00     0.021 C 
HETATM    2  C11 UNL     1      25.180 -23.202 -12.328  1.00  0.00     0.047 C 
HETATM    3  C12 UNL     1      25.764 -22.788 -11.085  1.00  0.00     0.091 A 
HETATM    4  O2  UNL     1      26.958 -21.989 -11.186  1.00  0.00    -0.306 OA
HETATM    5  C13 UNL     1      27.987 -22.764 -10.593  1.00  0.00     0.290 C 
HETATM    6  O3  UNL     1      29.220 -22.623 -10.736  1.00  0.00    -0.262 OA
HETATM    7  C14 UNL     1      27.293 -23.746  -9.792  1.00  0.00     0.237 C 
HETATM    8  O4  UNL     1      27.318 -23.741  -8.423  1.00  0.00    -0.358 OA
HETATM    9  C15 UNL     1      26.201 -22.983  -8.450  1.00  0.00     0.097 C 
HETATM   10  C21 UNL     1      24.981 -23.348  -7.696  1.00  0.00     0.009 C 
HETATM   11  C22 UNL     1      23.801 -23.554  -8.254  1.00  0.00    -0.019 C 
HETATM   12  C23 UNL     1      23.700 -23.409  -9.726  1.00  0.00     0.055 C 
HETATM   13  C24 UNL     1      24.851 -22.526 -10.091  1.00  0.00     0.050 A 
HETATM   14  C25 UNL     1      25.941 -23.412  -9.824  1.00  0.00     0.070 A 
HETATM   15  C26 UNL     1      22.474 -22.927 -10.331  1.00  0.00     0.112 C 
HETATM   16  C28 UNL     1      22.808 -22.505 -11.752  1.00  0.00     0.162 C 
ENDROOT
BRANCH   1  17
HETATM   17  C9  UNL     1      23.403 -23.425 -13.913  1.00  0.00     0.011 C 
BRANCH  17  18
HETATM   18  C7  UNL     1      24.197 -24.443 -14.706  1.00  0.00    -0.018 C 
HETATM   19  C8  UNL     1      23.428 -25.651 -15.122  1.00  0.00     0.010 C 
BRANCH  18  20
HETATM   20  C6  UNL     1      24.732 -23.736 -15.941  1.00  0.00     0.004 C 
BRANCH  20  21
HETATM   21  C5  UNL     1      26.049 -24.265 -16.394  1.00  0.00     0.003 C 
BRANCH  21  22
HETATM   22  C4  UNL     1      27.067 -23.142 -16.188  1.00  0.00     0.032 C 
BRANCH  22  23
HETATM   23  C3  UNL     1      28.158 -23.583 -15.232  1.00  0.00     0.117 C 
BRANCH  23  24
HETATM   24  C2  UNL     1      27.927 -25.018 -14.867  1.00  0.00     0.027 C 
HETATM   25  C1  UNL     1      27.838 -25.260 -13.397  1.00  0.00     0.007 C 
ENDBRANCH  23  24
BRANCH  23  26
HETATM   26  O1  UNL     1      28.166 -22.792 -14.110  1.00  0.00    -0.396 OA
ATOM     27  H1  UNL     1      27.420 -22.205 -14.108  1.00  0.00     0.210 HD
ENDBRANCH  23  26
ENDBRANCH  22  23
ENDBRANCH  21  22
ENDBRANCH  20  21
ENDBRANCH  18  20
ENDBRANCH  17  18
ENDBRANCH   1  17
BRANCH  16  28
HETATM   28  O7  UNL     1      21.662 -22.283 -12.498  1.00  0.00    -0.387 OA
HETATM   29  C29 UNL     1      21.396 -20.988 -12.837  1.00  0.00     0.202 C 
ENDBRANCH  16  28
BRANCH  15  30
HETATM   30  O5  UNL     1      21.548 -24.005 -10.355  1.00  0.00    -0.384 OA
ATOM     31  H5  UNL     1      21.558 -24.416  -9.499  1.00  0.00     0.210 HD
ENDBRANCH  15  30
BRANCH  15  32
HETATM   32  C27 UNL     1      21.796 -21.866  -9.524  1.00  0.00     0.205 C 
BRANCH  32  33
HETATM   33  O6  UNL     1      22.140 -20.572  -9.799  1.00  0.00    -0.398 OA
ATOM     34  H6  UNL     1      21.863 -20.227 -10.640  1.00  0.00     0.209 HD
ENDBRANCH  32  33
ENDBRANCH  15  32
BRANCH   9  35
HETATM   35  C16 UNL     1      26.528 -21.549  -8.133  1.00  0.00     0.070 C 
BRANCH  35  36
HETATM   36  C17 UNL     1      26.079 -21.295  -6.736  1.00  0.00    -0.021 C 
HETATM   37  C18 UNL     1      26.444 -20.241  -6.023  1.00  0.00    -0.091 C 
HETATM   38  C19 UNL     1      25.972 -20.022  -4.623  1.00  0.00     0.042 C 
HETATM   39  C20 UNL     1      27.355 -19.228  -6.612  1.00  0.00     0.042 C 
ENDBRANCH  35  36
ENDBRANCH   9  35
TORSDOF 14
ENDMDL
