MODEL 1
REMARK VINA RESULT: -5.751809242      0.000      0.000
REMARK  12 active torsions:
REMARK  status: ('A' for Active; 'I' for Inactive)
REMARK    1  A    between atoms: N1_1  and  N2_4 
REMARK       I    between atoms: N2_4  and  C1_6 
REMARK    2  A    between atoms: C1_6  and  C2_8 
REMARK    3  A    between atoms: C2_8  and  O2_9 
REMARK    4  A    between atoms: C2_8  and  C3_11 
REMARK    5  A    between atoms: C2_8  and  C11_19 
REMARK    6  A    between atoms: C3_11  and  C4_12 
REMARK    7  A    between atoms: C4_12  and  C5_13 
REMARK    8  A    between atoms: C11_19  and  O3_20 
REMARK    9  A    between atoms: O3_20  and  C12_21 
REMARK   10  A    between atoms: C13_23  and  O5_24 
REMARK   11  A    between atoms: O5_24  and  C14_25 
REMARK   12  A    between atoms: C14_25  and  C15_26 
ROOT
HETATM    1  C12 UNL     1      25.210 -23.963 -12.500  1.00  0.00     0.269 C 
HETATM    2  O4  UNL     1      23.999 -24.703 -12.479  1.00  0.00    -0.331 OA
HETATM    3  C13 UNL     1      23.304 -24.566 -13.696  1.00  0.00     0.268 C 
HETATM    4  C21 UNL     1      24.166 -25.272 -14.788  1.00  0.00     0.066 C 
HETATM    5  C22 UNL     1      25.424 -24.427 -14.869  1.00  0.00     0.001 C 
HETATM    6  C23 UNL     1      26.349 -24.858 -15.960  1.00  0.00     0.005 C 
HETATM    7  C24 UNL     1      27.135 -23.737 -16.580  1.00  0.00     0.003 C 
HETATM    8  C25 UNL     1      28.161 -23.127 -15.649  1.00  0.00     0.034 C 
HETATM    9  C26 UNL     1      27.522 -22.880 -14.338  1.00  0.00     0.151 A 
HETATM   10  O6  UNL     1      28.112 -23.143 -13.131  1.00  0.00    -0.375 OA
HETATM   11  C27 UNL     1      27.483 -24.237 -13.613  1.00  0.00     0.160 A 
HETATM   12  C28 UNL     1      26.085 -24.614 -13.495  1.00  0.00     0.077 C 
ENDROOT
BRANCH   1  13
HETATM   13  O3  UNL     1      25.757 -23.999 -11.248  1.00  0.00    -0.357 OA
BRANCH  13  14
HETATM   14  C11 UNL     1      25.562 -22.876 -10.486  1.00  0.00     0.219 C 
BRANCH  14  15
HETATM   15  C2  UNL     1      26.805 -22.435  -9.750  1.00  0.00     0.161 C 
BRANCH  15  16
HETATM   16  C1  UNL     1      27.804 -23.509  -9.575  1.00  0.00     0.272 C 
HETATM   17  N2  UNL     1      28.816 -23.807 -10.500  1.00  0.00    -0.274 N 
ATOM     18  H2  UNL     1      28.888 -23.258 -11.356  1.00  0.00     0.189 HD
HETATM   19  O1  UNL     1      27.759 -24.225  -8.515  1.00  0.00    -0.268 OA
BRANCH  17  20
HETATM   20  N1  UNL     1      29.720 -24.835 -10.272  1.00  0.00    -0.343 N 
ATOM     21  H12 UNL     1      30.704 -24.597 -10.151  1.00  0.00     0.176 HD
ATOM     22  H11 UNL     1      29.416 -25.808 -10.225  1.00  0.00     0.176 HD
ENDBRANCH  17  20
ENDBRANCH  15  16
BRANCH  15  23
HETATM   23  O2  UNL     1      27.404 -21.477 -10.627  1.00  0.00    -0.378 OA
ATOM     24  H2  UNL     1      28.010 -20.975 -10.094  1.00  0.00     0.211 HD
ENDBRANCH  15  23
BRANCH  15  25
HETATM   25  C3  UNL     1      26.513 -21.648  -8.509  1.00  0.00     0.051 C 
BRANCH  25  26
HETATM   26  C4  UNL     1      25.294 -22.013  -7.754  1.00  0.00     0.008 C 
BRANCH  26  27
HETATM   27  C5  UNL     1      24.964 -20.942  -6.699  1.00  0.00    -0.014 C 
HETATM   28  C6  UNL     1      24.316 -21.646  -5.530  1.00  0.00     0.004 C 
HETATM   29  C7  UNL     1      25.299 -22.421  -4.698  1.00  0.00     0.000 C 
HETATM   30  C8  UNL     1      26.307 -21.487  -4.092  1.00  0.00     0.000 C 
HETATM   31  C9  UNL     1      26.182 -20.099  -4.713  1.00  0.00     0.000 C 
HETATM   32  C10 UNL     1      26.189 -20.234  -6.213  1.00  0.00     0.004 C 
ENDBRANCH  26  27
ENDBRANCH  25  26
ENDBRANCH  15  25
ENDBRANCH  14  15
ENDBRANCH  13  14
ENDBRANCH   1  13
BRANCH   3  33
HETATM   33  O5  UNL     1      23.125 -23.286 -13.938  1.00  0.00    -0.332 OA
BRANCH  33  34
HETATM   34  C14 UNL     1      22.117 -22.658 -14.516  1.00  0.00     0.144 C 
BRANCH  34  35
HETATM   35  C15 UNL     1      22.271 -21.947 -15.798  1.00  0.00    -0.040 C 
HETATM   36  C16 UNL     1      23.293 -22.261 -16.629  1.00  0.00    -0.018 C 
HETATM   37  C17 UNL     1      23.570 -21.646 -17.922  1.00  0.00     0.028 C 
HETATM   38  C18 UNL     1      22.799 -20.382 -18.184  1.00  0.00     0.004 C 
HETATM   39  C19 UNL     1      22.208 -19.809 -16.917  1.00  0.00     0.005 C 
HETATM   40  C20 UNL     1      21.359 -20.914 -16.297  1.00  0.00     0.040 C 
ENDBRANCH  34  35
ENDBRANCH  33  34
ENDBRANCH   3  33
TORSDOF 12
ENDMDL
MODEL 2
REMARK VINA RESULT: -5.677754994      3.174      4.977
REMARK  12 active torsions:
REMARK  status: ('A' for Active; 'I' for Inactive)
REMARK    1  A    between atoms: N1_1  and  N2_4 
REMARK       I    between atoms: N2_4  and  C1_6 
REMARK    2  A    between atoms: C1_6  and  C2_8 
REMARK    3  A    between atoms: C2_8  and  O2_9 
REMARK    4  A    between atoms: C2_8  and  C3_11 
REMARK    5  A    between atoms: C2_8  and  C11_19 
REMARK    6  A    between atoms: C3_11  and  C4_12 
REMARK    7  A    between atoms: C4_12  and  C5_13 
REMARK    8  A    between atoms: C11_19  and  O3_20 
REMARK    9  A    between atoms: O3_20  and  C12_21 
REMARK   10  A    between atoms: C13_23  and  O5_24 
REMARK   11  A    between atoms: O5_24  and  C14_25 
REMARK   12  A    between atoms: C14_25  and  C15_26 
ROOT
HETATM    1  C12 UNL     1      25.613 -23.071 -17.137  1.00  0.00     0.269 C 
HETATM    2  O4  UNL     1      24.547 -23.952 -16.816  1.00  0.00    -0.331 OA
HETATM    3  C13 UNL     1      23.316 -23.435 -17.263  1.00  0.00     0.268 C 
HETATM    4  C21 UNL     1      23.365 -23.443 -18.823  1.00  0.00     0.066 C 
HETATM    5  C22 UNL     1      24.447 -22.435 -19.164  1.00  0.00     0.001 C 
HETATM    6  C23 UNL     1      24.574 -22.187 -20.631  1.00  0.00     0.005 C 
HETATM    7  C24 UNL     1      24.996 -20.789 -20.986  1.00  0.00     0.003 C 
HETATM    8  C25 UNL     1      26.418 -20.463 -20.582  1.00  0.00     0.034 C 
HETATM    9  C26 UNL     1      26.630 -20.916 -19.190  1.00  0.00     0.151 A 
HETATM   10  O6  UNL     1      27.757 -21.559 -18.752  1.00  0.00    -0.375 OA
HETATM   11  C27 UNL     1      26.864 -22.435 -19.261  1.00  0.00     0.160 A 
HETATM   12  C28 UNL     1      25.731 -23.069 -18.608  1.00  0.00     0.077 C 
ENDROOT
BRANCH   1  13
HETATM   13  O3  UNL     1      26.750 -23.540 -16.541  1.00  0.00    -0.357 OA
BRANCH  13  14
HETATM   14  C11 UNL     1      26.561 -24.243 -15.379  1.00  0.00     0.219 C 
BRANCH  14  15
HETATM   15  C2  UNL     1      27.808 -24.335 -14.531  1.00  0.00     0.161 C 
BRANCH  15  16
HETATM   16  C1  UNL     1      28.752 -25.380 -14.975  1.00  0.00     0.272 C 
HETATM   17  N2  UNL     1      28.880 -25.821 -16.300  1.00  0.00    -0.274 N 
ATOM     18  H2  UNL     1      28.294 -25.405 -17.024  1.00  0.00     0.189 HD
HETATM   19  O1  UNL     1      29.514 -25.931 -14.106  1.00  0.00    -0.268 OA
BRANCH  17  20
HETATM   20  N1  UNL     1      29.788 -26.812 -16.645  1.00  0.00    -0.343 N 
ATOM     21  H12 UNL     1      29.890 -27.614 -16.024  1.00  0.00     0.176 HD
ATOM     22  H11 UNL     1      30.343 -26.748 -17.499  1.00  0.00     0.176 HD
ENDBRANCH  17  20
ENDBRANCH  15  16
BRANCH  15  23
HETATM   23  O2  UNL     1      28.468 -23.085 -14.752  1.00  0.00    -0.378 OA
ATOM     24  H2  UNL     1      28.585 -23.011 -15.692  1.00  0.00     0.211 HD
ENDBRANCH  15  23
BRANCH  15  25
HETATM   25  C3  UNL     1      27.526 -24.334 -13.059  1.00  0.00     0.051 C 
BRANCH  25  26
HETATM   26  C4  UNL     1      26.250 -23.725 -12.621  1.00  0.00     0.008 C 
BRANCH  26  27
HETATM   27  C5  UNL     1      26.510 -22.475 -11.760  1.00  0.00    -0.014 C 
HETATM   28  C6  UNL     1      25.421 -22.414 -10.716  1.00  0.00     0.004 C 
HETATM   29  C7  UNL     1      25.605 -23.427  -9.620  1.00  0.00     0.000 C 
HETATM   30  C8  UNL     1      26.883 -23.156  -8.880  1.00  0.00     0.000 C 
HETATM   31  C9  UNL     1      27.715 -22.117  -9.626  1.00  0.00     0.000 C 
HETATM   32  C10 UNL     1      27.835 -22.532 -11.069  1.00  0.00     0.004 C 
ENDBRANCH  26  27
ENDBRANCH  25  26
ENDBRANCH  15  25
ENDBRANCH  14  15
ENDBRANCH  13  14
ENDBRANCH   1  13
BRANCH   3  33
HETATM   33  O5  UNL     1      23.158 -22.228 -16.765  1.00  0.00    -0.332 OA
BRANCH  33  34
HETATM   34  C14 UNL     1      22.064 -21.510 -16.594  1.00  0.00     0.144 C 
BRANCH  34  35
HETATM   35  C15 UNL     1      22.014 -20.073 -16.915  1.00  0.00    -0.040 C 
HETATM   36  C16 UNL     1      21.223 -19.244 -16.193  1.00  0.00    -0.018 C 
HETATM   37  C17 UNL     1      21.072 -17.807 -16.394  1.00  0.00     0.028 C 
HETATM   38  C18 UNL     1      21.644 -17.301 -17.690  1.00  0.00     0.004 C 
HETATM   39  C19 UNL     1      21.896 -18.421 -18.671  1.00  0.00     0.005 C 
HETATM   40  C20 UNL     1      22.804 -19.421 -17.963  1.00  0.00     0.040 C 
ENDBRANCH  34  35
ENDBRANCH  33  34
ENDBRANCH   3  33
TORSDOF 12
ENDMDL
MODEL 3
REMARK VINA RESULT: -5.627371759      2.262      3.999
REMARK  12 active torsions:
REMARK  status: ('A' for Active; 'I' for Inactive)
REMARK    1  A    between atoms: N1_1  and  N2_4 
REMARK       I    between atoms: N2_4  and  C1_6 
REMARK    2  A    between atoms: C1_6  and  C2_8 
REMARK    3  A    between atoms: C2_8  and  O2_9 
REMARK    4  A    between atoms: C2_8  and  C3_11 
REMARK    5  A    between atoms: C2_8  and  C11_19 
REMARK    6  A    between atoms: C3_11  and  C4_12 
REMARK    7  A    between atoms: C4_12  and  C5_13 
REMARK    8  A    between atoms: C11_19  and  O3_20 
REMARK    9  A    between atoms: O3_20  and  C12_21 
REMARK   10  A    between atoms: C13_23  and  O5_24 
REMARK   11  A    between atoms: O5_24  and  C14_25 
REMARK   12  A    between atoms: C14_25  and  C15_26 
ROOT
HETATM    1  C12 UNL     1      25.401 -22.660 -11.898  1.00  0.00     0.269 C 
HETATM    2  O4  UNL     1      24.249 -23.303 -11.376  1.00  0.00    -0.331 OA
HETATM    3  C13 UNL     1      23.495 -23.898 -12.405  1.00  0.00     0.268 C 
HETATM    4  C21 UNL     1      24.359 -25.064 -12.978  1.00  0.00     0.066 C 
HETATM    5  C22 UNL     1      25.548 -24.367 -13.612  1.00  0.00     0.001 C 
HETATM    6  C23 UNL     1      26.454 -25.302 -14.343  1.00  0.00     0.005 C 
HETATM    7  C24 UNL     1      27.130 -24.696 -15.540  1.00  0.00     0.003 C 
HETATM    8  C25 UNL     1      28.149 -23.632 -15.188  1.00  0.00     0.034 C 
HETATM    9  C26 UNL     1      27.550 -22.714 -14.195  1.00  0.00     0.151 A 
HETATM   10  O6  UNL     1      28.208 -22.233 -13.096  1.00  0.00    -0.375 OA
HETATM   11  C27 UNL     1      27.640 -23.429 -12.836  1.00  0.00     0.160 A 
HETATM   12  C28 UNL     1      26.279 -23.725 -12.422  1.00  0.00     0.077 C 
ENDROOT
BRANCH   1  13
HETATM   13  O3  UNL     1      26.002 -21.967 -10.884  1.00  0.00    -0.357 OA
BRANCH  13  14
HETATM   14  C11 UNL     1      25.584 -22.291  -9.618  1.00  0.00     0.219 C 
BRANCH  14  15
HETATM   15  C2  UNL     1      26.724 -22.495  -8.650  1.00  0.00     0.161 C 
BRANCH  15  16
HETATM   16  C1  UNL     1      27.359 -21.237  -8.207  1.00  0.00     0.272 C 
HETATM   17  N2  UNL     1      26.714 -20.251  -7.445  1.00  0.00    -0.274 N 
ATOM     18  H2  UNL     1      25.744 -20.391  -7.165  1.00  0.00     0.189 HD
HETATM   19  O1  UNL     1      28.578 -21.015  -8.528  1.00  0.00    -0.268 OA
BRANCH  17  20
HETATM   20  N1  UNL     1      27.372 -19.089  -7.066  1.00  0.00    -0.343 N 
ATOM     21  H12 UNL     1      28.085 -18.710  -7.688  1.00  0.00     0.176 HD
ATOM     22  H11 UNL     1      27.153 -18.618  -6.188  1.00  0.00     0.176 HD
ENDBRANCH  17  20
ENDBRANCH  15  16
BRANCH  15  23
HETATM   23  O2  UNL     1      26.098 -23.052  -7.492  1.00  0.00    -0.378 OA
ATOM     24  H2  UNL     1      26.777 -23.114  -6.829  1.00  0.00     0.211 HD
ENDBRANCH  15  23
BRANCH  15  25
HETATM   25  C3  UNL     1      27.687 -23.559  -9.082  1.00  0.00     0.051 C 
BRANCH  25  26
HETATM   26  C4  UNL     1      27.206 -24.958  -9.034  1.00  0.00     0.008 C 
BRANCH  26  27
HETATM   27  C5  UNL     1      28.386 -25.944  -9.124  1.00  0.00    -0.014 C 
HETATM   28  C6  UNL     1      27.883 -27.183  -9.825  1.00  0.00     0.004 C 
HETATM   29  C7  UNL     1      27.703 -26.984 -11.305  1.00  0.00     0.000 C 
HETATM   30  C8  UNL     1      29.024 -26.671 -11.945  1.00  0.00     0.000 C 
HETATM   31  C9  UNL     1      30.078 -26.394 -10.876  1.00  0.00     0.000 C 
HETATM   32  C10 UNL     1      29.531 -25.381  -9.904  1.00  0.00     0.004 C 
ENDBRANCH  26  27
ENDBRANCH  25  26
ENDBRANCH  15  25
ENDBRANCH  14  15
ENDBRANCH  13  14
ENDBRANCH   1  13
BRANCH   3  33
HETATM   33  O5  UNL     1      23.214 -22.982 -13.306  1.00  0.00    -0.332 OA
BRANCH  33  34
HETATM   34  C14 UNL     1      22.289 -22.965 -14.248  1.00  0.00     0.144 C 
BRANCH  34  35
HETATM   35  C15 UNL     1      22.572 -22.490 -15.613  1.00  0.00    -0.040 C 
HETATM   36  C16 UNL     1      23.644 -22.967 -16.289  1.00  0.00    -0.018 C 
HETATM   37  C17 UNL     1      24.047 -22.592 -17.640  1.00  0.00     0.028 C 
HETATM   38  C18 UNL     1      23.349 -21.372 -18.177  1.00  0.00     0.004 C 
HETATM   39  C19 UNL     1      22.682 -20.576 -17.080  1.00  0.00     0.005 C 
HETATM   40  C20 UNL     1      21.744 -21.536 -16.356  1.00  0.00     0.040 C 
ENDBRANCH  34  35
ENDBRANCH  33  34
ENDBRANCH   3  33
TORSDOF 12
ENDMDL
MODEL 4
REMARK VINA RESULT: -5.559146512      1.497      2.470
REMARK  12 active torsions:
REMARK  status: ('A' for Active; 'I' for Inactive)
REMARK    1  A    between atoms: N1_1  and  N2_4 
REMARK       I    between atoms: N2_4  and  C1_6 
REMARK    2  A    between atoms: C1_6  and  C2_8 
REMARK    3  A    between atoms: C2_8  and  O2_9 
REMARK    4  A    between atoms: C2_8  and  C3_11 
REMARK    5  A    between atoms: C2_8  and  C11_19 
REMARK    6  A    between atoms: C3_11  and  C4_12 
REMARK    7  A    between atoms: C4_12  and  C5_13 
REMARK    8  A    between atoms: C11_19  and  O3_20 
REMARK    9  A    between atoms: O3_20  and  C12_21 
REMARK   10  A    between atoms: C13_23  and  O5_24 
REMARK   11  A    between atoms: O5_24  and  C14_25 
REMARK   12  A    between atoms: C14_25  and  C15_26 
ROOT
HETATM    1  C12 UNL     1      25.195 -23.775 -12.933  1.00  0.00     0.269 C 
HETATM    2  O4  UNL     1      23.950 -24.449 -12.836  1.00  0.00    -0.331 OA
HETATM    3  C13 UNL     1      23.243 -24.379 -14.052  1.00  0.00     0.268 C 
HETATM    4  C21 UNL     1      24.052 -25.215 -15.091  1.00  0.00     0.066 C 
HETATM    5  C22 UNL     1      25.348 -24.443 -15.258  1.00  0.00     0.001 C 
HETATM    6  C23 UNL     1      26.233 -25.007 -16.321  1.00  0.00     0.005 C 
HETATM    7  C24 UNL     1      27.062 -23.982 -17.041  1.00  0.00     0.003 C 
HETATM    8  C25 UNL     1      28.132 -23.349 -16.176  1.00  0.00     0.034 C 
HETATM    9  C26 UNL     1      27.527 -22.963 -14.882  1.00  0.00     0.151 A 
HETATM   10  O6  UNL     1      28.123 -23.156 -13.666  1.00  0.00    -0.375 OA
HETATM   11  C27 UNL     1      27.434 -24.252 -14.047  1.00  0.00     0.160 A 
HETATM   12  C28 UNL     1      26.021 -24.549 -13.881  1.00  0.00     0.077 C 
ENDROOT
BRANCH   1  13
HETATM   13  O3  UNL     1      25.760 -23.736 -11.689  1.00  0.00    -0.357 OA
BRANCH  13  14
HETATM   14  C11 UNL     1      26.087 -22.486 -11.229  1.00  0.00     0.219 C 
BRANCH  14  15
HETATM   15  C2  UNL     1      26.733 -22.507  -9.864  1.00  0.00     0.161 C 
BRANCH  15  16
HETATM   16  C1  UNL     1      28.061 -23.152  -9.845  1.00  0.00     0.272 C 
HETATM   17  N2  UNL     1      28.446 -24.198 -10.698  1.00  0.00    -0.274 N 
ATOM     18  H2  UNL     1      27.782 -24.550 -11.388  1.00  0.00     0.189 HD
HETATM   19  O1  UNL     1      28.933 -22.744  -9.001  1.00  0.00    -0.268 OA
BRANCH  17  20
HETATM   20  N1  UNL     1      29.712 -24.761 -10.622  1.00  0.00    -0.343 N 
ATOM     21  H12 UNL     1      30.103 -25.190 -11.461  1.00  0.00     0.176 HD
ATOM     22  H11 UNL     1      30.245 -24.751  -9.753  1.00  0.00     0.176 HD
ENDBRANCH  17  20
ENDBRANCH  15  16
BRANCH  15  23
HETATM   23  O2  UNL     1      26.960 -21.126  -9.568  1.00  0.00    -0.378 OA
ATOM     24  H2  UNL     1      27.670 -20.848 -10.135  1.00  0.00     0.211 HD
ENDBRANCH  15  23
BRANCH  15  25
HETATM   25  C3  UNL     1      25.807 -22.956  -8.775  1.00  0.00     0.051 C 
BRANCH  25  26
HETATM   26  C4  UNL     1      24.954 -21.921  -8.150  1.00  0.00     0.008 C 
BRANCH  26  27
HETATM   27  C5  UNL     1      23.466 -22.302  -8.257  1.00  0.00    -0.014 C 
HETATM   28  C6  UNL     1      22.722 -21.077  -8.734  1.00  0.00     0.004 C 
HETATM   29  C7  UNL     1      22.940 -20.793 -10.195  1.00  0.00     0.000 C 
HETATM   30  C8  UNL     1      22.411 -21.929 -11.022  1.00  0.00     0.000 C 
HETATM   31  C9  UNL     1      22.064 -23.118 -10.130  1.00  0.00     0.000 C 
HETATM   32  C10 UNL     1      23.238 -23.413  -9.234  1.00  0.00     0.004 C 
ENDBRANCH  26  27
ENDBRANCH  25  26
ENDBRANCH  15  25
ENDBRANCH  14  15
ENDBRANCH  13  14
ENDBRANCH   1  13
BRANCH   3  33
HETATM   33  O5  UNL     1      23.122 -23.116 -14.397  1.00  0.00    -0.332 OA
BRANCH  33  34
HETATM   34  C14 UNL     1      22.155 -22.495 -15.048  1.00  0.00     0.144 C 
BRANCH  34  35
HETATM   35  C15 UNL     1      22.406 -21.746 -16.291  1.00  0.00    -0.040 C 
HETATM   36  C16 UNL     1      23.454 -22.075 -17.083  1.00  0.00    -0.018 C 
HETATM   37  C17 UNL     1      23.824 -21.427 -18.336  1.00  0.00     0.028 C 
HETATM   38  C18 UNL     1      23.124 -20.119 -18.585  1.00  0.00     0.004 C 
HETATM   39  C19 UNL     1      22.495 -19.567 -17.327  1.00  0.00     0.005 C 
HETATM   40  C20 UNL     1      21.568 -20.654 -16.794  1.00  0.00     0.040 C 
ENDBRANCH  34  35
ENDBRANCH  33  34
ENDBRANCH   3  33
TORSDOF 12
ENDMDL
MODEL 5
REMARK VINA RESULT: -5.546090291      7.738     11.895
REMARK  12 active torsions:
REMARK  status: ('A' for Active; 'I' for Inactive)
REMARK    1  A    between atoms: N1_1  and  N2_4 
REMARK       I    between atoms: N2_4  and  C1_6 
REMARK    2  A    between atoms: C1_6  and  C2_8 
REMARK    3  A    between atoms: C2_8  and  O2_9 
REMARK    4  A    between atoms: C2_8  and  C3_11 
REMARK    5  A    between atoms: C2_8  and  C11_19 
REMARK    6  A    between atoms: C3_11  and  C4_12 
REMARK    7  A    between atoms: C4_12  and  C5_13 
REMARK    8  A    between atoms: C11_19  and  O3_20 
REMARK    9  A    between atoms: O3_20  and  C12_21 
REMARK   10  A    between atoms: C13_23  and  O5_24 
REMARK   11  A    between atoms: O5_24  and  C14_25 
REMARK   12  A    between atoms: C14_25  and  C15_26 
ROOT
HETATM    1  C12 UNL     1      27.006 -22.506 -20.949  1.00  0.00     0.269 C 
HETATM    2  O4  UNL     1      26.996 -21.089 -21.034  1.00  0.00    -0.331 OA
HETATM    3  C13 UNL     1      26.254 -20.527 -19.978  1.00  0.00     0.268 C 
HETATM    4  C21 UNL     1      27.044 -20.826 -18.666  1.00  0.00     0.066 C 
HETATM    5  C22 UNL     1      26.978 -22.337 -18.532  1.00  0.00     0.001 C 
HETATM    6  C23 UNL     1      27.572 -22.837 -17.256  1.00  0.00     0.005 C 
HETATM    7  C24 UNL     1      26.916 -24.076 -16.715  1.00  0.00     0.003 C 
HETATM    8  C25 UNL     1      27.149 -25.308 -17.565  1.00  0.00     0.034 C 
HETATM    9  C26 UNL     1      26.903 -24.958 -18.981  1.00  0.00     0.151 A 
HETATM   10  O6  UNL     1      27.692 -25.363 -20.023  1.00  0.00    -0.375 OA
HETATM   11  C27 UNL     1      28.165 -24.225 -19.471  1.00  0.00     0.160 A 
HETATM   12  C28 UNL     1      27.779 -22.850 -19.739  1.00  0.00     0.077 C 
ENDROOT
BRANCH   1  13
HETATM   13  O3  UNL     1      27.596 -22.999 -22.079  1.00  0.00    -0.357 OA
BRANCH  13  14
HETATM   14  C11 UNL     1      27.399 -22.261 -23.218  1.00  0.00     0.219 C 
BRANCH  14  15
HETATM   15  C2  UNL     1      26.509 -22.950 -24.225  1.00  0.00     0.161 C 
BRANCH  15  16
HETATM   16  C1  UNL     1      27.044 -22.933 -25.601  1.00  0.00     0.272 C 
HETATM   17  N2  UNL     1      26.628 -22.040 -26.601  1.00  0.00    -0.274 N 
ATOM     18  H2  UNL     1      25.912 -21.347 -26.386  1.00  0.00     0.189 HD
HETATM   19  O1  UNL     1      27.948 -23.780 -25.922  1.00  0.00    -0.268 OA
BRANCH  17  20
HETATM   20  N1  UNL     1      27.172 -22.083 -27.877  1.00  0.00    -0.343 N 
ATOM     21  H12 UNL     1      27.931 -22.741 -28.059  1.00  0.00     0.176 HD
ATOM     22  H11 UNL     1      26.828 -21.476 -28.621  1.00  0.00     0.176 HD
ENDBRANCH  17  20
ENDBRANCH  15  16
BRANCH  15  23
HETATM   23  O2  UNL     1      26.518 -24.320 -23.814  1.00  0.00    -0.378 OA
ATOM     24  H2  UNL     1      27.009 -24.348 -23.001  1.00  0.00     0.211 HD
ENDBRANCH  15  23
BRANCH  15  25
HETATM   25  C3  UNL     1      25.068 -22.554 -24.112  1.00  0.00     0.051 C 
BRANCH  25  26
HETATM   26  C4  UNL     1      24.785 -21.175 -23.654  1.00  0.00     0.008 C 
BRANCH  26  27
HETATM   27  C5  UNL     1      23.443 -20.677 -24.222  1.00  0.00    -0.014 C 
HETATM   28  C6  UNL     1      22.680 -20.044 -23.083  1.00  0.00     0.004 C 
HETATM   29  C7  UNL     1      23.222 -18.696 -22.695  1.00  0.00     0.000 C 
HETATM   30  C8  UNL     1      23.089 -17.739 -23.844  1.00  0.00     0.000 C 
HETATM   31  C9  UNL     1      22.698 -18.489 -25.114  1.00  0.00     0.000 C 
HETATM   32  C10 UNL     1      23.632 -19.655 -25.299  1.00  0.00     0.004 C 
ENDBRANCH  26  27
ENDBRANCH  25  26
ENDBRANCH  15  25
ENDBRANCH  14  15
ENDBRANCH  13  14
ENDBRANCH   1  13
BRANCH   3  33
HETATM   33  O5  UNL     1      25.050 -21.056 -19.979  1.00  0.00    -0.332 OA
BRANCH  33  34
HETATM   34  C14 UNL     1      23.897 -20.559 -19.569  1.00  0.00     0.144 C 
BRANCH  34  35
HETATM   35  C15 UNL     1      23.338 -20.874 -18.243  1.00  0.00    -0.040 C 
HETATM   36  C16 UNL     1      23.493 -22.112 -17.718  1.00  0.00    -0.018 C 
HETATM   37  C17 UNL     1      22.997 -22.567 -16.424  1.00  0.00     0.028 C 
HETATM   38  C18 UNL     1      22.003 -21.639 -15.782  1.00  0.00     0.004 C 
HETATM   39  C19 UNL     1      21.438 -20.646 -16.771  1.00  0.00     0.005 C 
HETATM   40  C20 UNL     1      22.631 -19.920 -17.385  1.00  0.00     0.040 C 
ENDBRANCH  34  35
ENDBRANCH  33  34
ENDBRANCH   3  33
TORSDOF 12
ENDMDL
