MODEL 1
REMARK VINA RESULT: -4.432669351      0.000      0.000
REMARK  2 active torsions:
REMARK  status: ('A' for Active; 'I' for Inactive)
REMARK    1  A    between atoms: C2_2  and  C4_4 
REMARK    2  A    between atoms: C6_6  and  N1_7 
ROOT
HETATM    1  C4  UNL     1      69.825  80.788  26.585  1.00  0.00     0.191 C 
HETATM    2  C5  UNL     1      69.024  79.814  25.805  1.00  0.00     0.067 C 
HETATM    3  C6  UNL     1      69.627  79.875  24.420  1.00  0.00     0.211 C 
HETATM    4  C7  UNL     1      70.081  81.317  24.342  1.00  0.00     0.265 C 
HETATM    5  N2  UNL     1      70.617  81.562  25.668  1.00  0.00    -0.069 N 
ATOM      6  H21 UNL     1      71.616  81.372  25.739  1.00  0.00     0.277 HD
ATOM      7  H22 UNL     1      70.657  82.553  25.908  1.00  0.00     0.277 HD
ENDROOT
BRANCH   3   8
HETATM    8  N1  UNL     1      68.673  79.546  23.387  1.00  0.00    -0.073 N 
ATOM      9  H13 UNL     1      68.537  78.538  23.320  1.00  0.00     0.274 HD
ATOM     10  H12 UNL     1      67.729  79.821  23.658  1.00  0.00     0.274 HD
ATOM     11  H11 UNL     1      68.926  79.943  22.482  1.00  0.00     0.274 HD
ENDBRANCH   3   8
BRANCH   1  12
HETATM   12  C2  UNL     1      70.655  80.165  27.682  1.00  0.00     0.008 C 
HETATM   13  C1  UNL     1      70.008  78.982  28.321  1.00  0.00     0.011 C 
HETATM   14  C3  UNL     1      70.955  81.177  28.764  1.00  0.00     0.011 C 
ENDBRANCH   1  12
TORSDOF 2
ENDMDL
MODEL 2
REMARK VINA RESULT: -4.271469141      6.203      7.763
REMARK  2 active torsions:
REMARK  status: ('A' for Active; 'I' for Inactive)
REMARK    1  A    between atoms: C2_2  and  C4_4 
REMARK    2  A    between atoms: C6_6  and  N1_7 
ROOT
HETATM    1  C4  UNL     1      71.565  79.525  32.196  1.00  0.00     0.191 C 
HETATM    2  C5  UNL     1      72.785  79.338  33.018  1.00  0.00     0.067 C 
HETATM    3  C6  UNL     1      72.820  80.563  33.901  1.00  0.00     0.211 C 
HETATM    4  C7  UNL     1      72.182  81.608  33.010  1.00  0.00     0.265 C 
HETATM    5  N2  UNL     1      71.103  80.876  32.372  1.00  0.00    -0.069 N 
ATOM      6  H21 UNL     1      70.221  80.937  32.880  1.00  0.00     0.277 HD
ATOM      7  H22 UNL     1      70.782  81.307  31.505  1.00  0.00     0.277 HD
ENDROOT
BRANCH   3   8
HETATM    8  N1  UNL     1      74.163  80.926  34.291  1.00  0.00    -0.073 N 
ATOM      9  H13 UNL     1      74.186  81.270  35.250  1.00  0.00     0.274 HD
ATOM     10  H12 UNL     1      74.749  80.098  34.400  1.00  0.00     0.274 HD
ATOM     11  H11 UNL     1      74.588  81.596  33.650  1.00  0.00     0.274 HD
ENDBRANCH   3   8
BRANCH   1  12
HETATM   12  C2  UNL     1      70.483  78.506  32.459  1.00  0.00     0.008 C 
HETATM   13  C1  UNL     1      69.799  78.028  31.222  1.00  0.00     0.011 C 
HETATM   14  C3  UNL     1      69.431  79.070  33.387  1.00  0.00     0.011 C 
ENDBRANCH   1  12
TORSDOF 2
ENDMDL
MODEL 3
REMARK VINA RESULT: -4.266419137      1.956      4.219
REMARK  2 active torsions:
REMARK  status: ('A' for Active; 'I' for Inactive)
REMARK    1  A    between atoms: C2_2  and  C4_4 
REMARK    2  A    between atoms: C6_6  and  N1_7 
ROOT
HETATM    1  C4  UNL     1      69.488  80.349  26.696  1.00  0.00     0.191 C 
HETATM    2  C5  UNL     1      70.333  81.002  27.725  1.00  0.00     0.067 C 
HETATM    3  C6  UNL     1      70.916  79.844  28.503  1.00  0.00     0.211 C 
HETATM    4  C7  UNL     1      69.809  78.816  28.405  1.00  0.00     0.265 C 
HETATM    5  N2  UNL     1      69.351  78.959  27.036  1.00  0.00    -0.069 N 
ATOM      6  H21 UNL     1      69.830  78.337  26.385  1.00  0.00     0.277 HD
ATOM      7  H22 UNL     1      68.409  78.600  26.887  1.00  0.00     0.277 HD
ENDROOT
BRANCH   3   8
HETATM    8  N1  UNL     1      71.217  80.194  29.872  1.00  0.00    -0.073 N 
ATOM      9  H13 UNL     1      72.201  80.033  30.084  1.00  0.00     0.274 HD
ATOM     10  H12 UNL     1      71.183  81.204  30.008  1.00  0.00     0.274 HD
ATOM     11  H11 UNL     1      70.614  79.713  30.539  1.00  0.00     0.274 HD
ENDBRANCH   3   8
BRANCH   1  12
HETATM   12  C2  UNL     1      69.972  80.554  25.281  1.00  0.00     0.008 C 
HETATM   13  C1  UNL     1      69.824  81.957  24.796  1.00  0.00     0.011 C 
HETATM   14  C3  UNL     1      69.229  79.647  24.326  1.00  0.00     0.011 C 
ENDBRANCH   1  12
TORSDOF 2
ENDMDL
MODEL 4
REMARK VINA RESULT: -4.102733691      0.715      1.325
REMARK  2 active torsions:
REMARK  status: ('A' for Active; 'I' for Inactive)
REMARK    1  A    between atoms: C2_2  and  C4_4 
REMARK    2  A    between atoms: C6_6  and  N1_7 
ROOT
HETATM    1  C4  UNL     1      69.226  80.854  26.232  1.00  0.00     0.191 C 
HETATM    2  C5  UNL     1      68.981  79.628  25.435  1.00  0.00     0.067 C 
HETATM    3  C6  UNL     1      69.868  79.799  24.223  1.00  0.00     0.211 C 
HETATM    4  C7  UNL     1      69.870  81.303  24.050  1.00  0.00     0.265 C 
HETATM    5  N2  UNL     1      69.953  81.788  25.415  1.00  0.00    -0.069 N 
ATOM      6  H21 UNL     1      70.911  81.938  25.731  1.00  0.00     0.277 HD
ATOM      7  H22 UNL     1      69.630  82.750  25.520  1.00  0.00     0.277 HD
ENDROOT
BRANCH   3   8
HETATM    8  N1  UNL     1      69.353  79.116  23.059  1.00  0.00    -0.073 N 
ATOM      9  H13 UNL     1      69.988  79.209  22.268  1.00  0.00     0.274 HD
ATOM     10  H12 UNL     1      69.389  78.105  23.181  1.00  0.00     0.274 HD
ATOM     11  H11 UNL     1      68.412  79.423  22.812  1.00  0.00     0.274 HD
ENDBRANCH   3   8
BRANCH   1  12
HETATM   12  C2  UNL     1      69.898  80.602  27.560  1.00  0.00     0.008 C 
HETATM   13  C1  UNL     1      71.290  81.134  27.635  1.00  0.00     0.011 C 
HETATM   14  C3  UNL     1      69.946  79.120  27.861  1.00  0.00     0.011 C 
ENDBRANCH   1  12
TORSDOF 2
ENDMDL
MODEL 5
REMARK VINA RESULT: -4.013214477      1.758      2.829
REMARK  2 active torsions:
REMARK  status: ('A' for Active; 'I' for Inactive)
REMARK    1  A    between atoms: C2_2  and  C4_4 
REMARK    2  A    between atoms: C6_6  and  N1_7 
ROOT
HETATM    1  C4  UNL     1      71.214  80.881  27.511  1.00  0.00     0.191 C 
HETATM    2  C5  UNL     1      70.361  80.892  26.298  1.00  0.00     0.067 C 
HETATM    3  C6  UNL     1      69.164  80.055  26.689  1.00  0.00     0.211 C 
HETATM    4  C7  UNL     1      69.780  79.064  27.654  1.00  0.00     0.265 C 
HETATM    5  N2  UNL     1      70.707  79.883  28.413  1.00  0.00    -0.069 N 
ATOM      6  H21 UNL     1      70.296  80.276  29.260  1.00  0.00     0.277 HD
ATOM      7  H22 UNL     1      71.443  79.341  28.868  1.00  0.00     0.277 HD
ENDROOT
BRANCH   3   8
HETATM    8  N1  UNL     1      68.552  79.404  25.555  1.00  0.00    -0.073 N 
ATOM      9  H13 UNL     1      69.179  79.398  24.751  1.00  0.00     0.274 HD
ATOM     10  H12 UNL     1      68.473  78.398  25.708  1.00  0.00     0.274 HD
ATOM     11  H11 UNL     1      67.648  79.810  25.312  1.00  0.00     0.274 HD
ENDBRANCH   3   8
BRANCH   1  12
HETATM   12  C2  UNL     1      71.367  82.231  28.169  1.00  0.00     0.008 C 
HETATM   13  C1  UNL     1      72.668  82.898  27.869  1.00  0.00     0.011 C 
HETATM   14  C3  UNL     1      71.238  82.110  29.671  1.00  0.00     0.011 C 
ENDBRANCH   1  12
TORSDOF 2
ENDMDL
