MODEL 1
REMARK VINA RESULT: -4.568352188      0.000      0.000
REMARK  2 active torsions:
REMARK  status: ('A' for Active; 'I' for Inactive)
REMARK    1  A    between atoms: C2_2  and  C4_4 
REMARK    2  A    between atoms: C8_10  and  N2_11 
ROOT
HETATM    1  C4  UNL     1      71.584  80.640  33.204  1.00  0.00     0.039 C 
HETATM    2  C5  UNL     1      71.735  79.434  32.339  1.00  0.00     0.010 C 
HETATM    3  C6  UNL     1      70.372  78.996  31.845  1.00  0.00     0.020 C 
HETATM    4  C7  UNL     1      69.624  78.593  33.122  1.00  0.00     0.115 C 
HETATM    5  N1  UNL     1      69.364  79.777  33.856  1.00  0.00    -0.395 N 
ATOM      6  H1  UNL     1      68.420  80.014  34.159  1.00  0.00     0.155 HD
HETATM    7  C8  UNL     1      70.458  80.613  34.154  1.00  0.00     0.281 C 
ENDROOT
BRANCH   7   8
HETATM    8  N2  UNL     1      69.952  81.990  34.285  1.00  0.00    -0.058 N 
ATOM      9  H23 UNL     1      70.692  82.670  34.466  1.00  0.00     0.276 HD
ATOM     10  H22 UNL     1      69.626  82.380  33.401  1.00  0.00     0.276 HD
ATOM     11  H21 UNL     1      69.232  81.987  35.008  1.00  0.00     0.276 HD
ENDBRANCH   7   8
BRANCH   1  12
HETATM   12  C2  UNL     1      72.909  80.855  33.927  1.00  0.00    -0.015 C 
HETATM   13  C1  UNL     1      73.762  79.609  33.764  1.00  0.00     0.010 C 
HETATM   14  C3  UNL     1      73.679  82.004  33.349  1.00  0.00     0.010 C 
ENDBRANCH   1  12
TORSDOF 2
ENDMDL
MODEL 2
REMARK VINA RESULT: -4.496857728      8.009      9.182
REMARK  2 active torsions:
REMARK  status: ('A' for Active; 'I' for Inactive)
REMARK    1  A    between atoms: C2_2  and  C4_4 
REMARK    2  A    between atoms: C8_10  and  N2_11 
ROOT
HETATM    1  C4  UNL     1      70.268  81.066  24.517  1.00  0.00     0.039 C 
HETATM    2  C5  UNL     1      70.499  81.703  25.845  1.00  0.00     0.010 C 
HETATM    3  C6  UNL     1      70.479  80.639  26.923  1.00  0.00     0.020 C 
HETATM    4  C7  UNL     1      69.046  80.094  26.883  1.00  0.00     0.115 C 
HETATM    5  N1  UNL     1      68.899  79.369  25.675  1.00  0.00    -0.395 N 
ATOM      6  H1  UNL     1      68.570  78.403  25.675  1.00  0.00     0.155 HD
HETATM    7  C8  UNL     1      69.222  80.029  24.474  1.00  0.00     0.281 C 
ENDROOT
BRANCH   7   8
HETATM    8  N2  UNL     1      69.643  79.011  23.495  1.00  0.00    -0.058 N 
ATOM      9  H23 UNL     1      69.482  78.058  23.820  1.00  0.00     0.276 HD
ATOM     10  H22 UNL     1      69.039  78.977  22.674  1.00  0.00     0.276 HD
ATOM     11  H21 UNL     1      70.619  79.192  23.264  1.00  0.00     0.276 HD
ENDBRANCH   7   8
BRANCH   1  12
HETATM   12  C2  UNL     1      69.980  82.181  23.518  1.00  0.00    -0.015 C 
HETATM   13  C1  UNL     1      69.523  83.414  24.279  1.00  0.00     0.010 C 
HETATM   14  C3  UNL     1      71.203  82.562  22.739  1.00  0.00     0.010 C 
ENDBRANCH   1  12
TORSDOF 2
ENDMDL
MODEL 3
REMARK VINA RESULT: -4.415382148      7.091      8.282
REMARK  2 active torsions:
REMARK  status: ('A' for Active; 'I' for Inactive)
REMARK    1  A    between atoms: C2_2  and  C4_4 
REMARK    2  A    between atoms: C8_10  and  N2_11 
ROOT
HETATM    1  C4  UNL     1      69.850  80.967  26.256  1.00  0.00     0.039 C 
HETATM    2  C5  UNL     1      70.449  82.326  26.114  1.00  0.00     0.010 C 
HETATM    3  C6  UNL     1      69.910  82.985  24.861  1.00  0.00     0.020 C 
HETATM    4  C7  UNL     1      70.428  82.098  23.721  1.00  0.00     0.115 C 
HETATM    5  N1  UNL     1      69.735  80.864  23.791  1.00  0.00    -0.395 N 
ATOM      6  H1  UNL     1      69.240  80.490  22.982  1.00  0.00     0.155 HD
HETATM    7  C8  UNL     1      69.757  80.173  25.017  1.00  0.00     0.281 C 
ENDROOT
BRANCH   7   8
HETATM    8  N2  UNL     1      68.532  79.359  25.101  1.00  0.00    -0.058 N 
ATOM      9  H23 UNL     1      68.263  79.143  26.061  1.00  0.00     0.276 HD
ATOM     10  H22 UNL     1      67.692  79.878  24.840  1.00  0.00     0.276 HD
ATOM     11  H21 UNL     1      68.676  78.525  24.532  1.00  0.00     0.276 HD
ENDBRANCH   7   8
BRANCH   1  12
HETATM   12  C2  UNL     1      70.642  80.226  27.326  1.00  0.00    -0.015 C 
HETATM   13  C1  UNL     1      71.058  81.217  28.400  1.00  0.00     0.010 C 
HETATM   14  C3  UNL     1      69.821  79.163  27.991  1.00  0.00     0.010 C 
ENDBRANCH   1  12
TORSDOF 2
ENDMDL
MODEL 4
REMARK VINA RESULT: -4.246904066      2.337      3.313
REMARK  2 active torsions:
REMARK  status: ('A' for Active; 'I' for Inactive)
REMARK    1  A    between atoms: C2_2  and  C4_4 
REMARK    2  A    between atoms: C8_10  and  N2_11 
ROOT
HETATM    1  C4  UNL     1      74.357  79.700  34.065  1.00  0.00     0.039 C 
HETATM    2  C5  UNL     1      73.427  78.901  33.214  1.00  0.00     0.010 C 
HETATM    3  C6  UNL     1      72.380  79.818  32.616  1.00  0.00     0.020 C 
HETATM    4  C7  UNL     1      71.605  80.343  33.832  1.00  0.00     0.115 C 
HETATM    5  N1  UNL     1      72.466  81.215  34.543  1.00  0.00    -0.395 N 
ATOM      6  H1  UNL     1      72.182  82.167  34.771  1.00  0.00     0.155 HD
HETATM    7  C8  UNL     1      73.727  80.718  34.924  1.00  0.00     0.281 C 
ENDROOT
BRANCH   7   8
HETATM    8  N2  UNL     1      74.655  81.860  35.016  1.00  0.00    -0.058 N 
ATOM      9  H23 UNL     1      74.233  82.680  35.452  1.00  0.00     0.276 HD
ATOM     10  H22 UNL     1      75.399  81.712  35.698  1.00  0.00     0.276 HD
ATOM     11  H21 UNL     1      75.007  82.046  34.077  1.00  0.00     0.276 HD
ENDBRANCH   7   8
BRANCH   1  12
HETATM   12  C2  UNL     1      75.182  78.719  34.889  1.00  0.00    -0.015 C 
HETATM   13  C1  UNL     1      74.906  77.310  34.392  1.00  0.00     0.010 C 
HETATM   14  C3  UNL     1      76.653  78.966  34.739  1.00  0.00     0.010 C 
ENDBRANCH   1  12
TORSDOF 2
ENDMDL
MODEL 5
REMARK VINA RESULT: -4.228681950      1.138      3.408
REMARK  2 active torsions:
REMARK  status: ('A' for Active; 'I' for Inactive)
REMARK    1  A    between atoms: C2_2  and  C4_4 
REMARK    2  A    between atoms: C8_10  and  N2_11 
ROOT
HETATM    1  C4  UNL     1      71.159  79.507  33.143  1.00  0.00     0.039 C 
HETATM    2  C5  UNL     1      72.555  79.094  32.818  1.00  0.00     0.010 C 
HETATM    3  C6  UNL     1      73.513  79.750  33.791  1.00  0.00     0.020 C 
HETATM    4  C7  UNL     1      73.365  81.250  33.505  1.00  0.00     0.115 C 
HETATM    5  N1  UNL     1      72.083  81.647  33.958  1.00  0.00    -0.395 N 
ATOM      6  H1  UNL     1      71.970  82.424  34.608  1.00  0.00     0.155 HD
HETATM    7  C8  UNL     1      70.971  80.930  33.477  1.00  0.00     0.281 C 
ENDROOT
BRANCH   7   8
HETATM    8  N2  UNL     1      69.905  81.013  34.491  1.00  0.00    -0.058 N 
ATOM      9  H23 UNL     1      69.148  80.349  34.327  1.00  0.00     0.276 HD
ATOM     10  H22 UNL     1      70.197  80.660  35.403  1.00  0.00     0.276 HD
ATOM     11  H21 UNL     1      69.584  81.980  34.523  1.00  0.00     0.276 HD
ENDBRANCH   7   8
BRANCH   1  12
HETATM   12  C2  UNL     1      70.274  79.095  31.972  1.00  0.00    -0.015 C 
HETATM   13  C1  UNL     1      70.911  79.584  30.682  1.00  0.00     0.010 C 
HETATM   14  C3  UNL     1      70.142  77.605  31.871  1.00  0.00     0.010 C 
ENDBRANCH   1  12
TORSDOF 2
ENDMDL
