MODEL 1
REMARK VINA RESULT: -4.792217450      0.000      0.000
REMARK  1 active torsions:
REMARK  status: ('A' for Active; 'I' for Inactive)
REMARK    1  A    between atoms: C5_7  and  C6_8 
ROOT
HETATM    1  C1  UNL     1      71.284  80.863  33.150  1.00  0.00     0.040 C 
HETATM    2  C2  UNL     1      71.302  79.841  32.033  1.00  0.00     0.189 C 
HETATM    3  C3  UNL     1      70.482  78.671  32.439  1.00  0.00     0.076 C 
HETATM    4  C4  UNL     1      69.875  77.888  31.336  1.00  0.00     0.059 C 
HETATM    5  N1  UNL     1      69.920  78.451  30.046  1.00  0.00    -0.375 N 
ATOM      6  H1  UNL     1      69.224  78.227  29.335  1.00  0.00     0.160 HD
HETATM    7  C5  UNL     1      70.990  79.349  29.793  1.00  0.00     0.287 C 
HETATM    8  N2  UNL     1      70.930  80.419  30.764  1.00  0.00    -0.050 N 
ATOM      9  H21 UNL     1      71.494  81.228  30.508  1.00  0.00     0.280 HD
ATOM     10  H22 UNL     1      70.027  80.894  30.786  1.00  0.00     0.280 HD
ENDROOT
BRANCH   7  11
HETATM   11  C6  UNL     1      71.000  79.836  28.377  1.00  0.00     0.028 C 
HETATM   12  C7  UNL     1      69.764  79.449  27.614  1.00  0.00     0.013 C 
HETATM   13  C8  UNL     1      71.216  81.327  28.280  1.00  0.00     0.013 C 
ENDBRANCH   7  11
TORSDOF 1
ENDMDL
MODEL 2
REMARK VINA RESULT: -4.653168450      3.335      5.145
REMARK  1 active torsions:
REMARK  status: ('A' for Active; 'I' for Inactive)
REMARK    1  A    between atoms: C5_7  and  C6_8 
ROOT
HETATM    1  C1  UNL     1      74.895  77.301  33.927  1.00  0.00     0.040 C 
HETATM    2  C2  UNL     1      74.298  78.648  34.275  1.00  0.00     0.189 C 
HETATM    3  C3  UNL     1      75.400  79.600  34.566  1.00  0.00     0.076 C 
HETATM    4  C4  UNL     1      75.105  81.032  34.322  1.00  0.00     0.059 C 
HETATM    5  N1  UNL     1      73.925  81.335  33.616  1.00  0.00    -0.375 N 
ATOM      6  H1  UNL     1      73.830  82.186  33.061  1.00  0.00     0.160 HD
HETATM    7  C5  UNL     1      72.873  80.386  33.720  1.00  0.00     0.287 C 
HETATM    8  N2  UNL     1      73.367  79.104  33.270  1.00  0.00    -0.050 N 
ATOM      9  H21 UNL     1      72.626  78.433  33.073  1.00  0.00     0.280 HD
ATOM     10  H22 UNL     1      73.766  79.132  32.332  1.00  0.00     0.280 HD
ENDROOT
BRANCH   7  11
HETATM   11  C6  UNL     1      71.636  80.828  33.002  1.00  0.00     0.028 C 
HETATM   12  C7  UNL     1      71.232  79.892  31.897  1.00  0.00     0.013 C 
HETATM   13  C8  UNL     1      70.472  81.049  33.938  1.00  0.00     0.013 C 
ENDBRANCH   7  11
TORSDOF 1
ENDMDL
MODEL 3
REMARK VINA RESULT: -4.575638498      3.735      5.849
REMARK  1 active torsions:
REMARK  status: ('A' for Active; 'I' for Inactive)
REMARK    1  A    between atoms: C5_7  and  C6_8 
ROOT
HETATM    1  C1  UNL     1      70.884  79.320  32.120  1.00  0.00     0.040 C 
HETATM    2  C2  UNL     1      72.145  79.848  32.770  1.00  0.00     0.189 C 
HETATM    3  C3  UNL     1      71.768  80.787  33.857  1.00  0.00     0.076 C 
HETATM    4  C4  UNL     1      72.742  80.923  34.966  1.00  0.00     0.059 C 
HETATM    5  N1  UNL     1      73.795  79.989  35.016  1.00  0.00    -0.375 N 
ATOM      6  H1  UNL     1      74.250  79.736  35.893  1.00  0.00     0.160 HD
HETATM    7  C5  UNL     1      74.185  79.419  33.776  1.00  0.00     0.287 C 
HETATM    8  N2  UNL     1      73.030  78.785  33.180  1.00  0.00    -0.050 N 
ATOM      9  H21 UNL     1      73.267  78.142  32.425  1.00  0.00     0.280 HD
ATOM     10  H22 UNL     1      72.584  78.102  33.792  1.00  0.00     0.280 HD
ENDROOT
BRANCH   7  11
HETATM   11  C6  UNL     1      75.358  78.498  33.917  1.00  0.00     0.028 C 
HETATM   12  C7  UNL     1      76.501  79.116  34.672  1.00  0.00     0.013 C 
HETATM   13  C8  UNL     1      74.983  77.177  34.543  1.00  0.00     0.013 C 
ENDBRANCH   7  11
TORSDOF 1
ENDMDL
MODEL 4
REMARK VINA RESULT: -4.550717399      2.239      3.676
REMARK  1 active torsions:
REMARK  status: ('A' for Active; 'I' for Inactive)
REMARK    1  A    between atoms: C5_7  and  C6_8 
ROOT
HETATM    1  C1  UNL     1      71.373  82.692  31.705  1.00  0.00     0.040 C 
HETATM    2  C2  UNL     1      71.109  82.621  30.216  1.00  0.00     0.189 C 
HETATM    3  C3  UNL     1      72.064  83.517  29.516  1.00  0.00     0.076 C 
HETATM    4  C4  UNL     1      72.394  83.151  28.118  1.00  0.00     0.059 C 
HETATM    5  N1  UNL     1      71.980  81.881  27.670  1.00  0.00    -0.375 N 
ATOM      6  H1  UNL     1      72.472  81.384  26.928  1.00  0.00     0.160 HD
HETATM    7  C5  UNL     1      70.838  81.334  28.312  1.00  0.00     0.287 C 
HETATM    8  N2  UNL     1      71.101  81.262  29.732  1.00  0.00    -0.050 N 
ATOM      9  H21 UNL     1      70.449  80.659  30.233  1.00  0.00     0.280 HD
ATOM     10  H22 UNL     1      71.951  80.747  29.959  1.00  0.00     0.280 HD
ENDROOT
BRANCH   7  11
HETATM   11  C6  UNL     1      70.427  80.021  27.719  1.00  0.00     0.028 C 
HETATM   12  C7  UNL     1      70.206  78.953  28.754  1.00  0.00     0.013 C 
HETATM   13  C8  UNL     1      69.207  80.142  26.838  1.00  0.00     0.013 C 
ENDBRANCH   7  11
TORSDOF 1
ENDMDL
MODEL 5
REMARK VINA RESULT: -4.533770412      3.537      6.033
REMARK  1 active torsions:
REMARK  status: ('A' for Active; 'I' for Inactive)
REMARK    1  A    between atoms: C5_7  and  C6_8 
ROOT
HETATM    1  C1  UNL     1      71.245  82.322  23.484  1.00  0.00     0.040 C 
HETATM    2  C2  UNL     1      70.185  81.623  24.308  1.00  0.00     0.189 C 
HETATM    3  C3  UNL     1      69.581  80.539  23.492  1.00  0.00     0.076 C 
HETATM    4  C4  UNL     1      69.017  79.394  24.247  1.00  0.00     0.059 C 
HETATM    5  N1  UNL     1      69.318  79.318  25.621  1.00  0.00    -0.375 N 
ATOM      6  H1  UNL     1      69.339  78.428  26.120  1.00  0.00     0.160 HD
HETATM    7  C5  UNL     1      69.589  80.550  26.270  1.00  0.00     0.287 C 
HETATM    8  N2  UNL     1      70.691  81.194  25.590  1.00  0.00    -0.050 N 
ATOM      9  H21 UNL     1      71.114  81.948  26.130  1.00  0.00     0.280 HD
ATOM     10  H22 UNL     1      71.521  80.606  25.520  1.00  0.00     0.280 HD
ENDROOT
BRANCH   7  11
HETATM   11  C6  UNL     1      69.822  80.379  27.740  1.00  0.00     0.028 C 
HETATM   12  C7  UNL     1      69.910  78.937  28.156  1.00  0.00     0.013 C 
HETATM   13  C8  UNL     1      71.040  81.127  28.224  1.00  0.00     0.013 C 
ENDBRANCH   7  11
TORSDOF 1
ENDMDL
