MODEL 1
REMARK VINA RESULT: -4.835459701      0.000      0.000
REMARK  3 active torsions:
REMARK  status: ('A' for Active; 'I' for Inactive)
REMARK    1  A    between atoms: C2_2  and  N1_3 
REMARK    2  A    between atoms: C2_2  and  C3_7 
REMARK    3  A    between atoms: C6_10  and  N2_11 
ROOT
HETATM    1  C3  UNL     1      69.607  80.415  27.000  1.00  0.00     0.016 C 
HETATM    2  C4  UNL     1      69.833  78.967  27.375  1.00  0.00     0.008 C 
HETATM    3  C5  UNL     1      69.939  78.931  28.903  1.00  0.00     0.033 C 
HETATM    4  C6  UNL     1      71.079  79.774  29.371  1.00  0.00     0.183 C 
HETATM    5  C7  UNL     1      70.957  81.203  28.848  1.00  0.00     0.033 C 
HETATM    6  C8  UNL     1      70.859  81.164  27.336  1.00  0.00     0.008 C 
ENDROOT
BRANCH   1   7
HETATM    7  C2  UNL     1      69.175  80.575  25.571  1.00  0.00     0.183 C 
HETATM    8  C1  UNL     1      70.253  81.065  24.669  1.00  0.00     0.040 C 
BRANCH   7   9
HETATM    9  N1  UNL     1      68.674  79.324  25.069  1.00  0.00    -0.075 N 
ATOM     10  H13 UNL     1      68.410  79.379  24.085  1.00  0.00     0.274 HD
ATOM     11  H12 UNL     1      69.407  78.620  24.981  1.00  0.00     0.274 HD
ATOM     12  H11 UNL     1      67.906  79.011  25.661  1.00  0.00     0.274 HD
ENDBRANCH   7   9
ENDBRANCH   1   7
BRANCH   4  13
HETATM   13  N2  UNL     1      71.040  79.867  30.810  1.00  0.00    -0.075 N 
ATOM     14  H23 UNL     1      70.760  80.794  31.130  1.00  0.00     0.274 HD
ATOM     15  H22 UNL     1      70.268  79.336  31.212  1.00  0.00     0.274 HD
ATOM     16  H21 UNL     1      71.944  79.583  31.189  1.00  0.00     0.274 HD
ENDBRANCH   4  13
TORSDOF 3
ENDMDL
MODEL 2
REMARK VINA RESULT: -4.435971890      2.357      4.173
REMARK  3 active torsions:
REMARK  status: ('A' for Active; 'I' for Inactive)
REMARK    1  A    between atoms: C2_2  and  N1_3 
REMARK    2  A    between atoms: C2_2  and  C3_7 
REMARK    3  A    between atoms: C6_10  and  N2_11 
ROOT
HETATM    1  C3  UNL     1      71.830  82.037  26.911  1.00  0.00     0.016 C 
HETATM    2  C4  UNL     1      71.070  81.435  28.074  1.00  0.00     0.008 C 
HETATM    3  C5  UNL     1      70.388  80.175  27.533  1.00  0.00     0.033 C 
HETATM    4  C6  UNL     1      69.452  80.519  26.422  1.00  0.00     0.183 C 
HETATM    5  C7  UNL     1      70.171  81.288  25.316  1.00  0.00     0.033 C 
HETATM    6  C8  UNL     1      70.818  82.519  25.919  1.00  0.00     0.008 C 
ENDROOT
BRANCH   1   7
HETATM    7  C2  UNL     1      72.797  83.099  27.349  1.00  0.00     0.183 C 
HETATM    8  C1  UNL     1      72.653  83.490  28.778  1.00  0.00     0.040 C 
BRANCH   7   9
HETATM    9  N1  UNL     1      74.146  82.658  27.115  1.00  0.00    -0.075 N 
ATOM     10  H13 UNL     1      74.830  83.216  27.627  1.00  0.00     0.274 HD
ATOM     11  H12 UNL     1      74.341  81.757  27.551  1.00  0.00     0.274 HD
ATOM     12  H11 UNL     1      74.324  82.650  26.111  1.00  0.00     0.274 HD
ENDBRANCH   7   9
ENDBRANCH   1   7
BRANCH   4  13
HETATM   13  N2  UNL     1      68.968  79.302  25.816  1.00  0.00    -0.075 N 
ATOM     14  H23 UNL     1      69.719  78.641  25.622  1.00  0.00     0.274 HD
ATOM     15  H22 UNL     1      68.437  78.729  26.471  1.00  0.00     0.274 HD
ATOM     16  H21 UNL     1      68.430  79.534  24.981  1.00  0.00     0.274 HD
ENDBRANCH   4  13
TORSDOF 3
ENDMDL
MODEL 3
REMARK VINA RESULT: -4.379021555      1.705      4.519
REMARK  3 active torsions:
REMARK  status: ('A' for Active; 'I' for Inactive)
REMARK    1  A    between atoms: C2_2  and  N1_3 
REMARK    2  A    between atoms: C2_2  and  C3_7 
REMARK    3  A    between atoms: C6_10  and  N2_11 
ROOT
HETATM    1  C3  UNL     1      70.439  80.695  26.510  1.00  0.00     0.016 C 
HETATM    2  C4  UNL     1      69.098  80.056  26.222  1.00  0.00     0.008 C 
HETATM    3  C5  UNL     1      69.181  79.512  24.793  1.00  0.00     0.033 C 
HETATM    4  C6  UNL     1      69.450  80.616  23.824  1.00  0.00     0.183 C 
HETATM    5  C7  UNL     1      70.710  81.388  24.206  1.00  0.00     0.033 C 
HETATM    6  C8  UNL     1      70.560  81.898  25.626  1.00  0.00     0.008 C 
ENDROOT
BRANCH   1   7
HETATM    7  C2  UNL     1      70.626  81.000  27.968  1.00  0.00     0.183 C 
HETATM    8  C1  UNL     1      70.980  79.810  28.789  1.00  0.00     0.040 C 
BRANCH   7   9
HETATM    9  N1  UNL     1      71.643  82.003  28.132  1.00  0.00    -0.075 N 
ATOM     10  H13 UNL     1      71.325  82.790  28.699  1.00  0.00     0.274 HD
ATOM     11  H12 UNL     1      72.404  81.690  28.736  1.00  0.00     0.274 HD
ATOM     12  H11 UNL     1      71.974  82.296  27.213  1.00  0.00     0.274 HD
ENDBRANCH   7   9
ENDBRANCH   1   7
BRANCH   4  13
HETATM   13  N2  UNL     1      69.703  80.052  22.521  1.00  0.00    -0.075 N 
ATOM     14  H23 UNL     1      70.472  79.382  22.532  1.00  0.00     0.274 HD
ATOM     15  H22 UNL     1      68.963  79.418  22.223  1.00  0.00     0.274 HD
ATOM     16  H21 UNL     1      69.857  80.807  21.852  1.00  0.00     0.274 HD
ENDBRANCH   4  13
TORSDOF 3
ENDMDL
MODEL 4
REMARK VINA RESULT: -4.364114941      1.601      4.059
REMARK  3 active torsions:
REMARK  status: ('A' for Active; 'I' for Inactive)
REMARK    1  A    between atoms: C2_2  and  N1_3 
REMARK    2  A    between atoms: C2_2  and  C3_7 
REMARK    3  A    between atoms: C6_10  and  N2_11 
ROOT
HETATM    1  C3  UNL     1      70.793  80.265  27.445  1.00  0.00     0.016 C 
HETATM    2  C4  UNL     1      69.348  80.201  27.000  1.00  0.00     0.008 C 
HETATM    3  C5  UNL     1      69.336  80.617  25.526  1.00  0.00     0.033 C 
HETATM    4  C6  UNL     1      69.868  82.002  25.365  1.00  0.00     0.183 C 
HETATM    5  C7  UNL     1      71.263  82.128  25.973  1.00  0.00     0.033 C 
HETATM    6  C8  UNL     1      71.202  81.705  27.428  1.00  0.00     0.008 C 
ENDROOT
BRANCH   1   7
HETATM    7  C2  UNL     1      71.013  79.593  28.769  1.00  0.00     0.183 C 
HETATM    8  C1  UNL     1      70.963  80.522  29.930  1.00  0.00     0.040 C 
BRANCH   7   9
HETATM    9  N1  UNL     1      70.038  78.552  28.957  1.00  0.00    -0.075 N 
ATOM     10  H13 UNL     1      70.462  77.624  28.984  1.00  0.00     0.274 HD
ATOM     11  H12 UNL     1      69.642  78.556  29.897  1.00  0.00     0.274 HD
ATOM     12  H11 UNL     1      69.323  78.631  28.235  1.00  0.00     0.274 HD
ENDBRANCH   7   9
ENDBRANCH   1   7
BRANCH   4  13
HETATM   13  N2  UNL     1      70.015  82.295  23.960  1.00  0.00    -0.075 N 
ATOM     14  H23 UNL     1      70.973  82.165  23.636  1.00  0.00     0.274 HD
ATOM     15  H22 UNL     1      69.566  81.594  23.370  1.00  0.00     0.274 HD
ATOM     16  H21 UNL     1      69.667  83.236  23.775  1.00  0.00     0.274 HD
ENDBRANCH   4  13
TORSDOF 3
ENDMDL
MODEL 5
REMARK VINA RESULT: -4.343104235      2.340      3.038
REMARK  3 active torsions:
REMARK  status: ('A' for Active; 'I' for Inactive)
REMARK    1  A    between atoms: C2_2  and  N1_3 
REMARK    2  A    between atoms: C2_2  and  C3_7 
REMARK    3  A    between atoms: C6_10  and  N2_11 
ROOT
HETATM    1  C3  UNL     1      71.172  81.699  26.073  1.00  0.00     0.016 C 
HETATM    2  C4  UNL     1      71.369  81.741  27.572  1.00  0.00     0.008 C 
HETATM    3  C5  UNL     1      71.138  80.313  28.075  1.00  0.00     0.033 C 
HETATM    4  C6  UNL     1      69.756  79.855  27.744  1.00  0.00     0.183 C 
HETATM    5  C7  UNL     1      69.481  79.977  26.248  1.00  0.00     0.033 C 
HETATM    6  C8  UNL     1      69.725  81.411  25.820  1.00  0.00     0.008 C 
ENDROOT
BRANCH   1   7
HETATM    7  C2  UNL     1      71.664  82.946  25.396  1.00  0.00     0.183 C 
HETATM    8  C1  UNL     1      72.950  82.768  24.670  1.00  0.00     0.040 C 
BRANCH   7   9
HETATM    9  N1  UNL     1      70.668  83.430  24.478  1.00  0.00    -0.075 N 
ATOM     10  H13 UNL     1      69.911  83.922  24.952  1.00  0.00     0.274 HD
ATOM     11  H12 UNL     1      71.009  84.204  23.909  1.00  0.00     0.274 HD
ATOM     12  H11 UNL     1      70.331  82.652  23.912  1.00  0.00     0.274 HD
ENDBRANCH   7   9
ENDBRANCH   1   7
BRANCH   4  13
HETATM   13  N2  UNL     1      69.631  78.454  28.064  1.00  0.00    -0.075 N 
ATOM     14  H23 UNL     1      69.570  77.871  27.229  1.00  0.00     0.274 HD
ATOM     15  H22 UNL     1      70.492  78.066  28.449  1.00  0.00     0.274 HD
ATOM     16  H21 UNL     1      68.834  78.322  28.688  1.00  0.00     0.274 HD
ENDBRANCH   4  13
TORSDOF 3
ENDMDL
