MODEL 1
REMARK VINA RESULT: -5.753680924      0.000      0.000
REMARK  4 active torsions:
REMARK  status: ('A' for Active; 'I' for Inactive)
REMARK    1  A    between atoms: N1_1  and  C1_5 
REMARK    2  A    between atoms: C1_5  and  C2_6 
REMARK    3  A    between atoms: C5_9  and  C6_10 
REMARK    4  A    between atoms: C6_10  and  C7_11 
ROOT
HETATM    1  C2  UNL     1      -8.032 -31.417  15.497  1.00  0.00     0.011 C 
HETATM    2  C3  UNL     1      -9.535 -31.341  15.519  1.00  0.00     0.007 C 
HETATM    3  C4  UNL     1      -9.950 -32.023  16.831  1.00  0.00     0.005 C 
HETATM    4  C5  UNL     1      -8.879 -33.053  17.082  1.00  0.00    -0.012 C 
HETATM    5  C8  UNL     1      -7.668 -32.632  16.322  1.00  0.00     0.011 C 
ENDROOT
BRANCH   1   6
HETATM    6  C1  UNL     1      -7.489 -31.610  14.100  1.00  0.00     0.234 C 
BRANCH   6   7
HETATM    7  N1  UNL     1      -8.043 -30.673  13.163  1.00  0.00    -0.079 N 
ATOM      8  H13 UNL     1      -8.981 -30.951  12.876  1.00  0.00     0.274 HD
ATOM      9  H12 UNL     1      -8.268 -29.788  13.618  1.00  0.00     0.274 HD
ATOM     10  H11 UNL     1      -7.438 -30.529  12.355  1.00  0.00     0.274 HD
ENDBRANCH   6   7
ENDBRANCH   1   6
BRANCH   4  11
HETATM   11  C6  UNL     1      -8.542 -33.236  18.528  1.00  0.00     0.036 C 
BRANCH  11  12
HETATM   12  C7  UNL     1      -9.439 -32.488  19.467  1.00  0.00     0.222 C 
HETATM   13  F1  UNL     1      -9.947 -33.240  20.484  1.00  0.00    -0.255 F 
ENDBRANCH  11  12
ENDBRANCH   4  11
TORSDOF 4
ENDMDL
MODEL 2
REMARK VINA RESULT: -5.659416831      1.057      1.057
REMARK  4 active torsions:
REMARK  status: ('A' for Active; 'I' for Inactive)
REMARK    1  A    between atoms: N1_1  and  C1_5 
REMARK    2  A    between atoms: C1_5  and  C2_6 
REMARK    3  A    between atoms: C5_9  and  C6_10 
REMARK    4  A    between atoms: C6_10  and  C7_11 
ROOT
HETATM    1  C2  UNL     1      -7.928 -31.416  15.389  1.00  0.00     0.011 C 
HETATM    2  C3  UNL     1      -9.422 -31.233  15.412  1.00  0.00     0.007 C 
HETATM    3  C4  UNL     1      -9.890 -31.938  16.692  1.00  0.00     0.005 C 
HETATM    4  C5  UNL     1      -8.898 -33.054  16.901  1.00  0.00    -0.012 C 
HETATM    5  C8  UNL     1      -7.656 -32.689  16.160  1.00  0.00     0.011 C 
ENDROOT
BRANCH   1   6
HETATM    6  C1  UNL     1      -7.395 -31.589  13.985  1.00  0.00     0.234 C 
BRANCH   6   7
HETATM    7  N1  UNL     1      -8.035 -30.711  13.045  1.00  0.00    -0.079 N 
ATOM      8  H13 UNL     1      -8.248 -29.809  13.470  1.00  0.00     0.274 HD
ATOM      9  H12 UNL     1      -7.380 -30.402  12.327  1.00  0.00     0.274 HD
ATOM     10  H11 UNL     1      -8.868 -31.128  12.629  1.00  0.00     0.274 HD
ENDBRANCH   6   7
ENDBRANCH   1   6
BRANCH   4  11
HETATM   11  C6  UNL     1      -8.582 -33.322  18.337  1.00  0.00     0.036 C 
BRANCH  11  12
HETATM   12  C7  UNL     1      -8.724 -32.128  19.232  1.00  0.00     0.222 C 
HETATM   13  F1  UNL     1      -7.591 -31.383  19.367  1.00  0.00    -0.255 F 
ENDBRANCH  11  12
ENDBRANCH   4  11
TORSDOF 4
ENDMDL
MODEL 3
REMARK VINA RESULT: -5.462391854      1.012      1.587
REMARK  4 active torsions:
REMARK  status: ('A' for Active; 'I' for Inactive)
REMARK    1  A    between atoms: N1_1  and  C1_5 
REMARK    2  A    between atoms: C1_5  and  C2_6 
REMARK    3  A    between atoms: C5_9  and  C6_10 
REMARK    4  A    between atoms: C6_10  and  C7_11 
ROOT
HETATM    1  C2  UNL     1      -9.069 -31.805  15.551  1.00  0.00     0.011 C 
HETATM    2  C3  UNL     1      -8.255 -33.028  15.881  1.00  0.00     0.007 C 
HETATM    3  C4  UNL     1      -8.487 -33.267  17.380  1.00  0.00     0.005 C 
HETATM    4  C5  UNL     1      -8.727 -31.895  17.955  1.00  0.00    -0.012 C 
HETATM    5  C8  UNL     1      -9.166 -31.013  16.836  1.00  0.00     0.011 C 
ENDROOT
BRANCH   1   6
HETATM    6  C1  UNL     1      -8.402 -30.939  14.507  1.00  0.00     0.234 C 
BRANCH   6   7
HETATM    7  N1  UNL     1      -7.392 -31.647  13.772  1.00  0.00    -0.079 N 
ATOM      8  H13 UNL     1      -7.053 -31.094  12.986  1.00  0.00     0.274 HD
ATOM      9  H12 UNL     1      -6.527 -31.714  14.308  1.00  0.00     0.274 HD
ATOM     10  H11 UNL     1      -7.708 -32.568  13.466  1.00  0.00     0.274 HD
ENDBRANCH   6   7
ENDBRANCH   1   6
BRANCH   4  11
HETATM   11  C6  UNL     1      -9.736 -31.869  19.058  1.00  0.00     0.036 C 
BRANCH  11  12
HETATM   12  C7  UNL     1      -9.550 -32.942  20.088  1.00  0.00     0.222 C 
HETATM   13  F1  UNL     1     -10.486 -32.946  21.078  1.00  0.00    -0.255 F 
ENDBRANCH  11  12
ENDBRANCH   4  11
TORSDOF 4
ENDMDL
MODEL 4
REMARK VINA RESULT: -5.453656439      3.506      4.816
REMARK  4 active torsions:
REMARK  status: ('A' for Active; 'I' for Inactive)
REMARK    1  A    between atoms: N1_1  and  C1_5 
REMARK    2  A    between atoms: C1_5  and  C2_6 
REMARK    3  A    between atoms: C5_9  and  C6_10 
REMARK    4  A    between atoms: C6_10  and  C7_11 
ROOT
HETATM    1  C2  UNL     1      -8.884 -31.910  18.196  1.00  0.00     0.011 C 
HETATM    2  C3  UNL     1      -8.551 -33.239  17.572  1.00  0.00     0.007 C 
HETATM    3  C4  UNL     1      -8.377 -32.944  16.076  1.00  0.00     0.005 C 
HETATM    4  C5  UNL     1      -9.297 -31.781  15.804  1.00  0.00    -0.012 C 
HETATM    5  C8  UNL     1      -9.543 -31.094  17.105  1.00  0.00     0.011 C 
ENDROOT
BRANCH   1   6
HETATM    6  C1  UNL     1      -9.859 -32.045  19.343  1.00  0.00     0.234 C 
BRANCH   6   7
HETATM    7  N1  UNL     1      -9.569 -33.177  20.177  1.00  0.00    -0.079 N 
ATOM      8  H13 UNL     1      -8.595 -33.463  20.084  1.00  0.00     0.274 HD
ATOM      9  H12 UNL     1      -9.568 -32.916  21.163  1.00  0.00     0.274 HD
ATOM     10  H11 UNL     1     -10.201 -33.959  20.004  1.00  0.00     0.274 HD
ENDBRANCH   6   7
ENDBRANCH   1   6
BRANCH   4  11
HETATM   11  C6  UNL     1      -8.765 -30.809  14.801  1.00  0.00     0.036 C 
BRANCH  11  12
HETATM   12  C7  UNL     1      -7.322 -31.015  14.451  1.00  0.00     0.222 C 
HETATM   13  F1  UNL     1      -6.558 -29.888  14.515  1.00  0.00    -0.255 F 
ENDBRANCH  11  12
ENDBRANCH   4  11
TORSDOF 4
ENDMDL
MODEL 5
REMARK VINA RESULT: -5.415693605      3.462      4.701
REMARK  4 active torsions:
REMARK  status: ('A' for Active; 'I' for Inactive)
REMARK    1  A    between atoms: N1_1  and  C1_5 
REMARK    2  A    between atoms: C1_5  and  C2_6 
REMARK    3  A    between atoms: C5_9  and  C6_10 
REMARK    4  A    between atoms: C6_10  and  C7_11 
ROOT
HETATM    1  C2  UNL     1      -8.754 -32.961  17.623  1.00  0.00     0.011 C 
HETATM    2  C3  UNL     1     -10.070 -32.269  17.384  1.00  0.00     0.007 C 
HETATM    3  C4  UNL     1      -9.929 -31.614  16.002  1.00  0.00     0.005 C 
HETATM    4  C5  UNL     1      -8.461 -31.298  15.874  1.00  0.00    -0.012 C 
HETATM    5  C8  UNL     1      -7.730 -32.191  16.819  1.00  0.00     0.011 C 
ENDROOT
BRANCH   1   6
HETATM    6  C1  UNL     1      -8.344 -32.922  19.077  1.00  0.00     0.234 C 
BRANCH   6   7
HETATM    7  N1  UNL     1      -9.471 -32.980  19.965  1.00  0.00    -0.079 N 
ATOM      8  H13 UNL     1      -9.703 -32.056  20.328  1.00  0.00     0.274 HD
ATOM      9  H12 UNL     1     -10.332 -33.175  19.455  1.00  0.00     0.274 HD
ATOM     10  H11 UNL     1      -9.334 -33.648  20.724  1.00  0.00     0.274 HD
ENDBRANCH   6   7
ENDBRANCH   1   6
BRANCH   4  11
HETATM   11  C6  UNL     1      -7.924 -31.464  14.489  1.00  0.00     0.036 C 
BRANCH  11  12
HETATM   12  C7  UNL     1      -7.801 -30.183  13.720  1.00  0.00     0.222 C 
HETATM   13  F1  UNL     1      -7.182 -29.174  14.397  1.00  0.00    -0.255 F 
ENDBRANCH  11  12
ENDBRANCH   4  11
TORSDOF 4
ENDMDL
