MODEL 1
REMARK VINA RESULT: -6.463344255      0.000      0.000
REMARK  3 active torsions:
REMARK  status: ('A' for Active; 'I' for Inactive)
REMARK    1  A    between atoms: C4_5  and  C5_6 
REMARK    2  A    between atoms: C5_6  and  N1_7 
REMARK    3  A    between atoms: N1_7  and  C6_10 
ROOT
HETATM    1  C5  UNL     1      -8.384 -33.217  16.062  1.00  0.00     0.266 C 
ENDROOT
BRANCH   1   2
HETATM    2  C4  UNL     1      -8.987 -32.863  17.380  1.00  0.00    -0.056 C 
HETATM    3  C3  UNL     1      -8.563 -33.153  18.601  1.00  0.00    -0.020 C 
HETATM    4  C2  UNL     1      -9.489 -32.591  19.612  1.00  0.00     0.065 C 
HETATM    5  C1  UNL     1     -10.073 -31.419  18.843  1.00  0.00     0.177 C 
HETATM    6  F1  UNL     1      -9.119 -30.435  18.820  1.00  0.00    -0.249 F 
HETATM    7  C9  UNL     1     -10.266 -32.065  17.488  1.00  0.00     0.073 C 
ENDBRANCH   1   2
BRANCH   1   8
HETATM    8  N1  UNL     1      -7.363 -32.273  15.670  1.00  0.00    -0.067 N 
ATOM      9  H12 UNL     1      -7.123 -31.665  16.453  1.00  0.00     0.277 HD
ATOM     10  H11 UNL     1      -6.471 -32.749  15.538  1.00  0.00     0.277 HD
BRANCH   8  11
HETATM   11  C6  UNL     1      -7.685 -31.500  14.524  1.00  0.00     0.186 A 
HETATM   12  C7  UNL     1      -8.649 -30.396  14.508  1.00  0.00     0.035 A 
HETATM   13  C8  UNL     1      -7.210 -30.078  14.434  1.00  0.00     0.035 A 
ENDBRANCH   8  11
ENDBRANCH   1   8
TORSDOF 3
ENDMDL
MODEL 2
REMARK VINA RESULT: -6.300473622      1.099      1.565
REMARK  3 active torsions:
REMARK  status: ('A' for Active; 'I' for Inactive)
REMARK    1  A    between atoms: C4_5  and  C5_6 
REMARK    2  A    between atoms: C5_6  and  N1_7 
REMARK    3  A    between atoms: N1_7  and  C6_10 
ROOT
HETATM    1  C5  UNL     1      -8.628 -33.137  15.962  1.00  0.00     0.266 C 
ENDROOT
BRANCH   1   2
HETATM    2  C4  UNL     1      -8.990 -32.516  17.269  1.00  0.00    -0.056 C 
HETATM    3  C3  UNL     1     -10.161 -32.057  17.683  1.00  0.00    -0.020 C 
HETATM    4  C2  UNL     1     -10.044 -31.524  19.061  1.00  0.00     0.065 C 
HETATM    5  C1  UNL     1      -8.876 -32.341  19.585  1.00  0.00     0.177 C 
HETATM    6  F1  UNL     1      -9.351 -33.598  19.854  1.00  0.00    -0.249 F 
HETATM    7  C9  UNL     1      -7.973 -32.315  18.370  1.00  0.00     0.073 C 
ENDBRANCH   1   2
BRANCH   1   8
HETATM    8  N1  UNL     1      -7.419 -32.567  15.415  1.00  0.00    -0.067 N 
ATOM      9  H12 UNL     1      -6.868 -32.129  16.153  1.00  0.00     0.277 HD
ATOM     10  H11 UNL     1      -6.775 -33.305  15.131  1.00  0.00     0.277 HD
BRANCH   8  11
HETATM   11  C6  UNL     1      -7.628 -31.655  14.346  1.00  0.00     0.186 A 
HETATM   12  C7  UNL     1      -8.524 -30.497  14.403  1.00  0.00     0.035 A 
HETATM   13  C8  UNL     1      -7.067 -30.266  14.439  1.00  0.00     0.035 A 
ENDBRANCH   8  11
ENDBRANCH   1   8
TORSDOF 3
ENDMDL
MODEL 3
REMARK VINA RESULT: -6.046939916      1.591      2.009
REMARK  3 active torsions:
REMARK  status: ('A' for Active; 'I' for Inactive)
REMARK    1  A    between atoms: C4_5  and  C5_6 
REMARK    2  A    between atoms: C5_6  and  N1_7 
REMARK    3  A    between atoms: N1_7  and  C6_10 
ROOT
HETATM    1  C5  UNL     1     -10.170 -32.024  16.212  1.00  0.00     0.266 C 
ENDROOT
BRANCH   1   2
HETATM    2  C4  UNL     1      -9.322 -32.078  17.439  1.00  0.00    -0.056 C 
HETATM    3  C3  UNL     1      -9.153 -31.163  18.381  1.00  0.00    -0.020 C 
HETATM    4  C2  UNL     1      -8.212 -31.658  19.413  1.00  0.00     0.065 C 
HETATM    5  C1  UNL     1      -8.413 -33.158  19.286  1.00  0.00     0.177 C 
HETATM    6  F1  UNL     1      -9.608 -33.457  19.888  1.00  0.00    -0.249 F 
HETATM    7  C9  UNL     1      -8.481 -33.286  17.779  1.00  0.00     0.073 C 
ENDBRANCH   1   2
BRANCH   1   8
HETATM    8  N1  UNL     1      -9.772 -30.948  15.334  1.00  0.00    -0.067 N 
ATOM      9  H12 UNL     1     -10.369 -30.926  14.508  1.00  0.00     0.277 HD
ATOM     10  H11 UNL     1     -10.010 -30.047  15.746  1.00  0.00     0.277 HD
BRANCH   8  11
HETATM   11  C6  UNL     1      -8.404 -30.973  14.955  1.00  0.00     0.186 A 
HETATM   12  C7  UNL     1      -7.924 -31.009  13.571  1.00  0.00     0.035 A 
HETATM   13  C8  UNL     1      -7.787 -29.753  14.333  1.00  0.00     0.035 A 
ENDBRANCH   8  11
ENDBRANCH   1   8
TORSDOF 3
ENDMDL
MODEL 4
REMARK VINA RESULT: -5.995028772      1.451      1.668
REMARK  3 active torsions:
REMARK  status: ('A' for Active; 'I' for Inactive)
REMARK    1  A    between atoms: C4_5  and  C5_6 
REMARK    2  A    between atoms: C5_6  and  N1_7 
REMARK    3  A    between atoms: N1_7  and  C6_10 
ROOT
HETATM    1  C5  UNL     1     -10.066 -32.120  16.208  1.00  0.00     0.266 C 
ENDROOT
BRANCH   1   2
HETATM    2  C4  UNL     1      -9.378 -32.327  17.516  1.00  0.00    -0.056 C 
HETATM    3  C3  UNL     1      -8.858 -33.434  18.024  1.00  0.00    -0.020 C 
HETATM    4  C2  UNL     1      -8.277 -33.161  19.360  1.00  0.00     0.065 C 
HETATM    5  C1  UNL     1      -7.941 -31.685  19.228  1.00  0.00     0.177 C 
HETATM    6  F1  UNL     1      -6.815 -31.594  18.453  1.00  0.00    -0.249 F 
HETATM    7  C9  UNL     1      -9.178 -31.199  18.503  1.00  0.00     0.073 C 
ENDBRANCH   1   2
BRANCH   1   8
HETATM    8  N1  UNL     1      -9.392 -31.132  15.399  1.00  0.00    -0.067 N 
ATOM      9  H12 UNL     1      -9.934 -30.932  14.559  1.00  0.00     0.277 HD
ATOM     10  H11 UNL     1      -9.426 -30.219  15.851  1.00  0.00     0.277 HD
BRANCH   8  11
HETATM   11  C6  UNL     1      -8.054 -31.465  15.057  1.00  0.00     0.186 A 
HETATM   12  C7  UNL     1      -7.532 -31.513  13.689  1.00  0.00     0.035 A 
HETATM   13  C8  UNL     1      -7.130 -30.392  14.558  1.00  0.00     0.035 A 
ENDBRANCH   8  11
ENDBRANCH   1   8
TORSDOF 3
ENDMDL
MODEL 5
REMARK VINA RESULT: -5.971237514      2.151      4.487
REMARK  3 active torsions:
REMARK  status: ('A' for Active; 'I' for Inactive)
REMARK    1  A    between atoms: C4_5  and  C5_6 
REMARK    2  A    between atoms: C5_6  and  N1_7 
REMARK    3  A    between atoms: N1_7  and  C6_10 
ROOT
HETATM    1  C5  UNL     1      -9.200 -32.973  16.234  1.00  0.00     0.266 C 
ENDROOT
BRANCH   1   2
HETATM    2  C4  UNL     1      -8.445 -31.881  15.552  1.00  0.00    -0.056 C 
HETATM    3  C3  UNL     1      -7.137 -31.733  15.405  1.00  0.00    -0.020 C 
HETATM    4  C2  UNL     1      -6.844 -30.488  14.656  1.00  0.00     0.065 C 
HETATM    5  C1  UNL     1      -8.120 -30.337  13.845  1.00  0.00     0.177 C 
HETATM    6  F1  UNL     1      -8.061 -31.250  12.825  1.00  0.00    -0.249 F 
HETATM    7  C9  UNL     1      -9.143 -30.713  14.895  1.00  0.00     0.073 C 
ENDBRANCH   1   2
BRANCH   1   8
HETATM    8  N1  UNL     1      -8.610 -33.318  17.506  1.00  0.00    -0.067 N 
ATOM      9  H12 UNL     1      -8.950 -34.227  17.819  1.00  0.00     0.277 HD
ATOM     10  H11 UNL     1      -7.620 -33.531  17.392  1.00  0.00     0.277 HD
BRANCH   8  11
HETATM   11  C6  UNL     1      -8.792 -32.345  18.524  1.00  0.00     0.186 A 
HETATM   12  C7  UNL     1     -10.086 -31.776  18.910  1.00  0.00     0.035 A 
HETATM   13  C8  UNL     1      -9.440 -32.741  19.819  1.00  0.00     0.035 A 
ENDBRANCH   8  11
ENDBRANCH   1   8
TORSDOF 3
ENDMDL
