MODEL 1
REMARK VINA RESULT: -5.962126704      0.000      0.000
REMARK  3 active torsions:
REMARK  status: ('A' for Active; 'I' for Inactive)
REMARK    1  A    between atoms: C1_2  and  C2_3 
REMARK    2  A    between atoms: C2_3  and  C3_4 
REMARK    3  A    between atoms: C5_8  and  C6_9 
ROOT
HETATM    1  C3  UNL     1      -8.904 -32.602  17.320  1.00  0.00     0.028 A 
HETATM    2  C4  UNL     1     -10.185 -32.229  16.972  1.00  0.00     0.114 A 
HETATM    3  N1  UNL     1     -10.148 -31.501  15.821  1.00  0.00    -0.353 N 
ATOM      4  H1  UNL     1     -10.946 -31.096  15.332  1.00  0.00     0.166 HD
HETATM    5  C5  UNL     1      -8.858 -31.420  15.454  1.00  0.00     0.085 A 
HETATM    6  N2  UNL     1      -8.116 -32.082  16.358  1.00  0.00    -0.348 N 
ATOM      7  H2  UNL     1      -7.102 -32.177  16.321  1.00  0.00     0.167 HD
ENDROOT
BRANCH   1   8
HETATM    8  C2  UNL     1      -8.543 -33.397  18.504  1.00  0.00     0.089 C 
BRANCH   8   9
HETATM    9  C1  UNL     1      -8.887 -32.705  19.803  1.00  0.00     0.228 C 
HETATM   10  F1  UNL     1     -10.019 -33.185  20.384  1.00  0.00    -0.255 F 
ENDBRANCH   8   9
ENDBRANCH   1   8
BRANCH   5  11
HETATM   11  C6  UNL     1      -8.356 -30.711  14.247  1.00  0.00     0.053 A 
HETATM   12  C7  UNL     1      -8.101 -29.208  14.355  1.00  0.00     0.013 A 
HETATM   13  C8  UNL     1      -6.938 -30.197  14.318  1.00  0.00     0.013 A 
ENDBRANCH   5  11
TORSDOF 3
ENDMDL
MODEL 2
REMARK VINA RESULT: -5.927957751      2.735      4.717
REMARK  3 active torsions:
REMARK  status: ('A' for Active; 'I' for Inactive)
REMARK    1  A    between atoms: C1_2  and  C2_3 
REMARK    2  A    between atoms: C2_3  and  C3_4 
REMARK    3  A    between atoms: C5_8  and  C6_9 
ROOT
HETATM    1  C3  UNL     1      -8.148 -31.944  15.151  1.00  0.00     0.028 A 
HETATM    2  C4  UNL     1      -8.020 -33.209  15.684  1.00  0.00     0.114 A 
HETATM    3  N1  UNL     1      -8.794 -33.312  16.800  1.00  0.00    -0.353 N 
ATOM      4  H1  UNL     1      -8.895 -34.133  17.396  1.00  0.00     0.166 HD
HETATM    5  C5  UNL     1      -9.399 -32.123  16.964  1.00  0.00     0.085 A 
HETATM    6  N2  UNL     1      -9.007 -31.306  15.972  1.00  0.00    -0.348 N 
ATOM      7  H2  UNL     1      -9.315 -30.341  15.856  1.00  0.00     0.167 HD
ENDROOT
BRANCH   1   8
HETATM    8  C2  UNL     1      -7.463 -31.457  13.944  1.00  0.00     0.089 C 
BRANCH   8   9
HETATM    9  C1  UNL     1      -7.741 -29.999  13.658  1.00  0.00     0.228 C 
HETATM   10  F1  UNL     1      -6.971 -29.152  14.393  1.00  0.00    -0.255 F 
ENDBRANCH   8   9
ENDBRANCH   1   8
BRANCH   5  11
HETATM   11  C6  UNL     1     -10.340 -31.788  18.065  1.00  0.00     0.053 A 
HETATM   12  C7  UNL     1      -9.861 -31.992  19.502  1.00  0.00     0.013 A 
HETATM   13  C8  UNL     1      -9.978 -30.590  18.908  1.00  0.00     0.013 A 
ENDBRANCH   5  11
TORSDOF 3
ENDMDL
MODEL 3
REMARK VINA RESULT: -5.889459449      2.796      5.039
REMARK  3 active torsions:
REMARK  status: ('A' for Active; 'I' for Inactive)
REMARK    1  A    between atoms: C1_2  and  C2_3 
REMARK    2  A    between atoms: C2_3  and  C3_4 
REMARK    3  A    between atoms: C5_8  and  C6_9 
ROOT
HETATM    1  C3  UNL     1      -8.547 -31.326  15.292  1.00  0.00     0.028 A 
HETATM    2  C4  UNL     1      -7.735 -32.409  15.029  1.00  0.00     0.114 A 
HETATM    3  N1  UNL     1      -7.727 -33.242  16.106  1.00  0.00    -0.353 N 
ATOM      4  H1  UNL     1      -7.214 -34.119  16.192  1.00  0.00     0.166 HD
HETATM    5  C5  UNL     1      -8.525 -32.686  17.033  1.00  0.00     0.085 A 
HETATM    6  N2  UNL     1      -9.014 -31.536  16.539  1.00  0.00    -0.348 N 
ATOM      7  H2  UNL     1      -9.648 -30.912  17.037  1.00  0.00     0.167 HD
ENDROOT
BRANCH   1   8
HETATM    8  C2  UNL     1      -8.805 -30.212  14.366  1.00  0.00     0.089 C 
BRANCH   8   9
HETATM    9  C1  UNL     1      -7.578 -29.368  14.108  1.00  0.00     0.228 C 
HETATM   10  F1  UNL     1      -7.860 -28.180  13.508  1.00  0.00    -0.255 F 
ENDBRANCH   8   9
ENDBRANCH   1   8
BRANCH   5  11
HETATM   11  C6  UNL     1      -8.806 -33.262  18.375  1.00  0.00     0.053 A 
HETATM   12  C7  UNL     1      -8.107 -32.638  19.582  1.00  0.00     0.013 A 
HETATM   13  C8  UNL     1      -9.591 -32.389  19.323  1.00  0.00     0.013 A 
ENDBRANCH   5  11
TORSDOF 3
ENDMDL
MODEL 4
REMARK VINA RESULT: -5.864451139      2.660      4.868
REMARK  3 active torsions:
REMARK  status: ('A' for Active; 'I' for Inactive)
REMARK    1  A    between atoms: C1_2  and  C2_3 
REMARK    2  A    between atoms: C2_3  and  C3_4 
REMARK    3  A    between atoms: C5_8  and  C6_9 
ROOT
HETATM    1  C3  UNL     1      -8.692 -31.467  15.365  1.00  0.00     0.028 A 
HETATM    2  C4  UNL     1     -10.015 -31.477  15.755  1.00  0.00     0.114 A 
HETATM    3  N1  UNL     1     -10.129 -32.104  16.958  1.00  0.00    -0.353 N 
ATOM      4  H1  UNL     1     -10.989 -32.257  17.484  1.00  0.00     0.166 HD
HETATM    5  C5  UNL     1      -8.891 -32.483  17.318  1.00  0.00     0.085 A 
HETATM    6  N2  UNL     1      -8.033 -32.099  16.358  1.00  0.00    -0.348 N 
ATOM      7  H2  UNL     1      -7.027 -32.261  16.377  1.00  0.00     0.167 HD
ENDROOT
BRANCH   1   8
HETATM    8  C2  UNL     1      -8.178 -30.878  14.120  1.00  0.00     0.089 C 
BRANCH   8   9
HETATM    9  C1  UNL     1      -7.412 -29.595  14.350  1.00  0.00     0.228 C 
HETATM   10  F1  UNL     1      -7.832 -28.570  13.561  1.00  0.00    -0.255 F 
ENDBRANCH   8   9
ENDBRANCH   1   8
BRANCH   5  11
HETATM   11  C6  UNL     1      -8.549 -33.207  18.571  1.00  0.00     0.053 A 
HETATM   12  C7  UNL     1      -7.974 -32.395  19.731  1.00  0.00     0.013 A 
HETATM   13  C8  UNL     1      -9.412 -32.905  19.771  1.00  0.00     0.013 A 
ENDBRANCH   5  11
TORSDOF 3
ENDMDL
MODEL 5
REMARK VINA RESULT: -5.844990931      1.022      1.122
REMARK  3 active torsions:
REMARK  status: ('A' for Active; 'I' for Inactive)
REMARK    1  A    between atoms: C1_2  and  C2_3 
REMARK    2  A    between atoms: C2_3  and  C3_4 
REMARK    3  A    between atoms: C5_8  and  C6_9 
ROOT
HETATM    1  C3  UNL     1      -9.712 -31.706  17.777  1.00  0.00     0.028 A 
HETATM    2  C4  UNL     1     -10.855 -31.803  17.012  1.00  0.00     0.114 A 
HETATM    3  N1  UNL     1     -10.559 -31.507  15.716  1.00  0.00    -0.353 N 
ATOM      4  H1  UNL     1     -11.210 -31.499  14.931  1.00  0.00     0.166 HD
HETATM    5  C5  UNL     1      -9.245 -31.229  15.670  1.00  0.00     0.085 A 
HETATM    6  N2  UNL     1      -8.743 -31.350  16.911  1.00  0.00    -0.348 N 
ATOM      7  H2  UNL     1      -7.766 -31.194  17.161  1.00  0.00     0.167 HD
ENDROOT
BRANCH   1   8
HETATM    8  C2  UNL     1      -9.636 -31.952  19.226  1.00  0.00     0.089 C 
BRANCH   8   9
HETATM    9  C1  UNL     1      -8.526 -32.907  19.601  1.00  0.00     0.228 C 
HETATM   10  F1  UNL     1      -8.475 -34.010  18.808  1.00  0.00    -0.255 F 
ENDBRANCH   8   9
ENDBRANCH   1   8
BRANCH   5  11
HETATM   11  C6  UNL     1      -8.493 -30.852  14.445  1.00  0.00     0.053 A 
HETATM   12  C7  UNL     1      -8.035 -29.402  14.305  1.00  0.00     0.013 A 
HETATM   13  C8  UNL     1      -7.036 -30.508  14.637  1.00  0.00     0.013 A 
ENDBRANCH   5  11
TORSDOF 3
ENDMDL
