MODEL 1
REMARK VINA RESULT: -6.395817943      0.000      0.000
REMARK  3 active torsions:
REMARK  status: ('A' for Active; 'I' for Inactive)
REMARK    1  A    between atoms: C2_5  and  C3_6 
REMARK    2  A    between atoms: C3_6  and  C4_7 
REMARK    3  A    between atoms: C4_7  and  C5_8 
ROOT
HETATM    1  F1  UNL     1      -7.823 -28.876  13.626  1.00  0.00    -0.165 F 
HETATM    2  C1  UNL     1      -7.965 -30.109  14.212  1.00  0.00     0.265 A 
HETATM    3  N1  UNL     1      -8.899 -30.521  15.066  1.00  0.00    -0.321 N 
ATOM      4  H1  UNL     1      -9.666 -29.943  15.412  1.00  0.00     0.169 HD
HETATM    5  C2  UNL     1      -8.689 -31.816  15.414  1.00  0.00     0.028 A 
HETATM    6  C8  UNL     1      -7.559 -32.224  14.733  1.00  0.00     0.117 A 
HETATM    7  N2  UNL     1      -7.147 -31.163  14.013  1.00  0.00    -0.327 N 
ATOM      8  H2  UNL     1      -6.330 -31.157  13.403  1.00  0.00     0.169 HD
ENDROOT
BRANCH   5   9
HETATM    9  C3  UNL     1      -9.503 -32.644  16.342  1.00  0.00     0.059 C 
BRANCH   9  10
HETATM   10  C4  UNL     1     -10.737 -31.846  16.725  1.00  0.00     0.010 C 
BRANCH  10  11
HETATM   11  C5  UNL     1     -10.778 -31.509  18.180  1.00  0.00    -0.014 A 
HETATM   12  C6  UNL     1      -9.703 -30.608  18.679  1.00  0.00     0.005 A 
HETATM   13  C7  UNL     1      -9.724 -32.123  19.031  1.00  0.00     0.005 A 
ENDBRANCH  10  11
ENDBRANCH   9  10
ENDBRANCH   5   9
TORSDOF 3
ENDMDL
MODEL 2
REMARK VINA RESULT: -6.348247572      0.695      1.309
REMARK  3 active torsions:
REMARK  status: ('A' for Active; 'I' for Inactive)
REMARK    1  A    between atoms: C2_5  and  C3_6 
REMARK    2  A    between atoms: C3_6  and  C4_7 
REMARK    3  A    between atoms: C4_7  and  C5_8 
ROOT
HETATM    1  F1  UNL     1      -7.873 -28.703  13.778  1.00  0.00    -0.165 F 
HETATM    2  C1  UNL     1      -8.001 -29.969  14.291  1.00  0.00     0.265 A 
HETATM    3  N1  UNL     1      -8.931 -30.442  15.118  1.00  0.00    -0.321 N 
ATOM      4  H1  UNL     1      -9.705 -29.895  15.496  1.00  0.00     0.169 HD
HETATM    5  C2  UNL     1      -8.705 -31.753  15.391  1.00  0.00     0.028 A 
HETATM    6  C8  UNL     1      -7.569 -32.106  14.689  1.00  0.00     0.117 A 
HETATM    7  N2  UNL     1      -7.170 -31.000  14.032  1.00  0.00    -0.327 N 
ATOM      8  H2  UNL     1      -6.353 -30.949  13.425  1.00  0.00     0.169 HD
ENDROOT
BRANCH   5   9
HETATM    9  C3  UNL     1      -9.510 -32.643  16.267  1.00  0.00     0.059 C 
BRANCH   9  10
HETATM   10  C4  UNL     1      -8.604 -33.161  17.370  1.00  0.00     0.010 C 
BRANCH  10  11
HETATM   11  C5  UNL     1      -8.618 -32.292  18.586  1.00  0.00    -0.014 A 
HETATM   12  C6  UNL     1      -9.328 -32.835  19.776  1.00  0.00     0.005 A 
HETATM   13  C7  UNL     1      -9.922 -31.668  18.937  1.00  0.00     0.005 A 
ENDBRANCH  10  11
ENDBRANCH   9  10
ENDBRANCH   5   9
TORSDOF 3
ENDMDL
MODEL 3
REMARK VINA RESULT: -6.177553091      0.871      1.115
REMARK  3 active torsions:
REMARK  status: ('A' for Active; 'I' for Inactive)
REMARK    1  A    between atoms: C2_5  and  C3_6 
REMARK    2  A    between atoms: C3_6  and  C4_7 
REMARK    3  A    between atoms: C4_7  and  C5_8 
ROOT
HETATM    1  F1  UNL     1      -7.680 -29.557  13.510  1.00  0.00    -0.165 F 
HETATM    2  C1  UNL     1      -8.017 -30.614  14.317  1.00  0.00     0.265 A 
HETATM    3  N1  UNL     1      -9.092 -30.764  15.088  1.00  0.00    -0.321 N 
ATOM      4  H1  UNL     1      -9.840 -30.076  15.181  1.00  0.00     0.169 HD
HETATM    5  C2  UNL     1      -9.054 -31.958  15.733  1.00  0.00     0.028 A 
HETATM    6  C8  UNL     1      -7.887 -32.579  15.335  1.00  0.00     0.117 A 
HETATM    7  N2  UNL     1      -7.283 -31.736  14.475  1.00  0.00    -0.327 N 
ATOM      8  H2  UNL     1      -6.395 -31.919  14.010  1.00  0.00     0.169 HD
ENDROOT
BRANCH   5   9
HETATM    9  C3  UNL     1     -10.061 -32.503  16.681  1.00  0.00     0.059 C 
BRANCH   9  10
HETATM   10  C4  UNL     1     -10.196 -31.526  17.836  1.00  0.00     0.010 C 
BRANCH  10  11
HETATM   11  C5  UNL     1      -9.545 -32.017  19.088  1.00  0.00    -0.014 A 
HETATM   12  C6  UNL     1      -8.070 -31.837  19.179  1.00  0.00     0.005 A 
HETATM   13  C7  UNL     1      -8.707 -33.239  18.961  1.00  0.00     0.005 A 
ENDBRANCH  10  11
ENDBRANCH   9  10
ENDBRANCH   5   9
TORSDOF 3
ENDMDL
MODEL 4
REMARK VINA RESULT: -6.152988860      1.313      1.553
REMARK  3 active torsions:
REMARK  status: ('A' for Active; 'I' for Inactive)
REMARK    1  A    between atoms: C2_5  and  C3_6 
REMARK    2  A    between atoms: C3_6  and  C4_7 
REMARK    3  A    between atoms: C4_7  and  C5_8 
ROOT
HETATM    1  F1  UNL     1      -8.520 -28.479  14.328  1.00  0.00    -0.165 F 
HETATM    2  C1  UNL     1      -8.230 -29.818  14.387  1.00  0.00     0.265 A 
HETATM    3  N1  UNL     1      -8.475 -30.681  15.371  1.00  0.00    -0.321 N 
ATOM      4  H1  UNL     1      -8.933 -30.443  16.251  1.00  0.00     0.169 HD
HETATM    5  C2  UNL     1      -8.032 -31.921  15.040  1.00  0.00     0.028 A 
HETATM    6  C8  UNL     1      -7.481 -31.814  13.778  1.00  0.00     0.117 A 
HETATM    7  N2  UNL     1      -7.619 -30.525  13.412  1.00  0.00    -0.327 N 
ATOM      8  H2  UNL     1      -7.306 -30.137  12.523  1.00  0.00     0.169 HD
ENDROOT
BRANCH   5   9
HETATM    9  C3  UNL     1      -8.114 -33.157  15.861  1.00  0.00     0.059 C 
BRANCH   9  10
HETATM   10  C4  UNL     1      -9.105 -32.910  16.985  1.00  0.00     0.010 C 
BRANCH  10  11
HETATM   11  C5  UNL     1      -8.521 -33.162  18.337  1.00  0.00    -0.014 A 
HETATM   12  C6  UNL     1      -9.295 -32.642  19.497  1.00  0.00     0.005 A 
HETATM   13  C7  UNL     1      -7.962 -31.980  19.046  1.00  0.00     0.005 A 
ENDBRANCH  10  11
ENDBRANCH   9  10
ENDBRANCH   5   9
TORSDOF 3
ENDMDL
MODEL 5
REMARK VINA RESULT: -5.870875612      1.590      2.103
REMARK  3 active torsions:
REMARK  status: ('A' for Active; 'I' for Inactive)
REMARK    1  A    between atoms: C2_5  and  C3_6 
REMARK    2  A    between atoms: C3_6  and  C4_7 
REMARK    3  A    between atoms: C4_7  and  C5_8 
ROOT
HETATM    1  F1  UNL     1      -6.695 -32.194  13.319  1.00  0.00    -0.165 F 
HETATM    2  C1  UNL     1      -7.685 -31.789  14.179  1.00  0.00     0.265 A 
HETATM    3  N1  UNL     1      -8.185 -32.431  15.233  1.00  0.00    -0.321 N 
ATOM      4  H1  UNL     1      -7.881 -33.351  15.551  1.00  0.00     0.169 HD
HETATM    5  C2  UNL     1      -9.157 -31.690  15.825  1.00  0.00     0.028 A 
HETATM    6  C8  UNL     1      -9.260 -30.524  15.091  1.00  0.00     0.117 A 
HETATM    7  N2  UNL     1      -8.352 -30.618  14.101  1.00  0.00    -0.327 N 
ATOM      8  H2  UNL     1      -8.190 -29.905  13.391  1.00  0.00     0.169 HD
ENDROOT
BRANCH   5   9
HETATM    9  C3  UNL     1      -9.959 -32.047  17.024  1.00  0.00     0.059 C 
BRANCH   9  10
HETATM   10  C4  UNL     1      -9.511 -31.160  18.172  1.00  0.00     0.010 C 
BRANCH  10  11
HETATM   11  C5  UNL     1      -8.749 -31.907  19.217  1.00  0.00    -0.014 A 
HETATM   12  C6  UNL     1      -8.496 -33.348  18.945  1.00  0.00     0.005 A 
HETATM   13  C7  UNL     1      -9.521 -32.891  20.021  1.00  0.00     0.005 A 
ENDBRANCH  10  11
ENDBRANCH   9  10
ENDBRANCH   5   9
TORSDOF 3
ENDMDL
