MODEL 1
REMARK VINA RESULT: -6.668222664      0.000      0.000
REMARK  10 active torsions:
REMARK  status: ('A' for Active; 'I' for Inactive)
REMARK    1  A    between atoms: C2_2  and  O1_3 
REMARK    2  A    between atoms: C2_2  and  C3_5 
REMARK    3  A    between atoms: C4_7  and  C5_8 
REMARK    4  A    between atoms: C5_8  and  N1_9 
REMARK    5  A    between atoms: N1_9  and  C6_11 
REMARK    6  A    between atoms: C6_11  and  N2_13 
REMARK    7  A    between atoms: N2_13  and  C7_15 
REMARK    8  A    between atoms: C7_15  and  C8_16 
REMARK    9  A    between atoms: C8_16  and  C9_18 
REMARK   10  A    between atoms: C9_18  and  N3_19 
ROOT
HETATM    1  C6  UNL     1      -1.889  25.340  56.555  1.00  0.00     0.167 C 
HETATM    2  S1  UNL     1      -0.371  24.965  57.008  1.00  0.00    -0.041 SA
ENDROOT
BRANCH   1   3
HETATM    3  N1  UNL     1      -2.641  26.234  57.306  1.00  0.00    -0.365 N 
ATOM      4  H1  UNL     1      -2.556  26.197  58.321  1.00  0.00     0.161 HD
BRANCH   3   5
HETATM    5  C5  UNL     1      -3.547  27.225  56.728  1.00  0.00     0.156 C 
BRANCH   5   6
HETATM    6  C4  UNL     1      -4.385  27.861  57.802  1.00  0.00     0.171 A 
HETATM    7  C3  UNL     1      -5.729  28.389  57.468  1.00  0.00     0.181 A 
HETATM    8  O2  UNL     1      -4.648  29.233  57.652  1.00  0.00    -0.371 OA
BRANCH   7   9
HETATM    9  C2  UNL     1      -6.333  28.401  56.113  1.00  0.00     0.145 C 
HETATM   10  C1  UNL     1      -7.752  27.814  56.267  1.00  0.00     0.042 C 
BRANCH   9  11
HETATM   11  O1  UNL     1      -6.597  29.728  55.672  1.00  0.00    -0.393 OA
ATOM     12  H1  UNL     1      -6.065  29.792  54.887  1.00  0.00     0.210 HD
ENDBRANCH   9  11
ENDBRANCH   7   9
ENDBRANCH   5   6
ENDBRANCH   3   5
ENDBRANCH   1   3
BRANCH   1  13
HETATM   13  N2  UNL     1      -2.420  24.731  55.394  1.00  0.00    -0.364 N 
ATOM     14  H2  UNL     1      -3.201  24.083  55.501  1.00  0.00     0.162 HD
BRANCH  13  15
HETATM   15  C7  UNL     1      -1.914  24.981  54.078  1.00  0.00     0.160 C 
BRANCH  15  16
HETATM   16  C8  UNL     1      -2.743  25.892  53.232  1.00  0.00     0.205 C 
HETATM   17  F1  UNL     1      -2.216  25.873  51.930  1.00  0.00    -0.246 F 
BRANCH  16  18
HETATM   18  C9  UNL     1      -4.130  25.238  53.027  1.00  0.00     0.155 C 
BRANCH  18  19
HETATM   19  N3  UNL     1      -5.149  25.868  53.760  1.00  0.00    -0.410 N 
HETATM   20  C10 UNL     1      -5.881  26.898  53.090  1.00  0.00     0.117 C 
HETATM   21  C11 UNL     1      -6.883  26.326  52.092  1.00  0.00     0.019 C 
HETATM   22  C12 UNL     1      -7.425  25.004  52.565  1.00  0.00     0.003 C 
HETATM   23  C13 UNL     1      -7.367  24.869  54.077  1.00  0.00     0.019 C 
HETATM   24  C14 UNL     1      -5.959  25.053  54.600  1.00  0.00     0.117 C 
ENDBRANCH  18  19
ENDBRANCH  16  18
ENDBRANCH  15  16
ENDBRANCH  13  15
ENDBRANCH   1  13
TORSDOF 10
ENDMDL
MODEL 2
REMARK VINA RESULT: -6.486455788      3.221      4.851
REMARK  10 active torsions:
REMARK  status: ('A' for Active; 'I' for Inactive)
REMARK    1  A    between atoms: C2_2  and  O1_3 
REMARK    2  A    between atoms: C2_2  and  C3_5 
REMARK    3  A    between atoms: C4_7  and  C5_8 
REMARK    4  A    between atoms: C5_8  and  N1_9 
REMARK    5  A    between atoms: N1_9  and  C6_11 
REMARK    6  A    between atoms: C6_11  and  N2_13 
REMARK    7  A    between atoms: N2_13  and  C7_15 
REMARK    8  A    between atoms: C7_15  and  C8_16 
REMARK    9  A    between atoms: C8_16  and  C9_18 
REMARK   10  A    between atoms: C9_18  and  N3_19 
ROOT
HETATM    1  C6  UNL     1      -4.904  28.264  57.373  1.00  0.00     0.167 C 
HETATM    2  S1  UNL     1      -5.496  28.837  58.777  1.00  0.00    -0.041 SA
ENDROOT
BRANCH   1   3
HETATM    3  N1  UNL     1      -3.851  27.358  57.376  1.00  0.00    -0.365 N 
ATOM      4  H1  UNL     1      -3.437  27.108  58.274  1.00  0.00     0.161 HD
BRANCH   3   5
HETATM    5  C5  UNL     1      -3.301  26.742  56.170  1.00  0.00     0.156 C 
BRANCH   5   6
HETATM    6  C4  UNL     1      -2.086  25.922  56.506  1.00  0.00     0.171 A 
HETATM    7  C3  UNL     1      -1.266  25.344  55.415  1.00  0.00     0.181 A 
HETATM    8  O2  UNL     1      -2.138  24.563  56.154  1.00  0.00    -0.371 OA
BRANCH   7   9
HETATM    9  C2  UNL     1      -1.568  25.452  53.967  1.00  0.00     0.145 C 
HETATM   10  C1  UNL     1      -0.225  25.259  53.231  1.00  0.00     0.042 C 
BRANCH   9  11
HETATM   11  O1  UNL     1      -2.331  24.342  53.508  1.00  0.00    -0.393 OA
ATOM     12  H1  UNL     1      -1.985  23.626  54.030  1.00  0.00     0.210 HD
ENDBRANCH   9  11
ENDBRANCH   7   9
ENDBRANCH   5   6
ENDBRANCH   3   5
ENDBRANCH   1   3
BRANCH   1  13
HETATM   13  N2  UNL     1      -5.477  28.716  56.161  1.00  0.00    -0.364 N 
ATOM     14  H2  UNL     1      -4.869  29.160  55.472  1.00  0.00     0.162 HD
BRANCH  13  15
HETATM   15  C7  UNL     1      -6.870  28.579  55.855  1.00  0.00     0.160 C 
BRANCH  15  16
HETATM   16  C8  UNL     1      -7.462  27.237  56.138  1.00  0.00     0.205 C 
HETATM   17  F1  UNL     1      -8.807  27.263  55.734  1.00  0.00    -0.246 F 
BRANCH  16  18
HETATM   18  C9  UNL     1      -6.848  26.217  55.151  1.00  0.00     0.155 C 
BRANCH  18  19
HETATM   19  N3  UNL     1      -7.093  26.536  53.805  1.00  0.00    -0.410 N 
HETATM   20  C10 UNL     1      -5.968  26.956  53.029  1.00  0.00     0.117 C 
HETATM   21  C11 UNL     1      -5.076  25.780  52.639  1.00  0.00     0.019 C 
HETATM   22  C12 UNL     1      -5.887  24.528  52.439  1.00  0.00     0.003 C 
HETATM   23  C13 UNL     1      -7.324  24.831  52.057  1.00  0.00     0.019 C 
HETATM   24  C14 UNL     1      -8.002  25.712  53.084  1.00  0.00     0.117 C 
ENDBRANCH  18  19
ENDBRANCH  16  18
ENDBRANCH  15  16
ENDBRANCH  13  15
ENDBRANCH   1  13
TORSDOF 10
ENDMDL
MODEL 3
REMARK VINA RESULT: -6.469813362      2.636      4.863
REMARK  10 active torsions:
REMARK  status: ('A' for Active; 'I' for Inactive)
REMARK    1  A    between atoms: C2_2  and  O1_3 
REMARK    2  A    between atoms: C2_2  and  C3_5 
REMARK    3  A    between atoms: C4_7  and  C5_8 
REMARK    4  A    between atoms: C5_8  and  N1_9 
REMARK    5  A    between atoms: N1_9  and  C6_11 
REMARK    6  A    between atoms: C6_11  and  N2_13 
REMARK    7  A    between atoms: N2_13  and  C7_15 
REMARK    8  A    between atoms: C7_15  and  C8_16 
REMARK    9  A    between atoms: C8_16  and  C9_18 
REMARK   10  A    between atoms: C9_18  and  N3_19 
ROOT
HETATM    1  C6  UNL     1      -1.378  25.182  53.708  1.00  0.00     0.167 C 
HETATM    2  S1  UNL     1       0.087  24.534  53.417  1.00  0.00    -0.041 SA
ENDROOT
BRANCH   1   3
HETATM    3  N1  UNL     1      -2.027  25.912  52.721  1.00  0.00    -0.365 N 
ATOM      4  H1  UNL     1      -1.458  26.465  52.081  1.00  0.00     0.161 HD
BRANCH   3   5
HETATM    5  C5  UNL     1      -3.478  25.935  52.544  1.00  0.00     0.156 C 
BRANCH   5   6
HETATM    6  C4  UNL     1      -3.974  24.589  52.092  1.00  0.00     0.171 A 
HETATM    7  C3  UNL     1      -5.398  24.227  52.289  1.00  0.00     0.181 A 
HETATM    8  O2  UNL     1      -4.404  23.714  53.104  1.00  0.00    -0.371 OA
BRANCH   7   9
HETATM    9  C2  UNL     1      -6.412  25.073  52.964  1.00  0.00     0.145 C 
HETATM   10  C1  UNL     1      -7.717  24.909  52.158  1.00  0.00     0.042 C 
BRANCH   9  11
HETATM   11  O1  UNL     1      -6.769  24.545  54.237  1.00  0.00    -0.393 OA
ATOM     12  H1  UNL     1      -7.057  25.320  54.706  1.00  0.00     0.210 HD
ENDBRANCH   9  11
ENDBRANCH   7   9
ENDBRANCH   5   6
ENDBRANCH   3   5
ENDBRANCH   1   3
BRANCH   1  13
HETATM   13  N2  UNL     1      -1.962  24.994  54.982  1.00  0.00    -0.364 N 
ATOM     14  H2  UNL     1      -2.244  24.051  55.252  1.00  0.00     0.162 HD
BRANCH  13  15
HETATM   15  C7  UNL     1      -2.177  26.063  55.911  1.00  0.00     0.160 C 
BRANCH  15  16
HETATM   16  C8  UNL     1      -3.502  26.746  55.810  1.00  0.00     0.205 C 
HETATM   17  F1  UNL     1      -4.490  25.757  55.677  1.00  0.00    -0.246 F 
BRANCH  16  18
HETATM   18  C9  UNL     1      -3.841  27.357  57.190  1.00  0.00     0.155 C 
BRANCH  18  19
HETATM   19  N3  UNL     1      -4.693  28.470  57.106  1.00  0.00    -0.410 N 
HETATM   20  C10 UNL     1      -5.816  28.356  56.228  1.00  0.00     0.117 C 
HETATM   21  C11 UNL     1      -6.921  27.493  56.828  1.00  0.00     0.019 C 
HETATM   22  C12 UNL     1      -6.965  27.632  58.326  1.00  0.00     0.003 C 
HETATM   23  C13 UNL     1      -6.404  28.962  58.794  1.00  0.00     0.019 C 
HETATM   24  C14 UNL     1      -4.985  29.171  58.310  1.00  0.00     0.117 C 
ENDBRANCH  18  19
ENDBRANCH  16  18
ENDBRANCH  15  16
ENDBRANCH  13  15
ENDBRANCH   1  13
TORSDOF 10
ENDMDL
MODEL 4
REMARK VINA RESULT: -6.420281992      3.123      5.523
REMARK  10 active torsions:
REMARK  status: ('A' for Active; 'I' for Inactive)
REMARK    1  A    between atoms: C2_2  and  O1_3 
REMARK    2  A    between atoms: C2_2  and  C3_5 
REMARK    3  A    between atoms: C4_7  and  C5_8 
REMARK    4  A    between atoms: C5_8  and  N1_9 
REMARK    5  A    between atoms: N1_9  and  C6_11 
REMARK    6  A    between atoms: C6_11  and  N2_13 
REMARK    7  A    between atoms: N2_13  and  C7_15 
REMARK    8  A    between atoms: C7_15  and  C8_16 
REMARK    9  A    between atoms: C8_16  and  C9_18 
REMARK   10  A    between atoms: C9_18  and  N3_19 
ROOT
HETATM    1  C6  UNL     1      -4.717  24.357  53.314  1.00  0.00     0.167 C 
HETATM    2  S1  UNL     1      -5.201  24.268  51.762  1.00  0.00    -0.041 SA
ENDROOT
BRANCH   1   3
HETATM    3  N1  UNL     1      -3.370  24.247  53.633  1.00  0.00    -0.365 N 
ATOM      4  H1  UNL     1      -3.013  23.329  53.897  1.00  0.00     0.161 HD
BRANCH   3   5
HETATM    5  C5  UNL     1      -2.434  25.370  53.614  1.00  0.00     0.156 C 
BRANCH   5   6
HETATM    6  C4  UNL     1      -2.590  26.206  54.853  1.00  0.00     0.171 A 
HETATM    7  C3  UNL     1      -1.819  25.863  56.072  1.00  0.00     0.181 A 
HETATM    8  O2  UNL     1      -3.167  25.567  55.964  1.00  0.00    -0.371 OA
BRANCH   7   9
HETATM    9  C2  UNL     1      -0.913  24.697  56.214  1.00  0.00     0.145 C 
HETATM   10  C1  UNL     1       0.119  25.081  57.294  1.00  0.00     0.042 C 
BRANCH   9  11
HETATM   11  O1  UNL     1      -1.579  23.588  56.806  1.00  0.00    -0.393 OA
ATOM     12  H1  UNL     1      -1.014  22.861  56.572  1.00  0.00     0.210 HD
ENDBRANCH   9  11
ENDBRANCH   7   9
ENDBRANCH   5   6
ENDBRANCH   3   5
ENDBRANCH   1   3
BRANCH   1  13
HETATM   13  N2  UNL     1      -5.695  24.535  54.320  1.00  0.00    -0.364 N 
ATOM     14  H2  UNL     1      -5.461  24.271  55.277  1.00  0.00     0.162 HD
BRANCH  13  15
HETATM   15  C7  UNL     1      -6.999  25.067  54.058  1.00  0.00     0.160 C 
BRANCH  15  16
HETATM   16  C8  UNL     1      -7.226  26.471  54.519  1.00  0.00     0.205 C 
HETATM   17  F1  UNL     1      -8.535  26.557  55.018  1.00  0.00    -0.246 F 
BRANCH  16  18
HETATM   18  C9  UNL     1      -6.379  26.707  55.792  1.00  0.00     0.155 C 
BRANCH  18  19
HETATM   19  N3  UNL     1      -6.162  28.068  56.064  1.00  0.00    -0.410 N 
HETATM   20  C10 UNL     1      -7.107  28.711  56.923  1.00  0.00     0.117 C 
HETATM   21  C11 UNL     1      -6.894  28.333  58.386  1.00  0.00     0.019 C 
HETATM   22  C12 UNL     1      -5.438  28.091  58.677  1.00  0.00     0.003 C 
HETATM   23  C13 UNL     1      -4.529  28.845  57.722  1.00  0.00     0.019 C 
HETATM   24  C14 UNL     1      -4.821  28.493  56.279  1.00  0.00     0.117 C 
ENDBRANCH  18  19
ENDBRANCH  16  18
ENDBRANCH  15  16
ENDBRANCH  13  15
ENDBRANCH   1  13
TORSDOF 10
ENDMDL
MODEL 5
REMARK VINA RESULT: -6.400241072      2.684      4.735
REMARK  10 active torsions:
REMARK  status: ('A' for Active; 'I' for Inactive)
REMARK    1  A    between atoms: C2_2  and  O1_3 
REMARK    2  A    between atoms: C2_2  and  C3_5 
REMARK    3  A    between atoms: C4_7  and  C5_8 
REMARK    4  A    between atoms: C5_8  and  N1_9 
REMARK    5  A    between atoms: N1_9  and  C6_11 
REMARK    6  A    between atoms: C6_11  and  N2_13 
REMARK    7  A    between atoms: N2_13  and  C7_15 
REMARK    8  A    between atoms: C7_15  and  C8_16 
REMARK    9  A    between atoms: C8_16  and  C9_18 
REMARK   10  A    between atoms: C9_18  and  N3_19 
ROOT
HETATM    1  C6  UNL     1      -5.457  28.852  57.466  1.00  0.00     0.167 C 
HETATM    2  S1  UNL     1      -6.159  28.843  58.935  1.00  0.00    -0.041 SA
ENDROOT
BRANCH   1   3
HETATM    3  N1  UNL     1      -6.200  29.178  56.339  1.00  0.00    -0.365 N 
ATOM      4  H1  UNL     1      -5.900  29.977  55.782  1.00  0.00     0.161 HD
BRANCH   3   5
HETATM    5  C5  UNL     1      -7.386  28.443  55.905  1.00  0.00     0.156 C 
BRANCH   5   6
HETATM    6  C4  UNL     1      -7.176  26.963  56.065  1.00  0.00     0.171 A 
HETATM    7  C3  UNL     1      -6.982  26.114  54.866  1.00  0.00     0.181 A 
HETATM    8  O2  UNL     1      -8.186  26.133  55.548  1.00  0.00    -0.371 OA
BRANCH   7   9
HETATM    9  C2  UNL     1      -7.031  26.591  53.462  1.00  0.00     0.145 C 
HETATM   10  C1  UNL     1      -6.419  25.465  52.602  1.00  0.00     0.042 C 
BRANCH   9  11
HETATM   11  O1  UNL     1      -8.367  26.654  52.977  1.00  0.00    -0.393 OA
ATOM     12  H1  UNL     1      -8.277  27.187  52.196  1.00  0.00     0.210 HD
ENDBRANCH   9  11
ENDBRANCH   7   9
ENDBRANCH   5   6
ENDBRANCH   3   5
ENDBRANCH   1   3
BRANCH   1  13
HETATM   13  N2  UNL     1      -4.087  28.514  57.367  1.00  0.00    -0.364 N 
ATOM     14  H2  UNL     1      -3.400  29.267  57.360  1.00  0.00     0.162 HD
BRANCH  13  15
HETATM   15  C7  UNL     1      -3.620  27.163  57.276  1.00  0.00     0.160 C 
BRANCH  15  16
HETATM   16  C8  UNL     1      -3.501  26.615  55.891  1.00  0.00     0.205 C 
HETATM   17  F1  UNL     1      -3.676  27.677  54.989  1.00  0.00    -0.246 F 
BRANCH  16  18
HETATM   18  C9  UNL     1      -2.025  26.223  55.647  1.00  0.00     0.155 C 
BRANCH  18  19
HETATM   19  N3  UNL     1      -1.884  25.081  54.841  1.00  0.00    -0.410 N 
HETATM   20  C10 UNL     1      -2.738  24.990  53.698  1.00  0.00     0.117 C 
HETATM   21  C11 UNL     1      -2.275  25.905  52.569  1.00  0.00     0.019 C 
HETATM   22  C12 UNL     1      -0.775  26.039  52.559  1.00  0.00     0.003 C 
HETATM   23  C13 UNL     1      -0.089  24.838  53.186  1.00  0.00     0.019 C 
HETATM   24  C14 UNL     1      -0.566  24.599  54.603  1.00  0.00     0.117 C 
ENDBRANCH  18  19
ENDBRANCH  16  18
ENDBRANCH  15  16
ENDBRANCH  13  15
ENDBRANCH   1  13
TORSDOF 10
ENDMDL
