MODEL 1
REMARK VINA RESULT: -7.010815390      0.000      0.000
REMARK  9 active torsions:
REMARK  status: ('A' for Active; 'I' for Inactive)
REMARK    1  A    between atoms: C2_2  and  N1_3 
REMARK    2  A    between atoms: N1_3  and  C3_5 
REMARK    3  A    between atoms: C7_9  and  C8_10 
REMARK    4  A    between atoms: C8_10  and  C9_11 
REMARK    5  A    between atoms: C9_11  and  N2_12 
REMARK    6  A    between atoms: N2_12  and  C11_14 
REMARK    7  A    between atoms: N2_12  and  C13_20 
REMARK    8  A    between atoms: C11_14  and  C12_15 
REMARK    9  A    between atoms: C12_15  and  N3_16 
ROOT
HETATM    1  N2  UNL     1      -5.663  26.444  53.751  1.00  0.00    -0.009 N 
HETATM    2  C10 UNL     1      -5.344  25.136  54.429  1.00  0.00     0.283 C 
ENDROOT
BRANCH   1   3
HETATM    3  C9  UNL     1      -4.428  26.974  53.262  1.00  0.00     0.247 C 
BRANCH   3   4
HETATM    4  C8  UNL     1      -3.421  25.971  52.819  1.00  0.00     0.035 C 
BRANCH   4   5
HETATM    5  C7  UNL     1      -2.049  26.093  53.383  1.00  0.00     0.010 C 
HETATM    6  C3  UNL     1      -1.497  24.848  54.032  1.00  0.00     0.084 C 
HETATM    7  C4  UNL     1      -0.039  24.785  53.644  1.00  0.00     0.025 C 
HETATM    8  C5  UNL     1      -0.112  25.308  52.185  1.00  0.00     0.002 C 
HETATM    9  C6  UNL     1      -0.999  26.522  52.375  1.00  0.00     0.007 C 
BRANCH   6  10
HETATM   10  N1  UNL     1      -1.812  24.711  55.393  1.00  0.00    -0.398 N 
ATOM     11  H1  UNL     1      -2.255  23.849  55.714  1.00  0.00     0.159 HD
BRANCH  10  12
HETATM   12  C2  UNL     1      -1.538  25.721  56.326  1.00  0.00     0.051 C 
HETATM   13  C1  UNL     1      -2.723  26.511  56.838  1.00  0.00     0.054 C 
ENDBRANCH  10  12
ENDBRANCH   6  10
ENDBRANCH   4   5
ENDBRANCH   3   4
ENDBRANCH   1   3
BRANCH   1  14
HETATM   14  C11 UNL     1      -6.692  26.135  52.848  1.00  0.00     0.274 C 
BRANCH  14  15
HETATM   15  C12 UNL     1      -7.679  25.076  53.143  1.00  0.00     0.258 C 
BRANCH  15  16
HETATM   16  N3  UNL     1      -8.448  24.700  52.004  1.00  0.00    -0.078 N 
ATOM     17  H33 UNL     1      -8.518  23.686  51.930  1.00  0.00     0.274 HD
ATOM     18  H32 UNL     1      -9.433  24.927  52.138  1.00  0.00     0.274 HD
ATOM     19  H31 UNL     1      -8.097  25.105  51.137  1.00  0.00     0.274 HD
ENDBRANCH  15  16
ENDBRANCH  14  15
ENDBRANCH   1  14
BRANCH   1  20
HETATM   20  C13 UNL     1      -6.183  27.218  54.863  1.00  0.00     0.275 C 
HETATM   21  N4  UNL     1      -6.316  28.509  54.760  1.00  0.00    -0.353 N 
HETATM   22  C14 UNL     1      -6.837  29.262  55.878  1.00  0.00     0.161 C 
ATOM     23  H4  UNL     1      -6.055  28.985  53.897  1.00  0.00     0.162 HD
HETATM   24  C15 UNL     1      -6.129  28.805  57.135  1.00  0.00     0.205 C 
HETATM   25  F1  UNL     1      -4.774  28.970  56.916  1.00  0.00    -0.246 F 
HETATM   26  C16 UNL     1      -6.482  27.354  57.370  1.00  0.00     0.161 C 
HETATM   27  N5  UNL     1      -6.559  26.633  56.094  1.00  0.00    -0.353 N 
ATOM     28  H5  UNL     1      -6.897  25.670  56.095  1.00  0.00     0.162 HD
ENDBRANCH   1  20
TORSDOF 9
ENDMDL
MODEL 2
REMARK VINA RESULT: -6.985333581      1.314      1.813
REMARK  9 active torsions:
REMARK  status: ('A' for Active; 'I' for Inactive)
REMARK    1  A    between atoms: C2_2  and  N1_3 
REMARK    2  A    between atoms: N1_3  and  C3_5 
REMARK    3  A    between atoms: C7_9  and  C8_10 
REMARK    4  A    between atoms: C8_10  and  C9_11 
REMARK    5  A    between atoms: C9_11  and  N2_12 
REMARK    6  A    between atoms: N2_12  and  C11_14 
REMARK    7  A    between atoms: N2_12  and  C13_20 
REMARK    8  A    between atoms: C11_14  and  C12_15 
REMARK    9  A    between atoms: C12_15  and  N3_16 
ROOT
HETATM    1  N2  UNL     1      -5.689  25.985  53.441  1.00  0.00    -0.009 N 
HETATM    2  C10 UNL     1      -5.615  24.621  54.081  1.00  0.00     0.283 C 
ENDROOT
BRANCH   1   3
HETATM    3  C9  UNL     1      -4.383  26.284  52.940  1.00  0.00     0.247 C 
BRANCH   3   4
HETATM    4  C8  UNL     1      -3.327  25.276  53.236  1.00  0.00     0.035 C 
BRANCH   4   5
HETATM    5  C7  UNL     1      -2.198  25.712  54.102  1.00  0.00     0.010 C 
HETATM    6  C3  UNL     1      -2.094  25.016  55.437  1.00  0.00     0.084 C 
HETATM    7  C4  UNL     1      -0.620  24.790  55.677  1.00  0.00     0.025 C 
HETATM    8  C5  UNL     1      -0.148  24.455  54.238  1.00  0.00     0.002 C 
HETATM    9  C6  UNL     1      -0.831  25.564  53.461  1.00  0.00     0.007 C 
BRANCH   6  10
HETATM   10  N1  UNL     1      -2.834  25.616  56.467  1.00  0.00    -0.398 N 
ATOM     11  H1  UNL     1      -3.282  25.021  57.165  1.00  0.00     0.159 HD
BRANCH  10  12
HETATM   12  C2  UNL     1      -2.979  27.007  56.567  1.00  0.00     0.051 C 
HETATM   13  C1  UNL     1      -3.740  27.525  57.768  1.00  0.00     0.054 C 
ENDBRANCH  10  12
ENDBRANCH   6  10
ENDBRANCH   4   5
ENDBRANCH   3   4
ENDBRANCH   1   3
BRANCH   1  14
HETATM   14  C11 UNL     1      -6.770  25.901  52.550  1.00  0.00     0.274 C 
BRANCH  14  15
HETATM   15  C12 UNL     1      -7.928  25.026  52.830  1.00  0.00     0.258 C 
BRANCH  15  16
HETATM   16  N3  UNL     1      -8.472  24.432  51.655  1.00  0.00    -0.078 N 
ATOM     17  H33 UNL     1      -9.471  24.623  51.579  1.00  0.00     0.274 HD
ATOM     18  H32 UNL     1      -8.145  24.914  50.818  1.00  0.00     0.274 HD
ATOM     19  H31 UNL     1      -8.287  23.431  51.594  1.00  0.00     0.274 HD
ENDBRANCH  15  16
ENDBRANCH  14  15
ENDBRANCH   1  14
BRANCH   1  20
HETATM   20  C13 UNL     1      -6.036  26.812  54.580  1.00  0.00     0.275 C 
HETATM   21  N4  UNL     1      -6.614  26.289  55.622  1.00  0.00    -0.353 N 
HETATM   22  C14 UNL     1      -6.951  27.130  56.748  1.00  0.00     0.161 C 
ATOM     23  H4  UNL     1      -6.828  25.292  55.644  1.00  0.00     0.162 HD
HETATM   24  C15 UNL     1      -7.620  28.383  56.226  1.00  0.00     0.205 C 
HETATM   25  F1  UNL     1      -8.704  27.975  55.472  1.00  0.00    -0.246 F 
HETATM   26  C16 UNL     1      -6.612  29.138  55.389  1.00  0.00     0.161 C 
HETATM   27  N5  UNL     1      -5.780  28.203  54.622  1.00  0.00    -0.353 N 
ATOM     28  H5  UNL     1      -4.986  28.571  54.098  1.00  0.00     0.162 HD
ENDBRANCH   1  20
TORSDOF 9
ENDMDL
MODEL 3
REMARK VINA RESULT: -6.972513411      1.139      1.411
REMARK  9 active torsions:
REMARK  status: ('A' for Active; 'I' for Inactive)
REMARK    1  A    between atoms: C2_2  and  N1_3 
REMARK    2  A    between atoms: N1_3  and  C3_5 
REMARK    3  A    between atoms: C7_9  and  C8_10 
REMARK    4  A    between atoms: C8_10  and  C9_11 
REMARK    5  A    between atoms: C9_11  and  N2_12 
REMARK    6  A    between atoms: N2_12  and  C11_14 
REMARK    7  A    between atoms: N2_12  and  C13_20 
REMARK    8  A    between atoms: C11_14  and  C12_15 
REMARK    9  A    between atoms: C12_15  and  N3_16 
ROOT
HETATM    1  N2  UNL     1      -5.889  26.090  54.214  1.00  0.00    -0.009 N 
HETATM    2  C10 UNL     1      -5.409  24.678  54.436  1.00  0.00     0.283 C 
ENDROOT
BRANCH   1   3
HETATM    3  C9  UNL     1      -4.926  26.732  53.375  1.00  0.00     0.247 C 
BRANCH   3   4
HETATM    4  C8  UNL     1      -3.823  25.868  52.871  1.00  0.00     0.035 C 
BRANCH   4   5
HETATM    5  C7  UNL     1      -2.430  26.328  53.126  1.00  0.00     0.010 C 
HETATM    6  C3  UNL     1      -1.381  25.244  53.159  1.00  0.00     0.084 C 
HETATM    7  C4  UNL     1      -0.168  25.814  52.464  1.00  0.00     0.025 C 
HETATM    8  C5  UNL     1      -0.849  26.632  51.335  1.00  0.00     0.002 C 
HETATM    9  C6  UNL     1      -1.922  27.351  52.128  1.00  0.00     0.007 C 
BRANCH   6  10
HETATM   10  N1  UNL     1      -1.189  24.656  54.420  1.00  0.00    -0.398 N 
ATOM     11  H1  UNL     1      -0.916  23.675  54.471  1.00  0.00     0.159 HD
BRANCH  10  12
HETATM   12  C2  UNL     1      -1.363  25.376  55.610  1.00  0.00     0.051 C 
HETATM   13  C1  UNL     1      -0.460  25.002  56.766  1.00  0.00     0.054 C 
ENDBRANCH  10  12
ENDBRANCH   6  10
ENDBRANCH   4   5
ENDBRANCH   3   4
ENDBRANCH   1   3
BRANCH   1  14
HETATM   14  C11 UNL     1      -7.213  25.950  53.769  1.00  0.00     0.274 C 
BRANCH  14  15
HETATM   15  C12 UNL     1      -7.519  25.672  52.350  1.00  0.00     0.258 C 
BRANCH  15  16
HETATM   16  N3  UNL     1      -8.436  24.595  52.181  1.00  0.00    -0.078 N 
ATOM     17  H33 UNL     1      -8.067  23.900  51.532  1.00  0.00     0.274 HD
ATOM     18  H32 UNL     1      -8.489  24.025  53.024  1.00  0.00     0.274 HD
ATOM     19  H31 UNL     1      -9.364  24.905  51.893  1.00  0.00     0.274 HD
ENDBRANCH  15  16
ENDBRANCH  14  15
ENDBRANCH   1  14
BRANCH   1  20
HETATM   20  C13 UNL     1      -5.864  26.612  55.567  1.00  0.00     0.275 C 
HETATM   21  N4  UNL     1      -6.974  26.891  56.186  1.00  0.00    -0.353 N 
HETATM   22  C14 UNL     1      -6.929  27.409  57.534  1.00  0.00     0.161 C 
ATOM     23  H4  UNL     1      -7.871  26.744  55.722  1.00  0.00     0.162 HD
HETATM   24  C15 UNL     1      -5.891  28.509  57.588  1.00  0.00     0.205 C 
HETATM   25  F1  UNL     1      -6.242  29.440  56.630  1.00  0.00    -0.246 F 
HETATM   26  C16 UNL     1      -4.541  27.894  57.300  1.00  0.00     0.161 C 
HETATM   27  N5  UNL     1      -4.662  26.851  56.273  1.00  0.00    -0.353 N 
ATOM     28  H5  UNL     1      -3.846  26.277  56.060  1.00  0.00     0.162 HD
ENDBRANCH   1  20
TORSDOF 9
ENDMDL
MODEL 4
REMARK VINA RESULT: -6.890796793      2.076      4.004
REMARK  9 active torsions:
REMARK  status: ('A' for Active; 'I' for Inactive)
REMARK    1  A    between atoms: C2_2  and  N1_3 
REMARK    2  A    between atoms: N1_3  and  C3_5 
REMARK    3  A    between atoms: C7_9  and  C8_10 
REMARK    4  A    between atoms: C8_10  and  C9_11 
REMARK    5  A    between atoms: C9_11  and  N2_12 
REMARK    6  A    between atoms: N2_12  and  C11_14 
REMARK    7  A    between atoms: N2_12  and  C13_20 
REMARK    8  A    between atoms: C11_14  and  C12_15 
REMARK    9  A    between atoms: C12_15  and  N3_16 
ROOT
HETATM    1  N2  UNL     1      -6.177  27.926  56.128  1.00  0.00    -0.009 N 
HETATM    2  C10 UNL     1      -6.952  29.216  56.030  1.00  0.00     0.283 C 
ENDROOT
BRANCH   1   3
HETATM    3  C9  UNL     1      -4.894  28.164  55.543  1.00  0.00     0.247 C 
BRANCH   3   4
HETATM    4  C8  UNL     1      -3.783  27.306  56.041  1.00  0.00     0.035 C 
BRANCH   4   5
HETATM    5  C7  UNL     1      -2.922  26.650  55.019  1.00  0.00     0.010 C 
HETATM    6  C3  UNL     1      -3.035  25.148  54.938  1.00  0.00     0.084 C 
HETATM    7  C4  UNL     1      -2.981  24.803  53.468  1.00  0.00     0.025 C 
HETATM    8  C5  UNL     1      -3.788  25.986  52.871  1.00  0.00     0.002 C 
HETATM    9  C6  UNL     1      -3.148  27.150  53.604  1.00  0.00     0.007 C 
BRANCH   6  10
HETATM   10  N1  UNL     1      -2.173  24.451  55.799  1.00  0.00    -0.398 N 
ATOM     11  H1  UNL     1      -2.558  23.722  56.401  1.00  0.00     0.159 HD
BRANCH  10  12
HETATM   12  C2  UNL     1      -0.799  24.725  55.860  1.00  0.00     0.051 C 
HETATM   13  C1  UNL     1      -0.242  25.100  57.216  1.00  0.00     0.054 C 
ENDBRANCH  10  12
ENDBRANCH   6  10
ENDBRANCH   4   5
ENDBRANCH   3   4
ENDBRANCH   1   3
BRANCH   1  14
HETATM   14  C11 UNL     1      -6.266  27.560  57.479  1.00  0.00     0.274 C 
BRANCH  14  15
HETATM   15  C12 UNL     1      -6.097  28.557  58.557  1.00  0.00     0.258 C 
BRANCH  15  16
HETATM   16  N3  UNL     1      -7.032  28.390  59.619  1.00  0.00    -0.078 N 
ATOM     17  H33 UNL     1      -7.990  28.441  59.273  1.00  0.00     0.274 HD
ATOM     18  H32 UNL     1      -7.029  27.428  59.960  1.00  0.00     0.274 HD
ATOM     19  H31 UNL     1      -6.885  29.047  60.385  1.00  0.00     0.274 HD
ENDBRANCH  15  16
ENDBRANCH  14  15
ENDBRANCH   1  14
BRANCH   1  20
HETATM   20  C13 UNL     1      -6.991  27.046  55.311  1.00  0.00     0.275 C 
HETATM   21  N4  UNL     1      -6.542  25.878  54.954  1.00  0.00    -0.353 N 
HETATM   22  C14 UNL     1      -7.368  25.015  54.142  1.00  0.00     0.161 C 
ATOM     23  H4  UNL     1      -5.613  25.574  55.246  1.00  0.00     0.162 HD
HETATM   24  C15 UNL     1      -7.946  25.834  53.009  1.00  0.00     0.205 C 
HETATM   25  F1  UNL     1      -6.880  26.402  52.338  1.00  0.00    -0.246 F 
HETATM   26  C16 UNL     1      -8.852  26.886  53.607  1.00  0.00     0.161 C 
HETATM   27  N5  UNL     1      -8.284  27.399  54.860  1.00  0.00    -0.353 N 
ATOM     28  H5  UNL     1      -8.844  28.035  55.427  1.00  0.00     0.162 HD
ENDBRANCH   1  20
TORSDOF 9
ENDMDL
MODEL 5
REMARK VINA RESULT: -6.863471406      1.917      4.235
REMARK  9 active torsions:
REMARK  status: ('A' for Active; 'I' for Inactive)
REMARK    1  A    between atoms: C2_2  and  N1_3 
REMARK    2  A    between atoms: N1_3  and  C3_5 
REMARK    3  A    between atoms: C7_9  and  C8_10 
REMARK    4  A    between atoms: C8_10  and  C9_11 
REMARK    5  A    between atoms: C9_11  and  N2_12 
REMARK    6  A    between atoms: N2_12  and  C11_14 
REMARK    7  A    between atoms: N2_12  and  C13_20 
REMARK    8  A    between atoms: C11_14  and  C12_15 
REMARK    9  A    between atoms: C12_15  and  N3_16 
ROOT
HETATM    1  N2  UNL     1      -5.534  27.549  55.915  1.00  0.00    -0.009 N 
HETATM    2  C10 UNL     1      -5.986  28.950  55.583  1.00  0.00     0.283 C 
ENDROOT
BRANCH   1   3
HETATM    3  C9  UNL     1      -4.203  27.409  55.413  1.00  0.00     0.247 C 
BRANCH   3   4
HETATM    4  C8  UNL     1      -3.180  26.960  56.398  1.00  0.00     0.035 C 
BRANCH   4   5
HETATM    5  C7  UNL     1      -2.590  25.608  56.196  1.00  0.00     0.010 C 
HETATM    6  C3  UNL     1      -1.728  25.450  54.968  1.00  0.00     0.084 C 
HETATM    7  C4  UNL     1      -0.563  24.583  55.384  1.00  0.00     0.025 C 
HETATM    8  C5  UNL     1      -0.319  25.111  56.823  1.00  0.00     0.002 C 
HETATM    9  C6  UNL     1      -1.739  25.123  57.354  1.00  0.00     0.007 C 
BRANCH   6  10
HETATM   10  N1  UNL     1      -2.427  25.083  53.807  1.00  0.00    -0.398 N 
ATOM     11  H1  UNL     1      -2.980  24.226  53.813  1.00  0.00     0.159 HD
BRANCH  10  12
HETATM   12  C2  UNL     1      -2.388  25.858  52.639  1.00  0.00     0.051 C 
HETATM   13  C1  UNL     1      -1.017  26.253  52.134  1.00  0.00     0.054 C 
ENDBRANCH  10  12
ENDBRANCH   6  10
ENDBRANCH   4   5
ENDBRANCH   3   4
ENDBRANCH   1   3
BRANCH   1  14
HETATM   14  C11 UNL     1      -5.774  27.415  57.291  1.00  0.00     0.274 C 
BRANCH  14  15
HETATM   15  C12 UNL     1      -6.499  28.456  58.048  1.00  0.00     0.258 C 
BRANCH  15  16
HETATM   16  N3  UNL     1      -6.475  28.237  59.456  1.00  0.00    -0.078 N 
ATOM     17  H33 UNL     1      -7.076  28.905  59.939  1.00  0.00     0.274 HD
ATOM     18  H32 UNL     1      -6.958  27.372  59.699  1.00  0.00     0.274 HD
ATOM     19  H31 UNL     1      -5.532  28.248  59.844  1.00  0.00     0.274 HD
ENDBRANCH  15  16
ENDBRANCH  14  15
ENDBRANCH   1  14
BRANCH   1  20
HETATM   20  C13 UNL     1      -6.486  26.760  55.157  1.00  0.00     0.275 C 
HETATM   21  N4  UNL     1      -6.165  25.574  54.729  1.00  0.00    -0.353 N 
HETATM   22  C14 UNL     1      -7.127  24.802  53.977  1.00  0.00     0.161 C 
ATOM     23  H4  UNL     1      -5.240  25.191  54.924  1.00  0.00     0.162 HD
HETATM   24  C15 UNL     1      -7.742  25.699  52.925  1.00  0.00     0.205 C 
HETATM   25  F1  UNL     1      -6.702  26.206  52.171  1.00  0.00    -0.246 F 
HETATM   26  C16 UNL     1      -8.505  26.796  53.633  1.00  0.00     0.161 C 
HETATM   27  N5  UNL     1      -7.784  27.223  54.839  1.00  0.00    -0.353 N 
ATOM     28  H5  UNL     1      -8.238  27.881  55.473  1.00  0.00     0.162 HD
ENDBRANCH   1  20
TORSDOF 9
ENDMDL
