MODEL 1
REMARK VINA RESULT: -6.879515137      0.000      0.000
REMARK  8 active torsions:
REMARK  status: ('A' for Active; 'I' for Inactive)
REMARK    1  A    between atoms: N1_2  and  C2_3 
REMARK    2  A    between atoms: N1_2  and  C9_17 
REMARK    3  A    between atoms: C2_3  and  C3_4 
REMARK    4  A    between atoms: C3_4  and  C4_5 
REMARK    5  A    between atoms: C4_5  and  N2_6 
REMARK    6  A    between atoms: N2_6  and  S1_8 
REMARK    7  A    between atoms: S1_8  and  N3_11 
REMARK    8  A    between atoms: N3_11  and  C5_13 
ROOT
HETATM    1  C3  UNL     1      -5.389  27.386  56.789  1.00  0.00     0.050 C 
ENDROOT
BRANCH   1   2
HETATM    2  C2  UNL     1      -4.030  27.617  56.354  1.00  0.00     0.274 C 
BRANCH   2   3
HETATM    3  N1  UNL     1      -3.722  26.604  55.353  1.00  0.00     0.090 N 
HETATM    4  C1  UNL     1      -3.548  27.238  54.093  1.00  0.00     0.310 C 
BRANCH   3   5
HETATM    5  C9  UNL     1      -2.732  25.683  55.760  1.00  0.00     0.248 C 
HETATM    6  C10 UNL     1      -1.784  25.298  54.645  1.00  0.00     0.039 C 
HETATM    7  C11 UNL     1      -0.496  24.788  55.231  1.00  0.00     0.030 C 
HETATM    8  C12 UNL     1      -0.811  24.128  56.548  1.00  0.00     0.232 C 
HETATM    9  N4  UNL     1      -1.131  25.150  57.509  1.00  0.00    -0.073 N 
HETATM   10  C13 UNL     1      -2.052  26.137  57.008  1.00  0.00     0.268 C 
ATOM     11  H42 UNL     1      -1.479  24.737  58.375  1.00  0.00     0.277 HD
ATOM     12  H41 UNL     1      -0.283  25.593  57.862  1.00  0.00     0.277 HD
ENDBRANCH   3   5
ENDBRANCH   2   3
ENDBRANCH   1   2
BRANCH   1  13
HETATM   13  C4  UNL     1      -6.465  28.355  56.449  1.00  0.00     0.135 C 
BRANCH  13  14
HETATM   14  N2  UNL     1      -6.830  28.197  55.064  1.00  0.00    -0.303 N 
ATOM     15  H2  UNL     1      -6.503  28.809  54.315  1.00  0.00     0.173 HD
BRANCH  14  16
HETATM   16  S1  UNL     1      -7.878  26.862  54.818  1.00  0.00     0.315 S 
HETATM   17  O1  UNL     1      -9.009  27.175  53.875  1.00  0.00    -0.183 OA
HETATM   18  O2  UNL     1      -8.655  26.669  56.185  1.00  0.00    -0.183 OA
BRANCH  16  19
HETATM   19  N3  UNL     1      -7.134  25.435  54.364  1.00  0.00    -0.294 N 
ATOM     20  H3  UNL     1      -6.891  24.689  55.015  1.00  0.00     0.174 HD
BRANCH  19  21
HETATM   21  C5  UNL     1      -6.871  25.381  52.918  1.00  0.00     0.031 C 
HETATM   22  C6  UNL     1      -6.716  26.709  52.266  1.00  0.00     0.038 C 
HETATM   23  C7  UNL     1      -7.968  24.628  52.199  1.00  0.00     0.038 C 
HETATM   24  C8  UNL     1      -5.594  24.584  52.761  1.00  0.00     0.038 C 
ENDBRANCH  19  21
ENDBRANCH  16  19
ENDBRANCH  14  16
ENDBRANCH  13  14
ENDBRANCH   1  13
TORSDOF 8
ENDMDL
MODEL 2
REMARK VINA RESULT: -6.842832694      2.918      5.115
REMARK  8 active torsions:
REMARK  status: ('A' for Active; 'I' for Inactive)
REMARK    1  A    between atoms: N1_2  and  C2_3 
REMARK    2  A    between atoms: N1_2  and  C9_17 
REMARK    3  A    between atoms: C2_3  and  C3_4 
REMARK    4  A    between atoms: C3_4  and  C4_5 
REMARK    5  A    between atoms: C4_5  and  N2_6 
REMARK    6  A    between atoms: N2_6  and  S1_8 
REMARK    7  A    between atoms: S1_8  and  N3_11 
REMARK    8  A    between atoms: N3_11  and  C5_13 
ROOT
HETATM    1  C3  UNL     1      -7.395  25.437  54.343  1.00  0.00     0.050 C 
ENDROOT
BRANCH   1   2
HETATM    2  C2  UNL     1      -6.491  26.188  55.186  1.00  0.00     0.274 C 
BRANCH   2   3
HETATM    3  N1  UNL     1      -7.083  27.505  55.384  1.00  0.00     0.090 N 
HETATM    4  C1  UNL     1      -8.498  27.388  55.319  1.00  0.00     0.310 C 
BRANCH   3   5
HETATM    5  C9  UNL     1      -6.538  28.217  56.474  1.00  0.00     0.248 C 
HETATM    6  C10 UNL     1      -7.096  27.778  57.810  1.00  0.00     0.039 C 
HETATM    7  C11 UNL     1      -6.135  28.149  58.906  1.00  0.00     0.030 C 
HETATM    8  C12 UNL     1      -5.413  29.403  58.488  1.00  0.00     0.232 C 
HETATM    9  N4  UNL     1      -4.479  29.070  57.444  1.00  0.00    -0.073 N 
HETATM   10  C13 UNL     1      -5.047  28.240  56.414  1.00  0.00     0.268 C 
ATOM     11  H42 UNL     1      -4.068  29.913  57.044  1.00  0.00     0.277 HD
ATOM     12  H41 UNL     1      -3.640  28.641  57.833  1.00  0.00     0.277 HD
ENDBRANCH   3   5
ENDBRANCH   2   3
ENDBRANCH   1   2
BRANCH   1  13
HETATM   13  C4  UNL     1      -7.019  25.103  52.944  1.00  0.00     0.135 C 
BRANCH  13  14
HETATM   14  N2  UNL     1      -5.728  25.672  52.648  1.00  0.00    -0.303 N 
ATOM     15  H2  UNL     1      -5.545  26.675  52.603  1.00  0.00     0.173 HD
BRANCH  14  16
HETATM   16  S1  UNL     1      -4.535  24.470  52.378  1.00  0.00     0.315 S 
HETATM   17  O1  UNL     1      -4.918  23.503  51.290  1.00  0.00    -0.183 OA
HETATM   18  O2  UNL     1      -4.573  23.534  53.656  1.00  0.00    -0.183 OA
BRANCH  16  19
HETATM   19  N3  UNL     1      -2.984  25.038  52.118  1.00  0.00    -0.294 N 
ATOM     20  H3  UNL     1      -2.408  24.773  51.320  1.00  0.00     0.174 HD
BRANCH  19  21
HETATM   21  C5  UNL     1      -2.547  25.964  53.174  1.00  0.00     0.031 C 
HETATM   22  C6  UNL     1      -2.917  25.550  54.553  1.00  0.00     0.038 C 
HETATM   23  C7  UNL     1      -3.099  27.353  52.935  1.00  0.00     0.038 C 
HETATM   24  C8  UNL     1      -1.041  26.046  53.052  1.00  0.00     0.038 C 
ENDBRANCH  19  21
ENDBRANCH  16  19
ENDBRANCH  14  16
ENDBRANCH  13  14
ENDBRANCH   1  13
TORSDOF 8
ENDMDL
MODEL 3
REMARK VINA RESULT: -6.639250904      1.744      3.405
REMARK  8 active torsions:
REMARK  status: ('A' for Active; 'I' for Inactive)
REMARK    1  A    between atoms: N1_2  and  C2_3 
REMARK    2  A    between atoms: N1_2  and  C9_17 
REMARK    3  A    between atoms: C2_3  and  C3_4 
REMARK    4  A    between atoms: C3_4  and  C4_5 
REMARK    5  A    between atoms: C4_5  and  N2_6 
REMARK    6  A    between atoms: N2_6  and  S1_8 
REMARK    7  A    between atoms: S1_8  and  N3_11 
REMARK    8  A    between atoms: N3_11  and  C5_13 
ROOT
HETATM    1  C3  UNL     1      -3.914  24.686  52.400  1.00  0.00     0.050 C 
ENDROOT
BRANCH   1   2
HETATM    2  C2  UNL     1      -3.186  25.703  53.125  1.00  0.00     0.274 C 
BRANCH   2   3
HETATM    3  N1  UNL     1      -1.940  25.096  53.580  1.00  0.00     0.090 N 
HETATM    4  C1  UNL     1      -0.856  25.689  52.878  1.00  0.00     0.310 C 
BRANCH   3   5
HETATM    5  C9  UNL     1      -1.832  25.002  54.984  1.00  0.00     0.248 C 
HETATM    6  C10 UNL     1      -0.441  24.633  55.450  1.00  0.00     0.039 C 
HETATM    7  C11 UNL     1      -0.253  25.070  56.878  1.00  0.00     0.030 C 
HETATM    8  C12 UNL     1      -1.590  24.998  57.567  1.00  0.00     0.232 C 
HETATM    9  N4  UNL     1      -2.415  26.075  57.086  1.00  0.00    -0.073 N 
HETATM   10  C13 UNL     1      -2.398  26.210  55.653  1.00  0.00     0.268 C 
ATOM     11  H42 UNL     1      -3.371  25.980  57.430  1.00  0.00     0.277 HD
ATOM     12  H41 UNL     1      -2.160  26.954  57.536  1.00  0.00     0.277 HD
ENDBRANCH   3   5
ENDBRANCH   2   3
ENDBRANCH   1   2
BRANCH   1  13
HETATM   13  C4  UNL     1      -5.400  24.661  52.424  1.00  0.00     0.135 C 
BRANCH  13  14
HETATM   14  N2  UNL     1      -5.893  25.966  52.788  1.00  0.00    -0.303 N 
ATOM     15  H2  UNL     1      -5.385  26.834  52.619  1.00  0.00     0.173 HD
BRANCH  14  16
HETATM   16  S1  UNL     1      -7.432  25.891  53.540  1.00  0.00     0.315 S 
HETATM   17  O1  UNL     1      -7.578  24.702  54.452  1.00  0.00    -0.183 OA
HETATM   18  O2  UNL     1      -8.456  25.528  52.387  1.00  0.00    -0.183 OA
BRANCH  16  19
HETATM   19  N3  UNL     1      -7.917  27.281  54.332  1.00  0.00    -0.294 N 
ATOM     20  H3  UNL     1      -8.621  27.925  53.972  1.00  0.00     0.174 HD
BRANCH  19  21
HETATM   21  C5  UNL     1      -7.209  27.470  55.607  1.00  0.00     0.031 C 
HETATM   22  C6  UNL     1      -5.904  26.763  55.703  1.00  0.00     0.038 C 
HETATM   23  C7  UNL     1      -8.070  27.029  56.771  1.00  0.00     0.038 C 
HETATM   24  C8  UNL     1      -6.991  28.962  55.741  1.00  0.00     0.038 C 
ENDBRANCH  19  21
ENDBRANCH  16  19
ENDBRANCH  14  16
ENDBRANCH  13  14
ENDBRANCH   1  13
TORSDOF 8
ENDMDL
MODEL 4
REMARK VINA RESULT: -6.610465658      2.800      5.299
REMARK  8 active torsions:
REMARK  status: ('A' for Active; 'I' for Inactive)
REMARK    1  A    between atoms: N1_2  and  C2_3 
REMARK    2  A    between atoms: N1_2  and  C9_17 
REMARK    3  A    between atoms: C2_3  and  C3_4 
REMARK    4  A    between atoms: C3_4  and  C4_5 
REMARK    5  A    between atoms: C4_5  and  N2_6 
REMARK    6  A    between atoms: N2_6  and  S1_8 
REMARK    7  A    between atoms: S1_8  and  N3_11 
REMARK    8  A    between atoms: N3_11  and  C5_13 
ROOT
HETATM    1  C3  UNL     1      -7.216  25.536  54.219  1.00  0.00     0.050 C 
ENDROOT
BRANCH   1   2
HETATM    2  C2  UNL     1      -6.546  26.167  55.333  1.00  0.00     0.274 C 
BRANCH   2   3
HETATM    3  N1  UNL     1      -7.131  27.494  55.490  1.00  0.00     0.090 N 
HETATM    4  C1  UNL     1      -8.546  27.384  55.421  1.00  0.00     0.310 C 
BRANCH   3   5
HETATM    5  C9  UNL     1      -6.588  28.233  56.562  1.00  0.00     0.248 C 
HETATM    6  C10 UNL     1      -7.138  27.821  57.909  1.00  0.00     0.039 C 
HETATM    7  C11 UNL     1      -6.176  28.223  58.993  1.00  0.00     0.030 C 
HETATM    8  C12 UNL     1      -5.464  29.472  58.545  1.00  0.00     0.232 C 
HETATM    9  N4  UNL     1      -4.532  29.123  57.506  1.00  0.00    -0.073 N 
HETATM   10  C13 UNL     1      -5.097  28.266  56.497  1.00  0.00     0.268 C 
ATOM     11  H42 UNL     1      -4.128  29.960  57.085  1.00  0.00     0.277 HD
ATOM     12  H41 UNL     1      -3.688  28.708  57.901  1.00  0.00     0.277 HD
ENDBRANCH   3   5
ENDBRANCH   2   3
ENDBRANCH   1   2
BRANCH   1  13
HETATM   13  C4  UNL     1      -6.569  25.486  52.881  1.00  0.00     0.135 C 
BRANCH  13  14
HETATM   14  N2  UNL     1      -5.240  26.037  52.972  1.00  0.00    -0.303 N 
ATOM     15  H2  UNL     1      -5.040  27.037  52.998  1.00  0.00     0.173 HD
BRANCH  14  16
HETATM   16  S1  UNL     1      -4.036  24.818  53.031  1.00  0.00     0.315 S 
HETATM   17  O1  UNL     1      -2.939  25.033  52.022  1.00  0.00    -0.183 OA
HETATM   18  O2  UNL     1      -4.725  23.506  52.469  1.00  0.00    -0.183 OA
BRANCH  16  19
HETATM   19  N3  UNL     1      -3.376  24.529  54.539  1.00  0.00    -0.294 N 
ATOM     20  H3  UNL     1      -3.635  23.740  55.131  1.00  0.00     0.174 HD
BRANCH  19  21
HETATM   21  C5  UNL     1      -2.379  25.543  54.914  1.00  0.00     0.031 C 
HETATM   22  C6  UNL     1      -2.601  26.883  54.309  1.00  0.00     0.038 C 
HETATM   23  C7  UNL     1      -0.983  25.087  54.548  1.00  0.00     0.038 C 
HETATM   24  C8  UNL     1      -2.444  25.647  56.422  1.00  0.00     0.038 C 
ENDBRANCH  19  21
ENDBRANCH  16  19
ENDBRANCH  14  16
ENDBRANCH  13  14
ENDBRANCH   1  13
TORSDOF 8
ENDMDL
MODEL 5
REMARK VINA RESULT: -6.607422285      1.453      3.266
REMARK  8 active torsions:
REMARK  status: ('A' for Active; 'I' for Inactive)
REMARK    1  A    between atoms: N1_2  and  C2_3 
REMARK    2  A    between atoms: N1_2  and  C9_17 
REMARK    3  A    between atoms: C2_3  and  C3_4 
REMARK    4  A    between atoms: C3_4  and  C4_5 
REMARK    5  A    between atoms: C4_5  and  N2_6 
REMARK    6  A    between atoms: N2_6  and  S1_8 
REMARK    7  A    between atoms: S1_8  and  N3_11 
REMARK    8  A    between atoms: N3_11  and  C5_13 
ROOT
HETATM    1  C3  UNL     1      -4.587  27.567  53.075  1.00  0.00     0.050 C 
ENDROOT
BRANCH   1   2
HETATM    2  C2  UNL     1      -3.577  27.333  54.084  1.00  0.00     0.274 C 
BRANCH   2   3
HETATM    3  N1  UNL     1      -2.918  26.077  53.747  1.00  0.00     0.090 N 
HETATM    4  C1  UNL     1      -2.072  26.288  52.625  1.00  0.00     0.310 C 
BRANCH   3   5
HETATM    5  C9  UNL     1      -2.368  25.406  54.860  1.00  0.00     0.248 C 
HETATM    6  C10 UNL     1      -0.929  24.987  54.651  1.00  0.00     0.039 C 
HETATM    7  C11 UNL     1      -0.260  24.792  55.984  1.00  0.00     0.030 C 
HETATM    8  C12 UNL     1      -1.304  24.327  56.966  1.00  0.00     0.232 C 
HETATM    9  N4  UNL     1      -2.165  25.435  57.282  1.00  0.00    -0.073 N 
HETATM   10  C13 UNL     1      -2.604  26.166  56.122  1.00  0.00     0.268 C 
ATOM     11  H42 UNL     1      -2.963  25.127  57.839  1.00  0.00     0.277 HD
ATOM     12  H41 UNL     1      -1.720  26.059  57.955  1.00  0.00     0.277 HD
ENDBRANCH   3   5
ENDBRANCH   2   3
ENDBRANCH   1   2
BRANCH   1  13
HETATM   13  C4  UNL     1      -5.820  26.737  53.036  1.00  0.00     0.135 C 
BRANCH  13  14
HETATM   14  N2  UNL     1      -6.827  27.338  53.875  1.00  0.00    -0.303 N 
ATOM     15  H2  UNL     1      -7.314  28.204  53.647  1.00  0.00     0.173 HD
BRANCH  14  16
HETATM   16  S1  UNL     1      -7.110  26.428  55.301  1.00  0.00     0.315 S 
HETATM   17  O1  UNL     1      -7.219  24.950  55.038  1.00  0.00    -0.183 OA
HETATM   18  O2  UNL     1      -8.590  26.778  55.746  1.00  0.00    -0.183 OA
BRANCH  16  19
HETATM   19  N3  UNL     1      -6.043  26.707  56.558  1.00  0.00    -0.294 N 
ATOM     20  H3  UNL     1      -5.387  26.012  56.911  1.00  0.00     0.174 HD
BRANCH  19  21
HETATM   21  C5  UNL     1      -6.162  28.071  57.095  1.00  0.00     0.031 C 
HETATM   22  C6  UNL     1      -6.827  29.040  56.185  1.00  0.00     0.038 C 
HETATM   23  C7  UNL     1      -4.802  28.625  57.461  1.00  0.00     0.038 C 
HETATM   24  C8  UNL     1      -6.960  27.942  58.375  1.00  0.00     0.038 C 
ENDBRANCH  19  21
ENDBRANCH  16  19
ENDBRANCH  14  16
ENDBRANCH  13  14
ENDBRANCH   1  13
TORSDOF 8
ENDMDL
