MODEL 1
REMARK VINA RESULT: -6.457860802      0.000      0.000
REMARK  9 active torsions:
REMARK  status: ('A' for Active; 'I' for Inactive)
REMARK    1  A    between atoms: O1_2  and  C2_3 
REMARK    2  A    between atoms: C2_3  and  C3_4 
REMARK    3  A    between atoms: C3_4  and  N1_5 
REMARK    4  A    between atoms: N1_5  and  C4_7 
REMARK    5  A    between atoms: N3_11  and  C6_13 
REMARK    6  A    between atoms: C6_13  and  C7_14 
REMARK    7  A    between atoms: C8_18  and  N5_19 
REMARK    8  A    between atoms: N5_19  and  C9_21 
REMARK    9  A    between atoms: C9_21  and  C10_22 
ROOT
HETATM    1  C4  UNL     1      -4.168  24.763  54.111  1.00  0.00     0.707 A 
HETATM    2  N2  UNL     1      -2.858  24.629  53.875  1.00  0.00    -0.022 N 
ATOM      3  H2  UNL     1      -2.534  24.013  53.129  1.00  0.00     0.203 HD
HETATM    4  C5  UNL     1      -1.973  25.303  54.619  1.00  0.00     0.707 A 
HETATM    5  N3  UNL     1      -0.717  25.212  54.437  1.00  0.00    -0.224 N 
ATOM      6  H3  UNL     1      -0.132  25.770  55.061  1.00  0.00     0.177 HD
HETATM    7  N4  UNL     1      -2.384  26.134  55.625  1.00  0.00    -0.022 N 
ATOM      8  H4  UNL     1      -1.715  26.651  56.196  1.00  0.00     0.203 HD
HETATM    9  C8  UNL     1      -3.705  26.238  55.826  1.00  0.00     0.707 A 
HETATM   10  N6  UNL     1      -4.610  25.561  55.081  1.00  0.00    -0.022 N 
ATOM     11  H6  UNL     1      -5.609  25.660  55.258  1.00  0.00     0.203 HD
ENDROOT
BRANCH   9  12
HETATM   12  N5  UNL     1      -4.123  27.029  56.786  1.00  0.00    -0.224 N 
ATOM     13  H5  UNL     1      -4.069  26.731  57.760  1.00  0.00     0.177 HD
BRANCH  12  14
HETATM   14  C9  UNL     1      -4.656  28.318  56.447  1.00  0.00     0.146 C 
BRANCH  14  15
HETATM   15  C10 UNL     1      -5.998  28.575  57.054  1.00  0.00    -0.035 C 
HETATM   16  C11 UNL     1      -6.895  29.282  56.067  1.00  0.00     0.016 C 
HETATM   17  C12 UNL     1      -6.662  27.264  57.461  1.00  0.00     0.016 C 
HETATM   18  C13 UNL     1      -5.852  29.422  58.299  1.00  0.00     0.016 C 
ENDBRANCH  14  15
ENDBRANCH  12  14
ENDBRANCH   9  12
BRANCH   1  19
HETATM   19  N1  UNL     1      -4.976  24.093  53.367  1.00  0.00    -0.223 N 
ATOM     20  H1  UNL     1      -5.229  23.157  53.682  1.00  0.00     0.177 HD
BRANCH  19  21
HETATM   21  C3  UNL     1      -5.550  24.546  52.137  1.00  0.00     0.164 C 
BRANCH  21  22
HETATM   22  C2  UNL     1      -6.975  24.948  52.422  1.00  0.00     0.187 C 
BRANCH  22  23
HETATM   23  O1  UNL     1      -6.996  26.234  52.913  1.00  0.00    -0.394 OA
HETATM   24  C1  UNL     1      -7.887  26.394  53.948  1.00  0.00     0.201 C 
ENDBRANCH  22  23
ENDBRANCH  21  22
ENDBRANCH  19  21
ENDBRANCH   1  19
BRANCH   5  25
HETATM   25  C6  UNL     1      -0.023  24.424  53.465  1.00  0.00     0.153 C 
BRANCH  25  26
HETATM   26  C7  UNL     1       0.433  25.393  52.364  1.00  0.00     0.135 C 
HETATM   27 CL1  UNL     1       2.127  25.045  52.012  1.00  0.00    -0.129 Cl
ENDBRANCH  25  26
ENDBRANCH   5  25
TORSDOF 9
ENDMDL
MODEL 2
REMARK VINA RESULT: -6.444687114      3.442      6.386
REMARK  9 active torsions:
REMARK  status: ('A' for Active; 'I' for Inactive)
REMARK    1  A    between atoms: O1_2  and  C2_3 
REMARK    2  A    between atoms: C2_3  and  C3_4 
REMARK    3  A    between atoms: C3_4  and  N1_5 
REMARK    4  A    between atoms: N1_5  and  C4_7 
REMARK    5  A    between atoms: N3_11  and  C6_13 
REMARK    6  A    between atoms: C6_13  and  C7_14 
REMARK    7  A    between atoms: C8_18  and  N5_19 
REMARK    8  A    between atoms: N5_19  and  C9_21 
REMARK    9  A    between atoms: C9_21  and  C10_22 
ROOT
HETATM    1  C4  UNL     1      -2.950  26.819  56.416  1.00  0.00     0.707 A 
HETATM    2  N2  UNL     1      -3.720  27.653  57.122  1.00  0.00    -0.022 N 
ATOM      3  H2  UNL     1      -3.513  27.831  58.105  1.00  0.00     0.203 HD
HETATM    4  C5  UNL     1      -4.765  28.254  56.538  1.00  0.00     0.707 A 
HETATM    5  N3  UNL     1      -5.530  29.055  57.163  1.00  0.00    -0.224 N 
ATOM      6  H3  UNL     1      -6.296  29.457  56.623  1.00  0.00     0.177 HD
HETATM    7  N4  UNL     1      -5.063  28.030  55.222  1.00  0.00    -0.022 N 
ATOM      8  H4  UNL     1      -5.857  28.483  54.770  1.00  0.00     0.203 HD
HETATM    9  C8  UNL     1      -4.263  27.187  54.553  1.00  0.00     0.707 A 
HETATM   10  N6  UNL     1      -3.205  26.574  55.132  1.00  0.00    -0.022 N 
ATOM     11  H6  UNL     1      -2.616  25.937  54.597  1.00  0.00     0.203 HD
ENDROOT
BRANCH   9  12
HETATM   12  N5  UNL     1      -4.530  26.956  53.289  1.00  0.00    -0.224 N 
ATOM     13  H5  UNL     1      -3.778  26.929  52.599  1.00  0.00     0.177 HD
BRANCH  12  14
HETATM   14  C9  UNL     1      -5.892  26.744  52.889  1.00  0.00     0.146 C 
BRANCH  14  15
HETATM   15  C10 UNL     1      -6.297  25.306  52.929  1.00  0.00    -0.035 C 
HETATM   16  C11 UNL     1      -6.575  24.877  54.349  1.00  0.00     0.016 C 
HETATM   17  C12 UNL     1      -7.555  25.080  52.098  1.00  0.00     0.016 C 
HETATM   18  C13 UNL     1      -5.201  24.440  52.347  1.00  0.00     0.016 C 
ENDBRANCH  14  15
ENDBRANCH  12  14
ENDBRANCH   9  12
BRANCH   1  19
HETATM   19  N1  UNL     1      -1.959  26.269  57.024  1.00  0.00    -0.223 N 
ATOM     20  H1  UNL     1      -1.361  26.877  57.584  1.00  0.00     0.177 HD
BRANCH  19  21
HETATM   21  C3  UNL     1      -1.622  24.878  56.986  1.00  0.00     0.164 C 
BRANCH  21  22
HETATM   22  C2  UNL     1      -0.221  24.765  56.441  1.00  0.00     0.187 C 
BRANCH  22  23
HETATM   23  O1  UNL     1      -0.223  23.932  55.345  1.00  0.00    -0.394 OA
HETATM   24  C1  UNL     1      -0.322  24.617  54.157  1.00  0.00     0.201 C 
ENDBRANCH  22  23
ENDBRANCH  21  22
ENDBRANCH  19  21
ENDBRANCH   1  19
BRANCH   5  25
HETATM   25  C6  UNL     1      -5.448  29.463  58.533  1.00  0.00     0.153 C 
BRANCH  25  26
HETATM   26  C7  UNL     1      -6.679  28.874  59.236  1.00  0.00     0.135 C 
HETATM   27 CL1  UNL     1      -7.189  27.453  58.323  1.00  0.00    -0.129 Cl
ENDBRANCH  25  26
ENDBRANCH   5  25
TORSDOF 9
ENDMDL
MODEL 3
REMARK VINA RESULT: -6.374372877      2.395      4.844
REMARK  9 active torsions:
REMARK  status: ('A' for Active; 'I' for Inactive)
REMARK    1  A    between atoms: O1_2  and  C2_3 
REMARK    2  A    between atoms: C2_3  and  C3_4 
REMARK    3  A    between atoms: C3_4  and  N1_5 
REMARK    4  A    between atoms: N1_5  and  C4_7 
REMARK    5  A    between atoms: N3_11  and  C6_13 
REMARK    6  A    between atoms: C6_13  and  C7_14 
REMARK    7  A    between atoms: C8_18  and  N5_19 
REMARK    8  A    between atoms: N5_19  and  C9_21 
REMARK    9  A    between atoms: C9_21  and  C10_22 
ROOT
HETATM    1  C4  UNL     1      -4.333  27.997  56.408  1.00  0.00     0.707 A 
HETATM    2  N2  UNL     1      -3.485  26.980  56.593  1.00  0.00    -0.022 N 
ATOM      3  H2  UNL     1      -2.930  26.927  57.447  1.00  0.00     0.203 HD
HETATM    4  C5  UNL     1      -3.367  26.030  55.656  1.00  0.00     0.707 A 
HETATM    5  N3  UNL     1      -2.576  25.041  55.782  1.00  0.00    -0.224 N 
ATOM      6  H3  UNL     1      -2.564  24.376  55.009  1.00  0.00     0.177 HD
HETATM    7  N4  UNL     1      -4.101  26.079  54.504  1.00  0.00    -0.022 N 
ATOM      8  H4  UNL     1      -4.016  25.360  53.786  1.00  0.00     0.203 HD
HETATM    9  C8  UNL     1      -4.938  27.117  54.361  1.00  0.00     0.707 A 
HETATM   10  N6  UNL     1      -5.066  28.083  55.299  1.00  0.00    -0.022 N 
ATOM     11  H6  UNL     1      -5.711  28.861  55.161  1.00  0.00     0.203 HD
ENDROOT
BRANCH   9  12
HETATM   12  N5  UNL     1      -5.652  27.186  53.263  1.00  0.00    -0.224 N 
ATOM     13  H5  UNL     1      -5.903  28.092  52.865  1.00  0.00     0.177 HD
BRANCH  12  14
HETATM   14  C9  UNL     1      -6.077  25.970  52.627  1.00  0.00     0.146 C 
BRANCH  14  15
HETATM   15  C10 UNL     1      -7.431  25.519  53.072  1.00  0.00    -0.035 C 
HETATM   16  C11 UNL     1      -7.333  24.775  54.381  1.00  0.00     0.016 C 
HETATM   17  C12 UNL     1      -8.360  26.713  53.260  1.00  0.00     0.016 C 
HETATM   18  C13 UNL     1      -8.048  24.618  52.025  1.00  0.00     0.016 C 
ENDBRANCH  14  15
ENDBRANCH  12  14
ENDBRANCH   9  12
BRANCH   1  19
HETATM   19  N1  UNL     1      -4.409  28.882  57.338  1.00  0.00    -0.223 N 
ATOM     20  H1  UNL     1      -3.535  29.306  57.649  1.00  0.00     0.177 HD
BRANCH  19  21
HETATM   21  C3  UNL     1      -5.612  29.326  57.974  1.00  0.00     0.164 C 
BRANCH  21  22
HETATM   22  C2  UNL     1      -5.763  28.545  59.255  1.00  0.00     0.187 C 
BRANCH  22  23
HETATM   23  O1  UNL     1      -7.029  28.006  59.313  1.00  0.00    -0.394 OA
HETATM   24  C1  UNL     1      -7.388  27.364  58.151  1.00  0.00     0.201 C 
ENDBRANCH  22  23
ENDBRANCH  21  22
ENDBRANCH  19  21
ENDBRANCH   1  19
BRANCH   5  25
HETATM   25  C6  UNL     1      -1.701  24.747  56.876  1.00  0.00     0.153 C 
BRANCH  25  26
HETATM   26  C7  UNL     1      -0.275  24.759  56.307  1.00  0.00     0.135 C 
HETATM   27 CL1  UNL     1      -0.399  24.646  54.550  1.00  0.00    -0.129 Cl
ENDBRANCH  25  26
ENDBRANCH   5  25
TORSDOF 9
ENDMDL
MODEL 4
REMARK VINA RESULT: -6.322216281      4.137      6.411
REMARK  9 active torsions:
REMARK  status: ('A' for Active; 'I' for Inactive)
REMARK    1  A    between atoms: O1_2  and  C2_3 
REMARK    2  A    between atoms: C2_3  and  C3_4 
REMARK    3  A    between atoms: C3_4  and  N1_5 
REMARK    4  A    between atoms: N1_5  and  C4_7 
REMARK    5  A    between atoms: N3_11  and  C6_13 
REMARK    6  A    between atoms: C6_13  and  C7_14 
REMARK    7  A    between atoms: C8_18  and  N5_19 
REMARK    8  A    between atoms: N5_19  and  C9_21 
REMARK    9  A    between atoms: C9_21  and  C10_22 
ROOT
HETATM    1  C4  UNL     1      -3.317  26.260  55.757  1.00  0.00     0.707 A 
HETATM    2  N2  UNL     1      -3.885  27.050  56.674  1.00  0.00    -0.022 N 
ATOM      3  H2  UNL     1      -3.887  26.773  57.656  1.00  0.00     0.203 HD
HETATM    4  C5  UNL     1      -4.451  28.205  56.302  1.00  0.00     0.707 A 
HETATM    5  N3  UNL     1      -5.005  28.993  57.134  1.00  0.00    -0.224 N 
ATOM      6  H3  UNL     1      -5.406  29.846  56.743  1.00  0.00     0.177 HD
HETATM    7  N4  UNL     1      -4.462  28.597  54.992  1.00  0.00    -0.022 N 
ATOM      8  H4  UNL     1      -4.891  29.475  54.701  1.00  0.00     0.203 HD
HETATM    9  C8  UNL     1      -3.881  27.774  54.107  1.00  0.00     0.707 A 
HETATM   10  N6  UNL     1      -3.305  26.604  54.470  1.00  0.00    -0.022 N 
ATOM     11  H6  UNL     1      -2.872  25.999  53.774  1.00  0.00     0.203 HD
ENDROOT
BRANCH   9  12
HETATM   12  N5  UNL     1      -3.879  28.129  52.844  1.00  0.00    -0.224 N 
ATOM     13  H5  UNL     1      -3.744  27.431  52.112  1.00  0.00     0.177 HD
BRANCH  12  14
HETATM   14  C9  UNL     1      -4.068  29.511  52.506  1.00  0.00     0.146 C 
BRANCH  14  15
HETATM   15  C10 UNL     1      -3.044  30.025  51.545  1.00  0.00    -0.035 C 
HETATM   16  C11 UNL     1      -2.008  28.965  51.265  1.00  0.00     0.016 C 
HETATM   17  C12 UNL     1      -3.699  30.426  50.228  1.00  0.00     0.016 C 
HETATM   18  C13 UNL     1      -2.368  31.253  52.114  1.00  0.00     0.016 C 
ENDBRANCH  14  15
ENDBRANCH  12  14
ENDBRANCH   9  12
BRANCH   1  19
HETATM   19  N1  UNL     1      -2.786  25.162  56.167  1.00  0.00    -0.223 N 
ATOM     20  H1  UNL     1      -3.270  24.296  55.931  1.00  0.00     0.177 HD
BRANCH  19  21
HETATM   21  C3  UNL     1      -1.577  25.049  56.924  1.00  0.00     0.164 C 
BRANCH  21  22
HETATM   22  C2  UNL     1      -0.454  24.796  55.951  1.00  0.00     0.187 C 
BRANCH  22  23
HETATM   23  O1  UNL     1      -0.977  24.354  54.756  1.00  0.00    -0.394 OA
HETATM   24  C1  UNL     1      -0.187  24.679  53.678  1.00  0.00     0.201 C 
ENDBRANCH  22  23
ENDBRANCH  21  22
ENDBRANCH  19  21
ENDBRANCH   1  19
BRANCH   5  25
HETATM   25  C6  UNL     1      -5.135  28.830  58.550  1.00  0.00     0.153 C 
BRANCH  25  26
HETATM   26  C7  UNL     1      -6.641  28.778  58.845  1.00  0.00     0.135 C 
HETATM   27 CL1  UNL     1      -7.278  27.300  58.120  1.00  0.00    -0.129 Cl
ENDBRANCH  25  26
ENDBRANCH   5  25
TORSDOF 9
ENDMDL
MODEL 5
REMARK VINA RESULT: -6.174590629      3.648      6.930
REMARK  9 active torsions:
REMARK  status: ('A' for Active; 'I' for Inactive)
REMARK    1  A    between atoms: O1_2  and  C2_3 
REMARK    2  A    between atoms: C2_3  and  C3_4 
REMARK    3  A    between atoms: C3_4  and  N1_5 
REMARK    4  A    between atoms: N1_5  and  C4_7 
REMARK    5  A    between atoms: N3_11  and  C6_13 
REMARK    6  A    between atoms: C6_13  and  C7_14 
REMARK    7  A    between atoms: C8_18  and  N5_19 
REMARK    8  A    between atoms: N5_19  and  C9_21 
REMARK    9  A    between atoms: C9_21  and  C10_22 
ROOT
HETATM    1  C4  UNL     1      -3.336  26.406  55.267  1.00  0.00     0.707 A 
HETATM    2  N2  UNL     1      -4.352  27.215  55.587  1.00  0.00    -0.022 N 
ATOM      3  H2  UNL     1      -4.815  27.120  56.491  1.00  0.00     0.203 HD
HETATM    4  C5  UNL     1      -4.759  28.150  54.719  1.00  0.00     0.707 A 
HETATM    5  N3  UNL     1      -5.720  28.945  54.973  1.00  0.00    -0.224 N 
ATOM      6  H3  UNL     1      -5.949  29.619  54.242  1.00  0.00     0.177 HD
HETATM    7  N4  UNL     1      -4.154  28.296  53.502  1.00  0.00    -0.022 N 
ATOM      8  H4  UNL     1      -4.459  29.005  52.836  1.00  0.00     0.203 HD
HETATM    9  C8  UNL     1      -3.141  27.463  53.224  1.00  0.00     0.707 A 
HETATM   10  N6  UNL     1      -2.720  26.514  54.091  1.00  0.00    -0.022 N 
ATOM     11  H6  UNL     1      -1.946  25.895  53.851  1.00  0.00     0.203 HD
ENDROOT
BRANCH   9  12
HETATM   12  N5  UNL     1      -2.545  27.584  52.061  1.00  0.00    -0.224 N 
ATOM     13  H5  UNL     1      -2.832  28.313  51.407  1.00  0.00     0.177 HD
BRANCH  12  14
HETATM   14  C9  UNL     1      -1.485  26.677  51.721  1.00  0.00     0.146 C 
BRANCH  14  15
HETATM   15  C10 UNL     1      -0.395  27.322  50.926  1.00  0.00    -0.035 C 
HETATM   16  C11 UNL     1      -0.452  28.822  51.077  1.00  0.00     0.016 C 
HETATM   17  C12 UNL     1       0.971  26.837  51.398  1.00  0.00     0.016 C 
HETATM   18  C13 UNL     1      -0.532  26.957  49.465  1.00  0.00     0.016 C 
ENDBRANCH  14  15
ENDBRANCH  12  14
ENDBRANCH   9  12
BRANCH   1  19
HETATM   19  N1  UNL     1      -2.983  25.525  56.136  1.00  0.00    -0.223 N 
ATOM     20  H1  UNL     1      -3.644  24.773  56.329  1.00  0.00     0.177 HD
BRANCH  19  21
HETATM   21  C3  UNL     1      -1.746  25.508  56.854  1.00  0.00     0.164 C 
BRANCH  21  22
HETATM   22  C2  UNL     1      -0.992  24.273  56.432  1.00  0.00     0.187 C 
BRANCH  22  23
HETATM   23  O1  UNL     1       0.090  24.640  55.664  1.00  0.00    -0.394 OA
HETATM   24  C1  UNL     1      -0.098  24.388  54.324  1.00  0.00     0.201 C 
ENDBRANCH  22  23
ENDBRANCH  21  22
ENDBRANCH  19  21
ENDBRANCH   1  19
BRANCH   5  25
HETATM   25  C6  UNL     1      -6.519  29.011  56.159  1.00  0.00     0.153 C 
BRANCH  25  26
HETATM   26  C7  UNL     1      -7.891  28.426  55.792  1.00  0.00     0.135 C 
HETATM   27 CL1  UNL     1      -7.778  26.670  55.925  1.00  0.00    -0.129 Cl
ENDBRANCH  25  26
ENDBRANCH   5  25
TORSDOF 9
ENDMDL
