MODEL 1
REMARK VINA RESULT: -7.002774224      0.000      0.000
REMARK  8 active torsions:
REMARK  status: ('A' for Active; 'I' for Inactive)
REMARK    1  A    between atoms: C2_2  and  C3_3 
REMARK    2  A    between atoms: C3_3  and  C4_4 
REMARK    3  A    between atoms: C4_4  and  C5_5 
REMARK    4  A    between atoms: C4_4  and  N2_10 
REMARK    5  A    between atoms: C5_5  and  N1_6 
REMARK    6  A    between atoms: C8_13  and  C9_14 
REMARK    7  A    between atoms: C9_14  and  N3_15 
REMARK       I    between atoms: N3_15  and  C10_17 
REMARK    8  A    between atoms: C10_17  and  C11_19 
ROOT
HETATM    1  N2  UNL     1      -2.771  25.184  53.523  1.00  0.00    -0.406 N 
HETATM    2  C6  UNL     1      -3.265  25.076  52.216  1.00  0.00     0.118 C 
HETATM    3  C7  UNL     1      -4.783  24.893  52.333  1.00  0.00     0.027 C 
HETATM    4  C8  UNL     1      -5.004  24.462  53.753  1.00  0.00     0.022 C 
HETATM    5  C16 UNL     1      -3.782  25.034  54.483  1.00  0.00     0.123 C 
ENDROOT
BRANCH   4   6
HETATM    6  C9  UNL     1      -6.275  25.038  54.286  1.00  0.00     0.129 C 
BRANCH   6   7
HETATM    7  N3  UNL     1      -6.006  26.113  55.204  1.00  0.00    -0.358 N 
HETATM    8  C10 UNL     1      -6.980  26.789  55.964  1.00  0.00     0.257 C 
HETATM    9  O1  UNL     1      -8.186  26.460  55.847  1.00  0.00    -0.270 OA
ATOM     10  H3  UNL     1      -5.037  26.410  55.312  1.00  0.00     0.162 HD
BRANCH   8  11
HETATM   11  C11 UNL     1      -6.609  27.866  56.896  1.00  0.00     0.186 C 
HETATM   12  F1  UNL     1      -7.134  29.065  56.421  1.00  0.00    -0.233 F 
HETATM   13  C12 UNL     1      -7.152  27.581  58.276  1.00  0.00     0.081 C 
HETATM   14  C13 UNL     1      -6.740  28.677  59.246  1.00  0.00     0.236 C 
HETATM   15  N4  UNL     1      -5.972  29.657  58.508  1.00  0.00    -0.075 N 
HETATM   16  C14 UNL     1      -4.757  29.037  58.035  1.00  0.00     0.236 C 
ATOM     17  H42 UNL     1      -6.510  30.086  57.754  1.00  0.00     0.277 HD
ATOM     18  H41 UNL     1      -5.792  30.501  59.052  1.00  0.00     0.277 HD
HETATM   19  C15 UNL     1      -5.078  27.962  57.017  1.00  0.00     0.081 C 
ENDBRANCH   8  11
ENDBRANCH   6   7
ENDBRANCH   4   6
BRANCH   1  20
HETATM   20  C4  UNL     1      -1.443  24.883  53.845  1.00  0.00     0.104 C 
BRANCH  20  21
HETATM   21  C3  UNL     1      -0.565  25.639  52.851  1.00  0.00     0.026 C 
BRANCH  21  22
HETATM   22  C2  UNL     1       0.729  24.988  52.539  1.00  0.00    -0.002 C 
HETATM   23  C1  UNL     1       1.653  25.836  51.707  1.00  0.00     0.005 C 
ENDBRANCH  21  22
ENDBRANCH  20  21
BRANCH  20  24
HETATM   24  C5  UNL     1      -1.036  25.175  55.262  1.00  0.00     0.254 C 
BRANCH  24  25
HETATM   25  N1  UNL     1      -0.557  23.956  55.873  1.00  0.00    -0.077 N 
ATOM     26  H13 UNL     1      -1.314  23.315  56.108  1.00  0.00     0.274 HD
ATOM     27  H12 UNL     1      -0.064  23.357  55.210  1.00  0.00     0.274 HD
ATOM     28  H11 UNL     1       0.016  24.196  56.683  1.00  0.00     0.274 HD
ENDBRANCH  24  25
ENDBRANCH  20  24
ENDBRANCH   1  20
TORSDOF 8
ENDMDL
MODEL 2
REMARK VINA RESULT: -6.978313179      3.107      4.762
REMARK  8 active torsions:
REMARK  status: ('A' for Active; 'I' for Inactive)
REMARK    1  A    between atoms: C2_2  and  C3_3 
REMARK    2  A    between atoms: C3_3  and  C4_4 
REMARK    3  A    between atoms: C4_4  and  C5_5 
REMARK    4  A    between atoms: C4_4  and  N2_10 
REMARK    5  A    between atoms: C5_5  and  N1_6 
REMARK    6  A    between atoms: C8_13  and  C9_14 
REMARK    7  A    between atoms: C9_14  and  N3_15 
REMARK       I    between atoms: N3_15  and  C10_17 
REMARK    8  A    between atoms: C10_17  and  C11_19 
ROOT
HETATM    1  N2  UNL     1       0.866  25.385  52.473  1.00  0.00    -0.406 N 
HETATM    2  C6  UNL     1       0.099  26.290  51.726  1.00  0.00     0.118 C 
HETATM    3  C7  UNL     1      -1.308  26.282  52.337  1.00  0.00     0.027 C 
HETATM    4  C8  UNL     1      -1.366  25.016  53.139  1.00  0.00     0.022 C 
HETATM    5  C16 UNL     1       0.108  24.743  53.464  1.00  0.00     0.123 C 
ENDROOT
BRANCH   4   6
HETATM    6  C9  UNL     1      -2.168  25.218  54.382  1.00  0.00     0.129 C 
BRANCH   6   7
HETATM    7  N3  UNL     1      -3.462  25.769  54.076  1.00  0.00    -0.358 N 
HETATM    8  C10 UNL     1      -4.611  25.013  53.773  1.00  0.00     0.257 C 
HETATM    9  O1  UNL     1      -4.532  23.761  53.747  1.00  0.00    -0.270 OA
ATOM     10  H3  UNL     1      -3.554  26.784  54.078  1.00  0.00     0.162 HD
BRANCH   8  11
HETATM   11  C11 UNL     1      -5.900  25.664  53.492  1.00  0.00     0.186 C 
HETATM   12  F1  UNL     1      -5.661  26.833  52.774  1.00  0.00    -0.233 F 
HETATM   13  C12 UNL     1      -6.793  24.745  52.691  1.00  0.00     0.081 C 
HETATM   14  C13 UNL     1      -8.138  25.406  52.430  1.00  0.00     0.236 C 
HETATM   15  N4  UNL     1      -8.107  26.725  53.024  1.00  0.00    -0.075 N 
HETATM   16  C14 UNL     1      -7.977  26.589  54.456  1.00  0.00     0.236 C 
ATOM     17  H42 UNL     1      -7.379  27.316  52.621  1.00  0.00     0.277 HD
ATOM     18  H41 UNL     1      -8.913  27.291  52.758  1.00  0.00     0.277 HD
HETATM   19  C15 UNL     1      -6.633  25.984  54.807  1.00  0.00     0.081 C 
ENDBRANCH   8  11
ENDBRANCH   6   7
ENDBRANCH   4   6
BRANCH   1  20
HETATM   20  C4  UNL     1       2.010  24.770  51.953  1.00  0.00     0.104 C 
BRANCH  20  21
HETATM   21  C3  UNL     1       1.827  23.266  52.138  1.00  0.00     0.026 C 
BRANCH  21  22
HETATM   22  C2  UNL     1       1.805  22.479  50.882  1.00  0.00    -0.002 C 
HETATM   23  C1  UNL     1       1.742  20.992  51.097  1.00  0.00     0.005 C 
ENDBRANCH  21  22
ENDBRANCH  20  21
BRANCH  20  24
HETATM   24  C5  UNL     1       2.336  25.107  50.525  1.00  0.00     0.254 C 
BRANCH  24  25
HETATM   25  N1  UNL     1       3.479  25.992  50.501  1.00  0.00    -0.077 N 
ATOM     26  H13 UNL     1       4.247  25.650  51.079  1.00  0.00     0.274 HD
ATOM     27  H12 UNL     1       3.960  25.982  49.602  1.00  0.00     0.274 HD
ATOM     28  H11 UNL     1       3.176  26.928  50.771  1.00  0.00     0.274 HD
ENDBRANCH  24  25
ENDBRANCH  20  24
ENDBRANCH   1  20
TORSDOF 8
ENDMDL
MODEL 3
REMARK VINA RESULT: -6.894176340      3.562      7.803
REMARK  8 active torsions:
REMARK  status: ('A' for Active; 'I' for Inactive)
REMARK    1  A    between atoms: C2_2  and  C3_3 
REMARK    2  A    between atoms: C3_3  and  C4_4 
REMARK    3  A    between atoms: C4_4  and  C5_5 
REMARK    4  A    between atoms: C4_4  and  N2_10 
REMARK    5  A    between atoms: C5_5  and  N1_6 
REMARK    6  A    between atoms: C8_13  and  C9_14 
REMARK    7  A    between atoms: C9_14  and  N3_15 
REMARK       I    between atoms: N3_15  and  C10_17 
REMARK    8  A    between atoms: C10_17  and  C11_19 
ROOT
HETATM    1  N2  UNL     1      -5.003  28.288  55.992  1.00  0.00    -0.406 N 
HETATM    2  C6  UNL     1      -4.133  27.190  56.008  1.00  0.00     0.118 C 
HETATM    3  C7  UNL     1      -3.586  27.043  54.583  1.00  0.00     0.027 C 
HETATM    4  C8  UNL     1      -4.542  27.822  53.728  1.00  0.00     0.022 C 
HETATM    5  C16 UNL     1      -5.135  28.840  54.710  1.00  0.00     0.123 C 
ENDROOT
BRANCH   4   6
HETATM    6  C9  UNL     1      -3.817  28.500  52.612  1.00  0.00     0.129 C 
BRANCH   6   7
HETATM    7  N3  UNL     1      -2.564  27.846  52.340  1.00  0.00    -0.358 N 
HETATM    8  C10 UNL     1      -1.686  28.187  51.294  1.00  0.00     0.257 C 
HETATM    9  O1  UNL     1      -1.995  29.119  50.513  1.00  0.00    -0.270 OA
ATOM     10  H3  UNL     1      -2.292  27.077  52.951  1.00  0.00     0.162 HD
BRANCH   8  11
HETATM   11  C11 UNL     1      -0.412  27.473  51.104  1.00  0.00     0.186 C 
HETATM   12  F1  UNL     1       0.634  28.349  51.381  1.00  0.00    -0.233 F 
HETATM   13  C12 UNL     1      -0.335  26.277  52.024  1.00  0.00     0.081 C 
HETATM   14  C13 UNL     1       0.966  25.521  51.803  1.00  0.00     0.236 C 
HETATM   15  N4  UNL     1       1.720  26.223  50.787  1.00  0.00    -0.075 N 
HETATM   16  C14 UNL     1       0.989  26.170  49.543  1.00  0.00     0.236 C 
ATOM     17  H42 UNL     1       1.951  27.178  51.063  1.00  0.00     0.277 HD
ATOM     18  H41 UNL     1       2.672  25.868  50.695  1.00  0.00     0.277 HD
HETATM   19  C15 UNL     1      -0.305  26.950  49.661  1.00  0.00     0.081 C 
ENDBRANCH   8  11
ENDBRANCH   6   7
ENDBRANCH   4   6
BRANCH   1  20
HETATM   20  C4  UNL     1      -6.029  28.440  56.933  1.00  0.00     0.104 C 
BRANCH  20  21
HETATM   21  C3  UNL     1      -6.868  27.167  56.881  1.00  0.00     0.026 C 
BRANCH  21  22
HETATM   22  C2  UNL     1      -7.966  27.181  55.885  1.00  0.00    -0.002 C 
HETATM   23  C1  UNL     1      -7.768  26.220  54.745  1.00  0.00     0.005 C 
ENDBRANCH  21  22
ENDBRANCH  20  21
BRANCH  20  24
HETATM   24  C5  UNL     1      -5.583  28.740  58.337  1.00  0.00     0.254 C 
BRANCH  24  25
HETATM   25  N1  UNL     1      -6.510  28.131  59.263  1.00  0.00    -0.077 N 
ATOM     26  H13 UNL     1      -7.411  28.609  59.282  1.00  0.00     0.274 HD
ATOM     27  H12 UNL     1      -6.839  27.220  58.941  1.00  0.00     0.274 HD
ATOM     28  H11 UNL     1      -6.075  28.086  60.184  1.00  0.00     0.274 HD
ENDBRANCH  24  25
ENDBRANCH  20  24
ENDBRANCH   1  20
TORSDOF 8
ENDMDL
MODEL 4
REMARK VINA RESULT: -6.873367167      2.991      4.602
REMARK  8 active torsions:
REMARK  status: ('A' for Active; 'I' for Inactive)
REMARK    1  A    between atoms: C2_2  and  C3_3 
REMARK    2  A    between atoms: C3_3  and  C4_4 
REMARK    3  A    between atoms: C4_4  and  C5_5 
REMARK    4  A    between atoms: C4_4  and  N2_10 
REMARK    5  A    between atoms: C5_5  and  N1_6 
REMARK    6  A    between atoms: C8_13  and  C9_14 
REMARK    7  A    between atoms: C9_14  and  N3_15 
REMARK       I    between atoms: N3_15  and  C10_17 
REMARK    8  A    between atoms: C10_17  and  C11_19 
ROOT
HETATM    1  N2  UNL     1      -0.569  25.554  52.426  1.00  0.00    -0.406 N 
HETATM    2  C6  UNL     1       0.328  24.775  53.168  1.00  0.00     0.118 C 
HETATM    3  C7  UNL     1      -0.327  24.532  54.533  1.00  0.00     0.027 C 
HETATM    4  C8  UNL     1      -1.394  25.581  54.634  1.00  0.00     0.022 C 
HETATM    5  C16 UNL     1      -1.709  25.897  53.167  1.00  0.00     0.123 C 
ENDROOT
BRANCH   4   6
HETATM    6  C9  UNL     1      -2.593  25.046  55.345  1.00  0.00     0.129 C 
BRANCH   6   7
HETATM    7  N3  UNL     1      -3.801  25.640  54.836  1.00  0.00    -0.358 N 
HETATM    8  C10 UNL     1      -4.844  24.936  54.204  1.00  0.00     0.257 C 
HETATM    9  O1  UNL     1      -4.738  23.696  54.046  1.00  0.00    -0.270 OA
ATOM     10  H3  UNL     1      -3.909  26.648  54.940  1.00  0.00     0.162 HD
BRANCH   8  11
HETATM   11  C11 UNL     1      -6.055  25.627  53.733  1.00  0.00     0.186 C 
HETATM   12  F1  UNL     1      -5.671  26.745  52.997  1.00  0.00    -0.233 F 
HETATM   13  C12 UNL     1      -6.885  24.707  52.869  1.00  0.00     0.081 C 
HETATM   14  C13 UNL     1      -8.153  25.410  52.410  1.00  0.00     0.236 C 
HETATM   15  N4  UNL     1      -8.131  26.756  52.941  1.00  0.00    -0.075 N 
HETATM   16  C14 UNL     1      -8.187  26.690  54.383  1.00  0.00     0.236 C 
ATOM     17  H42 UNL     1      -7.331  27.294  52.607  1.00  0.00     0.277 HD
ATOM     18  H41 UNL     1      -8.869  27.342  52.549  1.00  0.00     0.277 HD
HETATM   19  C15 UNL     1      -6.928  26.047  54.928  1.00  0.00     0.081 C 
ENDBRANCH   8  11
ENDBRANCH   6   7
ENDBRANCH   4   6
BRANCH   1  20
HETATM   20  C4  UNL     1      -0.152  26.361  51.360  1.00  0.00     0.104 C 
BRANCH  20  21
HETATM   21  C3  UNL     1      -1.070  27.580  51.344  1.00  0.00     0.026 C 
BRANCH  21  22
HETATM   22  C2  UNL     1      -0.399  28.864  51.032  1.00  0.00    -0.002 C 
HETATM   23  C1  UNL     1      -1.218  30.079  51.374  1.00  0.00     0.005 C 
ENDBRANCH  21  22
ENDBRANCH  20  21
BRANCH  20  24
HETATM   24  C5  UNL     1       1.294  26.769  51.383  1.00  0.00     0.254 C 
BRANCH  24  25
HETATM   25  N1  UNL     1       1.954  26.218  50.221  1.00  0.00    -0.077 N 
ATOM     26  H13 UNL     1       2.750  25.631  50.468  1.00  0.00     0.274 HD
ATOM     27  H12 UNL     1       1.391  25.506  49.755  1.00  0.00     0.274 HD
ATOM     28  H11 UNL     1       2.213  26.981  49.595  1.00  0.00     0.274 HD
ENDBRANCH  24  25
ENDBRANCH  20  24
ENDBRANCH   1  20
TORSDOF 8
ENDMDL
MODEL 5
REMARK VINA RESULT: -6.815673173      4.245      7.223
REMARK  8 active torsions:
REMARK  status: ('A' for Active; 'I' for Inactive)
REMARK    1  A    between atoms: C2_2  and  C3_3 
REMARK    2  A    between atoms: C3_3  and  C4_4 
REMARK    3  A    between atoms: C4_4  and  C5_5 
REMARK    4  A    between atoms: C4_4  and  N2_10 
REMARK    5  A    between atoms: C5_5  and  N1_6 
REMARK    6  A    between atoms: C8_13  and  C9_14 
REMARK    7  A    between atoms: C9_14  and  N3_15 
REMARK       I    between atoms: N3_15  and  C10_17 
REMARK    8  A    between atoms: C10_17  and  C11_19 
ROOT
HETATM    1  N2  UNL     1      -4.091  27.604  55.795  1.00  0.00    -0.406 N 
HETATM    2  C6  UNL     1      -3.125  26.806  56.422  1.00  0.00     0.118 C 
HETATM    3  C7  UNL     1      -2.483  25.949  55.324  1.00  0.00     0.027 C 
HETATM    4  C8  UNL     1      -3.454  26.007  54.181  1.00  0.00     0.022 C 
HETATM    5  C16 UNL     1      -4.196  27.328  54.424  1.00  0.00     0.123 C 
ENDROOT
BRANCH   4   6
HETATM    6  C9  UNL     1      -2.729  26.022  52.876  1.00  0.00     0.129 C 
BRANCH   6   7
HETATM    7  N3  UNL     1      -2.479  27.371  52.442  1.00  0.00    -0.358 N 
HETATM    8  C10 UNL     1      -1.596  27.737  51.408  1.00  0.00     0.257 C 
HETATM    9  O1  UNL     1      -0.954  26.843  50.806  1.00  0.00    -0.270 OA
ATOM     10  H3  UNL     1      -2.979  28.120  52.921  1.00  0.00     0.162 HD
BRANCH   8  11
HETATM   11  C11 UNL     1      -1.420  29.146  51.018  1.00  0.00     0.186 C 
HETATM   12  F1  UNL     1      -0.136  29.549  51.377  1.00  0.00    -0.233 F 
HETATM   13  C12 UNL     1      -1.609  29.308  49.528  1.00  0.00     0.081 C 
HETATM   14  C13 UNL     1      -1.460  30.769  49.131  1.00  0.00     0.236 C 
HETATM   15  N4  UNL     1      -1.158  31.526  50.326  1.00  0.00    -0.075 N 
HETATM   16  C14 UNL     1      -2.286  31.449  51.225  1.00  0.00     0.236 C 
ATOM     17  H42 UNL     1      -0.287  31.226  50.767  1.00  0.00     0.277 HD
ATOM     18  H41 UNL     1      -0.889  32.488  50.121  1.00  0.00     0.277 HD
HETATM   19  C15 UNL     1      -2.472  30.027  51.713  1.00  0.00     0.081 C 
ENDBRANCH   8  11
ENDBRANCH   6   7
ENDBRANCH   4   6
BRANCH   1  20
HETATM   20  C4  UNL     1      -5.180  28.142  56.490  1.00  0.00     0.104 C 
BRANCH  20  21
HETATM   21  C3  UNL     1      -6.264  27.067  56.513  1.00  0.00     0.026 C 
BRANCH  21  22
HETATM   22  C2  UNL     1      -7.561  27.473  55.921  1.00  0.00    -0.002 C 
HETATM   23  C1  UNL     1      -7.927  26.714  54.675  1.00  0.00     0.005 C 
ENDBRANCH  21  22
ENDBRANCH  20  21
BRANCH  20  24
HETATM   24  C5  UNL     1      -4.883  28.643  57.875  1.00  0.00     0.254 C 
BRANCH  24  25
HETATM   25  N1  UNL     1      -5.553  27.794  58.834  1.00  0.00    -0.077 N 
ATOM     26  H13 UNL     1      -5.066  27.760  59.730  1.00  0.00     0.274 HD
ATOM     27  H12 UNL     1      -6.431  28.196  59.163  1.00  0.00     0.274 HD
ATOM     28  H11 UNL     1      -5.678  26.868  58.424  1.00  0.00     0.274 HD
ENDBRANCH  24  25
ENDBRANCH  20  24
ENDBRANCH   1  20
TORSDOF 8
ENDMDL
