MODEL 1
REMARK VINA RESULT: -8.608478880      0.000      0.000
REMARK  6 active torsions:
REMARK  status: ('A' for Active; 'I' for Inactive)
REMARK    1  A    between atoms: C2_2  and  O1_3 
REMARK    2  A    between atoms: C2_2  and  C3_5 
REMARK    3  A    between atoms: C2_2  and  C14_18 
REMARK    4  A    between atoms: C3_5  and  C4_6 
REMARK    5  A    between atoms: C5_7  and  C6_8 
REMARK    6  A    between atoms: C6_8  and  O2_9 
ROOT
HETATM    1  C1  UNL     1       0.580   6.600   3.671  1.00  0.00     0.047 C 
HETATM    2  C2  UNL     1       0.826   7.145   5.081  1.00  0.00     0.068 C 
ENDROOT
BRANCH   2   3
HETATM    3  O1  UNL     1       0.015   8.238   5.274  1.00  0.00    -0.389 OA
ATOM      4  H1  UNL     1       0.400   8.982   4.825  1.00  0.00     0.210 HD
ENDBRANCH   2   3
BRANCH   2   5
HETATM    5  C3  UNL     1       0.459   6.039   6.080  1.00  0.00     0.065 C 
BRANCH   5   6
HETATM    6  C4  UNL     1      -0.667   6.404   6.950  1.00  0.00    -0.025 C 
HETATM    7  C5  UNL     1      -1.000   5.686   7.992  1.00  0.00     0.007 C 
BRANCH   7   8
HETATM    8  C6  UNL     1      -2.138   6.025   8.898  1.00  0.00     0.082 C 
HETATM    9  C7  UNL     1      -2.446   7.474   8.715  1.00  0.00     0.043 C 
HETATM   10  C8  UNL     1      -2.755   8.187  10.008  1.00  0.00     0.003 C 
HETATM   11  C9  UNL     1      -3.549   7.277  10.908  1.00  0.00     0.001 C 
HETATM   12  C10 UNL     1      -2.625   6.170  11.362  1.00  0.00     0.012 C 
HETATM   13  C11 UNL     1      -1.739   5.645  10.286  1.00  0.00    -0.013 C 
HETATM   14  C12 UNL     1      -1.796   4.113  10.363  1.00  0.00     0.018 C 
HETATM   15  C13 UNL     1      -0.301   6.020  10.590  1.00  0.00     0.018 C 
BRANCH   8  16
HETATM   16  O2  UNL     1      -3.230   5.239   8.492  1.00  0.00    -0.385 OA
ATOM     17  H2  UNL     1      -2.872   4.435   8.133  1.00  0.00     0.211 HD
ENDBRANCH   8  16
ENDBRANCH   7   8
ENDBRANCH   5   6
ENDBRANCH   2   5
BRANCH   2  18
HETATM   18  C14 UNL     1       2.274   7.419   5.186  1.00  0.00     0.098 C 
HETATM   19  C15 UNL     1       2.836   7.936   3.856  1.00  0.00     0.094 C 
HETATM   20  C16 UNL     1       4.243   8.370   4.054  1.00  0.00     0.133 C 
HETATM   21  O3  UNL     1       5.076   8.016   3.250  1.00  0.00    -0.297 OA
HETATM   22  C17 UNL     1       4.589   9.200   5.188  1.00  0.00     0.079 C 
HETATM   23  C18 UNL     1       6.024   9.374   5.521  1.00  0.00     0.021 C 
HETATM   24  C21 UNL     1       4.127   8.452   6.460  1.00  0.00     0.088 C 
HETATM   25  C19 UNL     1       5.957   9.828   6.987  1.00  0.00     0.080 C 
HETATM   26  C20 UNL     1       4.579   9.415   7.463  1.00  0.00     0.143 C 
HETATM   27  O4  UNL     1       4.015   9.810   8.447  1.00  0.00    -0.297 OA
HETATM   28  C22 UNL     1       4.797   7.113   6.547  1.00  0.00     0.032 C 
HETATM   29  C23 UNL     1       2.658   8.357   6.277  1.00  0.00     0.150 C 
HETATM   30  O5  UNL     1       1.898   8.972   6.939  1.00  0.00    -0.296 OA
ENDBRANCH   2  18
TORSDOF 6
ENDMDL
MODEL 2
REMARK VINA RESULT: -8.480270940      2.021      4.119
REMARK  6 active torsions:
REMARK  status: ('A' for Active; 'I' for Inactive)
REMARK    1  A    between atoms: C2_2  and  O1_3 
REMARK    2  A    between atoms: C2_2  and  C3_5 
REMARK    3  A    between atoms: C2_2  and  C14_18 
REMARK    4  A    between atoms: C3_5  and  C4_6 
REMARK    5  A    between atoms: C5_7  and  C6_8 
REMARK    6  A    between atoms: C6_8  and  O2_9 
ROOT
HETATM    1  C1  UNL     1       4.941   8.380   9.018  1.00  0.00     0.047 C 
HETATM    2  C2  UNL     1       3.560   7.723   8.938  1.00  0.00     0.068 C 
ENDROOT
BRANCH   2   3
HETATM    3  O1  UNL     1       3.687   6.396   9.276  1.00  0.00    -0.389 OA
ATOM      4  H1  UNL     1       2.826   6.056   9.489  1.00  0.00     0.210 HD
ENDBRANCH   2   3
BRANCH   2   5
HETATM    5  C3  UNL     1       2.645   8.435   9.943  1.00  0.00     0.065 C 
BRANCH   5   6
HETATM    6  C4  UNL     1       1.723   7.517  10.626  1.00  0.00    -0.025 C 
HETATM    7  C5  UNL     1       0.446   7.475  10.339  1.00  0.00     0.007 C 
BRANCH   7   8
HETATM    8  C6  UNL     1      -0.521   6.557  11.012  1.00  0.00     0.082 C 
HETATM    9  C7  UNL     1      -0.475   5.249  10.296  1.00  0.00     0.043 C 
HETATM   10  C8  UNL     1      -1.835   4.622  10.110  1.00  0.00     0.003 C 
HETATM   11  C9  UNL     1      -2.676   4.869  11.336  1.00  0.00     0.001 C 
HETATM   12  C10 UNL     1      -3.002   6.345  11.372  1.00  0.00     0.012 C 
HETATM   13  C11 UNL     1      -1.857   7.224  11.005  1.00  0.00    -0.013 C 
HETATM   14  C12 UNL     1      -1.800   8.348  12.048  1.00  0.00     0.018 C 
HETATM   15  C13 UNL     1      -2.148   7.904   9.681  1.00  0.00     0.018 C 
BRANCH   8  16
HETATM   16  O2  UNL     1      -0.081   6.403  12.338  1.00  0.00    -0.385 OA
ATOM     17  H2  UNL     1       0.738   6.880  12.414  1.00  0.00     0.211 HD
ENDBRANCH   8  16
ENDBRANCH   7   8
ENDBRANCH   5   6
ENDBRANCH   2   5
BRANCH   2  18
HETATM   18  C14 UNL     1       3.049   7.970   7.573  1.00  0.00     0.098 C 
HETATM   19  C15 UNL     1       4.198   8.231   6.592  1.00  0.00     0.094 C 
HETATM   20  C16 UNL     1       3.658   8.291   5.209  1.00  0.00     0.133 C 
HETATM   21  O3  UNL     1       4.015   9.195   4.488  1.00  0.00    -0.297 OA
HETATM   22  C17 UNL     1       2.728   7.280   4.753  1.00  0.00     0.079 C 
HETATM   23  C18 UNL     1       1.989   7.522   3.490  1.00  0.00     0.021 C 
HETATM   24  C21 UNL     1       1.538   7.274   5.741  1.00  0.00     0.088 C 
HETATM   25  C19 UNL     1       0.801   6.557   3.628  1.00  0.00     0.080 C 
HETATM   26  C20 UNL     1       0.727   6.236   5.107  1.00  0.00     0.143 C 
HETATM   27  O4  UNL     1       0.127   5.326   5.611  1.00  0.00    -0.297 OA
HETATM   28  C22 UNL     1       0.890   8.625   5.779  1.00  0.00     0.032 C 
HETATM   29  C23 UNL     1       2.174   6.896   7.027  1.00  0.00     0.150 C 
HETATM   30  O5  UNL     1       1.988   5.849   7.540  1.00  0.00    -0.296 OA
ENDBRANCH   2  18
TORSDOF 6
ENDMDL
MODEL 3
REMARK VINA RESULT: -8.463716019      1.002      1.731
REMARK  6 active torsions:
REMARK  status: ('A' for Active; 'I' for Inactive)
REMARK    1  A    between atoms: C2_2  and  O1_3 
REMARK    2  A    between atoms: C2_2  and  C3_5 
REMARK    3  A    between atoms: C2_2  and  C14_18 
REMARK    4  A    between atoms: C3_5  and  C4_6 
REMARK    5  A    between atoms: C5_7  and  C6_8 
REMARK    6  A    between atoms: C6_8  and  O2_9 
ROOT
HETATM    1  C1  UNL     1       0.480   6.785   3.900  1.00  0.00     0.047 C 
HETATM    2  C2  UNL     1       0.881   7.015   5.360  1.00  0.00     0.068 C 
ENDROOT
BRANCH   2   3
HETATM    3  O1  UNL     1       0.070   7.993   5.887  1.00  0.00    -0.389 OA
ATOM      4  H1  UNL     1      -0.400   7.627   6.627  1.00  0.00     0.210 HD
ENDBRANCH   2   3
BRANCH   2   5
HETATM    5  C3  UNL     1       0.670   5.697   6.116  1.00  0.00     0.065 C 
BRANCH   5   6
HETATM    6  C4  UNL     1       0.442   5.892   7.555  1.00  0.00    -0.025 C 
HETATM    7  C5  UNL     1      -0.700   5.597   8.123  1.00  0.00     0.007 C 
BRANCH   7   8
HETATM    8  C6  UNL     1      -0.967   5.782   9.580  1.00  0.00     0.082 C 
HETATM    9  C7  UNL     1      -1.452   4.479  10.120  1.00  0.00     0.043 C 
HETATM   10  C8  UNL     1      -2.587   4.625  11.104  1.00  0.00     0.003 C 
HETATM   11  C9  UNL     1      -2.359   5.845  11.960  1.00  0.00     0.001 C 
HETATM   12  C10 UNL     1      -2.539   7.057  11.075  1.00  0.00     0.012 C 
HETATM   13  C11 UNL     1      -1.933   6.913   9.723  1.00  0.00    -0.013 C 
HETATM   14  C12 UNL     1      -1.154   8.203   9.437  1.00  0.00     0.018 C 
HETATM   15  C13 UNL     1      -3.035   6.857   8.681  1.00  0.00     0.018 C 
BRANCH   8  16
HETATM   16  O2  UNL     1       0.256   6.134  10.178  1.00  0.00    -0.385 OA
ATOM     17  H2  UNL     1       0.066   6.815  10.814  1.00  0.00     0.211 HD
ENDBRANCH   8  16
ENDBRANCH   7   8
ENDBRANCH   5   6
ENDBRANCH   2   5
BRANCH   2  18
HETATM   18  C14 UNL     1       2.324   7.337   5.361  1.00  0.00     0.098 C 
HETATM   19  C15 UNL     1       2.783   7.814   3.979  1.00  0.00     0.094 C 
HETATM   20  C16 UNL     1       4.185   8.300   4.068  1.00  0.00     0.133 C 
HETATM   21  O3  UNL     1       4.977   7.937   3.227  1.00  0.00    -0.297 OA
HETATM   22  C17 UNL     1       4.574   9.186   5.144  1.00  0.00     0.079 C 
HETATM   23  C18 UNL     1       6.021   9.417   5.377  1.00  0.00     0.021 C 
HETATM   24  C21 UNL     1       4.218   8.478   6.472  1.00  0.00     0.088 C 
HETATM   25  C19 UNL     1       6.031   9.930   6.825  1.00  0.00     0.080 C 
HETATM   26  C20 UNL     1       4.700   9.496   7.404  1.00  0.00     0.143 C 
HETATM   27  O4  UNL     1       4.186   9.914   8.405  1.00  0.00    -0.297 OA
HETATM   28  C22 UNL     1       4.936   7.165   6.568  1.00  0.00     0.032 C 
HETATM   29  C23 UNL     1       2.744   8.331   6.387  1.00  0.00     0.150 C 
HETATM   30  O5  UNL     1       2.007   8.950   7.072  1.00  0.00    -0.296 OA
ENDBRANCH   2  18
TORSDOF 6
ENDMDL
MODEL 4
REMARK VINA RESULT: -8.363200958      1.215      1.759
REMARK  6 active torsions:
REMARK  status: ('A' for Active; 'I' for Inactive)
REMARK    1  A    between atoms: C2_2  and  O1_3 
REMARK    2  A    between atoms: C2_2  and  C3_5 
REMARK    3  A    between atoms: C2_2  and  C14_18 
REMARK    4  A    between atoms: C3_5  and  C4_6 
REMARK    5  A    between atoms: C5_7  and  C6_8 
REMARK    6  A    between atoms: C6_8  and  O2_9 
ROOT
HETATM    1  C1  UNL     1       0.533   6.765   4.071  1.00  0.00     0.047 C 
HETATM    2  C2  UNL     1       0.940   7.371   5.417  1.00  0.00     0.068 C 
ENDROOT
BRANCH   2   3
HETATM    3  O1  UNL     1       0.198   8.510   5.625  1.00  0.00    -0.389 OA
ATOM      4  H1  UNL     1      -0.271   8.418   6.446  1.00  0.00     0.210 HD
ENDBRANCH   2   3
BRANCH   2   5
HETATM    5  C3  UNL     1       0.628   6.338   6.508  1.00  0.00     0.065 C 
BRANCH   5   6
HETATM    6  C4  UNL     1       0.047   6.939   7.716  1.00  0.00    -0.025 C 
HETATM    7  C5  UNL     1       0.296   6.471   8.913  1.00  0.00     0.007 C 
BRANCH   7   8
HETATM    8  C6  UNL     1      -0.276   7.055  10.163  1.00  0.00     0.082 C 
HETATM    9  C7  UNL     1       0.830   7.165  11.158  1.00  0.00     0.043 C 
HETATM   10  C8  UNL     1       0.414   6.784  12.558  1.00  0.00     0.003 C 
HETATM   11  C9  UNL     1      -0.989   7.273  12.817  1.00  0.00     0.001 C 
HETATM   12  C10 UNL     1      -1.921   6.442  11.965  1.00  0.00     0.012 C 
HETATM   13  C11 UNL     1      -1.413   6.185  10.589  1.00  0.00    -0.013 C 
HETATM   14  C12 UNL     1      -2.571   6.459   9.621  1.00  0.00     0.018 C 
HETATM   15  C13 UNL     1      -1.091   4.710  10.438  1.00  0.00     0.018 C 
BRANCH   8  16
HETATM   16  O2  UNL     1      -0.762   8.331   9.830  1.00  0.00    -0.385 OA
ATOM     17  H2  UNL     1      -1.206   8.666  10.601  1.00  0.00     0.211 HD
ENDBRANCH   8  16
ENDBRANCH   7   8
ENDBRANCH   5   6
ENDBRANCH   2   5
BRANCH   2  18
HETATM   18  C14 UNL     1       2.402   7.582   5.365  1.00  0.00     0.098 C 
HETATM   19  C15 UNL     1       2.850   7.996   3.960  1.00  0.00     0.094 C 
HETATM   20  C16 UNL     1       4.287   8.374   3.995  1.00  0.00     0.133 C 
HETATM   21  O3  UNL     1       5.021   7.937   3.137  1.00  0.00    -0.297 OA
HETATM   22  C17 UNL     1       4.777   9.249   5.039  1.00  0.00     0.079 C 
HETATM   23  C18 UNL     1       6.244   9.373   5.221  1.00  0.00     0.021 C 
HETATM   24  C21 UNL     1       4.413   8.595   6.392  1.00  0.00     0.088 C 
HETATM   25  C19 UNL     1       6.341   9.911   6.657  1.00  0.00     0.080 C 
HETATM   26  C20 UNL     1       5.001   9.591   7.287  1.00  0.00     0.143 C 
HETATM   27  O4  UNL     1       4.553  10.065   8.294  1.00  0.00    -0.297 OA
HETATM   28  C22 UNL     1       5.032   7.234   6.494  1.00  0.00     0.032 C 
HETATM   29  C23 UNL     1       2.930   8.560   6.356  1.00  0.00     0.150 C 
HETATM   30  O5  UNL     1       2.265   9.246   7.051  1.00  0.00    -0.296 OA
ENDBRANCH   2  18
TORSDOF 6
ENDMDL
MODEL 5
REMARK VINA RESULT: -8.308882039      3.781      5.302
REMARK  6 active torsions:
REMARK  status: ('A' for Active; 'I' for Inactive)
REMARK    1  A    between atoms: C2_2  and  O1_3 
REMARK    2  A    between atoms: C2_2  and  C3_5 
REMARK    3  A    between atoms: C2_2  and  C14_18 
REMARK    4  A    between atoms: C3_5  and  C4_6 
REMARK    5  A    between atoms: C5_7  and  C6_8 
REMARK    6  A    between atoms: C6_8  and  O2_9 
ROOT
HETATM    1  C1  UNL     1       3.062   6.578   2.559  1.00  0.00     0.047 C 
HETATM    2  C2  UNL     1       2.290   7.464   3.541  1.00  0.00     0.068 C 
ENDROOT
BRANCH   2   3
HETATM    3  O1  UNL     1       1.936   8.626   2.896  1.00  0.00    -0.389 OA
ATOM      4  H1  UNL     1       1.362   8.405   2.172  1.00  0.00     0.210 HD
ENDBRANCH   2   3
BRANCH   2   5
HETATM    5  C3  UNL     1       1.030   6.700   3.969  1.00  0.00     0.065 C 
BRANCH   5   6
HETATM    6  C4  UNL     1       0.176   6.324   2.835  1.00  0.00    -0.025 C 
HETATM    7  C5  UNL     1      -1.130   6.297   2.928  1.00  0.00     0.007 C 
BRANCH   7   8
HETATM    8  C6  UNL     1      -2.030   5.920   1.797  1.00  0.00     0.082 C 
HETATM    9  C7  UNL     1      -2.152   7.107   0.901  1.00  0.00     0.043 C 
HETATM   10  C8  UNL     1      -3.553   7.323   0.383  1.00  0.00     0.003 C 
HETATM   11  C9  UNL     1      -4.192   5.990   0.088  1.00  0.00     0.001 C 
HETATM   12  C10 UNL     1      -4.438   5.303   1.413  1.00  0.00     0.012 C 
HETATM   13  C11 UNL     1      -3.320   5.448   2.385  1.00  0.00    -0.013 C 
HETATM   14  C12 UNL     1      -3.057   4.059   2.981  1.00  0.00     0.018 C 
HETATM   15  C13 UNL     1      -3.770   6.316   3.545  1.00  0.00     0.018 C 
BRANCH   8  16
HETATM   16  O2  UNL     1      -1.408   4.858   1.119  1.00  0.00    -0.385 OA
ATOM     17  H2  UNL     1      -1.935   4.677   0.349  1.00  0.00     0.211 HD
ENDBRANCH   8  16
ENDBRANCH   7   8
ENDBRANCH   5   6
ENDBRANCH   2   5
BRANCH   2  18
HETATM   18  C14 UNL     1       3.159   7.649   4.722  1.00  0.00     0.098 C 
HETATM   19  C15 UNL     1       4.397   8.481   4.372  1.00  0.00     0.094 C 
HETATM   20  C16 UNL     1       5.144   8.797   5.617  1.00  0.00     0.133 C 
HETATM   21  O3  UNL     1       6.344   8.641   5.626  1.00  0.00    -0.297 OA
HETATM   22  C17 UNL     1       4.433   9.280   6.782  1.00  0.00     0.079 C 
HETATM   23  C18 UNL     1       5.149   9.307   8.081  1.00  0.00     0.021 C 
HETATM   24  C21 UNL     1       3.344   8.236   7.119  1.00  0.00     0.088 C 
HETATM   25  C19 UNL     1       3.985   9.355   9.083  1.00  0.00     0.080 C 
HETATM   26  C20 UNL     1       2.777   8.879   8.303  1.00  0.00     0.143 C 
HETATM   27  O4  UNL     1       1.625   9.016   8.615  1.00  0.00    -0.297 OA
HETATM   28  C22 UNL     1       3.971   6.900   7.385  1.00  0.00     0.032 C 
HETATM   29  C23 UNL     1       2.486   8.246   5.909  1.00  0.00     0.150 C 
HETATM   30  O5  UNL     1       1.391   8.688   5.915  1.00  0.00    -0.296 OA
ENDBRANCH   2  18
TORSDOF 6
ENDMDL
