MODEL 1
REMARK VINA RESULT: -8.624774997      0.000      0.000
REMARK  7 active torsions:
REMARK  status: ('A' for Active; 'I' for Inactive)
REMARK    1  A    between atoms: C2_2  and  C4_4 
REMARK    2  A    between atoms: C8_8  and  O1_9 
REMARK    3  A    between atoms: C17_19  and  C18_20 
REMARK    4  A    between atoms: C18_20  and  O2_21 
REMARK    5  A    between atoms: O2_21  and  C19_22 
REMARK    6  A    between atoms: C19_22  and  C20_24 
REMARK    7  A    between atoms: C20_24  and  O4_25 
ROOT
HETATM    1  C4  UNL     1       5.446   9.446   5.204  1.00  0.00    -0.077 C 
HETATM    2  C5  UNL     1       5.039   9.722   6.404  1.00  0.00    -0.011 C 
HETATM    3  C6  UNL     1       4.467   8.899   7.490  1.00  0.00     0.004 C 
HETATM    4  C7  UNL     1       4.453   9.818   8.757  1.00  0.00     0.022 C 
HETATM    5  C8  UNL     1       5.323   7.771   7.942  1.00  0.00     0.130 C 
HETATM    6  C9  UNL     1       4.576   6.528   8.330  1.00  0.00     0.033 C 
HETATM    7  C10 UNL     1       3.259   6.800   8.964  1.00  0.00     0.012 C 
HETATM    8  C11 UNL     1       2.351   7.697   8.169  1.00  0.00    -0.043 C 
HETATM    9  C12 UNL     1       1.323   6.784   7.529  1.00  0.00     0.015 C 
HETATM   10  C13 UNL     1       1.545   8.442   9.256  1.00  0.00     0.015 C 
HETATM   11  C14 UNL     1       3.031   8.637   7.216  1.00  0.00     0.008 C 
HETATM   12  C15 UNL     1       2.570   8.555   5.808  1.00  0.00     0.009 C 
HETATM   13  C16 UNL     1       2.778   7.347   5.009  1.00  0.00     0.043 C 
HETATM   14  C17 UNL     1       3.167   7.617   3.558  1.00  0.00     0.110 A 
HETATM   15  O5  UNL     1       3.389   8.956   3.321  1.00  0.00    -0.367 OA
HETATM   16  C21 UNL     1       4.493   8.096   3.330  1.00  0.00     0.163 A 
HETATM   17  C22 UNL     1       5.444   8.133   4.494  1.00  0.00     0.069 C 
ENDROOT
BRANCH  14  18
HETATM   18  C18 UNL     1       2.538   6.763   2.469  1.00  0.00     0.219 C 
BRANCH  18  19
HETATM   19  O2  UNL     1       1.483   5.967   2.967  1.00  0.00    -0.317 OA
BRANCH  19  20
HETATM   20  C19 UNL     1       0.172   6.345   2.723  1.00  0.00     0.282 C 
HETATM   21  O3  UNL     1      -0.507   6.749   3.699  1.00  0.00    -0.263 OA
BRANCH  20  22
HETATM   22  C20 UNL     1      -0.447   6.290   1.372  1.00  0.00     0.275 C 
BRANCH  22  23
HETATM   23  O4  UNL     1      -1.027   5.074   1.104  1.00  0.00    -0.391 OA
ATOM     24  H4  UNL     1      -1.976   5.108   1.127  1.00  0.00     0.210 HD
ENDBRANCH  22  23
ENDBRANCH  20  22
ENDBRANCH  19  20
ENDBRANCH  18  19
ENDBRANCH  14  18
BRANCH   1  25
HETATM   25  C2  UNL     1       5.994  10.579   4.340  1.00  0.00     0.006 C 
HETATM   26  C1  UNL     1       7.387  10.898   4.836  1.00  0.00     0.014 C 
HETATM   27  C3  UNL     1       5.094  11.765   4.326  1.00  0.00     0.014 C 
ENDBRANCH   1  25
BRANCH   5  28
HETATM   28  O1  UNL     1       6.059   8.096   9.123  1.00  0.00    -0.394 OA
ATOM     29  H1  UNL     1       6.976   7.863   9.047  1.00  0.00     0.210 HD
ENDBRANCH   5  28
TORSDOF 7
ENDMDL
MODEL 2
REMARK VINA RESULT: -8.464359590      2.150      6.100
REMARK  7 active torsions:
REMARK  status: ('A' for Active; 'I' for Inactive)
REMARK    1  A    between atoms: C2_2  and  C4_4 
REMARK    2  A    between atoms: C8_8  and  O1_9 
REMARK    3  A    between atoms: C17_19  and  C18_20 
REMARK    4  A    between atoms: C18_20  and  O2_21 
REMARK    5  A    between atoms: O2_21  and  C19_22 
REMARK    6  A    between atoms: C19_22  and  C20_24 
REMARK    7  A    between atoms: C20_24  and  O4_25 
ROOT
HETATM    1  C4  UNL     1       2.666   7.488   3.602  1.00  0.00    -0.077 C 
HETATM    2  C5  UNL     1       1.917   6.835   4.435  1.00  0.00    -0.011 C 
HETATM    3  C6  UNL     1       1.183   7.229   5.655  1.00  0.00     0.004 C 
HETATM    4  C7  UNL     1       0.270   6.009   6.015  1.00  0.00     0.022 C 
HETATM    5  C8  UNL     1       0.182   8.312   5.465  1.00  0.00     0.130 C 
HETATM    6  C9  UNL     1       0.060   9.268   6.616  1.00  0.00     0.033 C 
HETATM    7  C10 UNL     1       0.263   8.628   7.943  1.00  0.00     0.012 C 
HETATM    8  C11 UNL     1       1.542   7.850   8.078  1.00  0.00    -0.043 C 
HETATM    9  C12 UNL     1       2.479   8.727   8.886  1.00  0.00     0.015 C 
HETATM   10  C13 UNL     1       1.169   6.718   9.061  1.00  0.00     0.015 C 
HETATM   11  C14 UNL     1       2.126   7.325   6.798  1.00  0.00     0.008 C 
HETATM   12  C15 UNL     1       3.535   7.713   6.538  1.00  0.00     0.009 C 
HETATM   13  C16 UNL     1       3.909   9.111   6.319  1.00  0.00     0.043 C 
HETATM   14  C17 UNL     1       4.961   9.311   5.231  1.00  0.00     0.110 A 
HETATM   15  O5  UNL     1       5.247   8.141   4.564  1.00  0.00    -0.367 OA
HETATM   16  C21 UNL     1       4.529   9.129   3.882  1.00  0.00     0.163 A 
HETATM   17  C22 UNL     1       3.060   8.928   3.629  1.00  0.00     0.069 C 
ENDROOT
BRANCH  14  18
HETATM   18  C18 UNL     1       6.073  10.320   5.476  1.00  0.00     0.219 C 
BRANCH  18  19
HETATM   19  O2  UNL     1       6.789  10.036   6.658  1.00  0.00    -0.317 OA
BRANCH  19  20
HETATM   20  C19 UNL     1       8.173   9.956   6.613  1.00  0.00     0.282 C 
HETATM   21  O3  UNL     1       8.731   9.127   7.374  1.00  0.00    -0.263 OA
BRANCH  20  22
HETATM   22  C20 UNL     1       9.002  10.801   5.714  1.00  0.00     0.275 C 
BRANCH  22  23
HETATM   23  O4  UNL     1       9.472  11.932   6.334  1.00  0.00    -0.391 OA
ATOM     24  H4  UNL     1       9.400  12.707   5.788  1.00  0.00     0.210 HD
ENDBRANCH  22  23
ENDBRANCH  20  22
ENDBRANCH  19  20
ENDBRANCH  18  19
ENDBRANCH  14  18
BRANCH   1  25
HETATM   25  C2  UNL     1       3.274   6.735   2.422  1.00  0.00     0.006 C 
HETATM   26  C1  UNL     1       2.899   7.482   1.161  1.00  0.00     0.014 C 
HETATM   27  C3  UNL     1       2.867   5.303   2.394  1.00  0.00     0.014 C 
ENDBRANCH   1  25
BRANCH   5  28
HETATM   28  O1  UNL     1      -1.143   7.799   5.320  1.00  0.00    -0.394 OA
ATOM     29  H1  UNL     1      -1.347   7.587   4.417  1.00  0.00     0.210 HD
ENDBRANCH   5  28
TORSDOF 7
ENDMDL
MODEL 3
REMARK VINA RESULT: -8.419578111      2.280      5.766
REMARK  7 active torsions:
REMARK  status: ('A' for Active; 'I' for Inactive)
REMARK    1  A    between atoms: C2_2  and  C4_4 
REMARK    2  A    between atoms: C8_8  and  O1_9 
REMARK    3  A    between atoms: C17_19  and  C18_20 
REMARK    4  A    between atoms: C18_20  and  O2_21 
REMARK    5  A    between atoms: O2_21  and  C19_22 
REMARK    6  A    between atoms: C19_22  and  C20_24 
REMARK    7  A    between atoms: C20_24  and  O4_25 
ROOT
HETATM    1  C4  UNL     1       2.782   7.403   3.600  1.00  0.00    -0.077 C 
HETATM    2  C5  UNL     1       1.890   6.745   4.273  1.00  0.00    -0.011 C 
HETATM    3  C6  UNL     1       1.085   7.070   5.469  1.00  0.00     0.004 C 
HETATM    4  C7  UNL     1       0.016   5.931   5.585  1.00  0.00     0.022 C 
HETATM    5  C8  UNL     1       0.230   8.279   5.342  1.00  0.00     0.130 C 
HETATM    6  C9  UNL     1       0.098   9.093   6.596  1.00  0.00     0.033 C 
HETATM    7  C10 UNL     1       0.099   8.275   7.838  1.00  0.00     0.012 C 
HETATM    8  C11 UNL     1       1.269   7.340   7.975  1.00  0.00    -0.043 C 
HETATM    9  C12 UNL     1       2.210   7.993   8.968  1.00  0.00     0.015 C 
HETATM   10  C13 UNL     1       0.682   6.148   8.763  1.00  0.00     0.015 C 
HETATM   11  C14 UNL     1       1.916   6.911   6.689  1.00  0.00     0.008 C 
HETATM   12  C15 UNL     1       3.377   7.159   6.602  1.00  0.00     0.009 C 
HETATM   13  C16 UNL     1       3.919   8.519   6.604  1.00  0.00     0.043 C 
HETATM   14  C17 UNL     1       5.087   8.726   5.645  1.00  0.00     0.110 A 
HETATM   15  O5  UNL     1       5.312   7.621   4.853  1.00  0.00    -0.367 OA
HETATM   16  C21 UNL     1       4.773   8.764   4.252  1.00  0.00     0.163 A 
HETATM   17  C22 UNL     1       3.324   8.771   3.853  1.00  0.00     0.069 C 
ENDROOT
BRANCH  14  18
HETATM   18  C18 UNL     1       6.271   9.557   6.115  1.00  0.00     0.219 C 
BRANCH  18  19
HETATM   19  O2  UNL     1       6.054  10.938   5.921  1.00  0.00    -0.317 OA
BRANCH  19  20
HETATM   20  C19 UNL     1       6.856  11.635   5.031  1.00  0.00     0.282 C 
HETATM   21  O3  UNL     1       8.029  11.902   5.393  1.00  0.00    -0.263 OA
BRANCH  20  22
HETATM   22  C20 UNL     1       6.387  12.069   3.688  1.00  0.00     0.275 C 
BRANCH  22  23
HETATM   23  O4  UNL     1       7.410  12.516   2.889  1.00  0.00    -0.391 OA
ATOM     24  H4  UNL     1       7.476  12.032   2.074  1.00  0.00     0.210 HD
ENDBRANCH  22  23
ENDBRANCH  20  22
ENDBRANCH  19  20
ENDBRANCH  18  19
ENDBRANCH  14  18
BRANCH   1  25
HETATM   25  C2  UNL     1       3.420   6.734   2.385  1.00  0.00     0.006 C 
HETATM   26  C1  UNL     1       3.054   7.555   1.168  1.00  0.00     0.014 C 
HETATM   27  C3  UNL     1       3.034   5.302   2.260  1.00  0.00     0.014 C 
ENDBRANCH   1  25
BRANCH   5  28
HETATM   28  O1  UNL     1      -1.122   7.948   5.020  1.00  0.00    -0.394 OA
ATOM     29  H1  UNL     1      -1.227   7.731   4.101  1.00  0.00     0.210 HD
ENDBRANCH   5  28
TORSDOF 7
ENDMDL
MODEL 4
REMARK VINA RESULT: -8.416327753      0.546      1.070
REMARK  7 active torsions:
REMARK  status: ('A' for Active; 'I' for Inactive)
REMARK    1  A    between atoms: C2_2  and  C4_4 
REMARK    2  A    between atoms: C8_8  and  O1_9 
REMARK    3  A    between atoms: C17_19  and  C18_20 
REMARK    4  A    between atoms: C18_20  and  O2_21 
REMARK    5  A    between atoms: O2_21  and  C19_22 
REMARK    6  A    between atoms: C19_22  and  C20_24 
REMARK    7  A    between atoms: C20_24  and  O4_25 
ROOT
HETATM    1  C4  UNL     1       5.344   9.427   5.224  1.00  0.00    -0.077 C 
HETATM    2  C5  UNL     1       5.002   9.717   6.441  1.00  0.00    -0.011 C 
HETATM    3  C6  UNL     1       4.474   8.909   7.560  1.00  0.00     0.004 C 
HETATM    4  C7  UNL     1       4.536   9.837   8.820  1.00  0.00     0.022 C 
HETATM    5  C8  UNL     1       5.337   7.773   7.977  1.00  0.00     0.130 C 
HETATM    6  C9  UNL     1       4.594   6.543   8.411  1.00  0.00     0.033 C 
HETATM    7  C10 UNL     1       3.315   6.838   9.109  1.00  0.00     0.012 C 
HETATM    8  C11 UNL     1       2.379   7.741   8.354  1.00  0.00    -0.043 C 
HETATM    9  C12 UNL     1       1.308   6.838   7.774  1.00  0.00     0.015 C 
HETATM   10  C13 UNL     1       1.640   8.505   9.475  1.00  0.00     0.015 C 
HETATM   11  C14 UNL     1       3.023   8.665   7.362  1.00  0.00     0.008 C 
HETATM   12  C15 UNL     1       2.491   8.580   5.979  1.00  0.00     0.009 C 
HETATM   13  C16 UNL     1       2.641   7.363   5.180  1.00  0.00     0.043 C 
HETATM   14  C17 UNL     1       2.960   7.619   3.709  1.00  0.00     0.110 A 
HETATM   15  O5  UNL     1       3.188   8.953   3.451  1.00  0.00    -0.367 OA
HETATM   16  C21 UNL     1       4.279   8.078   3.411  1.00  0.00     0.163 A 
HETATM   17  C22 UNL     1       5.288   8.109   4.525  1.00  0.00     0.069 C 
ENDROOT
BRANCH  14  18
HETATM   18  C18 UNL     1       2.265   6.765   2.659  1.00  0.00     0.219 C 
BRANCH  18  19
HETATM   19  O2  UNL     1       1.162   6.066   3.195  1.00  0.00    -0.317 OA
BRANCH  19  20
HETATM   20  C19 UNL     1      -0.116   6.368   2.752  1.00  0.00     0.282 C 
HETATM   21  O3  UNL     1      -0.315   6.365   1.512  1.00  0.00    -0.263 OA
BRANCH  20  22
HETATM   22  C20 UNL     1      -1.237   6.690   3.675  1.00  0.00     0.275 C 
BRANCH  22  23
HETATM   23  O4  UNL     1      -0.872   7.568   4.665  1.00  0.00    -0.391 OA
ATOM     24  H4  UNL     1      -1.231   8.437   4.535  1.00  0.00     0.210 HD
ENDBRANCH  22  23
ENDBRANCH  20  22
ENDBRANCH  19  20
ENDBRANCH  18  19
ENDBRANCH  14  18
BRANCH   1  25
HETATM   25  C2  UNL     1       5.862  10.547   4.325  1.00  0.00     0.006 C 
HETATM   26  C1  UNL     1       7.295  10.825   4.723  1.00  0.00     0.014 C 
HETATM   27  C3  UNL     1       4.998  11.758   4.374  1.00  0.00     0.014 C 
ENDBRANCH   1  25
BRANCH   5  28
HETATM   28  O1  UNL     1       6.135   8.096   9.117  1.00  0.00    -0.394 OA
ATOM     29  H1  UNL     1       6.955   7.615   9.126  1.00  0.00     0.210 HD
ENDBRANCH   5  28
TORSDOF 7
ENDMDL
MODEL 5
REMARK VINA RESULT: -8.340829283      2.869      6.017
REMARK  7 active torsions:
REMARK  status: ('A' for Active; 'I' for Inactive)
REMARK    1  A    between atoms: C2_2  and  C4_4 
REMARK    2  A    between atoms: C8_8  and  O1_9 
REMARK    3  A    between atoms: C17_19  and  C18_20 
REMARK    4  A    between atoms: C18_20  and  O2_21 
REMARK    5  A    between atoms: O2_21  and  C19_22 
REMARK    6  A    between atoms: C19_22  and  C20_24 
REMARK    7  A    between atoms: C20_24  and  O4_25 
ROOT
HETATM    1  C4  UNL     1       3.811   7.559   9.928  1.00  0.00    -0.077 C 
HETATM    2  C5  UNL     1       2.545   7.705   9.689  1.00  0.00    -0.011 C 
HETATM    3  C6  UNL     1       1.699   7.409   8.514  1.00  0.00     0.004 C 
HETATM    4  C7  UNL     1       0.220   7.579   9.000  1.00  0.00     0.022 C 
HETATM    5  C8  UNL     1       1.712   5.990   8.070  1.00  0.00     0.130 C 
HETATM    6  C9  UNL     1       1.634   5.792   6.584  1.00  0.00     0.033 C 
HETATM    7  C10 UNL     1       0.797   6.810   5.894  1.00  0.00     0.012 C 
HETATM    8  C11 UNL     1       1.172   8.236   6.185  1.00  0.00    -0.043 C 
HETATM    9  C12 UNL     1       1.933   8.723   4.967  1.00  0.00     0.015 C 
HETATM   10  C13 UNL     1      -0.176   8.985   6.092  1.00  0.00     0.015 C 
HETATM   11  C14 UNL     1       1.869   8.474   7.493  1.00  0.00     0.008 C 
HETATM   12  C15 UNL     1       3.172   9.178   7.399  1.00  0.00     0.009 C 
HETATM   13  C16 UNL     1       4.317   8.569   6.721  1.00  0.00     0.043 C 
HETATM   14  C17 UNL     1       5.654   8.806   7.419  1.00  0.00     0.110 A 
HETATM   15  O5  UNL     1       5.500   9.430   8.637  1.00  0.00    -0.367 OA
HETATM   16  C21 UNL     1       5.880   8.083   8.630  1.00  0.00     0.163 A 
HETATM   17  C22 UNL     1       4.879   7.034   9.027  1.00  0.00     0.069 C 
ENDROOT
BRANCH  14  18
HETATM   18  C18 UNL     1       6.869   9.132   6.564  1.00  0.00     0.219 C 
BRANCH  18  19
HETATM   19  O2  UNL     1       6.902  10.493   6.193  1.00  0.00    -0.317 OA
BRANCH  19  20
HETATM   20  C19 UNL     1       6.931  10.832   4.849  1.00  0.00     0.282 C 
HETATM   21  O3  UNL     1       6.348  10.064   4.045  1.00  0.00    -0.263 OA
BRANCH  20  22
HETATM   22  C20 UNL     1       7.616  12.048   4.337  1.00  0.00     0.275 C 
BRANCH  22  23
HETATM   23  O4  UNL     1       7.250  12.359   3.050  1.00  0.00    -0.391 OA
ATOM     24  H4  UNL     1       7.443  13.260   2.822  1.00  0.00     0.210 HD
ENDBRANCH  22  23
ENDBRANCH  20  22
ENDBRANCH  19  20
ENDBRANCH  18  19
ENDBRANCH  14  18
BRANCH   1  25
HETATM   25  C2  UNL     1       4.350   7.984  11.292  1.00  0.00     0.006 C 
HETATM   26  C1  UNL     1       3.758   7.052  12.326  1.00  0.00     0.014 C 
HETATM   27  C3  UNL     1       4.086   9.420  11.582  1.00  0.00     0.014 C 
ENDBRANCH   1  25
BRANCH   5  28
HETATM   28  O1  UNL     1       0.583   5.265   8.560  1.00  0.00    -0.394 OA
ATOM     29  H1  UNL     1      -0.151   5.299   7.958  1.00  0.00     0.210 HD
ENDBRANCH   5  28
TORSDOF 7
ENDMDL
