MODEL 1
REMARK VINA RESULT: -9.393600949      0.000      0.000
REMARK  5 active torsions:
REMARK  status: ('A' for Active; 'I' for Inactive)
REMARK    1  A    between atoms: C5_5  and  C6_6 
REMARK       I    between atoms: C6_6  and  N1_8 
REMARK    2  A    between atoms: N1_8  and  C7_10 
REMARK    3  A    between atoms: C7_10  and  C8_11 
REMARK    4  A    between atoms: C8_11  and  O2_12 
REMARK    5  A    between atoms: C12_21  and  C13_22 
ROOT
HETATM    1  C8  UNL     1       0.947   6.984   8.709  1.00  0.00     0.090 C 
HETATM    2  C9  UNL     1      -0.378   7.686   8.997  1.00  0.00     0.048 C 
HETATM    3  C10 UNL     1      -1.495   7.062   8.220  1.00  0.00     0.081 C 
HETATM    4  C11 UNL     1      -1.073   6.928   6.808  1.00  0.00     0.099 A 
HETATM    5  N2  UNL     1      -1.864   6.717   5.719  1.00  0.00    -0.287 N 
ATOM      6  H2  UNL     1      -2.879   6.620   5.721  1.00  0.00     0.188 HD
HETATM    7  N3  UNL     1      -1.087   6.663   4.673  1.00  0.00    -0.287 N 
ATOM      8  H3  UNL     1      -1.404   6.513   3.715  1.00  0.00     0.188 HD
HETATM    9  C12 UNL     1       0.193   6.833   5.046  1.00  0.00     0.103 A 
HETATM   10  N4  UNL     1       0.180   6.995   6.367  1.00  0.00    -0.321 N 
HETATM   11  C20 UNL     1       1.335   7.215   7.245  1.00  0.00     0.171 C 
ENDROOT
BRANCH   1  12
HETATM   12  C7  UNL     1       1.975   7.646   9.560  1.00  0.00     0.162 C 
BRANCH  12  13
HETATM   13  N1  UNL     1       2.864   8.487   8.830  1.00  0.00    -0.358 N 
HETATM   14  C6  UNL     1       4.237   8.244   8.674  1.00  0.00     0.221 C 
HETATM   15  O1  UNL     1       4.815   7.274   9.137  1.00  0.00    -0.273 OA
ATOM     16  H1  UNL     1       2.476   9.323   8.392  1.00  0.00     0.162 HD
BRANCH  14  17
HETATM   17  C5  UNL     1       5.038   9.249   7.883  1.00  0.00     0.078 C 
HETATM   18  C4  UNL     1       4.432   9.344   6.514  1.00  0.00     0.014 C 
HETATM   19  C3  UNL     1       5.149  10.368   5.653  1.00  0.00     0.005 C 
HETATM   20  C2  UNL     1       6.584  10.545   6.119  1.00  0.00    -0.019 C 
HETATM   21  C1  UNL     1       7.430  11.188   5.056  1.00  0.00     0.010 C 
HETATM   22  C22 UNL     1       7.108   9.204   6.546  1.00  0.00     0.005 C 
HETATM   23  C21 UNL     1       6.483   8.844   7.874  1.00  0.00     0.014 C 
ENDBRANCH  14  17
ENDBRANCH  12  13
ENDBRANCH   1  12
BRANCH   1  24
HETATM   24  O2  UNL     1       0.769   5.664   8.920  1.00  0.00    -0.386 OA
ATOM     25  H2  UNL     1      -0.133   5.369   8.965  1.00  0.00     0.210 HD
ENDBRANCH   1  24
BRANCH   9  26
HETATM   26  C13 UNL     1       1.310   6.820   4.065  1.00  0.00     0.055 C 
HETATM   27  C14 UNL     1       1.846   8.230   4.001  1.00  0.00     0.012 C 
HETATM   28  C15 UNL     1       3.146   8.343   3.280  1.00  0.00     0.001 C 
HETATM   29  C16 UNL     1       3.759   7.023   2.918  1.00  0.00     0.000 C 
HETATM   30  C17 UNL     1       2.992   6.255   1.891  1.00  0.00     0.000 C 
HETATM   31  C18 UNL     1       1.635   6.844   1.595  1.00  0.00     0.001 C 
HETATM   32  C19 UNL     1       0.705   6.403   2.723  1.00  0.00     0.012 C 
ENDBRANCH   9  26
TORSDOF 5
ENDMDL
MODEL 2
REMARK VINA RESULT: -9.263600584      1.745      2.435
REMARK  5 active torsions:
REMARK  status: ('A' for Active; 'I' for Inactive)
REMARK    1  A    between atoms: C5_5  and  C6_6 
REMARK       I    between atoms: C6_6  and  N1_8 
REMARK    2  A    between atoms: N1_8  and  C7_10 
REMARK    3  A    between atoms: C7_10  and  C8_11 
REMARK    4  A    between atoms: C8_11  and  O2_12 
REMARK    5  A    between atoms: C12_21  and  C13_22 
ROOT
HETATM    1  C8  UNL     1      -0.802   5.466   7.172  1.00  0.00     0.090 C 
HETATM    2  C9  UNL     1      -2.111   6.251   7.198  1.00  0.00     0.048 C 
HETATM    3  C10 UNL     1      -2.837   6.127   5.896  1.00  0.00     0.081 C 
HETATM    4  C11 UNL     1      -1.886   6.401   4.796  1.00  0.00     0.099 A 
HETATM    5  N2  UNL     1      -2.177   6.707   3.500  1.00  0.00    -0.287 N 
ATOM      6  H2  UNL     1      -3.109   6.793   3.096  1.00  0.00     0.188 HD
HETATM    7  N3  UNL     1      -1.046   6.870   2.870  1.00  0.00    -0.287 N 
ATOM      8  H3  UNL     1      -0.954   7.106   1.882  1.00  0.00     0.188 HD
HETATM    9  C12 UNL     1      -0.020   6.680   3.718  1.00  0.00     0.103 A 
HETATM   10  N4  UNL     1      -0.560   6.392   4.900  1.00  0.00    -0.321 N 
HETATM   11  C20 UNL     1       0.149   6.101   6.152  1.00  0.00     0.171 C 
ENDROOT
BRANCH   1  12
HETATM   12  C7  UNL     1      -0.185   5.617   8.520  1.00  0.00     0.162 C 
BRANCH  12  13
HETATM   13  N1  UNL     1       1.160   6.084   8.483  1.00  0.00    -0.358 N 
HETATM   14  C6  UNL     1       1.564   7.373   8.865  1.00  0.00     0.221 C 
HETATM   15  O1  UNL     1       0.801   8.229   9.284  1.00  0.00    -0.273 OA
ATOM     16  H1  UNL     1       1.879   5.437   8.158  1.00  0.00     0.162 HD
BRANCH  14  17
HETATM   17  C5  UNL     1       3.030   7.709   8.747  1.00  0.00     0.078 C 
HETATM   18  C4  UNL     1       3.141   9.172   8.439  1.00  0.00     0.014 C 
HETATM   19  C3  UNL     1       4.589   9.617   8.341  1.00  0.00     0.005 C 
HETATM   20  C2  UNL     1       5.480   8.448   7.954  1.00  0.00    -0.019 C 
HETATM   21  C1  UNL     1       6.804   8.921   7.424  1.00  0.00     0.010 C 
HETATM   22  C22 UNL     1       4.732   7.595   6.970  1.00  0.00     0.005 C 
HETATM   23  C21 UNL     1       3.665   6.826   7.713  1.00  0.00     0.014 C 
ENDBRANCH  14  17
ENDBRANCH  12  13
ENDBRANCH   1  12
BRANCH   1  24
HETATM   24  O2  UNL     1      -1.085   4.204   6.791  1.00  0.00    -0.386 OA
ATOM     25  H2  UNL     1      -0.679   3.515   7.302  1.00  0.00     0.210 HD
ENDBRANCH   1  24
BRANCH   9  26
HETATM   26  C13 UNL     1       1.396   6.800   3.284  1.00  0.00     0.055 C 
HETATM   27  C14 UNL     1       1.877   8.156   3.744  1.00  0.00     0.012 C 
HETATM   28  C15 UNL     1       3.352   8.333   3.641  1.00  0.00     0.001 C 
HETATM   29  C16 UNL     1       4.094   7.081   3.277  1.00  0.00     0.000 C 
HETATM   30  C17 UNL     1       3.823   6.594   1.889  1.00  0.00     0.000 C 
HETATM   31  C18 UNL     1       2.684   7.317   1.214  1.00  0.00     0.001 C 
HETATM   32  C19 UNL     1       1.391   6.712   1.757  1.00  0.00     0.012 C 
ENDBRANCH   9  26
TORSDOF 5
ENDMDL
MODEL 3
REMARK VINA RESULT: -9.204326860      2.450      6.305
REMARK  5 active torsions:
REMARK  status: ('A' for Active; 'I' for Inactive)
REMARK    1  A    between atoms: C5_5  and  C6_6 
REMARK       I    between atoms: C6_6  and  N1_8 
REMARK    2  A    between atoms: N1_8  and  C7_10 
REMARK    3  A    between atoms: C7_10  and  C8_11 
REMARK    4  A    between atoms: C8_11  and  O2_12 
REMARK    5  A    between atoms: C12_21  and  C13_22 
ROOT
HETATM    1  C8  UNL     1       4.705   7.658   8.157  1.00  0.00     0.090 C 
HETATM    2  C9  UNL     1       5.030   9.041   8.715  1.00  0.00     0.048 C 
HETATM    3  C10 UNL     1       4.725   9.114  10.178  1.00  0.00     0.081 C 
HETATM    4  C11 UNL     1       3.366   8.576  10.405  1.00  0.00     0.099 A 
HETATM    5  N2  UNL     1       2.577   8.742  11.505  1.00  0.00    -0.287 N 
ATOM      6  H2  UNL     1       2.816   9.270  12.344  1.00  0.00     0.188 HD
HETATM    7  N3  UNL     1       1.462   8.101  11.290  1.00  0.00    -0.287 N 
ATOM      8  H3  UNL     1       0.680   8.049  11.943  1.00  0.00     0.188 HD
HETATM    9  C12 UNL     1       1.495   7.520  10.078  1.00  0.00     0.103 A 
HETATM   10  N4  UNL     1       2.678   7.825   9.549  1.00  0.00    -0.321 N 
HETATM   11  C20 UNL     1       3.193   7.422   8.235  1.00  0.00     0.171 C 
ENDROOT
BRANCH   1  12
HETATM   12  C7  UNL     1       5.085   7.678   6.716  1.00  0.00     0.162 C 
BRANCH  12  13
HETATM   13  N1  UNL     1       3.982   7.501   5.832  1.00  0.00    -0.358 N 
HETATM   14  C6  UNL     1       3.752   8.277   4.685  1.00  0.00     0.221 C 
HETATM   15  O1  UNL     1       4.483   9.181   4.316  1.00  0.00    -0.273 OA
ATOM     16  H1  UNL     1       3.315   6.759   6.046  1.00  0.00     0.162 HD
BRANCH  14  17
HETATM   17  C5  UNL     1       2.522   7.966   3.868  1.00  0.00     0.078 C 
HETATM   18  C4  UNL     1       1.591   7.163   4.728  1.00  0.00     0.014 C 
HETATM   19  C3  UNL     1       0.299   6.835   4.001  1.00  0.00     0.005 C 
HETATM   20  C2  UNL     1       0.520   6.827   2.498  1.00  0.00    -0.019 C 
HETATM   21  C1  UNL     1      -0.580   6.092   1.787  1.00  0.00     0.010 C 
HETATM   22  C22 UNL     1       1.878   6.245   2.227  1.00  0.00     0.005 C 
HETATM   23  C21 UNL     1       2.924   7.268   2.602  1.00  0.00     0.014 C 
ENDBRANCH  14  17
ENDBRANCH  12  13
ENDBRANCH   1  12
BRANCH   1  24
HETATM   24  O2  UNL     1       5.338   6.745   8.921  1.00  0.00    -0.386 OA
ATOM     25  H2  UNL     1       4.782   6.208   9.473  1.00  0.00     0.210 HD
ENDBRANCH   1  24
BRANCH   9  26
HETATM   26  C13 UNL     1       0.359   6.717   9.554  1.00  0.00     0.055 C 
HETATM   27  C14 UNL     1      -0.479   7.651   8.714  1.00  0.00     0.012 C 
HETATM   28  C15 UNL     1      -1.502   6.953   7.885  1.00  0.00     0.001 C 
HETATM   29  C16 UNL     1      -1.386   5.457   7.904  1.00  0.00     0.000 C 
HETATM   30  C17 UNL     1      -1.699   4.838   9.228  1.00  0.00     0.000 C 
HETATM   31  C18 UNL     1      -1.839   5.846  10.341  1.00  0.00     0.001 C 
HETATM   32  C19 UNL     1      -0.424   6.228  10.774  1.00  0.00     0.012 C 
ENDBRANCH   9  26
TORSDOF 5
ENDMDL
MODEL 4
REMARK VINA RESULT: -9.199143048      2.333      5.223
REMARK  5 active torsions:
REMARK  status: ('A' for Active; 'I' for Inactive)
REMARK    1  A    between atoms: C5_5  and  C6_6 
REMARK       I    between atoms: C6_6  and  N1_8 
REMARK    2  A    between atoms: N1_8  and  C7_10 
REMARK    3  A    between atoms: C7_10  and  C8_11 
REMARK    4  A    between atoms: C8_11  and  O2_12 
REMARK    5  A    between atoms: C12_21  and  C13_22 
ROOT
HETATM    1  C8  UNL     1       0.411   7.446   6.007  1.00  0.00     0.090 C 
HETATM    2  C9  UNL     1      -0.091   6.013   5.848  1.00  0.00     0.048 C 
HETATM    3  C10 UNL     1      -0.884   5.587   7.044  1.00  0.00     0.081 C 
HETATM    4  C11 UNL     1      -0.117   5.923   8.264  1.00  0.00     0.099 A 
HETATM    5  N2  UNL     1      -0.305   5.439   9.525  1.00  0.00    -0.287 N 
ATOM      6  H2  UNL     1      -1.013   4.765   9.812  1.00  0.00     0.188 HD
HETATM    7  N3  UNL     1       0.586   5.997  10.297  1.00  0.00    -0.287 N 
ATOM      8  H3  UNL     1       0.685   5.825  11.297  1.00  0.00     0.188 HD
HETATM    9  C12 UNL     1       1.355   6.833   9.577  1.00  0.00     0.103 A 
HETATM   10  N4  UNL     1       0.904   6.773   8.326  1.00  0.00    -0.321 N 
HETATM   11  C20 UNL     1       1.415   7.506   7.162  1.00  0.00     0.171 C 
ENDROOT
BRANCH   1  12
HETATM   12  C7  UNL     1       1.142   7.784   4.753  1.00  0.00     0.162 C 
BRANCH  12  13
HETATM   13  N1  UNL     1       2.474   8.239   4.975  1.00  0.00    -0.358 N 
HETATM   14  C6  UNL     1       3.580   7.867   4.194  1.00  0.00     0.221 C 
HETATM   15  O1  UNL     1       3.513   7.122   3.230  1.00  0.00    -0.273 OA
ATOM     16  H1  UNL     1       2.635   8.878   5.753  1.00  0.00     0.162 HD
BRANCH  14  17
HETATM   17  C5  UNL     1       4.926   8.429   4.579  1.00  0.00     0.078 C 
HETATM   18  C4  UNL     1       5.091   8.248   6.059  1.00  0.00     0.014 C 
HETATM   19  C3  UNL     1       6.443   8.749   6.537  1.00  0.00     0.005 C 
HETATM   20  C2  UNL     1       6.977   9.818   5.600  1.00  0.00    -0.019 C 
HETATM   21  C1  UNL     1       8.057  10.632   6.255  1.00  0.00     0.010 C 
HETATM   22  C22 UNL     1       5.820  10.656   5.135  1.00  0.00     0.005 C 
HETATM   23  C21 UNL     1       5.020   9.858   4.133  1.00  0.00     0.014 C 
ENDBRANCH  14  17
ENDBRANCH  12  13
ENDBRANCH   1  12
BRANCH   1  24
HETATM   24  O2  UNL     1      -0.651   8.224   6.298  1.00  0.00    -0.386 OA
ATOM     25  H2  UNL     1      -1.370   8.195   5.679  1.00  0.00     0.210 HD
ENDBRANCH   1  24
BRANCH   9  26
HETATM   26  C13 UNL     1       2.461   7.614  10.189  1.00  0.00     0.055 C 
HETATM   27  C14 UNL     1       3.740   7.127   9.550  1.00  0.00     0.012 C 
HETATM   28  C15 UNL     1       4.919   7.992   9.839  1.00  0.00     0.001 C 
HETATM   29  C16 UNL     1       4.580   9.268  10.551  1.00  0.00     0.000 C 
HETATM   30  C17 UNL     1       4.088   9.074  11.949  1.00  0.00     0.000 C 
HETATM   31  C18 UNL     1       3.804   7.632  12.288  1.00  0.00     0.001 C 
HETATM   32  C19 UNL     1       2.442   7.295  11.685  1.00  0.00     0.012 C 
ENDBRANCH   9  26
TORSDOF 5
ENDMDL
MODEL 5
REMARK VINA RESULT: -9.151144039      3.300      5.800
REMARK  5 active torsions:
REMARK  status: ('A' for Active; 'I' for Inactive)
REMARK    1  A    between atoms: C5_5  and  C6_6 
REMARK       I    between atoms: C6_6  and  N1_8 
REMARK    2  A    between atoms: N1_8  and  C7_10 
REMARK    3  A    between atoms: C7_10  and  C8_11 
REMARK    4  A    between atoms: C8_11  and  O2_12 
REMARK    5  A    between atoms: C12_21  and  C13_22 
ROOT
HETATM    1  C8  UNL     1       4.074   7.744   8.194  1.00  0.00     0.090 C 
HETATM    2  C9  UNL     1       4.383   9.148   8.706  1.00  0.00     0.048 C 
HETATM    3  C10 UNL     1       4.279   9.210  10.198  1.00  0.00     0.081 C 
HETATM    4  C11 UNL     1       3.001   8.587  10.608  1.00  0.00     0.099 A 
HETATM    5  N2  UNL     1       2.363   8.708  11.807  1.00  0.00    -0.287 N 
ATOM      6  H2  UNL     1       2.681   9.256  12.606  1.00  0.00     0.188 HD
HETATM    7  N3  UNL     1       1.272   7.996  11.746  1.00  0.00    -0.287 N 
ATOM      8  H3  UNL     1       0.594   7.898  12.501  1.00  0.00     0.188 HD
HETATM    9  C12 UNL     1       1.176   7.411  10.539  1.00  0.00     0.103 A 
HETATM   10  N4  UNL     1       2.252   7.788   9.853  1.00  0.00    -0.321 N 
HETATM   11  C20 UNL     1       2.606   7.412   8.479  1.00  0.00     0.171 C 
ENDROOT
BRANCH   1  12
HETATM   12  C7  UNL     1       4.250   7.780   6.714  1.00  0.00     0.162 C 
BRANCH  12  13
HETATM   13  N1  UNL     1       5.450   8.426   6.298  1.00  0.00    -0.358 N 
HETATM   14  C6  UNL     1       5.513   9.427   5.317  1.00  0.00     0.221 C 
HETATM   15  O1  UNL     1       4.539   9.861   4.723  1.00  0.00    -0.273 OA
ATOM     16  H1  UNL     1       6.322   8.141   6.743  1.00  0.00     0.162 HD
BRANCH  14  17
HETATM   17  C5  UNL     1       6.871   9.992   4.983  1.00  0.00     0.078 C 
HETATM   18  C4  UNL     1       7.648  10.103   6.261  1.00  0.00     0.014 C 
HETATM   19  C3  UNL     1       9.052  10.627   6.020  1.00  0.00     0.005 C 
HETATM   20  C2  UNL     1       9.099  11.463   4.752  1.00  0.00    -0.019 C 
HETATM   21  C1  UNL     1      10.318  12.342   4.719  1.00  0.00     0.010 C 
HETATM   22  C22 UNL     1       7.819  12.243   4.657  1.00  0.00     0.005 C 
HETATM   23  C21 UNL     1       6.708  11.298   4.262  1.00  0.00     0.014 C 
ENDBRANCH  14  17
ENDBRANCH  12  13
ENDBRANCH   1  12
BRANCH   1  24
HETATM   24  O2  UNL     1       4.864   6.878   8.860  1.00  0.00    -0.386 OA
ATOM     25  H2  UNL     1       5.498   7.266   9.452  1.00  0.00     0.210 HD
ENDBRANCH   1  24
BRANCH   9  26
HETATM   26  C13 UNL     1       0.032   6.534  10.175  1.00  0.00     0.055 C 
HETATM   27  C14 UNL     1      -0.954   7.398   9.426  1.00  0.00     0.012 C 
HETATM   28  C15 UNL     1      -2.029   6.623   8.744  1.00  0.00     0.001 C 
HETATM   29  C16 UNL     1      -1.825   5.138   8.777  1.00  0.00     0.000 C 
HETATM   30  C17 UNL     1      -1.939   4.537  10.141  1.00  0.00     0.000 C 
HETATM   31  C18 UNL     1      -2.000   5.564  11.243  1.00  0.00     0.001 C 
HETATM   32  C19 UNL     1      -0.567   6.034  11.491  1.00  0.00     0.012 C 
ENDBRANCH   9  26
TORSDOF 5
ENDMDL
