MODEL 1
REMARK VINA RESULT: -9.049903294      0.000      0.000
REMARK  5 active torsions:
REMARK  status: ('A' for Active; 'I' for Inactive)
REMARK    1  A    between atoms: C4_5  and  N1_6 
REMARK    2  A    between atoms: C7_9  and  C8_10 
REMARK    3  A    between atoms: C8_10  and  O1_11 
REMARK    4  A    between atoms: C12_20  and  C13_21 
REMARK    5  A    between atoms: N4_24  and  C16_25 
ROOT
HETATM    1  C1  UNL     1       3.412   7.786   3.373  1.00  0.00     0.018 C 
HETATM    2  C2  UNL     1       3.039   7.903   4.511  1.00  0.00    -0.069 C 
HETATM    3  C3  UNL     1       2.567   8.052   5.871  1.00  0.00     0.074 A 
HETATM    4  S1  UNL     1       1.061   7.555   6.465  1.00  0.00    -0.060 SA
HETATM    5  C4  UNL     1       1.216   8.072   8.115  1.00  0.00     0.102 A 
HETATM    6  C11 UNL     1       2.471   8.620   8.117  1.00  0.00     0.096 A 
HETATM    7  N2  UNL     1       3.294   9.228   9.040  1.00  0.00    -0.297 N 
ATOM      8  H2  UNL     1       3.050   9.385  10.018  1.00  0.00     0.187 HD
HETATM    9  N3  UNL     1       4.437   9.579   8.488  1.00  0.00    -0.303 N 
ATOM     10  H3  UNL     1       5.210  10.046   8.962  1.00  0.00     0.186 HD
HETATM   11  C12 UNL     1       4.413   9.217   7.199  1.00  0.00     0.045 A 
HETATM   12  C21 UNL     1       3.164   8.612   6.972  1.00  0.00     0.045 A 
ENDROOT
BRANCH   5  13
HETATM   13  N1  UNL     1       0.224   7.902   9.124  1.00  0.00    -0.373 N 
HETATM   14  C5  UNL     1       0.376   7.215  10.367  1.00  0.00     0.124 C 
HETATM   15  C6  UNL     1      -0.312   5.858  10.325  1.00  0.00     0.026 C 
HETATM   16  C7  UNL     1      -1.470   6.009   9.354  1.00  0.00     0.012 C 
HETATM   17  C9  UNL     1      -2.067   7.384   9.441  1.00  0.00     0.026 C 
HETATM   18  C10 UNL     1      -1.114   8.452   8.879  1.00  0.00     0.124 C 
BRANCH  16  19
HETATM   19  C8  UNL     1      -2.554   5.002   9.638  1.00  0.00     0.168 C 
BRANCH  19  20
HETATM   20  O1  UNL     1      -1.960   3.794  10.019  1.00  0.00    -0.400 OA
ATOM     21  H1  UNL     1      -2.272   3.104   9.445  1.00  0.00     0.209 HD
ENDBRANCH  19  20
ENDBRANCH  16  19
ENDBRANCH   5  13
BRANCH  11  22
HETATM   22  C13 UNL     1       5.548   9.437   6.291  1.00  0.00     0.044 C 
HETATM   23  C14 UNL     1       5.617  10.895   5.848  1.00  0.00     0.031 C 
HETATM   24  C15 UNL     1       6.620  10.946   4.714  1.00  0.00     0.123 C 
HETATM   25  N4  UNL     1       7.892  10.615   5.243  1.00  0.00    -0.389 N 
HETATM   26  C19 UNL     1       7.941  10.158   6.574  1.00  0.00     0.059 C 
HETATM   27  C20 UNL     1       6.892   9.122   6.916  1.00  0.00     0.055 C 
BRANCH  25  28
HETATM   28  C16 UNL     1       9.012  11.264   4.715  1.00  0.00     0.075 C 
HETATM   29  C17 UNL     1       9.799  11.930   5.833  1.00  0.00     0.032 C 
HETATM   30  C18 UNL     1       8.632  12.382   3.745  1.00  0.00     0.032 C 
ENDBRANCH  25  28
ENDBRANCH  11  22
TORSDOF 5
ENDMDL
MODEL 2
REMARK VINA RESULT: -8.979579437      1.256      1.588
REMARK  5 active torsions:
REMARK  status: ('A' for Active; 'I' for Inactive)
REMARK    1  A    between atoms: C4_5  and  N1_6 
REMARK    2  A    between atoms: C7_9  and  C8_10 
REMARK    3  A    between atoms: C8_10  and  O1_11 
REMARK    4  A    between atoms: C12_20  and  C13_21 
REMARK    5  A    between atoms: N4_24  and  C16_25 
ROOT
HETATM    1  C1  UNL     1       3.832   7.278   2.185  1.00  0.00     0.018 C 
HETATM    2  C2  UNL     1       3.201   7.350   3.208  1.00  0.00    -0.069 C 
HETATM    3  C3  UNL     1       2.422   7.443   4.423  1.00  0.00     0.074 A 
HETATM    4  S1  UNL     1       0.873   6.803   4.667  1.00  0.00    -0.060 SA
HETATM    5  C4  UNL     1       0.602   7.319   6.303  1.00  0.00     0.102 A 
HETATM    6  C11 UNL     1       1.768   7.982   6.581  1.00  0.00     0.096 A 
HETATM    7  N2  UNL     1       2.300   8.656   7.659  1.00  0.00    -0.297 N 
ATOM      8  H2  UNL     1       1.828   8.781   8.554  1.00  0.00     0.187 HD
HETATM    9  N3  UNL     1       3.502   9.116   7.375  1.00  0.00    -0.303 N 
ATOM     10  H3  UNL     1       4.100   9.648   8.005  1.00  0.00     0.186 HD
HETATM   11  C12 UNL     1       3.804   8.764   6.119  1.00  0.00     0.045 A 
HETATM   12  C21 UNL     1       2.700   8.047   5.624  1.00  0.00     0.045 A 
ENDROOT
BRANCH   5  13
HETATM   13  N1  UNL     1      -0.572   7.049   7.064  1.00  0.00    -0.373 N 
HETATM   14  C5  UNL     1      -1.079   7.813   8.158  1.00  0.00     0.124 C 
HETATM   15  C6  UNL     1      -0.802   7.115   9.482  1.00  0.00     0.026 C 
HETATM   16  C7  UNL     1      -0.783   5.627   9.172  1.00  0.00     0.012 C 
HETATM   17  C9  UNL     1      -1.779   5.291   8.100  1.00  0.00     0.026 C 
HETATM   18  C10 UNL     1      -1.350   5.849   6.732  1.00  0.00     0.124 C 
BRANCH  16  19
HETATM   19  C8  UNL     1      -1.108   4.811  10.395  1.00  0.00     0.168 C 
BRANCH  19  20
HETATM   20  O1  UNL     1      -1.986   3.785  10.033  1.00  0.00    -0.400 OA
ATOM     21  H1  UNL     1      -2.158   3.245  10.795  1.00  0.00     0.209 HD
ENDBRANCH  19  20
ENDBRANCH  16  19
ENDBRANCH   5  13
BRANCH  11  22
HETATM   22  C13 UNL     1       5.090   9.096   5.488  1.00  0.00     0.044 C 
HETATM   23  C14 UNL     1       5.151  10.576   5.122  1.00  0.00     0.031 C 
HETATM   24  C15 UNL     1       6.369  10.741   4.236  1.00  0.00     0.123 C 
HETATM   25  N4  UNL     1       7.517  10.463   5.018  1.00  0.00    -0.389 N 
HETATM   26  C19 UNL     1       7.309   9.946   6.312  1.00  0.00     0.059 C 
HETATM   27  C20 UNL     1       6.285   8.832   6.381  1.00  0.00     0.055 C 
BRANCH  25  28
HETATM   28  C16 UNL     1       8.676  11.204   4.769  1.00  0.00     0.075 C 
HETATM   29  C17 UNL     1       9.190  11.809   6.066  1.00  0.00     0.032 C 
HETATM   30  C18 UNL     1       8.424  12.379   3.827  1.00  0.00     0.032 C 
ENDBRANCH  25  28
ENDBRANCH  11  22
TORSDOF 5
ENDMDL
MODEL 3
REMARK VINA RESULT: -8.922770821      3.629      5.657
REMARK  5 active torsions:
REMARK  status: ('A' for Active; 'I' for Inactive)
REMARK    1  A    between atoms: C4_5  and  N1_6 
REMARK    2  A    between atoms: C7_9  and  C8_10 
REMARK    3  A    between atoms: C8_10  and  O1_11 
REMARK    4  A    between atoms: C12_20  and  C13_21 
REMARK    5  A    between atoms: N4_24  and  C16_25 
ROOT
HETATM    1  C1  UNL     1       5.550  10.433   6.453  1.00  0.00     0.018 C 
HETATM    2  C2  UNL     1       5.003   9.884   7.373  1.00  0.00    -0.069 C 
HETATM    3  C3  UNL     1       4.369   9.215   8.488  1.00  0.00     0.074 A 
HETATM    4  S1  UNL     1       4.888   9.251  10.100  1.00  0.00    -0.060 SA
HETATM    5  C4  UNL     1       3.675   8.235  10.816  1.00  0.00     0.102 A 
HETATM    6  C11 UNL     1       2.906   7.912   9.729  1.00  0.00     0.096 A 
HETATM    7  N2  UNL     1       1.777   7.158   9.494  1.00  0.00    -0.297 N 
ATOM      8  H2  UNL     1       1.264   6.645  10.210  1.00  0.00     0.187 HD
HETATM    9  N3  UNL     1       1.452   7.190   8.218  1.00  0.00    -0.303 N 
ATOM     10  H3  UNL     1       0.659   6.711   7.792  1.00  0.00     0.186 HD
HETATM   11  C12 UNL     1       2.340   7.959   7.574  1.00  0.00     0.045 A 
HETATM   12  C21 UNL     1       3.257   8.411   8.539  1.00  0.00     0.045 A 
ENDROOT
BRANCH   5  13
HETATM   13  N1  UNL     1       3.596   7.903  12.200  1.00  0.00    -0.373 N 
HETATM   14  C5  UNL     1       3.203   6.651  12.760  1.00  0.00     0.124 C 
HETATM   15  C6  UNL     1       1.793   6.728  13.328  1.00  0.00     0.026 C 
HETATM   16  C7  UNL     1       1.600   8.170  13.766  1.00  0.00     0.012 C 
HETATM   17  C9  UNL     1       2.881   8.745  14.297  1.00  0.00     0.026 C 
HETATM   18  C10 UNL     1       3.918   8.947  13.180  1.00  0.00     0.124 C 
BRANCH  16  19
HETATM   19  C8  UNL     1       0.549   8.278  14.840  1.00  0.00     0.168 C 
BRANCH  19  20
HETATM   20  O1  UNL     1       1.100   7.858  16.054  1.00  0.00    -0.400 OA
ATOM     21  H1  UNL     1       0.548   8.164  16.764  1.00  0.00     0.209 HD
ENDBRANCH  19  20
ENDBRANCH  16  19
ENDBRANCH   5  13
BRANCH  11  22
HETATM   22  C13 UNL     1       2.256   8.231   6.131  1.00  0.00     0.044 C 
HETATM   23  C14 UNL     1       3.364   7.505   5.375  1.00  0.00     0.031 C 
HETATM   24  C15 UNL     1       3.362   8.077   3.972  1.00  0.00     0.123 C 
HETATM   25  N4  UNL     1       2.138   7.715   3.357  1.00  0.00    -0.389 N 
HETATM   26  C19 UNL     1       1.161   7.104   4.168  1.00  0.00     0.059 C 
HETATM   27  C20 UNL     1       0.952   7.780   5.507  1.00  0.00     0.055 C 
BRANCH  25  28
HETATM   28  C16 UNL     1       2.150   7.427   1.989  1.00  0.00     0.075 C 
HETATM   29  C17 UNL     1       0.998   6.495   1.647  1.00  0.00     0.032 C 
HETATM   30  C18 UNL     1       3.423   6.699   1.559  1.00  0.00     0.032 C 
ENDBRANCH  25  28
ENDBRANCH  11  22
TORSDOF 5
ENDMDL
MODEL 4
REMARK VINA RESULT: -8.637466838      1.490      1.928
REMARK  5 active torsions:
REMARK  status: ('A' for Active; 'I' for Inactive)
REMARK    1  A    between atoms: C4_5  and  N1_6 
REMARK    2  A    between atoms: C7_9  and  C8_10 
REMARK    3  A    between atoms: C8_10  and  O1_11 
REMARK    4  A    between atoms: C12_20  and  C13_21 
REMARK    5  A    between atoms: N4_24  and  C16_25 
ROOT
HETATM    1  C1  UNL     1       3.102   7.494   2.682  1.00  0.00     0.018 C 
HETATM    2  C2  UNL     1       2.659   7.475   3.801  1.00  0.00    -0.069 C 
HETATM    3  C3  UNL     1       2.103   7.460   5.137  1.00  0.00     0.074 A 
HETATM    4  S1  UNL     1       0.613   6.795   5.590  1.00  0.00    -0.060 SA
HETATM    5  C4  UNL     1       0.635   7.168   7.286  1.00  0.00     0.102 A 
HETATM    6  C11 UNL     1       1.839   7.809   7.414  1.00  0.00     0.096 A 
HETATM    7  N2  UNL     1       2.557   8.390   8.436  1.00  0.00    -0.297 N 
ATOM      8  H2  UNL     1       2.249   8.436   9.407  1.00  0.00     0.187 HD
HETATM    9  N3  UNL     1       3.696   8.877   7.989  1.00  0.00    -0.303 N 
ATOM     10  H3  UNL     1       4.401   9.356   8.549  1.00  0.00     0.186 HD
HETATM   11  C12 UNL     1       3.773   8.636   6.674  1.00  0.00     0.045 A 
HETATM   12  C21 UNL     1       2.592   7.960   6.318  1.00  0.00     0.045 A 
ENDROOT
BRANCH   5  13
HETATM   13  N1  UNL     1      -0.393   6.829   8.213  1.00  0.00    -0.373 N 
HETATM   14  C5  UNL     1      -1.483   7.653   8.623  1.00  0.00     0.124 C 
HETATM   15  C6  UNL     1      -1.252   8.206  10.022  1.00  0.00     0.026 C 
HETATM   16  C7  UNL     1      -0.401   7.172  10.741  1.00  0.00     0.012 C 
HETATM   17  C9  UNL     1      -0.766   5.782  10.307  1.00  0.00     0.026 C 
HETATM   18  C10 UNL     1      -0.336   5.510   8.855  1.00  0.00     0.124 C 
BRANCH  16  19
HETATM   19  C8  UNL     1      -0.577   7.265  12.234  1.00  0.00     0.168 C 
BRANCH  19  20
HETATM   20  O1  UNL     1      -0.267   8.566  12.645  1.00  0.00    -0.400 OA
ATOM     21  H1  UNL     1      -0.505   8.664  13.559  1.00  0.00     0.209 HD
ENDBRANCH  19  20
ENDBRANCH  16  19
ENDBRANCH   5  13
BRANCH  11  22
HETATM   22  C13 UNL     1       4.934   9.026   5.860  1.00  0.00     0.044 C 
HETATM   23  C14 UNL     1       4.939  10.530   5.605  1.00  0.00     0.031 C 
HETATM   24  C15 UNL     1       5.988  10.774   4.540  1.00  0.00     0.123 C 
HETATM   25  N4  UNL     1       7.252  10.445   5.090  1.00  0.00    -0.389 N 
HETATM   26  C19 UNL     1       7.265   9.827   6.356  1.00  0.00     0.059 C 
HETATM   27  C20 UNL     1       6.263   8.703   6.512  1.00  0.00     0.055 C 
BRANCH  25  28
HETATM   28  C16 UNL     1       8.355  11.212   4.705  1.00  0.00     0.075 C 
HETATM   29  C17 UNL     1       9.092  11.712   5.938  1.00  0.00     0.032 C 
HETATM   30  C18 UNL     1       7.951  12.459   3.921  1.00  0.00     0.032 C 
ENDBRANCH  25  28
ENDBRANCH  11  22
TORSDOF 5
ENDMDL
MODEL 5
REMARK VINA RESULT: -8.573493424      4.860      5.855
REMARK  5 active torsions:
REMARK  status: ('A' for Active; 'I' for Inactive)
REMARK    1  A    between atoms: C4_5  and  N1_6 
REMARK    2  A    between atoms: C7_9  and  C8_10 
REMARK    3  A    between atoms: C8_10  and  O1_11 
REMARK    4  A    between atoms: C12_20  and  C13_21 
REMARK    5  A    between atoms: N4_24  and  C16_25 
ROOT
HETATM    1  C1  UNL     1       4.278   6.729   1.618  1.00  0.00     0.018 C 
HETATM    2  C2  UNL     1       3.165   6.682   2.074  1.00  0.00    -0.069 C 
HETATM    3  C3  UNL     1       1.818   6.634   2.600  1.00  0.00     0.074 A 
HETATM    4  S1  UNL     1       0.439   6.112   1.767  1.00  0.00    -0.060 SA
HETATM    5  C4  UNL     1      -0.755   6.359   3.003  1.00  0.00     0.102 A 
HETATM    6  C11 UNL     1       0.006   6.848   4.031  1.00  0.00     0.096 A 
HETATM    7  N2  UNL     1      -0.214   7.270   5.324  1.00  0.00    -0.297 N 
ATOM      8  H2  UNL     1      -1.126   7.282   5.782  1.00  0.00     0.187 HD
HETATM    9  N3  UNL     1       0.912   7.656   5.888  1.00  0.00    -0.303 N 
ATOM     10  H3  UNL     1       1.011   8.011   6.838  1.00  0.00     0.186 HD
HETATM   11  C12 UNL     1       1.904   7.502   5.002  1.00  0.00     0.045 A 
HETATM   12  C21 UNL     1       1.321   6.991   3.829  1.00  0.00     0.045 A 
ENDROOT
BRANCH   5  13
HETATM   13  N1  UNL     1      -2.145   6.072   2.869  1.00  0.00    -0.373 N 
HETATM   14  C5  UNL     1      -2.728   4.941   2.224  1.00  0.00     0.124 C 
HETATM   15  C6  UNL     1      -3.303   5.324   0.868  1.00  0.00     0.026 C 
HETATM   16  C7  UNL     1      -3.718   6.781   0.989  1.00  0.00     0.012 C 
HETATM   17  C9  UNL     1      -4.232   7.078   2.368  1.00  0.00     0.026 C 
HETATM   18  C10 UNL     1      -3.105   7.039   3.414  1.00  0.00     0.124 C 
BRANCH  16  19
HETATM   19  C8  UNL     1      -4.796   7.125  -0.005  1.00  0.00     0.168 C 
BRANCH  19  20
HETATM   20  O1  UNL     1      -4.221   7.826  -1.070  1.00  0.00    -0.400 OA
ATOM     21  H1  UNL     1      -3.366   7.455  -1.255  1.00  0.00     0.209 HD
ENDBRANCH  19  20
ENDBRANCH  16  19
ENDBRANCH   5  13
BRANCH  11  22
HETATM   22  C13 UNL     1       3.306   7.815   5.316  1.00  0.00     0.044 C 
HETATM   23  C14 UNL     1       3.806   8.981   4.469  1.00  0.00     0.031 C 
HETATM   24  C15 UNL     1       5.308   9.026   4.659  1.00  0.00     0.123 C 
HETATM   25  N4  UNL     1       5.566   9.359   6.012  1.00  0.00    -0.389 N 
HETATM   26  C19 UNL     1       4.466   9.395   6.890  1.00  0.00     0.059 C 
HETATM   27  C20 UNL     1       3.525   8.217   6.760  1.00  0.00     0.055 C 
BRANCH  25  28
HETATM   28  C16 UNL     1       6.675  10.164   6.290  1.00  0.00     0.075 C 
HETATM   29  C17 UNL     1       7.188  10.798   5.006  1.00  0.00     0.032 C 
HETATM   30  C18 UNL     1       7.845   9.364   6.861  1.00  0.00     0.032 C 
ENDBRANCH  25  28
ENDBRANCH  11  22
TORSDOF 5
ENDMDL
