MODEL 1
REMARK VINA RESULT: -8.719199876      0.000      0.000
REMARK  5 active torsions:
REMARK  status: ('A' for Active; 'I' for Inactive)
REMARK    1  A    between atoms: C9_13  and  N3_14 
REMARK    2  A    between atoms: C16_21  and  C17_22 
REMARK    3  A    between atoms: C17_22  and  C18_23 
REMARK    4  A    between atoms: C18_23  and  C19_24 
REMARK    5  A    between atoms: C19_24  and  O2_25 
ROOT
HETATM    1  N3  UNL     1       1.378   7.291   8.581  1.00  0.00     0.100 N 
HETATM    2  C10 UNL     1       1.274   8.718   8.377  1.00  0.00     0.273 C 
HETATM    3  C11 UNL     1       2.572   9.339   8.789  1.00  0.00     0.033 C 
HETATM    4  C12 UNL     1       3.684   8.321   8.494  1.00  0.00     0.039 C 
HETATM    5  C13 UNL     1       3.698   8.164   7.013  1.00  0.00     0.063 C 
HETATM    6  C14 UNL     1       5.047   7.527   6.641  1.00  0.00     0.040 C 
HETATM    7  C15 UNL     1       5.126   8.027   5.194  1.00  0.00     0.035 C 
HETATM    8  C16 UNL     1       4.564   9.408   5.368  1.00  0.00     0.122 C 
HETATM    9  O3  UNL     1       3.754   9.445   6.460  1.00  0.00    -0.375 OA
HETATM   10  C20 UNL     1       2.557   7.436   6.428  1.00  0.00     0.068 C 
HETATM   11  C21 UNL     1       1.727   6.631   7.383  1.00  0.00     0.276 C 
ENDROOT
BRANCH   1  12
HETATM   12  C9  UNL     1       0.228   6.850   9.284  1.00  0.00     0.287 C 
HETATM   13  C1  UNL     1       0.156   7.293  10.710  1.00  0.00     0.129 C 
HETATM   14  N1  UNL     1       1.369   7.014  11.486  1.00  0.00    -0.085 NA
HETATM   15  N2  UNL     1      -0.790   7.865  11.293  1.00  0.00    -0.317 N 
HETATM   16  C2  UNL     1      -2.052   8.335  11.085  1.00  0.00     0.222 C 
ATOM     17  H2  UNL     1      -0.526   8.041  12.263  1.00  0.00     0.169 HD
HETATM   18  O1  UNL     1      -2.316   9.459  10.567  1.00  0.00    -0.273 OA
HETATM   19  C3  UNL     1      -3.254   7.533  11.470  1.00  0.00     0.103 C 
HETATM   20  C4  UNL     1      -3.821   6.647  10.434  1.00  0.00     0.009 C 
HETATM   21  C5  UNL     1      -3.385   6.839   9.030  1.00  0.00     0.000 C 
HETATM   22  C6  UNL     1      -2.536   5.722   8.483  1.00  0.00     0.000 C 
HETATM   23  C7  UNL     1      -1.569   5.100   9.403  1.00  0.00     0.002 C 
HETATM   24  C8  UNL     1      -0.120   5.409   9.091  1.00  0.00     0.043 C 
ENDBRANCH   1  12
BRANCH   8  25
HETATM   25  C17 UNL     1       5.623  10.472   5.489  1.00  0.00     0.034 C 
BRANCH  25  26
HETATM   26  C18 UNL     1       5.608  11.468   4.349  1.00  0.00     0.028 C 
BRANCH  26  27
HETATM   27  C19 UNL     1       7.057  11.952   4.186  1.00  0.00     0.164 C 
BRANCH  27  28
HETATM   28  O2  UNL     1       7.272  12.442   2.907  1.00  0.00    -0.401 OA
ATOM     29  H2  UNL     1       7.716  11.797   2.368  1.00  0.00     0.209 HD
ENDBRANCH  27  28
ENDBRANCH  26  27
ENDBRANCH  25  26
ENDBRANCH   8  25
TORSDOF 5
ENDMDL
MODEL 2
REMARK VINA RESULT: -8.314225704      3.093      8.120
REMARK  5 active torsions:
REMARK  status: ('A' for Active; 'I' for Inactive)
REMARK    1  A    between atoms: C9_13  and  N3_14 
REMARK    2  A    between atoms: C16_21  and  C17_22 
REMARK    3  A    between atoms: C17_22  and  C18_23 
REMARK    4  A    between atoms: C18_23  and  C19_24 
REMARK    5  A    between atoms: C19_24  and  O2_25 
ROOT
HETATM    1  N3  UNL     1       4.239   8.117   9.560  1.00  0.00     0.100 N 
HETATM    2  C10 UNL     1       2.843   8.482   9.493  1.00  0.00     0.273 C 
HETATM    3  C11 UNL     1       2.062   7.463  10.262  1.00  0.00     0.033 C 
HETATM    4  C12 UNL     1       2.956   6.967  11.408  1.00  0.00     0.039 C 
HETATM    5  C13 UNL     1       3.167   8.148  12.291  1.00  0.00     0.063 C 
HETATM    6  C14 UNL     1       3.659   7.615  13.646  1.00  0.00     0.040 C 
HETATM    7  C15 UNL     1       3.209   8.795  14.515  1.00  0.00     0.035 C 
HETATM    8  C16 UNL     1       1.896   9.111  13.859  1.00  0.00     0.122 C 
HETATM    9  O3  UNL     1       1.910   8.690  12.566  1.00  0.00    -0.375 OA
HETATM   10  C20 UNL     1       4.043   9.207  11.756  1.00  0.00     0.068 C 
HETATM   11  C21 UNL     1       4.901   8.828  10.586  1.00  0.00     0.276 C 
ENDROOT
BRANCH   1  12
HETATM   12  C9  UNL     1       4.782   8.163   8.251  1.00  0.00     0.287 C 
HETATM   13  C1  UNL     1       4.440   6.989   7.390  1.00  0.00     0.129 C 
HETATM   14  N1  UNL     1       4.712   5.689   8.012  1.00  0.00    -0.085 NA
HETATM   15  N2  UNL     1       3.955   6.994   6.237  1.00  0.00    -0.317 N 
HETATM   16  C2  UNL     1       3.535   7.837   5.253  1.00  0.00     0.222 C 
ATOM     17  H2  UNL     1       3.832   6.030   5.924  1.00  0.00     0.169 HD
HETATM   18  O1  UNL     1       2.392   8.381   5.223  1.00  0.00    -0.273 OA
HETATM   19  C3  UNL     1       4.418   8.188   4.099  1.00  0.00     0.103 C 
HETATM   20  C4  UNL     1       5.258   9.392   4.249  1.00  0.00     0.009 C 
HETATM   21  C5  UNL     1       4.952  10.331   5.355  1.00  0.00     0.000 C 
HETATM   22  C6  UNL     1       5.987  10.365   6.449  1.00  0.00     0.000 C 
HETATM   23  C7  UNL     1       6.622   9.087   6.813  1.00  0.00     0.002 C 
HETATM   24  C8  UNL     1       6.223   8.556   8.174  1.00  0.00     0.043 C 
ENDBRANCH   1  12
BRANCH   8  25
HETATM   25  C17 UNL     1       0.714   8.509  14.572  1.00  0.00     0.034 C 
BRANCH  25  26
HETATM   26  C18 UNL     1      -0.018   7.470  13.750  1.00  0.00     0.028 C 
BRANCH  26  27
HETATM   27  C19 UNL     1      -1.302   8.150  13.249  1.00  0.00     0.164 C 
BRANCH  27  28
HETATM   28  O2  UNL     1      -1.109   8.700  11.991  1.00  0.00    -0.401 OA
ATOM     29  H2  UNL     1      -0.477   9.409  12.026  1.00  0.00     0.209 HD
ENDBRANCH  27  28
ENDBRANCH  26  27
ENDBRANCH  25  26
ENDBRANCH   8  25
TORSDOF 5
ENDMDL
MODEL 3
REMARK VINA RESULT: -8.274797862      2.048      2.795
REMARK  5 active torsions:
REMARK  status: ('A' for Active; 'I' for Inactive)
REMARK    1  A    between atoms: C9_13  and  N3_14 
REMARK    2  A    between atoms: C16_21  and  C17_22 
REMARK    3  A    between atoms: C17_22  and  C18_23 
REMARK    4  A    between atoms: C18_23  and  C19_24 
REMARK    5  A    between atoms: C19_24  and  O2_25 
ROOT
HETATM    1  N3  UNL     1       2.221   7.917   7.796  1.00  0.00     0.100 N 
HETATM    2  C10 UNL     1       2.726   9.136   8.387  1.00  0.00     0.273 C 
HETATM    3  C11 UNL     1       4.161   8.913   8.749  1.00  0.00     0.033 C 
HETATM    4  C12 UNL     1       4.748   7.930   7.725  1.00  0.00     0.039 C 
HETATM    5  C13 UNL     1       4.708   8.643   6.418  1.00  0.00     0.063 C 
HETATM    6  C14 UNL     1       5.670   7.905   5.474  1.00  0.00     0.040 C 
HETATM    7  C15 UNL     1       5.964   9.068   4.519  1.00  0.00     0.035 C 
HETATM    8  C16 UNL     1       6.029  10.199   5.504  1.00  0.00     0.122 C 
HETATM    9  O3  UNL     1       5.300   9.893   6.610  1.00  0.00    -0.375 OA
HETATM   10  C20 UNL     1       3.372   8.828   5.822  1.00  0.00     0.068 C 
HETATM   11  C21 UNL     1       2.273   7.979   6.386  1.00  0.00     0.276 C 
ENDROOT
BRANCH   1  12
HETATM   12  C9  UNL     1       0.986   7.594   8.412  1.00  0.00     0.287 C 
HETATM   13  C1  UNL     1      -0.217   7.795   7.547  1.00  0.00     0.129 C 
HETATM   14  N1  UNL     1      -0.290   9.118   6.918  1.00  0.00    -0.085 NA
HETATM   15  N2  UNL     1      -1.135   6.982   7.303  1.00  0.00    -0.317 N 
HETATM   16  C2  UNL     1      -1.551   5.716   7.587  1.00  0.00     0.222 C 
ATOM     17  H2  UNL     1      -1.807   7.419   6.671  1.00  0.00     0.169 HD
HETATM   18  O1  UNL     1      -1.121   4.678   7.003  1.00  0.00    -0.273 OA
HETATM   19  C3  UNL     1      -2.582   5.453   8.637  1.00  0.00     0.103 C 
HETATM   20  C4  UNL     1      -2.087   5.189  10.002  1.00  0.00     0.009 C 
HETATM   21  C5  UNL     1      -0.646   4.888  10.181  1.00  0.00     0.000 C 
HETATM   22  C6  UNL     1       0.131   5.964  10.894  1.00  0.00     0.000 C 
HETATM   23  C7  UNL     1      -0.227   7.361  10.598  1.00  0.00     0.002 C 
HETATM   24  C8  UNL     1       0.814   8.119   9.801  1.00  0.00     0.043 C 
ENDBRANCH   1  12
BRANCH   8  25
HETATM   25  C17 UNL     1       7.436  10.555   5.909  1.00  0.00     0.034 C 
BRANCH  25  26
HETATM   26  C18 UNL     1       8.218  11.253   4.817  1.00  0.00     0.028 C 
BRANCH  26  27
HETATM   27  C19 UNL     1       7.302  12.364   4.280  1.00  0.00     0.164 C 
BRANCH  27  28
HETATM   28  O2  UNL     1       7.371  12.434   2.898  1.00  0.00    -0.401 OA
ATOM     29  H2  UNL     1       7.255  13.329   2.598  1.00  0.00     0.209 HD
ENDBRANCH  27  28
ENDBRANCH  26  27
ENDBRANCH  25  26
ENDBRANCH   8  25
TORSDOF 5
ENDMDL
MODEL 4
REMARK VINA RESULT: -8.243651884      2.529      3.315
REMARK  5 active torsions:
REMARK  status: ('A' for Active; 'I' for Inactive)
REMARK    1  A    between atoms: C9_13  and  N3_14 
REMARK    2  A    between atoms: C16_21  and  C17_22 
REMARK    3  A    between atoms: C17_22  and  C18_23 
REMARK    4  A    between atoms: C18_23  and  C19_24 
REMARK    5  A    between atoms: C19_24  and  O2_25 
ROOT
HETATM    1  N3  UNL     1       2.506   7.708  10.570  1.00  0.00     0.100 N 
HETATM    2  C10 UNL     1       3.123   9.009  10.701  1.00  0.00     0.273 C 
HETATM    3  C11 UNL     1       4.577   8.866  10.376  1.00  0.00     0.033 C 
HETATM    4  C12 UNL     1       4.706   7.751   9.327  1.00  0.00     0.039 C 
HETATM    5  C13 UNL     1       4.011   8.261   8.113  1.00  0.00     0.063 C 
HETATM    6  C14 UNL     1       4.488   7.407   6.928  1.00  0.00     0.040 C 
HETATM    7  C15 UNL     1       4.212   8.420   5.811  1.00  0.00     0.035 C 
HETATM    8  C16 UNL     1       4.628   9.686   6.503  1.00  0.00     0.122 C 
HETATM    9  O3  UNL     1       4.518   9.535   7.850  1.00  0.00    -0.375 OA
HETATM   10  C20 UNL     1       2.540   8.334   8.192  1.00  0.00     0.068 C 
HETATM   11  C21 UNL     1       1.899   7.560   9.304  1.00  0.00     0.276 C 
ENDROOT
BRANCH   1  12
HETATM   12  C9  UNL     1       1.725   7.459  11.727  1.00  0.00     0.287 C 
HETATM   13  C1  UNL     1       2.511   7.131  12.956  1.00  0.00     0.129 C 
HETATM   14  N1  UNL     1       3.501   6.065  12.768  1.00  0.00    -0.085 NA
HETATM   15  N2  UNL     1       2.426   7.655  14.088  1.00  0.00    -0.317 N 
HETATM   16  C2  UNL     1       1.743   8.608  14.781  1.00  0.00     0.222 C 
ATOM     17  H2  UNL     1       3.104   7.214  14.711  1.00  0.00     0.169 HD
HETATM   18  O1  UNL     1       2.020   9.844  14.753  1.00  0.00    -0.273 OA
HETATM   19  C3  UNL     1       0.583   8.254  15.655  1.00  0.00     0.103 C 
HETATM   20  C4  UNL     1      -0.754   8.289  15.032  1.00  0.00     0.009 C 
HETATM   21  C5  UNL     1      -0.900   8.962  13.719  1.00  0.00     0.000 C 
HETATM   22  C6  UNL     1      -1.192   8.032  12.570  1.00  0.00     0.000 C 
HETATM   23  C7  UNL     1      -0.520   6.722  12.578  1.00  0.00     0.002 C 
HETATM   24  C8  UNL     1       0.548   6.561  11.517  1.00  0.00     0.043 C 
ENDBRANCH   1  12
BRANCH   8  25
HETATM   25  C17 UNL     1       6.028  10.121   6.157  1.00  0.00     0.034 C 
BRANCH  25  26
HETATM   26  C18 UNL     1       6.291  10.171   4.667  1.00  0.00     0.028 C 
BRANCH  26  27
HETATM   27  C19 UNL     1       5.913  11.590   4.215  1.00  0.00     0.164 C 
BRANCH  27  28
HETATM   28  O2  UNL     1       6.742  12.017   3.188  1.00  0.00    -0.401 OA
ATOM     29  H2  UNL     1       6.299  12.655   2.640  1.00  0.00     0.209 HD
ENDBRANCH  27  28
ENDBRANCH  26  27
ENDBRANCH  25  26
ENDBRANCH   8  25
TORSDOF 5
ENDMDL
MODEL 5
REMARK VINA RESULT: -8.162872208      1.063      1.114
REMARK  5 active torsions:
REMARK  status: ('A' for Active; 'I' for Inactive)
REMARK    1  A    between atoms: C9_13  and  N3_14 
REMARK    2  A    between atoms: C16_21  and  C17_22 
REMARK    3  A    between atoms: C17_22  and  C18_23 
REMARK    4  A    between atoms: C18_23  and  C19_24 
REMARK    5  A    between atoms: C19_24  and  O2_25 
ROOT
HETATM    1  N3  UNL     1       1.475   7.398   8.454  1.00  0.00     0.100 N 
HETATM    2  C10 UNL     1       1.397   8.839   8.385  1.00  0.00     0.273 C 
HETATM    3  C11 UNL     1       2.687   9.397   8.900  1.00  0.00     0.033 C 
HETATM    4  C12 UNL     1       3.796   8.395   8.547  1.00  0.00     0.039 C 
HETATM    5  C13 UNL     1       3.863   8.380   7.059  1.00  0.00     0.063 C 
HETATM    6  C14 UNL     1       5.216   7.761   6.676  1.00  0.00     0.040 C 
HETATM    7  C15 UNL     1       5.355   8.396   5.287  1.00  0.00     0.035 C 
HETATM    8  C16 UNL     1       4.803   9.762   5.574  1.00  0.00     0.122 C 
HETATM    9  O3  UNL     1       3.955   9.707   6.636  1.00  0.00    -0.375 OA
HETATM   10  C20 UNL     1       2.734   7.730   6.367  1.00  0.00     0.068 C 
HETATM   11  C21 UNL     1       1.860   6.851   7.210  1.00  0.00     0.276 C 
ENDROOT
BRANCH   1  12
HETATM   12  C9  UNL     1       0.295   6.910   9.069  1.00  0.00     0.287 C 
HETATM   13  C1  UNL     1       0.184   7.203  10.532  1.00  0.00     0.129 C 
HETATM   14  N1  UNL     1       1.365   6.818  11.312  1.00  0.00    -0.085 NA
HETATM   15  N2  UNL     1      -0.772   7.730  11.142  1.00  0.00    -0.317 N 
HETATM   16  C2  UNL     1      -2.017   8.245  10.945  1.00  0.00     0.222 C 
ATOM     17  H2  UNL     1      -0.537   7.798  12.133  1.00  0.00     0.169 HD
HETATM   18  O1  UNL     1      -2.244   9.423  10.540  1.00  0.00    -0.273 OA
HETATM   19  C3  UNL     1      -3.245   7.433  11.205  1.00  0.00     0.103 C 
HETATM   20  C4  UNL     1      -3.793   6.673  10.065  1.00  0.00     0.009 C 
HETATM   21  C5  UNL     1      -3.307   7.002   8.703  1.00  0.00     0.000 C 
HETATM   22  C6  UNL     1      -2.460   5.930   8.068  1.00  0.00     0.000 C 
HETATM   23  C7  UNL     1      -1.535   5.195   8.947  1.00  0.00     0.002 C 
HETATM   24  C8  UNL     1      -0.071   5.504   8.715  1.00  0.00     0.043 C 
ENDBRANCH   1  12
BRANCH   8  25
HETATM   25  C17 UNL     1       5.871  10.793   5.834  1.00  0.00     0.034 C 
BRANCH  25  26
HETATM   26  C18 UNL     1       7.061  10.672   4.908  1.00  0.00     0.028 C 
BRANCH  26  27
HETATM   27  C19 UNL     1       8.307  10.868   5.786  1.00  0.00     0.164 C 
BRANCH  27  28
HETATM   28  O2  UNL     1       8.209  10.125   6.952  1.00  0.00    -0.401 OA
ATOM     29  H2  UNL     1       7.469   9.531   6.913  1.00  0.00     0.209 HD
ENDBRANCH  27  28
ENDBRANCH  26  27
ENDBRANCH  25  26
ENDBRANCH   8  25
TORSDOF 5
ENDMDL
