MODEL 1
REMARK VINA RESULT: -7.347222195      0.000      0.000
REMARK  6 active torsions:
REMARK  status: ('A' for Active; 'I' for Inactive)
REMARK    1  A    between atoms: S1_2  and  C2_3 
REMARK    2  A    between atoms: C2_3  and  C3_4 
REMARK    3  A    between atoms: C3_4  and  N1_5 
REMARK    4  A    between atoms: C12_14  and  O1_15 
REMARK    5  A    between atoms: C12_14  and  C13_17 
REMARK    6  A    between atoms: C13_17  and  O2_18 
ROOT
HETATM    1  C2  UNL     1      -0.144   7.293  10.836  1.00  0.00     0.044 C 
HETATM    2  C8  UNL     1       0.349   7.745   9.659  1.00  0.00     0.068 C 
HETATM    3  C9  UNL     1      -0.582   8.393   8.718  1.00  0.00     0.066 C 
HETATM    4  C10 UNL     1       0.238   9.444   7.963  1.00  0.00     0.012 C 
HETATM    5  C11 UNL     1       1.259   8.714   7.149  1.00  0.00     0.072 C 
HETATM    6  C12 UNL     1       1.948   7.610   7.890  1.00  0.00     0.199 C 
HETATM    7  O3  UNL     1       1.663   7.637   9.285  1.00  0.00    -0.314 OA
ENDROOT
BRANCH   6   8
HETATM    8  O1  UNL     1       1.443   6.397   7.389  1.00  0.00    -0.363 OA
ATOM      9  H1  UNL     1       1.499   5.759   8.091  1.00  0.00     0.213 HD
ENDBRANCH   6   8
BRANCH   6  10
HETATM   10  C13 UNL     1       3.407   7.641   7.582  1.00  0.00     0.118 C 
HETATM   11  C14 UNL     1       4.263   7.067   8.712  1.00  0.00     0.044 C 
HETATM   12  C15 UNL     1       5.688   7.425   8.377  1.00  0.00     0.009 C 
HETATM   13  C16 UNL     1       5.856   8.830   7.882  1.00  0.00    -0.006 C 
HETATM   14  C17 UNL     1       4.668   9.631   8.446  1.00  0.00     0.014 C 
HETATM   15  C19 UNL     1       5.202   9.084   6.551  1.00  0.00    -0.037 C 
HETATM   16  C18 UNL     1       3.883   9.013   7.276  1.00  0.00     0.034 C 
HETATM   17  C20 UNL     1       5.462   8.182   5.433  1.00  0.00     0.015 C 
HETATM   18  C21 UNL     1       5.461  10.544   6.154  1.00  0.00     0.015 C 
BRANCH  10  19
HETATM   19  O2  UNL     1       3.601   6.729   6.527  1.00  0.00    -0.384 OA
ATOM     20  H2  UNL     1       4.035   5.974   6.909  1.00  0.00     0.210 HD
ENDBRANCH  10  19
ENDBRANCH   6  10
BRANCH   1  21
HETATM   21  S1  UNL     1      -1.836   7.525  11.118  1.00  0.00    -0.131 SA
HETATM   22  C1  UNL     1      -2.369   8.964  12.008  1.00  0.00     0.095 C 
ENDBRANCH   1  21
BRANCH   1  23
HETATM   23  C3  UNL     1       0.806   6.567  11.673  1.00  0.00     0.106 C 
BRANCH  23  24
HETATM   24  N1  UNL     1       1.504   7.209  12.667  1.00  0.00    -0.389 N 
HETATM   25  C4  UNL     1       1.748   8.565  12.803  1.00  0.00     0.122 C 
HETATM   26  C5  UNL     1       3.176   8.816  12.293  1.00  0.00     0.021 C 
HETATM   27  C6  UNL     1       3.774   7.428  12.284  1.00  0.00     0.021 C 
HETATM   28  C7  UNL     1       2.777   6.615  13.073  1.00  0.00     0.122 C 
ENDBRANCH  23  24
ENDBRANCH   1  23
TORSDOF 6
ENDMDL
MODEL 2
REMARK VINA RESULT: -7.308319281      3.828      6.133
REMARK  6 active torsions:
REMARK  status: ('A' for Active; 'I' for Inactive)
REMARK    1  A    between atoms: S1_2  and  C2_3 
REMARK    2  A    between atoms: C2_3  and  C3_4 
REMARK    3  A    between atoms: C3_4  and  N1_5 
REMARK    4  A    between atoms: C12_14  and  O1_15 
REMARK    5  A    between atoms: C12_14  and  C13_17 
REMARK    6  A    between atoms: C13_17  and  O2_18 
ROOT
HETATM    1  C2  UNL     1      -0.028   6.357   3.711  1.00  0.00     0.044 C 
HETATM    2  C8  UNL     1      -0.101   6.612   5.038  1.00  0.00     0.068 C 
HETATM    3  C9  UNL     1      -1.419   6.935   5.613  1.00  0.00     0.066 C 
HETATM    4  C10 UNL     1      -1.402   6.399   7.048  1.00  0.00     0.012 C 
HETATM    5  C11 UNL     1      -0.379   7.186   7.806  1.00  0.00     0.072 C 
HETATM    6  C12 UNL     1       0.904   7.387   7.062  1.00  0.00     0.199 C 
HETATM    7  O3  UNL     1       0.976   6.588   5.885  1.00  0.00    -0.314 OA
ENDROOT
BRANCH   6   8
HETATM    8  O1  UNL     1       0.937   8.732   6.649  1.00  0.00    -0.363 OA
ATOM      9  H1  UNL     1       0.217   8.856   6.043  1.00  0.00     0.213 HD
ENDBRANCH   6   8
BRANCH   6  10
HETATM   10  C13 UNL     1       2.053   7.182   7.990  1.00  0.00     0.118 C 
HETATM   11  C14 UNL     1       1.694   7.470   9.449  1.00  0.00     0.044 C 
HETATM   12  C15 UNL     1       3.001   7.496  10.201  1.00  0.00     0.009 C 
HETATM   13  C16 UNL     1       4.092   8.234   9.486  1.00  0.00    -0.006 C 
HETATM   14  C17 UNL     1       3.394   9.230   8.543  1.00  0.00     0.014 C 
HETATM   15  C19 UNL     1       4.536   7.569   8.211  1.00  0.00    -0.037 C 
HETATM   16  C18 UNL     1       3.225   8.013   7.617  1.00  0.00     0.034 C 
HETATM   17  C20 UNL     1       4.884   6.151   8.218  1.00  0.00     0.015 C 
HETATM   18  C21 UNL     1       5.661   8.411   7.592  1.00  0.00     0.015 C 
BRANCH  10  19
HETATM   19  O2  UNL     1       2.317   5.799   7.983  1.00  0.00    -0.384 OA
ATOM     20  H2  UNL     1       2.186   5.502   8.877  1.00  0.00     0.210 HD
ENDBRANCH  10  19
ENDBRANCH   6  10
BRANCH   1  21
HETATM   21  S1  UNL     1      -1.506   6.440   2.814  1.00  0.00    -0.131 SA
HETATM   22  C1  UNL     1      -1.514   5.908   1.122  1.00  0.00     0.095 C 
ENDBRANCH   1  21
BRANCH   1  23
HETATM   23  C3  UNL     1       1.319   6.150   3.188  1.00  0.00     0.106 C 
BRANCH  23  24
HETATM   24  N1  UNL     1       1.983   7.158   2.530  1.00  0.00    -0.389 N 
HETATM   25  C4  UNL     1       2.836   7.054   1.446  1.00  0.00     0.122 C 
HETATM   26  C5  UNL     1       4.269   7.115   1.995  1.00  0.00     0.021 C 
HETATM   27  C6  UNL     1       4.068   7.677   3.385  1.00  0.00     0.021 C 
HETATM   28  C7  UNL     1       2.641   8.167   3.357  1.00  0.00     0.122 C 
ENDBRANCH  23  24
ENDBRANCH   1  23
TORSDOF 6
ENDMDL
MODEL 3
REMARK VINA RESULT: -7.253813712      2.793      4.628
REMARK  6 active torsions:
REMARK  status: ('A' for Active; 'I' for Inactive)
REMARK    1  A    between atoms: S1_2  and  C2_3 
REMARK    2  A    between atoms: C2_3  and  C3_4 
REMARK    3  A    between atoms: C3_4  and  N1_5 
REMARK    4  A    between atoms: C12_14  and  O1_15 
REMARK    5  A    between atoms: C12_14  and  C13_17 
REMARK    6  A    between atoms: C13_17  and  O2_18 
ROOT
HETATM    1  C2  UNL     1      -1.468   6.118   7.815  1.00  0.00     0.044 C 
HETATM    2  C8  UNL     1      -0.476   6.564   8.620  1.00  0.00     0.068 C 
HETATM    3  C9  UNL     1      -0.823   6.962   9.996  1.00  0.00     0.066 C 
HETATM    4  C10 UNL     1       0.406   6.641  10.855  1.00  0.00     0.012 C 
HETATM    5  C11 UNL     1       1.515   7.536  10.398  1.00  0.00     0.072 C 
HETATM    6  C12 UNL     1       1.641   7.633   8.909  1.00  0.00     0.199 C 
HETATM    7  O3  UNL     1       0.835   6.670   8.236  1.00  0.00    -0.314 OA
ENDROOT
BRANCH   6   8
HETATM    8  O1  UNL     1       1.165   8.903   8.535  1.00  0.00    -0.363 OA
ATOM      9  H1  UNL     1       0.364   8.767   8.043  1.00  0.00     0.213 HD
ENDBRANCH   6   8
BRANCH   6  10
HETATM   10  C13 UNL     1       3.082   7.572   8.528  1.00  0.00     0.118 C 
HETATM   11  C14 UNL     1       3.985   7.162   9.693  1.00  0.00     0.044 C 
HETATM   12  C15 UNL     1       5.398   7.421   9.233  1.00  0.00     0.009 C 
HETATM   13  C16 UNL     1       5.566   8.723   8.510  1.00  0.00    -0.006 C 
HETATM   14  C17 UNL     1       4.428   9.637   8.996  1.00  0.00     0.014 C 
HETATM   15  C19 UNL     1       4.847   8.779   7.190  1.00  0.00    -0.037 C 
HETATM   16  C18 UNL     1       3.568   8.863   7.982  1.00  0.00     0.034 C 
HETATM   17  C20 UNL     1       5.029   7.702   6.221  1.00  0.00     0.015 C 
HETATM   18  C21 UNL     1       5.115  10.148   6.550  1.00  0.00     0.015 C 
BRANCH  10  19
HETATM   19  O2  UNL     1       3.200   6.497   7.626  1.00  0.00    -0.384 OA
ATOM     20  H2  UNL     1       3.888   6.740   7.017  1.00  0.00     0.210 HD
ENDBRANCH  10  19
ENDBRANCH   6  10
BRANCH   1  21
HETATM   21  S1  UNL     1      -3.061   6.061   8.492  1.00  0.00    -0.131 SA
HETATM   22  C1  UNL     1      -4.445   6.480   7.464  1.00  0.00     0.095 C 
ENDBRANCH   1  21
BRANCH   1  23
HETATM   23  C3  UNL     1      -1.078   5.844   6.436  1.00  0.00     0.106 C 
BRANCH  23  24
HETATM   24  N1  UNL     1      -1.292   6.771   5.444  1.00  0.00    -0.389 N 
HETATM   25  C4  UNL     1      -2.009   6.617   4.271  1.00  0.00     0.122 C 
HETATM   26  C5  UNL     1      -0.987   6.360   3.152  1.00  0.00     0.021 C 
HETATM   27  C6  UNL     1       0.312   6.812   3.780  1.00  0.00     0.021 C 
HETATM   28  C7  UNL     1      -0.139   7.558   5.012  1.00  0.00     0.122 C 
ENDBRANCH  23  24
ENDBRANCH   1  23
TORSDOF 6
ENDMDL
MODEL 4
REMARK VINA RESULT: -7.211243076      3.327      5.508
REMARK  6 active torsions:
REMARK  status: ('A' for Active; 'I' for Inactive)
REMARK    1  A    between atoms: S1_2  and  C2_3 
REMARK    2  A    between atoms: C2_3  and  C3_4 
REMARK    3  A    between atoms: C3_4  and  N1_5 
REMARK    4  A    between atoms: C12_14  and  O1_15 
REMARK    5  A    between atoms: C12_14  and  C13_17 
REMARK    6  A    between atoms: C13_17  and  O2_18 
ROOT
HETATM    1  C2  UNL     1      -0.167   6.300   5.377  1.00  0.00     0.044 C 
HETATM    2  C8  UNL     1       0.017   6.703   6.656  1.00  0.00     0.068 C 
HETATM    3  C9  UNL     1      -1.176   6.987   7.473  1.00  0.00     0.066 C 
HETATM    4  C10 UNL     1      -0.801   6.627   8.914  1.00  0.00     0.012 C 
HETATM    5  C11 UNL     1       0.272   7.576   9.347  1.00  0.00     0.072 C 
HETATM    6  C12 UNL     1       1.341   7.790   8.321  1.00  0.00     0.199 C 
HETATM    7  O3  UNL     1       1.245   6.865   7.241  1.00  0.00    -0.314 OA
ENDROOT
BRANCH   6   8
HETATM    8  O1  UNL     1       1.147   9.074   7.781  1.00  0.00    -0.363 OA
ATOM      9  H1  UNL     1       1.755   9.657   8.221  1.00  0.00     0.213 HD
ENDBRANCH   6   8
BRANCH   6  10
HETATM   10  C13 UNL     1       2.676   7.788   8.986  1.00  0.00     0.118 C 
HETATM   11  C14 UNL     1       2.628   8.346  10.410  1.00  0.00     0.044 C 
HETATM   12  C15 UNL     1       4.063   8.539  10.829  1.00  0.00     0.009 C 
HETATM   13  C16 UNL     1       4.926   9.143   9.762  1.00  0.00    -0.006 C 
HETATM   14  C17 UNL     1       3.980   9.926   8.834  1.00  0.00     0.014 C 
HETATM   15  C19 UNL     1       5.120   8.251   8.565  1.00  0.00    -0.037 C 
HETATM   16  C18 UNL     1       3.686   8.550   8.212  1.00  0.00     0.034 C 
HETATM   17  C20 UNL     1       5.545   6.868   8.755  1.00  0.00     0.015 C 
HETATM   18  C21 UNL     1       6.030   8.976   7.564  1.00  0.00     0.015 C 
BRANCH  10  19
HETATM   19  O2  UNL     1       3.014   6.434   9.176  1.00  0.00    -0.384 OA
ATOM     20  H2  UNL     1       2.207   5.992   9.414  1.00  0.00     0.210 HD
ENDBRANCH  10  19
ENDBRANCH   6  10
BRANCH   1  21
HETATM   21  S1  UNL     1      -1.802   6.159   4.826  1.00  0.00    -0.131 SA
HETATM   22  C1  UNL     1      -2.217   6.756   3.208  1.00  0.00     0.095 C 
ENDBRANCH   1  21
BRANCH   1  23
HETATM   23  C3  UNL     1       1.053   6.141   4.591  1.00  0.00     0.106 C 
BRANCH  23  24
HETATM   24  N1  UNL     1       1.329   6.980   3.539  1.00  0.00    -0.389 N 
HETATM   25  C4  UNL     1       1.498   6.652   2.205  1.00  0.00     0.122 C 
HETATM   26  C5  UNL     1       3.011   6.603   1.944  1.00  0.00     0.021 C 
HETATM   27  C6  UNL     1       3.578   7.339   3.137  1.00  0.00     0.021 C 
HETATM   28  C7  UNL     1       2.363   7.991   3.751  1.00  0.00     0.122 C 
ENDBRANCH  23  24
ENDBRANCH   1  23
TORSDOF 6
ENDMDL
MODEL 5
REMARK VINA RESULT: -7.198839843      3.460      7.219
REMARK  6 active torsions:
REMARK  status: ('A' for Active; 'I' for Inactive)
REMARK    1  A    between atoms: S1_2  and  C2_3 
REMARK    2  A    between atoms: C2_3  and  C3_4 
REMARK    3  A    between atoms: C3_4  and  N1_5 
REMARK    4  A    between atoms: C12_14  and  O1_15 
REMARK    5  A    between atoms: C12_14  and  C13_17 
REMARK    6  A    between atoms: C13_17  and  O2_18 
ROOT
HETATM    1  C2  UNL     1       4.254   9.240   5.178  1.00  0.00     0.044 C 
HETATM    2  C8  UNL     1       3.822   8.876   6.407  1.00  0.00     0.068 C 
HETATM    3  C9  UNL     1       4.683   9.177   7.565  1.00  0.00     0.066 C 
HETATM    4  C10 UNL     1       3.738   9.428   8.744  1.00  0.00     0.012 C 
HETATM    5  C11 UNL     1       3.035   8.140   9.035  1.00  0.00     0.072 C 
HETATM    6  C12 UNL     1       2.542   7.430   7.813  1.00  0.00     0.199 C 
HETATM    7  O3  UNL     1       2.631   8.240   6.645  1.00  0.00    -0.314 OA
ENDROOT
BRANCH   6   8
HETATM    8  O1  UNL     1       3.383   6.321   7.610  1.00  0.00    -0.363 OA
ATOM      9  H1  UNL     1       2.950   5.752   6.985  1.00  0.00     0.213 HD
ENDBRANCH   6   8
BRANCH   6  10
HETATM   10  C13 UNL     1       1.170   6.902   8.065  1.00  0.00     0.118 C 
HETATM   11  C14 UNL     1       0.296   6.900   6.809  1.00  0.00     0.044 C 
HETATM   12  C15 UNL     1      -1.108   6.618   7.279  1.00  0.00     0.009 C 
HETATM   13  C16 UNL     1      -1.490   7.370   8.518  1.00  0.00    -0.006 C 
HETATM   14  C17 UNL     1      -0.592   8.619   8.559  1.00  0.00     0.014 C 
HETATM   15  C19 UNL     1      -0.716   6.957   9.740  1.00  0.00    -0.037 C 
HETATM   16  C18 UNL     1       0.468   7.661   9.129  1.00  0.00     0.034 C 
HETATM   17  C20 UNL     1      -0.616   5.543  10.089  1.00  0.00     0.015 C 
HETATM   18  C21 UNL     1      -1.214   7.786  10.933  1.00  0.00     0.015 C 
BRANCH  10  19
HETATM   19  O2  UNL     1       1.327   5.534   8.358  1.00  0.00    -0.384 OA
ATOM     20  H2  UNL     1       1.693   5.493   9.234  1.00  0.00     0.210 HD
ENDBRANCH  10  19
ENDBRANCH   6  10
BRANCH   1  21
HETATM   21  S1  UNL     1       5.791  10.032   5.090  1.00  0.00    -0.131 SA
HETATM   22  C1  UNL     1       5.943  11.505   4.113  1.00  0.00     0.095 C 
ENDBRANCH   1  21
BRANCH   1  23
HETATM   23  C3  UNL     1       3.408   8.817   4.067  1.00  0.00     0.106 C 
BRANCH  23  24
HETATM   24  N1  UNL     1       3.487   7.540   3.566  1.00  0.00    -0.389 N 
HETATM   25  C4  UNL     1       4.230   7.089   2.489  1.00  0.00     0.122 C 
HETATM   26  C5  UNL     1       3.271   6.988   1.293  1.00  0.00     0.021 C 
HETATM   27  C6  UNL     1       1.912   7.021   1.955  1.00  0.00     0.021 C 
HETATM   28  C7  UNL     1       2.231   6.808   3.414  1.00  0.00     0.122 C 
ENDBRANCH  23  24
ENDBRANCH   1  23
TORSDOF 6
ENDMDL
