MODEL 1
REMARK VINA RESULT: -5.323856179      0.000      0.000
REMARK  3 active torsions:
REMARK  status: ('A' for Active; 'I' for Inactive)
REMARK    1  A    between atoms: N2_4  and  C1_6 
REMARK    2  A    between atoms: C4_10  and  N3_11 
REMARK    3  A    between atoms: N5_24  and  N6_25 
ROOT
HETATM    1  C1  UNL     1      -4.406  -8.990 -11.057  1.00  0.00     0.142 A 
HETATM    2  C2  UNL     1      -4.425  -9.490  -9.832  1.00  0.00     0.192 A 
HETATM    3  O1  UNL     1      -3.389 -10.265  -9.335  1.00  0.00    -0.314 OA
HETATM    4  C3  UNL     1      -2.284 -10.559 -10.094  1.00  0.00     0.137 A 
HETATM    5  C4  UNL     1      -1.228 -11.313  -9.640  1.00  0.00     0.140 A 
HETATM    6  C5  UNL     1      -0.138 -11.567 -10.453  1.00  0.00     0.058 A 
HETATM    7  C6  UNL     1      -0.077 -11.081 -11.734  1.00  0.00     0.066 A 
HETATM    8  C7  UNL     1       1.077 -11.355 -12.408  1.00  0.00     0.261 C 
HETATM    9  O4  UNL     1       1.713 -12.320 -11.984  1.00  0.00    -0.267 OA
HETATM   10  N4  UNL     1       1.570 -10.668 -13.480  1.00  0.00    -0.285 N 
ATOM     11  H4  UNL     1       2.510 -10.923 -13.784  1.00  0.00     0.172 HD
HETATM   12  C8  UNL     1       0.956  -9.685 -14.188  1.00  0.00     0.318 C 
HETATM   13  O5  UNL     1       1.740  -8.961 -14.845  1.00  0.00    -0.262 OA
HETATM   14  C9  UNL     1      -0.414  -9.400 -14.264  1.00  0.00     0.335 C 
HETATM   15  O6  UNL     1      -0.804  -8.607 -15.125  1.00  0.00    -0.260 OA
HETATM   16  N5  UNL     1      -1.370  -9.921 -13.473  1.00  0.00    -0.219 N 
HETATM   17  C10 UNL     1      -1.172 -10.308 -12.199  1.00  0.00     0.105 A 
HETATM   18  C11 UNL     1      -2.251 -10.036 -11.412  1.00  0.00     0.101 A 
HETATM   19  N7  UNL     1      -3.296  -9.246 -11.911  1.00  0.00    -0.336 N 
ATOM     20  H7  UNL     1      -3.262  -8.865 -12.858  1.00  0.00     0.168 HD
ENDROOT
BRANCH   1  21
HETATM   21  N2  UNL     1      -5.513  -8.202 -11.491  1.00  0.00    -0.290 N 
HETATM   22  N1  UNL     1      -5.727  -7.839 -12.665  1.00  0.00    -0.344 N 
ATOM     23  H12 UNL     1      -5.043  -8.139 -13.361  1.00  0.00     0.176 HD
ATOM     24  H11 UNL     1      -6.519  -7.276 -12.976  1.00  0.00     0.176 HD
ATOM     25  H2  UNL     1      -6.187  -7.911 -10.781  1.00  0.00     0.188 HD
ENDBRANCH   1  21
BRANCH   5  26
HETATM   26  N3  UNL     1      -1.284 -11.826  -8.309  1.00  0.00    -0.113 N 
HETATM   27  O2  UNL     1      -0.711 -11.182  -7.416  1.00  0.00    -0.532 OA
HETATM   28  O3  UNL     1      -1.946 -12.990  -8.021  1.00  0.00    -0.532 OA
ENDBRANCH   5  26
BRANCH  16  29
HETATM   29  N6  UNL     1      -2.637 -10.190 -13.978  1.00  0.00    -0.335 N 
ATOM     30  H62 UNL     1      -3.097  -9.400 -14.431  1.00  0.00     0.177 HD
ATOM     31  H61 UNL     1      -3.073 -11.099 -13.826  1.00  0.00     0.177 HD
ENDBRANCH  16  29
TORSDOF 3
ENDMDL
MODEL 2
REMARK VINA RESULT: -5.258064608      1.484      4.838
REMARK  3 active torsions:
REMARK  status: ('A' for Active; 'I' for Inactive)
REMARK    1  A    between atoms: N2_4  and  C1_6 
REMARK    2  A    between atoms: C4_10  and  N3_11 
REMARK    3  A    between atoms: N5_24  and  N6_25 
ROOT
HETATM    1  C1  UNL     1      -3.504  -8.394 -13.612  1.00  0.00     0.142 A 
HETATM    2  C2  UNL     1      -2.595  -8.343 -14.572  1.00  0.00     0.192 A 
HETATM    3  O1  UNL     1      -1.349  -8.937 -14.440  1.00  0.00    -0.314 OA
HETATM    4  C3  UNL     1      -0.992  -9.610 -13.298  1.00  0.00     0.137 A 
HETATM    5  C4  UNL     1       0.226 -10.224 -13.128  1.00  0.00     0.140 A 
HETATM    6  C5  UNL     1       0.524 -10.894 -11.954  1.00  0.00     0.058 A 
HETATM    7  C6  UNL     1      -0.382 -10.964 -10.927  1.00  0.00     0.066 A 
HETATM    8  C7  UNL     1       0.013 -11.703  -9.850  1.00  0.00     0.261 C 
HETATM    9  O4  UNL     1       1.231 -11.850  -9.736  1.00  0.00    -0.267 OA
HETATM   10  N4  UNL     1      -0.804 -12.278  -8.920  1.00  0.00    -0.285 N 
ATOM     11  H4  UNL     1      -0.355 -12.906  -8.253  1.00  0.00     0.172 HD
HETATM   12  C8  UNL     1      -2.145 -12.111  -8.777  1.00  0.00     0.318 C 
HETATM   13  O5  UNL     1      -2.709 -13.023  -8.129  1.00  0.00    -0.262 OA
HETATM   14  C9  UNL     1      -2.942 -11.063  -9.260  1.00  0.00     0.335 C 
HETATM   15  O6  UNL     1      -4.102 -10.970  -8.849  1.00  0.00    -0.260 OA
HETATM   16  N5  UNL     1      -2.556 -10.126 -10.145  1.00  0.00    -0.219 N 
HETATM   17  C10 UNL     1      -1.635 -10.325 -11.106  1.00  0.00     0.105 A 
HETATM   18  C11 UNL     1      -1.953  -9.668 -12.257  1.00  0.00     0.101 A 
HETATM   19  N7  UNL     1      -3.216  -9.074 -12.395  1.00  0.00    -0.336 N 
ATOM     20  H7  UNL     1      -3.906  -9.127 -11.645  1.00  0.00     0.168 HD
ENDROOT
BRANCH   1  21
HETATM   21  N2  UNL     1      -4.762  -7.756 -13.829  1.00  0.00    -0.290 N 
HETATM   22  N1  UNL     1      -5.716  -7.747 -13.024  1.00  0.00    -0.344 N 
ATOM     23  H12 UNL     1      -5.568  -8.241 -12.144  1.00  0.00     0.176 HD
ATOM     24  H11 UNL     1      -6.615  -7.291 -13.179  1.00  0.00     0.176 HD
ATOM     25  H2  UNL     1      -4.892  -7.267 -14.714  1.00  0.00     0.188 HD
ENDBRANCH   1  21
BRANCH   5  26
HETATM   26  N3  UNL     1       1.177 -10.153 -14.190  1.00  0.00    -0.113 N 
HETATM   27  O2  UNL     1       1.869  -9.127 -14.280  1.00  0.00    -0.532 OA
HETATM   28  O3  UNL     1       1.326 -11.181 -15.083  1.00  0.00    -0.532 OA
ENDBRANCH   5  26
BRANCH  16  29
HETATM   29  N6  UNL     1      -3.033  -8.824 -10.049  1.00  0.00    -0.335 N 
ATOM     30  H62 UNL     1      -3.869  -8.713  -9.474  1.00  0.00     0.177 HD
ATOM     31  H61 UNL     1      -2.600  -8.072 -10.584  1.00  0.00     0.177 HD
ENDBRANCH  16  29
TORSDOF 3
ENDMDL
MODEL 3
REMARK VINA RESULT: -5.179613097      2.328      4.715
REMARK  3 active torsions:
REMARK  status: ('A' for Active; 'I' for Inactive)
REMARK    1  A    between atoms: N2_4  and  C1_6 
REMARK    2  A    between atoms: C4_10  and  N3_11 
REMARK    3  A    between atoms: N5_24  and  N6_25 
ROOT
HETATM    1  C1  UNL     1       1.111 -12.862 -10.882  1.00  0.00     0.142 A 
HETATM    2  C2  UNL     1       1.022 -12.566  -9.596  1.00  0.00     0.192 A 
HETATM    3  O1  UNL     1       0.319 -11.462  -9.140  1.00  0.00    -0.314 OA
HETATM    4  C3  UNL     1      -0.322 -10.611 -10.006  1.00  0.00     0.137 A 
HETATM    5  C4  UNL     1      -1.039  -9.511  -9.599  1.00  0.00     0.140 A 
HETATM    6  C5  UNL     1      -1.669  -8.695 -10.522  1.00  0.00     0.058 A 
HETATM    7  C6  UNL     1      -1.596  -8.954 -11.867  1.00  0.00     0.066 A 
HETATM    8  C7  UNL     1      -2.309  -8.108 -12.664  1.00  0.00     0.261 C 
HETATM    9  O4  UNL     1      -2.565  -7.012 -12.165  1.00  0.00    -0.267 OA
HETATM   10  N4  UNL     1      -2.750  -8.368 -13.930  1.00  0.00    -0.285 N 
ATOM     11  H4  UNL     1      -3.381  -7.677 -14.337  1.00  0.00     0.172 HD
HETATM   12  C8  UNL     1      -2.448  -9.438 -14.710  1.00  0.00     0.318 C 
HETATM   13  O5  UNL     1      -3.264  -9.643 -15.638  1.00  0.00    -0.262 OA
HETATM   14  C9  UNL     1      -1.357 -10.311 -14.595  1.00  0.00     0.335 C 
HETATM   15  O6  UNL     1      -1.130 -11.093 -15.522  1.00  0.00    -0.260 OA
HETATM   16  N5  UNL     1      -0.511 -10.379 -13.551  1.00  0.00    -0.219 N 
HETATM   17  C10 UNL     1      -0.849 -10.087 -12.281  1.00  0.00     0.105 A 
HETATM   18  C11 UNL     1      -0.230 -10.910 -11.389  1.00  0.00     0.101 A 
HETATM   19  N7  UNL     1       0.474 -12.032 -11.849  1.00  0.00    -0.336 N 
ATOM     20  H7  UNL     1       0.529 -12.247 -12.845  1.00  0.00     0.168 HD
ENDROOT
BRANCH   1  21
HETATM   21  N2  UNL     1       1.854 -14.018 -11.268  1.00  0.00    -0.290 N 
HETATM   22  N1  UNL     1       1.417 -15.187 -11.282  1.00  0.00    -0.344 N 
ATOM     23  H12 UNL     1       0.446 -15.308 -10.992  1.00  0.00     0.176 HD
ATOM     24  H11 UNL     1       1.948 -16.013 -11.558  1.00  0.00     0.176 HD
ATOM     25  H2  UNL     1       2.823 -13.877 -11.554  1.00  0.00     0.188 HD
ENDBRANCH   1  21
BRANCH   5  26
HETATM   26  N3  UNL     1      -1.118  -9.231  -8.202  1.00  0.00    -0.113 N 
HETATM   27  O2  UNL     1      -2.083  -9.694  -7.573  1.00  0.00    -0.532 OA
HETATM   28  O3  UNL     1      -0.165  -8.479  -7.570  1.00  0.00    -0.532 OA
ENDBRANCH   5  26
BRANCH  16  29
HETATM   29  N6  UNL     1       0.834 -10.668 -13.748  1.00  0.00    -0.335 N 
ATOM     30  H62 UNL     1       1.351  -9.970 -14.284  1.00  0.00     0.177 HD
ATOM     31  H61 UNL     1       1.225 -11.555 -13.432  1.00  0.00     0.177 HD
ENDBRANCH  16  29
TORSDOF 3
ENDMDL
MODEL 4
REMARK VINA RESULT: -5.165966062      2.958      5.331
REMARK  3 active torsions:
REMARK  status: ('A' for Active; 'I' for Inactive)
REMARK    1  A    between atoms: N2_4  and  C1_6 
REMARK    2  A    between atoms: C4_10  and  N3_11 
REMARK    3  A    between atoms: N5_24  and  N6_25 
ROOT
HETATM    1  C1  UNL     1      -0.095 -11.903  -8.260  1.00  0.00     0.142 A 
HETATM    2  C2  UNL     1      -0.796 -12.910  -7.764  1.00  0.00     0.192 A 
HETATM    3  O1  UNL     1      -2.168 -13.010  -7.939  1.00  0.00    -0.314 OA
HETATM    4  C3  UNL     1      -2.874 -12.063  -8.637  1.00  0.00     0.137 A 
HETATM    5  C4  UNL     1      -4.231 -12.127  -8.845  1.00  0.00     0.140 A 
HETATM    6  C5  UNL     1      -4.885 -11.143  -9.565  1.00  0.00     0.058 A 
HETATM    7  C6  UNL     1      -4.203 -10.074 -10.088  1.00  0.00     0.066 A 
HETATM    8  C7  UNL     1      -4.956  -9.207 -10.825  1.00  0.00     0.261 C 
HETATM    9  O4  UNL     1      -6.164  -9.232 -10.589  1.00  0.00    -0.267 OA
HETATM   10  N4  UNL     1      -4.494  -8.341 -11.775  1.00  0.00    -0.285 N 
ATOM     11  H4  UNL     1      -5.204  -7.856 -12.324  1.00  0.00     0.172 HD
HETATM   12  C8  UNL     1      -3.201  -8.050 -12.073  1.00  0.00     0.318 C 
HETATM   13  O5  UNL     1      -3.038  -7.550 -13.210  1.00  0.00    -0.262 OA
HETATM   14  C9  UNL     1      -2.065  -8.240 -11.274  1.00  0.00     0.335 C 
HETATM   15  O6  UNL     1      -1.004  -7.718 -11.627  1.00  0.00    -0.260 OA
HETATM   16  N5  UNL     1      -2.018  -8.951 -10.132  1.00  0.00    -0.219 N 
HETATM   17  C10 UNL     1      -2.804 -10.010  -9.865  1.00  0.00     0.105 A 
HETATM   18  C11 UNL     1      -2.138 -10.973  -9.169  1.00  0.00     0.101 A 
HETATM   19  N7  UNL     1      -0.750 -10.877  -8.998  1.00  0.00    -0.336 N 
ATOM     20  H7  UNL     1      -0.225 -10.095  -9.391  1.00  0.00     0.168 HD
ENDROOT
BRANCH   1  21
HETATM   21  N2  UNL     1       1.313 -11.875  -8.034  1.00  0.00    -0.290 N 
HETATM   22  N1  UNL     1       1.869 -11.974  -6.921  1.00  0.00    -0.344 N 
ATOM     23  H12 UNL     1       1.251 -12.083  -6.117  1.00  0.00     0.176 HD
ATOM     24  H11 UNL     1       2.876 -11.954  -6.760  1.00  0.00     0.176 HD
ATOM     25  H2  UNL     1       1.916 -11.765  -8.850  1.00  0.00     0.188 HD
ENDBRANCH   1  21
BRANCH   5  26
HETATM   26  N3  UNL     1      -4.950 -13.234  -8.301  1.00  0.00    -0.113 N 
HETATM   27  O2  UNL     1      -5.629 -13.038  -7.280  1.00  0.00    -0.532 OA
HETATM   28  O3  UNL     1      -4.898 -14.473  -8.882  1.00  0.00    -0.532 OA
ENDBRANCH   5  26
BRANCH  16  29
HETATM   29  N6  UNL     1      -1.192  -8.554  -9.087  1.00  0.00    -0.335 N 
ATOM     30  H62 UNL     1      -0.200  -8.747  -9.225  1.00  0.00     0.177 HD
ATOM     31  H61 UNL     1      -1.589  -8.168  -8.231  1.00  0.00     0.177 HD
ENDBRANCH  16  29
TORSDOF 3
ENDMDL
MODEL 5
REMARK VINA RESULT: -5.054277747      2.157      5.314
REMARK  3 active torsions:
REMARK  status: ('A' for Active; 'I' for Inactive)
REMARK    1  A    between atoms: N2_4  and  C1_6 
REMARK    2  A    between atoms: C4_10  and  N3_11 
REMARK    3  A    between atoms: N5_24  and  N6_25 
ROOT
HETATM    1  C1  UNL     1      -0.694  -9.865 -13.021  1.00  0.00     0.142 A 
HETATM    2  C2  UNL     1      -0.195 -10.782 -12.208  1.00  0.00     0.192 A 
HETATM    3  O1  UNL     1      -0.826 -11.141 -11.027  1.00  0.00    -0.314 OA
HETATM    4  C3  UNL     1      -2.006 -10.559 -10.637  1.00  0.00     0.137 A 
HETATM    5  C4  UNL     1      -2.672 -10.892  -9.482  1.00  0.00     0.140 A 
HETATM    6  C5  UNL     1      -3.864 -10.273  -9.147  1.00  0.00     0.058 A 
HETATM    7  C6  UNL     1      -4.414  -9.308  -9.953  1.00  0.00     0.066 A 
HETATM    8  C7  UNL     1      -5.618  -8.820  -9.538  1.00  0.00     0.261 C 
HETATM    9  O4  UNL     1      -5.856  -8.964  -8.339  1.00  0.00    -0.267 OA
HETATM   10  N4  UNL     1      -6.554  -8.205 -10.321  1.00  0.00    -0.285 N 
ATOM     11  H4  UNL     1      -7.455  -8.016  -9.880  1.00  0.00     0.172 HD
HETATM   12  C8  UNL     1      -6.426  -7.815 -11.615  1.00  0.00     0.318 C 
HETATM   13  O5  UNL     1      -7.515  -7.645 -12.210  1.00  0.00    -0.262 OA
HETATM   14  C9  UNL     1      -5.246  -7.586 -12.337  1.00  0.00     0.335 C 
HETATM   15  O6  UNL     1      -5.326  -7.029 -13.435  1.00  0.00    -0.260 OA
HETATM   16  N5  UNL     1      -4.004  -7.919 -11.939  1.00  0.00    -0.219 N 
HETATM   17  C10 UNL     1      -3.719  -8.965 -11.141  1.00  0.00     0.105 A 
HETATM   18  C11 UNL     1      -2.550  -9.569 -11.495  1.00  0.00     0.101 A 
HETATM   19  N7  UNL     1      -1.916  -9.212 -12.693  1.00  0.00    -0.336 N 
ATOM     20  H7  UNL     1      -2.317  -8.505 -13.310  1.00  0.00     0.168 HD
ENDROOT
BRANCH   1  21
HETATM   21  N2  UNL     1       0.019  -9.553 -14.217  1.00  0.00    -0.290 N 
HETATM   22  N1  UNL     1       0.452 -10.387 -15.039  1.00  0.00    -0.344 N 
ATOM     23  H12 UNL     1       0.273 -11.368 -14.822  1.00  0.00     0.176 HD
ATOM     24  H11 UNL     1       0.961 -10.164 -15.894  1.00  0.00     0.176 HD
ATOM     25  H2  UNL     1       0.189  -8.567 -14.417  1.00  0.00     0.188 HD
ENDBRANCH   1  21
BRANCH   5  26
HETATM   26  N3  UNL     1      -2.106 -11.892  -8.635  1.00  0.00    -0.113 N 
HETATM   27  O2  UNL     1      -2.560 -13.044  -8.717  1.00  0.00    -0.532 OA
HETATM   28  O3  UNL     1      -1.094 -11.597  -7.760  1.00  0.00    -0.532 OA
ENDBRANCH   5  26
BRANCH  16  29
HETATM   29  N6  UNL     1      -2.919  -7.113 -12.261  1.00  0.00    -0.335 N 
ATOM     30  H62 UNL     1      -3.107  -6.397 -12.963  1.00  0.00     0.177 HD
ATOM     31  H61 UNL     1      -1.999  -7.297 -11.860  1.00  0.00     0.177 HD
ENDBRANCH  16  29
TORSDOF 3
ENDMDL
