MODEL 1
REMARK VINA RESULT: -4.809522959      0.000      0.000
REMARK  6 active torsions:
REMARK  status: ('A' for Active; 'I' for Inactive)
REMARK    1  A    between atoms: S1_2  and  C2_3 
REMARK    2  A    between atoms: C3_4  and  O1_5 
REMARK    3  A    between atoms: C4_7  and  O2_8 
REMARK    4  A    between atoms: C5_10  and  O3_11 
REMARK    5  A    between atoms: N1_17  and  C9_18 
REMARK    6  A    between atoms: C9_18  and  N2_19 
ROOT
HETATM    1  C9  UNL     1      -0.494  -9.361 -13.983  1.00  0.00     0.402 C 
HETATM    2  C10 UNL     1       0.808  -8.659 -13.861  1.00  0.00     0.114 C 
HETATM    3  N3  UNL     1       1.815  -8.117 -13.758  1.00  0.00    -0.193 NA
ENDROOT
BRANCH   1   4
HETATM    4  N1  UNL     1      -0.862  -9.958 -12.711  1.00  0.00    -0.223 N 
HETATM    5  C8  UNL     1      -0.066 -10.873 -12.158  1.00  0.00     0.268 A 
HETATM    6  C7  UNL     1      -0.467 -11.408 -10.946  1.00  0.00     0.082 A 
HETATM    7  O4  UNL     1       1.007 -11.268 -12.662  1.00  0.00    -0.267 OA
HETATM    8  C2  UNL     1       0.329 -12.345 -10.359  1.00  0.00     0.054 A 
HETATM    9  C6  UNL     1      -1.657 -10.994 -10.350  1.00  0.00     0.091 A 
HETATM   10  C3  UNL     1      -0.027 -12.898  -9.163  1.00  0.00     0.119 A 
HETATM   11  C4  UNL     1      -1.203 -12.490  -8.573  1.00  0.00     0.136 A 
HETATM   12  C5  UNL     1      -2.041 -11.535  -9.147  1.00  0.00     0.130 A 
HETATM   13  N4  UNL     1      -2.442 -10.072 -10.929  1.00  0.00    -0.300 N 
HETATM   14  C11 UNL     1      -2.007  -9.565 -12.130  1.00  0.00     0.334 A 
HETATM   15  C12 UNL     1      -3.671  -9.624 -10.342  1.00  0.00     0.161 C 
HETATM   16  O5  UNL     1      -2.722  -8.696 -12.700  1.00  0.00    -0.246 OA
BRANCH   8  17
HETATM   17  S1  UNL     1       1.869 -12.865 -11.153  1.00  0.00    -0.130 SA
HETATM   18  C1  UNL     1       1.738 -14.653 -11.513  1.00  0.00     0.095 C 
ENDBRANCH   8  17
BRANCH  10  19
HETATM   19  O1  UNL     1       0.796 -13.852  -8.575  1.00  0.00    -0.357 OA
ATOM     20  H1  UNL     1       0.883 -14.709  -8.975  1.00  0.00     0.218 HD
ENDBRANCH  10  19
BRANCH  11  21
HETATM   21  O2  UNL     1      -1.604 -13.021  -7.365  1.00  0.00    -0.356 OA
ATOM     22  H2  UNL     1      -2.165 -12.525  -6.780  1.00  0.00     0.218 HD
ENDBRANCH  11  21
BRANCH  12  23
HETATM   23  O3  UNL     1      -3.209 -11.159  -8.514  1.00  0.00    -0.356 OA
ATOM     24  H3  UNL     1      -3.842 -10.608  -8.960  1.00  0.00     0.218 HD
ENDBRANCH  12  23
ENDBRANCH   1   4
BRANCH   1  25
HETATM   25  N2  UNL     1      -0.283 -10.404 -14.979  1.00  0.00    -0.045 N 
ATOM     26  H23 UNL     1       0.684 -10.727 -14.996  1.00  0.00     0.278 HD
ATOM     27  H22 UNL     1      -0.728 -11.282 -14.713  1.00  0.00     0.278 HD
ATOM     28  H21 UNL     1      -0.595 -10.079 -15.894  1.00  0.00     0.278 HD
ENDBRANCH   1  25
TORSDOF 6
ENDMDL
MODEL 2
REMARK VINA RESULT: -4.457272805      2.044      3.964
REMARK  6 active torsions:
REMARK  status: ('A' for Active; 'I' for Inactive)
REMARK    1  A    between atoms: S1_2  and  C2_3 
REMARK    2  A    between atoms: C3_4  and  O1_5 
REMARK    3  A    between atoms: C4_7  and  O2_8 
REMARK    4  A    between atoms: C5_10  and  O3_11 
REMARK    5  A    between atoms: N1_17  and  C9_18 
REMARK    6  A    between atoms: C9_18  and  N2_19 
ROOT
HETATM    1  C9  UNL     1      -0.961  -8.757 -14.164  1.00  0.00     0.402 C 
HETATM    2  C10 UNL     1      -2.102  -9.211 -14.998  1.00  0.00     0.114 C 
HETATM    3  N3  UNL     1      -2.985  -9.569 -15.638  1.00  0.00    -0.193 NA
ENDROOT
BRANCH   1   4
HETATM    4  N1  UNL     1      -0.792  -9.639 -13.023  1.00  0.00    -0.223 N 
HETATM    5  C8  UNL     1      -1.777  -9.759 -12.133  1.00  0.00     0.268 A 
HETATM    6  C7  UNL     1      -1.561 -10.613 -11.066  1.00  0.00     0.082 A 
HETATM    7  O4  UNL     1      -2.869  -9.155 -12.206  1.00  0.00    -0.267 OA
HETATM    8  C2  UNL     1      -2.552 -10.755 -10.141  1.00  0.00     0.054 A 
HETATM    9  C6  UNL     1      -0.357 -11.306 -10.947  1.00  0.00     0.091 A 
HETATM   10  C3  UNL     1      -2.382 -11.588  -9.073  1.00  0.00     0.119 A 
HETATM   11  C4  UNL     1      -1.193 -12.273  -8.955  1.00  0.00     0.136 A 
HETATM   12  C5  UNL     1      -0.158 -12.151  -9.881  1.00  0.00     0.130 A 
HETATM   13  N4  UNL     1       0.620 -11.166 -11.857  1.00  0.00    -0.300 N 
HETATM   14  C11 UNL     1       0.364 -10.309 -12.901  1.00  0.00     0.334 A 
HETATM   15  C12 UNL     1       1.868 -11.864 -11.765  1.00  0.00     0.161 C 
HETATM   16  O5  UNL     1       1.262 -10.156 -13.774  1.00  0.00    -0.246 OA
BRANCH   8  17
HETATM   17  S1  UNL     1      -4.105  -9.845 -10.318  1.00  0.00    -0.130 SA
HETATM   18  C1  UNL     1      -4.105  -8.490  -9.089  1.00  0.00     0.095 C 
ENDBRANCH   8  17
BRANCH  10  19
HETATM   19  O1  UNL     1      -3.402 -11.723  -8.139  1.00  0.00    -0.357 OA
ATOM     20  H1  UNL     1      -3.292 -11.362  -7.267  1.00  0.00     0.218 HD
ENDBRANCH  10  19
BRANCH  11  21
HETATM   21  O2  UNL     1      -0.975 -13.125  -7.892  1.00  0.00    -0.356 OA
ATOM     22  H2  UNL     1      -0.099 -13.426  -7.684  1.00  0.00     0.218 HD
ENDBRANCH  11  21
BRANCH  12  23
HETATM   23  O3  UNL     1       1.015 -12.860  -9.718  1.00  0.00    -0.356 OA
ATOM     24  H3  UNL     1       1.800 -12.607 -10.189  1.00  0.00     0.218 HD
ENDBRANCH  12  23
ENDBRANCH   1   4
BRANCH   1  25
HETATM   25  N2  UNL     1      -1.318  -7.419 -13.710  1.00  0.00    -0.045 N 
ATOM     26  H23 UNL     1      -1.130  -7.290 -12.715  1.00  0.00     0.278 HD
ATOM     27  H22 UNL     1      -0.682  -6.709 -14.074  1.00  0.00     0.278 HD
ATOM     28  H21 UNL     1      -2.290  -7.219 -13.945  1.00  0.00     0.278 HD
ENDBRANCH   1  25
TORSDOF 6
ENDMDL
MODEL 3
REMARK VINA RESULT: -4.307371542      1.550      1.703
REMARK  6 active torsions:
REMARK  status: ('A' for Active; 'I' for Inactive)
REMARK    1  A    between atoms: S1_2  and  C2_3 
REMARK    2  A    between atoms: C3_4  and  O1_5 
REMARK    3  A    between atoms: C4_7  and  O2_8 
REMARK    4  A    between atoms: C5_10  and  O3_11 
REMARK    5  A    between atoms: N1_17  and  C9_18 
REMARK    6  A    between atoms: C9_18  and  N2_19 
ROOT
HETATM    1  C9  UNL     1      -1.042  -8.033 -12.960  1.00  0.00     0.402 C 
HETATM    2  C10 UNL     1       0.057  -7.253 -12.339  1.00  0.00     0.114 C 
HETATM    3  N3  UNL     1       0.905  -6.653 -11.851  1.00  0.00    -0.193 NA
ENDROOT
BRANCH   1   4
HETATM    4  N1  UNL     1      -1.674  -8.886 -11.969  1.00  0.00    -0.223 N 
HETATM    5  C8  UNL     1      -0.952  -9.816 -11.345  1.00  0.00     0.268 A 
HETATM    6  C7  UNL     1      -1.606 -10.600 -10.410  1.00  0.00     0.082 A 
HETATM    7  O4  UNL     1       0.264 -10.018 -11.550  1.00  0.00    -0.267 OA
HETATM    8  C2  UNL     1      -0.891 -11.558  -9.757  1.00  0.00     0.054 A 
HETATM    9  C6  UNL     1      -2.962 -10.407 -10.150  1.00  0.00     0.091 A 
HETATM   10  C3  UNL     1      -1.495 -12.353  -8.826  1.00  0.00     0.119 A 
HETATM   11  C4  UNL     1      -2.835 -12.164  -8.569  1.00  0.00     0.136 A 
HETATM   12  C5  UNL     1      -3.597 -11.193  -9.219  1.00  0.00     0.130 A 
HETATM   13  N4  UNL     1      -3.667  -9.463 -10.794  1.00  0.00    -0.300 N 
HETATM   14  C11 UNL     1      -2.980  -8.707 -11.713  1.00  0.00     0.334 A 
HETATM   15  C12 UNL     1      -5.062  -9.239 -10.549  1.00  0.00     0.161 C 
HETATM   16  O5  UNL     1      -3.614  -7.811 -12.335  1.00  0.00    -0.246 OA
BRANCH   8  17
HETATM   17  S1  UNL     1       0.868 -11.789 -10.112  1.00  0.00    -0.130 SA
HETATM   18  C1  UNL     1       1.055 -13.366 -11.019  1.00  0.00     0.095 C 
ENDBRANCH   8  17
BRANCH  10  19
HETATM   19  O1  UNL     1      -0.753 -13.326  -8.167  1.00  0.00    -0.357 OA
ATOM     20  H1  UNL     1      -0.370 -14.041  -8.662  1.00  0.00     0.218 HD
ENDBRANCH  10  19
BRANCH  11  21
HETATM   21  O2  UNL     1      -3.489 -12.942  -7.637  1.00  0.00    -0.356 OA
ATOM     22  H2  UNL     1      -4.389 -13.212  -7.777  1.00  0.00     0.218 HD
ENDBRANCH  11  21
BRANCH  12  23
HETATM   23  O3  UNL     1      -4.937 -11.043  -8.924  1.00  0.00    -0.356 OA
ATOM     24  H3  UNL     1      -5.553 -10.788  -9.602  1.00  0.00     0.218 HD
ENDBRANCH  12  23
ENDBRANCH   1   4
BRANCH   1  25
HETATM   25  N2  UNL     1      -0.410  -8.851 -13.987  1.00  0.00    -0.045 N 
ATOM     26  H23 UNL     1      -0.390  -9.838 -13.732  1.00  0.00     0.278 HD
ATOM     27  H22 UNL     1      -0.986  -8.926 -14.825  1.00  0.00     0.278 HD
ATOM     28  H21 UNL     1       0.522  -8.490 -14.195  1.00  0.00     0.278 HD
ENDBRANCH   1  25
TORSDOF 6
ENDMDL
MODEL 4
REMARK VINA RESULT: -4.286218522      2.435      4.370
REMARK  6 active torsions:
REMARK  status: ('A' for Active; 'I' for Inactive)
REMARK    1  A    between atoms: S1_2  and  C2_3 
REMARK    2  A    between atoms: C3_4  and  O1_5 
REMARK    3  A    between atoms: C4_7  and  O2_8 
REMARK    4  A    between atoms: C5_10  and  O3_11 
REMARK    5  A    between atoms: N1_17  and  C9_18 
REMARK    6  A    between atoms: C9_18  and  N2_19 
ROOT
HETATM    1  C9  UNL     1       1.739 -10.281 -11.432  1.00  0.00     0.402 C 
HETATM    2  C10 UNL     1       1.745 -10.764 -12.835  1.00  0.00     0.114 C 
HETATM    3  N3  UNL     1       1.742 -11.141 -13.920  1.00  0.00    -0.193 NA
ENDROOT
BRANCH   1   4
HETATM    4  N1  UNL     1       0.484 -10.628 -10.788  1.00  0.00    -0.223 N 
HETATM    5  C8  UNL     1      -0.647 -10.056 -11.199  1.00  0.00     0.268 A 
HETATM    6  C7  UNL     1      -1.813 -10.424 -10.550  1.00  0.00     0.082 A 
HETATM    7  O4  UNL     1      -0.716  -9.220 -12.126  1.00  0.00    -0.267 OA
HETATM    8  C2  UNL     1      -2.983  -9.854 -10.951  1.00  0.00     0.054 A 
HETATM    9  C6  UNL     1      -1.779 -11.354  -9.512  1.00  0.00     0.091 A 
HETATM   10  C3  UNL     1      -4.156 -10.189 -10.339  1.00  0.00     0.119 A 
HETATM   11  C4  UNL     1      -4.125 -11.107  -9.313  1.00  0.00     0.136 A 
HETATM   12  C5  UNL     1      -2.946 -11.709  -8.877  1.00  0.00     0.130 A 
HETATM   13  N4  UNL     1      -0.627 -11.915  -9.116  1.00  0.00    -0.300 N 
HETATM   14  C11 UNL     1       0.507 -11.523  -9.787  1.00  0.00     0.334 A 
HETATM   15  C12 UNL     1      -0.558 -12.875  -8.053  1.00  0.00     0.161 C 
HETATM   16  O5  UNL     1       1.607 -12.032  -9.439  1.00  0.00    -0.246 OA
BRANCH   8  17
HETATM   17  S1  UNL     1      -2.999  -8.650 -12.301  1.00  0.00    -0.130 SA
HETATM   18  C1  UNL     1      -3.248  -6.992 -11.571  1.00  0.00     0.095 C 
ENDBRANCH   8  17
BRANCH  10  19
HETATM   19  O1  UNL     1      -5.343  -9.601 -10.760  1.00  0.00    -0.357 OA
ATOM     20  H1  UNL     1      -6.001  -9.359 -10.119  1.00  0.00     0.218 HD
ENDBRANCH  10  19
BRANCH  11  21
HETATM   21  O2  UNL     1      -5.285 -11.476  -8.665  1.00  0.00    -0.356 OA
ATOM     22  H2  UNL     1      -5.424 -12.376  -8.394  1.00  0.00     0.218 HD
ENDBRANCH  11  21
BRANCH  12  23
HETATM   23  O3  UNL     1      -2.968 -12.625  -7.844  1.00  0.00    -0.356 OA
ATOM     24  H3  UNL     1      -2.436 -13.411  -7.886  1.00  0.00     0.218 HD
ENDBRANCH  12  23
ENDBRANCH   1   4
BRANCH   1  25
HETATM   25  N2  UNL     1       1.869  -8.833 -11.516  1.00  0.00    -0.045 N 
ATOM     26  H23 UNL     1       1.398  -8.453 -12.337  1.00  0.00     0.278 HD
ATOM     27  H22 UNL     1       1.324  -8.357 -10.798  1.00  0.00     0.278 HD
ATOM     28  H21 UNL     1       2.855  -8.570 -11.485  1.00  0.00     0.278 HD
ENDBRANCH   1  25
TORSDOF 6
ENDMDL
MODEL 5
REMARK VINA RESULT: -4.206802412      3.029      5.237
REMARK  6 active torsions:
REMARK  status: ('A' for Active; 'I' for Inactive)
REMARK    1  A    between atoms: S1_2  and  C2_3 
REMARK    2  A    between atoms: C3_4  and  O1_5 
REMARK    3  A    between atoms: C4_7  and  O2_8 
REMARK    4  A    between atoms: C5_10  and  O3_11 
REMARK    5  A    between atoms: N1_17  and  C9_18 
REMARK    6  A    between atoms: C9_18  and  N2_19 
ROOT
HETATM    1  C9  UNL     1      -0.381 -12.594  -7.866  1.00  0.00     0.402 C 
HETATM    2  C10 UNL     1       0.519 -13.360  -8.763  1.00  0.00     0.114 C 
HETATM    3  N3  UNL     1       1.211 -13.950  -9.465  1.00  0.00    -0.193 NA
ENDROOT
BRANCH   1   4
HETATM    4  N1  UNL     1      -1.317 -11.805  -8.649  1.00  0.00    -0.223 N 
HETATM    5  C8  UNL     1      -0.860 -10.829  -9.433  1.00  0.00     0.268 A 
HETATM    6  C7  UNL     1      -1.797 -10.111 -10.155  1.00  0.00     0.082 A 
HETATM    7  O4  UNL     1       0.348 -10.530  -9.552  1.00  0.00    -0.267 OA
HETATM    8  C2  UNL     1      -1.356  -9.107 -10.965  1.00  0.00     0.054 A 
HETATM    9  C6  UNL     1      -3.154 -10.413 -10.051  1.00  0.00     0.091 A 
HETATM   10  C3  UNL     1      -2.245  -8.373 -11.696  1.00  0.00     0.119 A 
HETATM   11  C4  UNL     1      -3.586  -8.671 -11.594  1.00  0.00     0.136 A 
HETATM   12  C5  UNL     1      -4.071  -9.690 -10.775  1.00  0.00     0.130 A 
HETATM   13  N4  UNL     1      -3.588 -11.401  -9.253  1.00  0.00    -0.300 N 
HETATM   14  C11 UNL     1      -2.626 -12.090  -8.554  1.00  0.00     0.334 A 
HETATM   15  C12 UNL     1      -4.975 -11.737  -9.124  1.00  0.00     0.161 C 
HETATM   16  O5  UNL     1      -3.001 -13.025  -7.796  1.00  0.00    -0.246 OA
BRANCH   8  17
HETATM   17  S1  UNL     1       0.411  -8.735 -11.083  1.00  0.00    -0.130 SA
HETATM   18  C1  UNL     1       1.007  -9.350 -12.698  1.00  0.00     0.095 C 
ENDBRANCH   8  17
BRANCH  10  19
HETATM   19  O1  UNL     1      -1.781  -7.353 -12.519  1.00  0.00    -0.357 OA
ATOM     20  H1  UNL     1      -1.511  -6.527 -12.136  1.00  0.00     0.218 HD
ENDBRANCH  10  19
BRANCH  11  21
HETATM   21  O2  UNL     1      -4.521  -7.957 -12.313  1.00  0.00    -0.356 OA
ATOM     22  H2  UNL     1      -4.433  -7.017 -12.424  1.00  0.00     0.218 HD
ENDBRANCH  11  21
BRANCH  12  23
HETATM   23  O3  UNL     1      -5.425  -9.948 -10.708  1.00  0.00    -0.356 OA
ATOM     24  H3  UNL     1      -5.741 -10.839 -10.607  1.00  0.00     0.218 HD
ENDBRANCH  12  23
ENDBRANCH   1   4
BRANCH   1  25
HETATM   25  N2  UNL     1       0.489 -11.713  -7.099  1.00  0.00    -0.045 N 
ATOM     26  H23 UNL     1       1.407 -11.610  -7.532  1.00  0.00     0.278 HD
ATOM     27  H22 UNL     1       0.190 -10.740  -7.150  1.00  0.00     0.278 HD
ATOM     28  H21 UNL     1       0.555 -12.043  -6.135  1.00  0.00     0.278 HD
ENDBRANCH   1  25
TORSDOF 6
ENDMDL
