MODEL 1
REMARK VINA RESULT: -4.879627150      0.000      0.000
REMARK  5 active torsions:
REMARK  status: ('A' for Active; 'I' for Inactive)
REMARK    1  A    between atoms: O1_2  and  C2_3 
REMARK    2  A    between atoms: C2_3  and  C3_5 
REMARK    3  A    between atoms: N4_16  and  N5_17 
REMARK    4  A    between atoms: C9_20  and  N6_21 
REMARK    5  A    between atoms: N8_28  and  N9_30 
ROOT
HETATM    1  C3  UNL     1      -2.609 -11.021  -9.503  1.00  0.00     0.141 A 
HETATM    2  N1  UNL     1      -3.585 -10.123  -9.141  1.00  0.00    -0.291 N 
ATOM      3  H1  UNL     1      -4.230 -10.269  -8.364  1.00  0.00     0.187 HD
HETATM    4  N2  UNL     1      -3.596  -9.074  -9.896  1.00  0.00    -0.280 N 
HETATM    5  C4  UNL     1      -4.469  -7.931  -9.822  1.00  0.00     0.179 C 
HETATM    6  C5  UNL     1      -2.607  -9.221 -10.822  1.00  0.00     0.140 A 
HETATM    7  N3  UNL     1      -2.225  -8.405 -11.818  1.00  0.00    -0.324 N 
ATOM      8  H3  UNL     1      -2.697  -7.515 -11.978  1.00  0.00     0.169 HD
HETATM    9  C6  UNL     1      -1.208  -8.793 -12.597  1.00  0.00     0.142 A 
HETATM   10  C7  UNL     1      -0.826  -7.929 -13.626  1.00  0.00     0.076 A 
HETATM   11  C8  UNL     1      -1.550  -6.638 -13.816  1.00  0.00     0.074 C 
HETATM   12  N4  UNL     1       0.176  -8.227 -14.455  1.00  0.00    -0.243 N 
HETATM   13  C9  UNL     1       0.824  -9.383 -14.284  1.00  0.00     0.190 A 
HETATM   14  C10 UNL     1       0.433 -10.234 -13.253  1.00  0.00     0.300 A 
HETATM   15  O3  UNL     1       1.069 -11.278 -13.154  1.00  0.00    -0.263 OA
HETATM   16  N7  UNL     1      -0.573  -9.963 -12.402  1.00  0.00    -0.242 N 
HETATM   17  C11 UNL     1      -0.904 -10.845 -11.411  1.00  0.00     0.147 A 
HETATM   18  N8  UNL     1      -0.363 -11.891 -11.209  1.00  0.00    -0.291 N 
ATOM     19  H8  UNL     1      -0.903 -12.219 -10.408  1.00  0.00     0.188 HD
HETATM   20  C12 UNL     1      -1.983 -10.428 -10.589  1.00  0.00     0.090 A 
ENDROOT
BRANCH  18  21
HETATM   21  N9  UNL     1       0.476 -12.896 -11.349  1.00  0.00    -0.344 N 
ATOM     22  H92 UNL     1       0.725 -12.713 -12.321  1.00  0.00     0.176 HD
ATOM     23  H91 UNL     1       1.027 -13.722 -11.117  1.00  0.00     0.176 HD
ENDBRANCH  18  21
BRANCH   1  24
HETATM   24  C2  UNL     1      -2.360 -12.275  -8.843  1.00  0.00     0.312 C 
HETATM   25  O2  UNL     1      -1.450 -13.068  -8.875  1.00  0.00    -0.258 OA
BRANCH  24  26
HETATM   26  O1  UNL     1      -3.404 -12.676  -7.963  1.00  0.00    -0.321 OA
HETATM   27  C1  UNL     1      -4.522 -13.352  -8.476  1.00  0.00     0.213 C 
ENDBRANCH  24  26
ENDBRANCH   1  24
BRANCH  13  28
HETATM   28  N6  UNL     1       1.806  -9.711 -15.068  1.00  0.00    -0.379 N 
ATOM     29  H62 UNL     1       1.974  -9.189 -15.927  1.00  0.00     0.158 HD
ATOM     30  H61 UNL     1       2.416 -10.494 -14.833  1.00  0.00     0.158 HD
ENDBRANCH  13  28
BRANCH  12  31
HETATM   31  N5  UNL     1       0.537  -7.352 -15.473  1.00  0.00    -0.337 N 
ATOM     32  H52 UNL     1       0.732  -6.370 -15.275  1.00  0.00     0.177 HD
ATOM     33  H51 UNL     1       0.613  -7.679 -16.436  1.00  0.00     0.177 HD
ENDBRANCH  12  31
TORSDOF 5
ENDMDL
MODEL 2
REMARK VINA RESULT: -4.652171766      1.749      3.433
REMARK  5 active torsions:
REMARK  status: ('A' for Active; 'I' for Inactive)
REMARK    1  A    between atoms: O1_2  and  C2_3 
REMARK    2  A    between atoms: C2_3  and  C3_5 
REMARK    3  A    between atoms: N4_16  and  N5_17 
REMARK    4  A    between atoms: C9_20  and  N6_21 
REMARK    5  A    between atoms: N8_28  and  N9_30 
ROOT
HETATM    1  C3  UNL     1      -2.125 -11.754  -9.538  1.00  0.00     0.141 A 
HETATM    2  N1  UNL     1      -1.077 -12.582  -9.216  1.00  0.00    -0.291 N 
ATOM      3  H1  UNL     1      -1.092 -13.238  -8.434  1.00  0.00     0.187 HD
HETATM    4  N2  UNL     1      -0.071 -12.438 -10.014  1.00  0.00    -0.280 N 
HETATM    5  C4  UNL     1       1.193 -13.129  -9.989  1.00  0.00     0.179 C 
HETATM    6  C5  UNL     1      -0.401 -11.484 -10.928  1.00  0.00     0.140 A 
HETATM    7  N3  UNL     1       0.307 -10.986 -11.955  1.00  0.00    -0.324 N 
ATOM      8  H3  UNL     1       1.251 -11.318 -12.152  1.00  0.00     0.169 HD
HETATM    9  C6  UNL     1      -0.260 -10.040 -12.713  1.00  0.00     0.142 A 
HETATM   10  C7  UNL     1       0.493  -9.535 -13.776  1.00  0.00     0.076 A 
HETATM   11  C8  UNL     1       1.869 -10.057 -14.020  1.00  0.00     0.074 C 
HETATM   12  N4  UNL     1       0.015  -8.591 -14.588  1.00  0.00    -0.243 N 
HETATM   13  C9  UNL     1      -1.218  -8.125 -14.368  1.00  0.00     0.190 A 
HETATM   14  C10 UNL     1      -1.958  -8.637 -13.306  1.00  0.00     0.300 A 
HETATM   15  O3  UNL     1      -3.080  -8.164 -13.161  1.00  0.00    -0.263 OA
HETATM   16  N7  UNL     1      -1.504  -9.588 -12.470  1.00  0.00    -0.242 N 
HETATM   17  C11 UNL     1      -2.285 -10.046 -11.445  1.00  0.00     0.147 A 
HETATM   18  N8  UNL     1      -3.392  -9.669 -11.199  1.00  0.00    -0.291 N 
ATOM     19  H8  UNL     1      -3.602 -10.247 -10.386  1.00  0.00     0.188 HD
HETATM   20  C12 UNL     1      -1.678 -11.049 -10.645  1.00  0.00     0.090 A 
ENDROOT
BRANCH  18  21
HETATM   21  N9  UNL     1      -4.517  -8.992 -11.296  1.00  0.00    -0.344 N 
ATOM     22  H92 UNL     1      -4.096  -8.078 -11.466  1.00  0.00     0.176 HD
ATOM     23  H91 UNL     1      -5.517  -8.794 -11.310  1.00  0.00     0.176 HD
ENDBRANCH  18  21
BRANCH   1  24
HETATM   24  C2  UNL     1      -3.375 -11.696  -8.828  1.00  0.00     0.312 C 
HETATM   25  O2  UNL     1      -4.311 -10.933  -8.849  1.00  0.00    -0.258 OA
BRANCH  24  26
HETATM   26  O1  UNL     1      -3.558 -12.760  -7.901  1.00  0.00    -0.321 OA
HETATM   27  C1  UNL     1      -4.817 -13.370  -7.785  1.00  0.00     0.213 C 
ENDBRANCH  24  26
ENDBRANCH   1  24
BRANCH  13  28
HETATM   28  N6  UNL     1      -1.722  -7.205 -15.135  1.00  0.00    -0.379 N 
ATOM     29  H62 UNL     1      -1.683  -7.303 -16.149  1.00  0.00     0.158 HD
ATOM     30  H61 UNL     1      -2.160  -6.378 -14.731  1.00  0.00     0.158 HD
ENDBRANCH  13  28
BRANCH  12  31
HETATM   31  N5  UNL     1       0.784  -8.104 -15.638  1.00  0.00    -0.337 N 
ATOM     32  H52 UNL     1       1.119  -8.726 -16.374  1.00  0.00     0.177 HD
ATOM     33  H51 UNL     1       1.027  -7.115 -15.689  1.00  0.00     0.177 HD
ENDBRANCH  12  31
TORSDOF 5
ENDMDL
MODEL 3
REMARK VINA RESULT: -4.611924766      2.112      5.018
REMARK  5 active torsions:
REMARK  status: ('A' for Active; 'I' for Inactive)
REMARK    1  A    between atoms: O1_2  and  C2_3 
REMARK    2  A    between atoms: C2_3  and  C3_5 
REMARK    3  A    between atoms: N4_16  and  N5_17 
REMARK    4  A    between atoms: C9_20  and  N6_21 
REMARK    5  A    between atoms: N8_28  and  N9_30 
ROOT
HETATM    1  C3  UNL     1       0.074 -11.870 -11.226  1.00  0.00     0.141 A 
HETATM    2  N1  UNL     1       0.849 -11.351 -12.236  1.00  0.00    -0.291 N 
ATOM      3  H1  UNL     1       1.694 -11.801 -12.590  1.00  0.00     0.187 HD
HETATM    4  N2  UNL     1       0.388 -10.232 -12.688  1.00  0.00    -0.280 N 
HETATM    5  C4  UNL     1       0.927  -9.403 -13.735  1.00  0.00     0.179 C 
HETATM    6  C5  UNL     1      -0.742  -9.937 -11.986  1.00  0.00     0.140 A 
HETATM    7  N3  UNL     1      -1.573  -8.885 -12.084  1.00  0.00    -0.324 N 
ATOM      8  H3  UNL     1      -1.405  -8.145 -12.765  1.00  0.00     0.169 HD
HETATM    9  C6  UNL     1      -2.628  -8.837 -11.262  1.00  0.00     0.142 A 
HETATM   10  C7  UNL     1      -3.480  -7.736 -11.381  1.00  0.00     0.076 A 
HETATM   11  C8  UNL     1      -3.188  -6.681 -12.394  1.00  0.00     0.074 C 
HETATM   12  N4  UNL     1      -4.558  -7.598 -10.607  1.00  0.00    -0.243 N 
HETATM   13  C9  UNL     1      -4.818  -8.544  -9.700  1.00  0.00     0.190 A 
HETATM   14  C10 UNL     1      -3.961  -9.635  -9.592  1.00  0.00     0.300 A 
HETATM   15  O3  UNL     1      -4.258 -10.465  -8.740  1.00  0.00    -0.263 OA
HETATM   16  N7  UNL     1      -2.867  -9.804 -10.357  1.00  0.00    -0.242 N 
HETATM   17  C11 UNL     1      -2.067 -10.902 -10.199  1.00  0.00     0.147 A 
HETATM   18  N8  UNL     1      -2.248 -11.779  -9.407  1.00  0.00    -0.291 N 
ATOM     19  H8  UNL     1      -1.448 -12.375  -9.615  1.00  0.00     0.188 HD
HETATM   20  C12 UNL     1      -0.950 -10.948 -11.073  1.00  0.00     0.090 A 
ENDROOT
BRANCH  18  21
HETATM   21  N9  UNL     1      -2.809 -12.475  -8.440  1.00  0.00    -0.344 N 
ATOM     22  H92 UNL     1      -3.636 -11.888  -8.331  1.00  0.00     0.176 HD
ATOM     23  H91 UNL     1      -2.947 -13.207  -7.744  1.00  0.00     0.176 HD
ENDBRANCH  18  21
BRANCH   1  24
HETATM   24  C2  UNL     1       0.341 -13.103 -10.536  1.00  0.00     0.312 C 
HETATM   25  O2  UNL     1       0.358 -13.420  -9.370  1.00  0.00    -0.258 OA
BRANCH  24  26
HETATM   26  O1  UNL     1       0.652 -14.189 -11.401  1.00  0.00    -0.321 OA
HETATM   27  C1  UNL     1       1.834 -14.919 -11.200  1.00  0.00     0.213 C 
ENDBRANCH  24  26
ENDBRANCH   1  24
BRANCH  13  28
HETATM   28  N6  UNL     1      -5.857  -8.448  -8.926  1.00  0.00    -0.379 N 
ATOM     29  H62 UNL     1      -6.337  -9.287  -8.602  1.00  0.00     0.158 HD
ATOM     30  H61 UNL     1      -6.203  -7.533  -8.636  1.00  0.00     0.158 HD
ENDBRANCH  13  28
BRANCH  12  31
HETATM   31  N5  UNL     1      -5.390  -6.493 -10.743  1.00  0.00    -0.337 N 
ATOM     32  H52 UNL     1      -6.041  -6.421 -11.524  1.00  0.00     0.177 HD
ATOM     33  H51 UNL     1      -5.361  -5.734 -10.061  1.00  0.00     0.177 HD
ENDBRANCH  12  31
TORSDOF 5
ENDMDL
MODEL 4
REMARK VINA RESULT: -4.494697136      1.535      1.807
REMARK  5 active torsions:
REMARK  status: ('A' for Active; 'I' for Inactive)
REMARK    1  A    between atoms: O1_2  and  C2_3 
REMARK    2  A    between atoms: C2_3  and  C3_5 
REMARK    3  A    between atoms: N4_16  and  N5_17 
REMARK    4  A    between atoms: C9_20  and  N6_21 
REMARK    5  A    between atoms: N8_28  and  N9_30 
ROOT
HETATM    1  C3  UNL     1      -1.859 -11.690  -9.503  1.00  0.00     0.141 A 
HETATM    2  N1  UNL     1      -3.054 -11.358  -8.911  1.00  0.00    -0.291 N 
ATOM      3  H1  UNL     1      -3.395 -11.780  -8.047  1.00  0.00     0.187 HD
HETATM    4  N2  UNL     1      -3.699 -10.454  -9.572  1.00  0.00    -0.280 N 
HETATM    5  C4  UNL     1      -4.974  -9.862  -9.262  1.00  0.00     0.179 C 
HETATM    6  C5  UNL     1      -2.951 -10.129 -10.664  1.00  0.00     0.140 A 
HETATM    7  N3  UNL     1      -3.193  -9.247 -11.648  1.00  0.00    -0.324 N 
ATOM      8  H3  UNL     1      -4.048  -8.691 -11.657  1.00  0.00     0.169 HD
HETATM    9  C6  UNL     1      -2.280  -9.118 -12.618  1.00  0.00     0.142 A 
HETATM   10  C7  UNL     1      -2.550  -8.195 -13.632  1.00  0.00     0.076 A 
HETATM   11  C8  UNL     1      -3.816  -7.407 -13.595  1.00  0.00     0.074 C 
HETATM   12  N4  UNL     1      -1.702  -7.995 -14.641  1.00  0.00    -0.243 N 
HETATM   13  C9  UNL     1      -0.568  -8.702 -14.672  1.00  0.00     0.190 A 
HETATM   14  C10 UNL     1      -0.311  -9.618 -13.656  1.00  0.00     0.300 A 
HETATM   15  O3  UNL     1       0.746 -10.232 -13.747  1.00  0.00    -0.263 OA
HETATM   16  N7  UNL     1      -1.146  -9.843 -12.625  1.00  0.00    -0.242 N 
HETATM   17  C11 UNL     1      -0.831 -10.758 -11.660  1.00  0.00     0.147 A 
HETATM   18  N8  UNL     1       0.165 -11.419 -11.634  1.00  0.00    -0.291 N 
ATOM     19  H8  UNL     1       0.005 -11.950 -10.778  1.00  0.00     0.188 HD
HETATM   20  C12 UNL     1      -1.802 -10.890 -10.634  1.00  0.00     0.090 A 
ENDROOT
BRANCH  18  21
HETATM   21  N9  UNL     1       1.335 -11.906 -11.992  1.00  0.00    -0.344 N 
ATOM     22  H92 UNL     1       1.162 -12.867 -11.697  1.00  0.00     0.176 HD
ATOM     23  H91 UNL     1       2.283 -11.942 -12.365  1.00  0.00     0.176 HD
ENDBRANCH  18  21
BRANCH   1  24
HETATM   24  C2  UNL     1      -0.931 -12.664  -8.992  1.00  0.00     0.312 C 
HETATM   25  O2  UNL     1      -0.020 -13.286  -9.484  1.00  0.00    -0.258 OA
BRANCH  24  26
HETATM   26  O1  UNL     1      -1.118 -12.966  -7.614  1.00  0.00    -0.321 OA
HETATM   27  C1  UNL     1      -0.006 -13.022  -6.759  1.00  0.00     0.213 C 
ENDBRANCH  24  26
ENDBRANCH   1  24
BRANCH  13  28
HETATM   28  N6  UNL     1       0.285  -8.537 -15.638  1.00  0.00    -0.379 N 
ATOM     29  H62 UNL     1       0.678  -9.345 -16.120  1.00  0.00     0.158 HD
ATOM     30  H61 UNL     1       0.570  -7.600 -15.923  1.00  0.00     0.158 HD
ENDBRANCH  13  28
BRANCH  12  31
HETATM   31  N5  UNL     1      -1.993  -7.071 -15.638  1.00  0.00    -0.337 N 
ATOM     32  H52 UNL     1      -2.428  -6.177 -15.413  1.00  0.00     0.177 HD
ATOM     33  H51 UNL     1      -1.776  -7.275 -16.614  1.00  0.00     0.177 HD
ENDBRANCH  12  31
TORSDOF 5
ENDMDL
MODEL 5
REMARK VINA RESULT: -4.424506318      2.374      3.740
REMARK  5 active torsions:
REMARK  status: ('A' for Active; 'I' for Inactive)
REMARK    1  A    between atoms: O1_2  and  C2_3 
REMARK    2  A    between atoms: C2_3  and  C3_5 
REMARK    3  A    between atoms: N4_16  and  N5_17 
REMARK    4  A    between atoms: C9_20  and  N6_21 
REMARK    5  A    between atoms: N8_28  and  N9_30 
ROOT
HETATM    1  C3  UNL     1      -2.995 -11.937  -8.941  1.00  0.00     0.141 A 
HETATM    2  N1  UNL     1      -1.839 -12.502  -8.457  1.00  0.00    -0.291 N 
ATOM      3  H1  UNL     1      -1.821 -13.294  -7.814  1.00  0.00     0.187 HD
HETATM    4  N2  UNL     1      -0.778 -11.917  -8.906  1.00  0.00    -0.280 N 
HETATM    5  C4  UNL     1       0.599 -12.228  -8.623  1.00  0.00     0.179 C 
HETATM    6  C5  UNL     1      -1.179 -10.909  -9.730  1.00  0.00     0.140 A 
HETATM    7  N3  UNL     1      -0.454 -10.021 -10.430  1.00  0.00    -0.324 N 
ATOM      8  H3  UNL     1       0.566 -10.033 -10.396  1.00  0.00     0.169 HD
HETATM    9  C6  UNL     1      -1.106  -9.119 -11.174  1.00  0.00     0.142 A 
HETATM   10  C7  UNL     1      -0.332  -8.206 -11.895  1.00  0.00     0.076 A 
HETATM   11  C8  UNL     1       1.156  -8.268 -11.810  1.00  0.00     0.074 C 
HETATM   12  N4  UNL     1      -0.890  -7.269 -12.664  1.00  0.00    -0.243 N 
HETATM   13  C9  UNL     1      -2.222  -7.215 -12.739  1.00  0.00     0.190 A 
HETATM   14  C10 UNL     1      -2.981  -8.131 -12.016  1.00  0.00     0.300 A 
HETATM   15  O3  UNL     1      -4.197  -8.025 -12.130  1.00  0.00    -0.263 OA
HETATM   16  N7  UNL     1      -2.450  -9.087 -11.231  1.00  0.00    -0.242 N 
HETATM   17  C11 UNL     1      -3.254  -9.956 -10.548  1.00  0.00     0.147 A 
HETATM   18  N8  UNL     1      -4.450  -9.956 -10.575  1.00  0.00    -0.291 N 
ATOM     19  H8  UNL     1      -4.642 -10.736  -9.947  1.00  0.00     0.188 HD
HETATM   20  C12 UNL     1      -2.558 -10.909  -9.762  1.00  0.00     0.090 A 
ENDROOT
BRANCH  18  21
HETATM   21  N9  UNL     1      -5.679  -9.604 -10.889  1.00  0.00    -0.344 N 
ATOM     22  H92 UNL     1      -5.469  -9.246 -11.821  1.00  0.00     0.176 HD
ATOM     23  H91 UNL     1      -6.685  -9.460 -10.804  1.00  0.00     0.176 HD
ENDBRANCH  18  21
BRANCH   1  24
HETATM   24  C2  UNL     1      -4.325 -12.379  -8.615  1.00  0.00     0.312 C 
HETATM   25  O2  UNL     1      -5.392 -11.819  -8.526  1.00  0.00    -0.258 OA
BRANCH  24  26
HETATM   26  O1  UNL     1      -4.414 -13.772  -8.335  1.00  0.00    -0.321 OA
HETATM   27  C1  UNL     1      -5.282 -14.576  -9.089  1.00  0.00     0.213 C 
ENDBRANCH  24  26
ENDBRANCH   1  24
BRANCH  13  28
HETATM   28  N6  UNL     1      -2.806  -6.319 -13.477  1.00  0.00    -0.379 N 
ATOM     29  H62 UNL     1      -2.250  -5.679 -14.044  1.00  0.00     0.158 HD
ATOM     30  H61 UNL     1      -3.823  -6.246 -13.495  1.00  0.00     0.158 HD
ENDBRANCH  13  28
BRANCH  12  31
HETATM   31  N5  UNL     1      -0.099  -6.371 -13.371  1.00  0.00    -0.337 N 
ATOM     32  H52 UNL     1      -0.366  -5.390 -13.454  1.00  0.00     0.177 HD
ATOM     33  H51 UNL     1       0.764  -6.681 -13.819  1.00  0.00     0.177 HD
ENDBRANCH  12  31
TORSDOF 5
ENDMDL
