MODEL 1
REMARK VINA RESULT: -7.942963479      0.000      0.000
REMARK  13 active torsions:
REMARK  status: ('A' for Active; 'I' for Inactive)
REMARK    1  A    between atoms: C4_4  and  C5_5 
REMARK    2  A    between atoms: C5_5  and  C6_6 
REMARK    3  A    between atoms: C6_6  and  C7_7 
REMARK    4  A    between atoms: C7_7  and  C8_8 
REMARK    5  A    between atoms: C8_8  and  C9_9 
REMARK    6  A    between atoms: C9_9  and  C10_10 
REMARK    7  A    between atoms: C10_10  and  C11_11 
REMARK    8  A    between atoms: C11_11  and  C12_12 
REMARK    9  A    between atoms: C12_12  and  C13_13 
REMARK   10  A    between atoms: C13_13  and  C14_14 
REMARK   11  A    between atoms: C14_14  and  C15_15 
REMARK   12  A    between atoms: C15_15  and  C16_16 
REMARK   13  A    between atoms: C16_16  and  C17_17 
ROOT
HETATM    1  C11 UNL     1      23.053  -7.649  12.221  1.00  0.00     0.000 C 
ENDROOT
BRANCH   1   2
HETATM    2  C10 UNL     1      22.497  -6.328  11.747  1.00  0.00     0.000 C 
BRANCH   2   3
HETATM    3  C9  UNL     1      21.696  -6.573  10.502  1.00  0.00     0.000 C 
BRANCH   3   4
HETATM    4  C8  UNL     1      20.349  -5.895  10.530  1.00  0.00     0.000 C 
BRANCH   4   5
HETATM    5  C7  UNL     1      20.127  -5.333   9.114  1.00  0.00     0.000 C 
BRANCH   5   6
HETATM    6  C6  UNL     1      21.369  -4.678   8.600  1.00  0.00     0.005 C 
BRANCH   6   7
HETATM    7  C5  UNL     1      21.250  -3.183   8.539  1.00  0.00     0.038 C 
BRANCH   7   8
HETATM    8  C4  UNL     1      21.693  -2.565   9.802  1.00  0.00    -0.058 A 
HETATM    9  C3  UNL     1      20.994  -1.511  10.370  1.00  0.00     0.007 A 
HETATM   10  C2  UNL     1      21.401  -0.917  11.532  1.00  0.00     0.001 A 
HETATM   11  C1  UNL     1      22.544  -1.379  12.162  1.00  0.00     0.000 A 
HETATM   12  C21 UNL     1      23.266  -2.423  11.630  1.00  0.00     0.001 A 
HETATM   13  C20 UNL     1      22.822  -2.992  10.462  1.00  0.00     0.007 A 
ENDBRANCH   7   8
ENDBRANCH   6   7
ENDBRANCH   5   6
ENDBRANCH   4   5
ENDBRANCH   3   4
ENDBRANCH   2   3
ENDBRANCH   1   2
BRANCH   1  14
HETATM   14  C12 UNL     1      21.983  -8.682  12.428  1.00  0.00     0.000 C 
BRANCH  14  15
HETATM   15  C13 UNL     1      22.276  -9.643  13.532  1.00  0.00     0.000 C 
BRANCH  15  16
HETATM   16  C14 UNL     1      23.351  -9.136  14.438  1.00  0.00     0.000 C 
BRANCH  16  17
HETATM   17  C15 UNL     1      23.654 -10.065  15.578  1.00  0.00     0.006 C 
BRANCH  17  18
HETATM   18  C16 UNL     1      25.085 -10.588  15.480  1.00  0.00     0.058 C 
BRANCH  18  19
HETATM   19  C17 UNL     1      25.091 -12.069  15.386  1.00  0.00     0.025 A 
HETATM   20  C18 UNL     1      26.086 -12.939  15.712  1.00  0.00     0.113 A 
HETATM   21  N1  UNL     1      25.668 -14.193  15.469  1.00  0.00    -0.360 N 
HETATM   22  C19 UNL     1      24.421 -14.087  14.994  1.00  0.00     0.180 A 
ATOM     23  H1  UNL     1      26.196 -15.053  15.615  1.00  0.00     0.166 HD
HETATM   24  N2  UNL     1      24.039 -12.809  14.931  1.00  0.00    -0.355 N 
ATOM     25  H2  UNL     1      23.139 -12.456  14.606  1.00  0.00     0.166 HD
ENDBRANCH  18  19
ENDBRANCH  17  18
ENDBRANCH  16  17
ENDBRANCH  15  16
ENDBRANCH  14  15
ENDBRANCH   1  14
TORSDOF 13
ENDMDL
MODEL 2
REMARK VINA RESULT: -7.837684246      1.188      2.117
REMARK  13 active torsions:
REMARK  status: ('A' for Active; 'I' for Inactive)
REMARK    1  A    between atoms: C4_4  and  C5_5 
REMARK    2  A    between atoms: C5_5  and  C6_6 
REMARK    3  A    between atoms: C6_6  and  C7_7 
REMARK    4  A    between atoms: C7_7  and  C8_8 
REMARK    5  A    between atoms: C8_8  and  C9_9 
REMARK    6  A    between atoms: C9_9  and  C10_10 
REMARK    7  A    between atoms: C10_10  and  C11_11 
REMARK    8  A    between atoms: C11_11  and  C12_12 
REMARK    9  A    between atoms: C12_12  and  C13_13 
REMARK   10  A    between atoms: C13_13  and  C14_14 
REMARK   11  A    between atoms: C14_14  and  C15_15 
REMARK   12  A    between atoms: C15_15  and  C16_16 
REMARK   13  A    between atoms: C16_16  and  C17_17 
ROOT
HETATM    1  C11 UNL     1      21.609  -8.688  10.690  1.00  0.00     0.000 C 
ENDROOT
BRANCH   1   2
HETATM    2  C10 UNL     1      20.463  -8.144   9.872  1.00  0.00     0.000 C 
BRANCH   2   3
HETATM    3  C9  UNL     1      20.054  -6.822  10.454  1.00  0.00     0.000 C 
BRANCH   3   4
HETATM    4  C8  UNL     1      19.544  -5.857   9.413  1.00  0.00     0.000 C 
BRANCH   4   5
HETATM    5  C7  UNL     1      20.616  -5.821   8.309  1.00  0.00     0.000 C 
BRANCH   5   6
HETATM    6  C6  UNL     1      21.684  -4.826   8.635  1.00  0.00     0.005 C 
BRANCH   6   7
HETATM    7  C5  UNL     1      21.168  -3.417   8.672  1.00  0.00     0.038 C 
BRANCH   7   8
HETATM    8  C4  UNL     1      21.662  -2.705   9.865  1.00  0.00    -0.058 A 
HETATM    9  C3  UNL     1      22.777  -3.152  10.558  1.00  0.00     0.007 A 
HETATM   10  C2  UNL     1      23.237  -2.513  11.676  1.00  0.00     0.001 A 
HETATM   11  C1  UNL     1      22.573  -1.387  12.131  1.00  0.00     0.000 A 
HETATM   12  C21 UNL     1      21.462  -0.912  11.472  1.00  0.00     0.001 A 
HETATM   13  C20 UNL     1      21.034  -1.583  10.352  1.00  0.00     0.007 A 
ENDBRANCH   7   8
ENDBRANCH   6   7
ENDBRANCH   5   6
ENDBRANCH   4   5
ENDBRANCH   3   4
ENDBRANCH   2   3
ENDBRANCH   1   2
BRANCH   1  14
HETATM   14  C12 UNL     1      22.771  -7.738  10.755  1.00  0.00     0.000 C 
BRANCH  14  15
HETATM   15  C13 UNL     1      23.095  -7.273  12.135  1.00  0.00     0.000 C 
BRANCH  15  16
HETATM   16  C14 UNL     1      22.454  -8.133  13.176  1.00  0.00     0.000 C 
BRANCH  16  17
HETATM   17  C15 UNL     1      23.439  -8.742  14.131  1.00  0.00     0.006 C 
BRANCH  17  18
HETATM   18  C16 UNL     1      23.143 -10.226  14.334  1.00  0.00     0.058 C 
BRANCH  18  19
HETATM   19  C17 UNL     1      24.160 -10.841  15.224  1.00  0.00     0.025 A 
HETATM   20  C18 UNL     1      24.624 -12.120  15.232  1.00  0.00     0.113 A 
HETATM   21  N1  UNL     1      25.542 -12.248  16.206  1.00  0.00    -0.360 N 
HETATM   22  C19 UNL     1      25.636 -11.048  16.791  1.00  0.00     0.180 A 
ATOM     23  H1  UNL     1      26.061 -13.090  16.450  1.00  0.00     0.166 HD
HETATM   24  N2  UNL     1      24.809 -10.169  16.219  1.00  0.00    -0.355 N 
ATOM     25  H2  UNL     1      24.688  -9.189  16.474  1.00  0.00     0.166 HD
ENDBRANCH  18  19
ENDBRANCH  17  18
ENDBRANCH  16  17
ENDBRANCH  15  16
ENDBRANCH  14  15
ENDBRANCH   1  14
TORSDOF 13
ENDMDL
MODEL 3
REMARK VINA RESULT: -7.834527378      1.818      2.558
REMARK  13 active torsions:
REMARK  status: ('A' for Active; 'I' for Inactive)
REMARK    1  A    between atoms: C4_4  and  C5_5 
REMARK    2  A    between atoms: C5_5  and  C6_6 
REMARK    3  A    between atoms: C6_6  and  C7_7 
REMARK    4  A    between atoms: C7_7  and  C8_8 
REMARK    5  A    between atoms: C8_8  and  C9_9 
REMARK    6  A    between atoms: C9_9  and  C10_10 
REMARK    7  A    between atoms: C10_10  and  C11_11 
REMARK    8  A    between atoms: C11_11  and  C12_12 
REMARK    9  A    between atoms: C12_12  and  C13_13 
REMARK   10  A    between atoms: C13_13  and  C14_14 
REMARK   11  A    between atoms: C14_14  and  C15_15 
REMARK   12  A    between atoms: C15_15  and  C16_16 
REMARK   13  A    between atoms: C16_16  and  C17_17 
ROOT
HETATM    1  C11 UNL     1      21.744  -8.661  10.635  1.00  0.00     0.000 C 
ENDROOT
BRANCH   1   2
HETATM    2  C10 UNL     1      20.469  -8.121  10.035  1.00  0.00     0.000 C 
BRANCH   2   3
HETATM    3  C9  UNL     1      20.155  -6.810  10.696  1.00  0.00     0.000 C 
BRANCH   3   4
HETATM    4  C8  UNL     1      19.552  -5.806   9.747  1.00  0.00     0.000 C 
BRANCH   4   5
HETATM    5  C7  UNL     1      20.460  -5.800   8.504  1.00  0.00     0.000 C 
BRANCH   5   6
HETATM    6  C6  UNL     1      21.624  -4.881   8.699  1.00  0.00     0.005 C 
BRANCH   6   7
HETATM    7  C5  UNL     1      21.234  -3.433   8.635  1.00  0.00     0.038 C 
BRANCH   7   8
HETATM    8  C4  UNL     1      21.686  -2.711   9.838  1.00  0.00    -0.058 A 
HETATM    9  C3  UNL     1      22.791  -3.136  10.559  1.00  0.00     0.007 A 
HETATM   10  C2  UNL     1      23.212  -2.487  11.686  1.00  0.00     0.001 A 
HETATM   11  C1  UNL     1      22.516  -1.373  12.123  1.00  0.00     0.000 A 
HETATM   12  C21 UNL     1      21.413  -0.919  11.436  1.00  0.00     0.001 A 
HETATM   13  C20 UNL     1      21.025  -1.600  10.308  1.00  0.00     0.007 A 
ENDBRANCH   7   8
ENDBRANCH   6   7
ENDBRANCH   5   6
ENDBRANCH   4   5
ENDBRANCH   3   4
ENDBRANCH   2   3
ENDBRANCH   1   2
BRANCH   1  14
HETATM   14  C12 UNL     1      22.627  -7.577  11.182  1.00  0.00     0.000 C 
BRANCH  14  15
HETATM   15  C13 UNL     1      22.980  -7.752  12.622  1.00  0.00     0.000 C 
BRANCH  15  16
HETATM   16  C14 UNL     1      22.059  -8.709  13.306  1.00  0.00     0.000 C 
BRANCH  16  17
HETATM   17  C15 UNL     1      22.770  -9.873  13.932  1.00  0.00     0.006 C 
BRANCH  17  18
HETATM   18  C16 UNL     1      23.816  -9.390  14.933  1.00  0.00     0.058 C 
BRANCH  18  19
HETATM   19  C17 UNL     1      23.501  -9.888  16.295  1.00  0.00     0.025 A 
HETATM   20  C18 UNL     1      24.005 -10.974  16.943  1.00  0.00     0.113 A 
HETATM   21  N1  UNL     1      23.443 -11.057  18.161  1.00  0.00    -0.360 N 
HETATM   22  C19 UNL     1      22.597 -10.024  18.255  1.00  0.00     0.180 A 
ATOM     23  H1  UNL     1      23.624 -11.765  18.871  1.00  0.00     0.166 HD
HETATM   24  N2  UNL     1      22.607  -9.293  17.137  1.00  0.00    -0.355 N 
ATOM     25  H2  UNL     1      22.056  -8.455  16.950  1.00  0.00     0.166 HD
ENDBRANCH  18  19
ENDBRANCH  17  18
ENDBRANCH  16  17
ENDBRANCH  15  16
ENDBRANCH  14  15
ENDBRANCH   1  14
TORSDOF 13
ENDMDL
MODEL 4
REMARK VINA RESULT: -7.819137960      1.249      2.081
REMARK  13 active torsions:
REMARK  status: ('A' for Active; 'I' for Inactive)
REMARK    1  A    between atoms: C4_4  and  C5_5 
REMARK    2  A    between atoms: C5_5  and  C6_6 
REMARK    3  A    between atoms: C6_6  and  C7_7 
REMARK    4  A    between atoms: C7_7  and  C8_8 
REMARK    5  A    between atoms: C8_8  and  C9_9 
REMARK    6  A    between atoms: C9_9  and  C10_10 
REMARK    7  A    between atoms: C10_10  and  C11_11 
REMARK    8  A    between atoms: C11_11  and  C12_12 
REMARK    9  A    between atoms: C12_12  and  C13_13 
REMARK   10  A    between atoms: C13_13  and  C14_14 
REMARK   11  A    between atoms: C14_14  and  C15_15 
REMARK   12  A    between atoms: C15_15  and  C16_16 
REMARK   13  A    between atoms: C16_16  and  C17_17 
ROOT
HETATM    1  C11 UNL     1      23.033  -7.102  11.732  1.00  0.00     0.000 C 
ENDROOT
BRANCH   1   2
HETATM    2  C10 UNL     1      22.612  -7.716  10.419  1.00  0.00     0.000 C 
BRANCH   2   3
HETATM    3  C9  UNL     1      21.605  -8.793  10.704  1.00  0.00     0.000 C 
BRANCH   3   4
HETATM    4  C8  UNL     1      20.332  -8.629   9.912  1.00  0.00     0.000 C 
BRANCH   4   5
HETATM    5  C7  UNL     1      20.523  -7.359   9.062  1.00  0.00     0.000 C 
BRANCH   5   6
HETATM    6  C6  UNL     1      19.385  -6.410   9.259  1.00  0.00     0.005 C 
BRANCH   6   7
HETATM    7  C5  UNL     1      19.557  -5.545  10.473  1.00  0.00     0.038 C 
BRANCH   7   8
HETATM    8  C4  UNL     1      20.551  -4.484  10.229  1.00  0.00    -0.058 A 
HETATM    9  C3  UNL     1      20.882  -4.092   8.941  1.00  0.00     0.007 A 
HETATM   10  C2  UNL     1      21.814  -3.122   8.697  1.00  0.00     0.001 A 
HETATM   11  C1  UNL     1      22.449  -2.512   9.766  1.00  0.00     0.000 A 
HETATM   12  C21 UNL     1      22.149  -2.874  11.060  1.00  0.00     0.001 A 
HETATM   13  C20 UNL     1      21.206  -3.852  11.260  1.00  0.00     0.007 A 
ENDBRANCH   7   8
ENDBRANCH   6   7
ENDBRANCH   5   6
ENDBRANCH   4   5
ENDBRANCH   3   4
ENDBRANCH   2   3
ENDBRANCH   1   2
BRANCH   1  14
HETATM   14  C12 UNL     1      22.312  -7.701  12.905  1.00  0.00     0.000 C 
BRANCH  14  15
HETATM   15  C13 UNL     1      23.214  -8.333  13.912  1.00  0.00     0.000 C 
BRANCH  15  16
HETATM   16  C14 UNL     1      22.958  -9.799  14.044  1.00  0.00     0.000 C 
BRANCH  16  17
HETATM   17  C15 UNL     1      23.514 -10.388  15.308  1.00  0.00     0.006 C 
BRANCH  17  18
HETATM   18  C16 UNL     1      24.972 -10.800  15.114  1.00  0.00     0.058 C 
BRANCH  18  19
HETATM   19  C17 UNL     1      25.126 -12.264  15.301  1.00  0.00     0.025 A 
HETATM   20  C18 UNL     1      24.219 -13.253  15.070  1.00  0.00     0.113 A 
HETATM   21  N1  UNL     1      24.776 -14.438  15.374  1.00  0.00    -0.360 N 
HETATM   22  C19 UNL     1      26.020 -14.172  15.791  1.00  0.00     0.180 A 
ATOM     23  H1  UNL     1      24.338 -15.356  15.303  1.00  0.00     0.166 HD
HETATM   24  N2  UNL     1      26.265 -12.859  15.759  1.00  0.00    -0.355 N 
ATOM     25  H2  UNL     1      27.133 -12.394  16.025  1.00  0.00     0.166 HD
ENDBRANCH  18  19
ENDBRANCH  17  18
ENDBRANCH  16  17
ENDBRANCH  15  16
ENDBRANCH  14  15
ENDBRANCH   1  14
TORSDOF 13
ENDMDL
MODEL 5
REMARK VINA RESULT: -7.738774375      1.411      2.697
REMARK  13 active torsions:
REMARK  status: ('A' for Active; 'I' for Inactive)
REMARK    1  A    between atoms: C4_4  and  C5_5 
REMARK    2  A    between atoms: C5_5  and  C6_6 
REMARK    3  A    between atoms: C6_6  and  C7_7 
REMARK    4  A    between atoms: C7_7  and  C8_8 
REMARK    5  A    between atoms: C8_8  and  C9_9 
REMARK    6  A    between atoms: C9_9  and  C10_10 
REMARK    7  A    between atoms: C10_10  and  C11_11 
REMARK    8  A    between atoms: C11_11  and  C12_12 
REMARK    9  A    between atoms: C12_12  and  C13_13 
REMARK   10  A    between atoms: C13_13  and  C14_14 
REMARK   11  A    between atoms: C14_14  and  C15_15 
REMARK   12  A    between atoms: C15_15  and  C16_16 
REMARK   13  A    between atoms: C16_16  and  C17_17 
ROOT
HETATM    1  C11 UNL     1      22.262  -8.837  13.527  1.00  0.00     0.000 C 
ENDROOT
BRANCH   1   2
HETATM    2  C10 UNL     1      22.733  -7.699  12.654  1.00  0.00     0.000 C 
BRANCH   2   3
HETATM    3  C9  UNL     1      22.495  -8.075  11.220  1.00  0.00     0.000 C 
BRANCH   3   4
HETATM    4  C8  UNL     1      21.425  -9.125  11.061  1.00  0.00     0.000 C 
BRANCH   4   5
HETATM    5  C7  UNL     1      20.521  -8.639   9.914  1.00  0.00     0.000 C 
BRANCH   5   6
HETATM    6  C6  UNL     1      20.035  -7.248  10.171  1.00  0.00     0.005 C 
BRANCH   6   7
HETATM    7  C5  UNL     1      20.181  -6.354   8.974  1.00  0.00     0.038 C 
BRANCH   7   8
HETATM    8  C4  UNL     1      20.664  -5.018   9.367  1.00  0.00    -0.058 A 
HETATM    9  C3  UNL     1      21.299  -4.187   8.458  1.00  0.00     0.007 A 
HETATM   10  C2  UNL     1      21.768  -2.953   8.812  1.00  0.00     0.001 A 
HETATM   11  C1  UNL     1      21.604  -2.517  10.116  1.00  0.00     0.000 A 
HETATM   12  C21 UNL     1      20.980  -3.312  11.049  1.00  0.00     0.001 A 
HETATM   13  C20 UNL     1      20.523  -4.545  10.651  1.00  0.00     0.007 A 
ENDBRANCH   7   8
ENDBRANCH   6   7
ENDBRANCH   5   6
ENDBRANCH   4   5
ENDBRANCH   3   4
ENDBRANCH   2   3
ENDBRANCH   1   2
BRANCH   1  14
HETATM   14  C12 UNL     1      23.395  -9.545  14.211  1.00  0.00     0.000 C 
BRANCH  14  15
HETATM   15  C13 UNL     1      23.240  -9.645  15.693  1.00  0.00     0.000 C 
BRANCH  15  16
HETATM   16  C14 UNL     1      23.937 -10.847  16.243  1.00  0.00     0.000 C 
BRANCH  16  17
HETATM   17  C15 UNL     1      24.820 -11.532  15.241  1.00  0.00     0.006 C 
BRANCH  17  18
HETATM   18  C16 UNL     1      24.462 -13.012  15.130  1.00  0.00     0.058 C 
BRANCH  18  19
HETATM   19  C17 UNL     1      25.539 -13.851  15.713  1.00  0.00     0.025 A 
HETATM   20  C18 UNL     1      25.426 -14.943  16.518  1.00  0.00     0.113 A 
HETATM   21  N1  UNL     1      26.656 -15.398  16.813  1.00  0.00    -0.360 N 
HETATM   22  C19 UNL     1      27.517 -14.584  16.189  1.00  0.00     0.180 A 
ATOM     23  H1  UNL     1      26.888 -16.201  17.397  1.00  0.00     0.166 HD
HETATM   24  N2  UNL     1      26.870 -13.633  15.511  1.00  0.00    -0.355 N 
ATOM     25  H2  UNL     1      27.290 -12.889  14.952  1.00  0.00     0.166 HD
ENDBRANCH  18  19
ENDBRANCH  17  18
ENDBRANCH  16  17
ENDBRANCH  15  16
ENDBRANCH  14  15
ENDBRANCH   1  14
TORSDOF 13
ENDMDL
