MODEL 1
REMARK VINA RESULT: -7.348920757      0.000      0.000
REMARK  14 active torsions:
REMARK  status: ('A' for Active; 'I' for Inactive)
REMARK    1  A    between atoms: C4_7  and  C5_8 
REMARK    2  A    between atoms: C5_8  and  C6_9 
REMARK    3  A    between atoms: C6_9  and  C7_10 
REMARK    4  A    between atoms: C7_10  and  C8_11 
REMARK    5  A    between atoms: C8_11  and  C9_12 
REMARK    6  A    between atoms: C9_12  and  C10_13 
REMARK    7  A    between atoms: C10_13  and  C11_14 
REMARK    8  A    between atoms: C11_14  and  C12_15 
REMARK    9  A    between atoms: C12_15  and  C13_16 
REMARK   10  A    between atoms: C13_16  and  C14_17 
REMARK   11  A    between atoms: C14_17  and  C15_18 
REMARK   12  A    between atoms: C15_18  and  C16_19 
REMARK   13  A    between atoms: C16_19  and  C17_20 
REMARK   14  A    between atoms: C17_20  and  N2_21 
ROOT
HETATM    1  C8  UNL     1      19.643  -5.897   9.640  1.00  0.00     0.000 C 
ENDROOT
BRANCH   1   2
HETATM    2  C7  UNL     1      20.503  -5.926   8.428  1.00  0.00     0.000 C 
BRANCH   2   3
HETATM    3  C6  UNL     1      21.585  -4.896   8.435  1.00  0.00     0.006 C 
BRANCH   3   4
HETATM    4  C5  UNL     1      21.169  -3.480   8.569  1.00  0.00     0.057 C 
BRANCH   4   5
HETATM    5  C4  UNL     1      21.636  -2.786   9.789  1.00  0.00     0.007 A 
HETATM    6  C3  UNL     1      22.709  -3.161  10.488  1.00  0.00     0.006 A 
HETATM    7  C2  UNL     1      22.952  -2.306  11.651  1.00  0.00     0.105 A 
HETATM    8  C1  UNL     1      21.845  -1.328  11.624  1.00  0.00     0.078 A 
HETATM    9  N1  UNL     1      21.611  -0.377  12.464  1.00  0.00    -0.389 N 
HETATM   10  N3  UNL     1      21.076  -1.663  10.451  1.00  0.00    -0.350 N 
ATOM     11  H12 UNL     1      22.155  -0.139  13.293  1.00  0.00     0.157 HD
ATOM     12  H11 UNL     1      20.847   0.298  12.445  1.00  0.00     0.157 HD
ATOM     13  H3  UNL     1      20.243  -1.163  10.141  1.00  0.00     0.167 HD
ENDBRANCH   4   5
ENDBRANCH   3   4
ENDBRANCH   2   3
ENDBRANCH   1   2
BRANCH   1  14
HETATM   14  C9  UNL     1      20.212  -6.750  10.746  1.00  0.00     0.000 C 
BRANCH  14  15
HETATM   15  C10 UNL     1      20.657  -8.060  10.209  1.00  0.00     0.000 C 
BRANCH  15  16
HETATM   16  C11 UNL     1      21.971  -8.478  10.774  1.00  0.00     0.000 C 
BRANCH  16  17
HETATM   17  C12 UNL     1      22.675  -7.306  11.402  1.00  0.00     0.000 C 
BRANCH  17  18
HETATM   18  C13 UNL     1      22.978  -7.716  12.839  1.00  0.00     0.000 C 
BRANCH  18  19
HETATM   19  C14 UNL     1      22.597  -9.150  13.100  1.00  0.00     0.000 C 
BRANCH  19  20
HETATM   20  C15 UNL     1      22.671  -9.469  14.594  1.00  0.00     0.002 C 
BRANCH  20  21
HETATM   21  C16 UNL     1      24.152  -9.552  14.960  1.00  0.00     0.030 C 
BRANCH  21  22
HETATM   22  C17 UNL     1      24.401 -10.668  15.920  1.00  0.00     0.272 C 
BRANCH  22  23
HETATM   23  N2  UNL     1      25.053 -11.778  15.322  1.00  0.00     0.088 N 
HETATM   24  C18 UNL     1      24.319 -12.994  15.127  1.00  0.00     0.274 C 
HETATM   25  C19 UNL     1      25.675 -13.715  15.204  1.00  0.00     0.060 C 
HETATM   26  C20 UNL     1      25.969 -12.535  16.147  1.00  0.00     0.274 C 
ENDBRANCH  22  23
ENDBRANCH  21  22
ENDBRANCH  20  21
ENDBRANCH  19  20
ENDBRANCH  18  19
ENDBRANCH  17  18
ENDBRANCH  16  17
ENDBRANCH  15  16
ENDBRANCH  14  15
ENDBRANCH   1  14
TORSDOF 14
ENDMDL
MODEL 2
REMARK VINA RESULT: -7.305766895      1.234      9.842
REMARK  14 active torsions:
REMARK  status: ('A' for Active; 'I' for Inactive)
REMARK    1  A    between atoms: C4_7  and  C5_8 
REMARK    2  A    between atoms: C5_8  and  C6_9 
REMARK    3  A    between atoms: C6_9  and  C7_10 
REMARK    4  A    between atoms: C7_10  and  C8_11 
REMARK    5  A    between atoms: C8_11  and  C9_12 
REMARK    6  A    between atoms: C9_12  and  C10_13 
REMARK    7  A    between atoms: C10_13  and  C11_14 
REMARK    8  A    between atoms: C11_14  and  C12_15 
REMARK    9  A    between atoms: C12_15  and  C13_16 
REMARK   10  A    between atoms: C13_16  and  C14_17 
REMARK   11  A    between atoms: C14_17  and  C15_18 
REMARK   12  A    between atoms: C15_18  and  C16_19 
REMARK   13  A    between atoms: C16_19  and  C17_20 
REMARK   14  A    between atoms: C17_20  and  N2_21 
ROOT
HETATM    1  C8  UNL     1      22.534  -8.603  13.217  1.00  0.00     0.000 C 
ENDROOT
BRANCH   1   2
HETATM    2  C7  UNL     1      23.455  -8.842  14.359  1.00  0.00     0.000 C 
BRANCH   2   3
HETATM    3  C6  UNL     1      23.618 -10.287  14.706  1.00  0.00     0.006 C 
BRANCH   3   4
HETATM    4  C5  UNL     1      24.948 -10.716  15.201  1.00  0.00     0.057 C 
BRANCH   4   5
HETATM    5  C4  UNL     1      25.112 -12.170  15.420  1.00  0.00     0.007 A 
HETATM    6  C3  UNL     1      24.208 -13.081  15.055  1.00  0.00     0.006 A 
HETATM    7  C2  UNL     1      24.615 -14.446  15.387  1.00  0.00     0.105 A 
HETATM    8  C1  UNL     1      25.919 -14.284  16.064  1.00  0.00     0.078 A 
HETATM    9  N1  UNL     1      26.668 -15.207  16.566  1.00  0.00    -0.389 N 
HETATM   10  N3  UNL     1      26.179 -12.866  16.044  1.00  0.00    -0.350 N 
ATOM     11  H12 UNL     1      26.484 -16.210  16.580  1.00  0.00     0.157 HD
ATOM     12  H11 UNL     1      27.567 -15.096  17.033  1.00  0.00     0.157 HD
ATOM     13  H3  UNL     1      27.015 -12.425  16.426  1.00  0.00     0.167 HD
ENDBRANCH   4   5
ENDBRANCH   3   4
ENDBRANCH   2   3
ENDBRANCH   1   2
BRANCH   1  14
HETATM   14  C9  UNL     1      23.078  -7.558  12.274  1.00  0.00     0.000 C 
BRANCH  14  15
HETATM   15  C10 UNL     1      22.630  -7.834  10.886  1.00  0.00     0.000 C 
BRANCH  15  16
HETATM   16  C11 UNL     1      21.508  -8.813  10.845  1.00  0.00     0.000 C 
BRANCH  16  17
HETATM   17  C12 UNL     1      20.445  -8.362   9.881  1.00  0.00     0.000 C 
BRANCH  17  18
HETATM   18  C13 UNL     1      20.104  -6.928  10.268  1.00  0.00     0.000 C 
BRANCH  18  19
HETATM   19  C14 UNL     1      19.688  -6.112   9.071  1.00  0.00     0.000 C 
BRANCH  19  20
HETATM   20  C15 UNL     1      20.907  -5.515   8.369  1.00  0.00     0.002 C 
BRANCH  20  21
HETATM   21  C16 UNL     1      21.620  -4.629   9.389  1.00  0.00     0.030 C 
BRANCH  21  22
HETATM   22  C17 UNL     1      21.596  -3.199   8.961  1.00  0.00     0.272 C 
BRANCH  22  23
HETATM   23  N2  UNL     1      21.467  -2.297  10.048  1.00  0.00     0.088 N 
HETATM   24  C18 UNL     1      22.650  -1.755  10.650  1.00  0.00     0.274 C 
HETATM   25  C19 UNL     1      21.818  -1.610  11.935  1.00  0.00     0.060 C 
HETATM   26  C20 UNL     1      21.140  -2.857  11.342  1.00  0.00     0.274 C 
ENDBRANCH  22  23
ENDBRANCH  21  22
ENDBRANCH  20  21
ENDBRANCH  19  20
ENDBRANCH  18  19
ENDBRANCH  17  18
ENDBRANCH  16  17
ENDBRANCH  15  16
ENDBRANCH  14  15
ENDBRANCH   1  14
TORSDOF 14
ENDMDL
MODEL 3
REMARK VINA RESULT: -7.005535624      0.966      1.737
REMARK  14 active torsions:
REMARK  status: ('A' for Active; 'I' for Inactive)
REMARK    1  A    between atoms: C4_7  and  C5_8 
REMARK    2  A    between atoms: C5_8  and  C6_9 
REMARK    3  A    between atoms: C6_9  and  C7_10 
REMARK    4  A    between atoms: C7_10  and  C8_11 
REMARK    5  A    between atoms: C8_11  and  C9_12 
REMARK    6  A    between atoms: C9_12  and  C10_13 
REMARK    7  A    between atoms: C10_13  and  C11_14 
REMARK    8  A    between atoms: C11_14  and  C12_15 
REMARK    9  A    between atoms: C12_15  and  C13_16 
REMARK   10  A    between atoms: C13_16  and  C14_17 
REMARK   11  A    between atoms: C14_17  and  C15_18 
REMARK   12  A    between atoms: C15_18  and  C16_19 
REMARK   13  A    between atoms: C16_19  and  C17_20 
REMARK   14  A    between atoms: C17_20  and  N2_21 
ROOT
HETATM    1  C8  UNL     1      20.585  -6.208  10.953  1.00  0.00     0.000 C 
ENDROOT
BRANCH   1   2
HETATM    2  C7  UNL     1      20.032  -5.540   9.746  1.00  0.00     0.000 C 
BRANCH   2   3
HETATM    3  C6  UNL     1      21.079  -5.046   8.801  1.00  0.00     0.006 C 
BRANCH   3   4
HETATM    4  C5  UNL     1      21.203  -3.578   8.638  1.00  0.00     0.057 C 
BRANCH   4   5
HETATM    5  C4  UNL     1      21.660  -2.836   9.833  1.00  0.00     0.007 A 
HETATM    6  C3  UNL     1      22.751  -3.157  10.531  1.00  0.00     0.006 A 
HETATM    7  C2  UNL     1      22.979  -2.263  11.667  1.00  0.00     0.105 A 
HETATM    8  C1  UNL     1      21.840  -1.322  11.626  1.00  0.00     0.078 A 
HETATM    9  N1  UNL     1      21.584  -0.356  12.442  1.00  0.00    -0.389 N 
HETATM   10  N3  UNL     1      21.070  -1.714  10.471  1.00  0.00    -0.350 N 
ATOM     11  H12 UNL     1      22.129  -0.078  13.258  1.00  0.00     0.157 HD
ATOM     12  H11 UNL     1      20.798   0.294  12.414  1.00  0.00     0.157 HD
ATOM     13  H3  UNL     1      20.219  -1.250  10.157  1.00  0.00     0.167 HD
ENDBRANCH   4   5
ENDBRANCH   3   4
ENDBRANCH   2   3
ENDBRANCH   1   2
BRANCH   1  14
HETATM   14  C9  UNL     1      21.775  -7.071  10.615  1.00  0.00     0.000 C 
BRANCH  14  15
HETATM   15  C10 UNL     1      22.881  -6.822  11.573  1.00  0.00     0.000 C 
BRANCH  15  16
HETATM   16  C11 UNL     1      22.699  -7.576  12.844  1.00  0.00     0.000 C 
BRANCH  16  17
HETATM   17  C12 UNL     1      22.220  -8.975  12.568  1.00  0.00     0.000 C 
BRANCH  17  18
HETATM   18  C13 UNL     1      22.689  -9.823  13.745  1.00  0.00     0.000 C 
BRANCH  18  19
HETATM   19  C14 UNL     1      23.541  -9.027  14.699  1.00  0.00     0.000 C 
BRANCH  19  20
HETATM   20  C15 UNL     1      24.629  -9.904  15.319  1.00  0.00     0.002 C 
BRANCH  20  21
HETATM   21  C16 UNL     1      24.221 -11.357  15.081  1.00  0.00     0.030 C 
BRANCH  21  22
HETATM   22  C17 UNL     1      25.340 -12.286  15.418  1.00  0.00     0.272 C 
BRANCH  22  23
HETATM   23  N2  UNL     1      24.924 -13.392  16.204  1.00  0.00     0.088 N 
HETATM   24  C18 UNL     1      25.873 -14.419  16.518  1.00  0.00     0.274 C 
HETATM   25  C19 UNL     1      24.669 -15.369  16.629  1.00  0.00     0.060 C 
HETATM   26  C20 UNL     1      24.130 -14.410  15.552  1.00  0.00     0.274 C 
ENDBRANCH  22  23
ENDBRANCH  21  22
ENDBRANCH  20  21
ENDBRANCH  19  20
ENDBRANCH  18  19
ENDBRANCH  17  18
ENDBRANCH  16  17
ENDBRANCH  15  16
ENDBRANCH  14  15
ENDBRANCH   1  14
TORSDOF 14
ENDMDL
MODEL 4
REMARK VINA RESULT: -6.934491102      1.642      9.014
REMARK  14 active torsions:
REMARK  status: ('A' for Active; 'I' for Inactive)
REMARK    1  A    between atoms: C4_7  and  C5_8 
REMARK    2  A    between atoms: C5_8  and  C6_9 
REMARK    3  A    between atoms: C6_9  and  C7_10 
REMARK    4  A    between atoms: C7_10  and  C8_11 
REMARK    5  A    between atoms: C8_11  and  C9_12 
REMARK    6  A    between atoms: C9_12  and  C10_13 
REMARK    7  A    between atoms: C10_13  and  C11_14 
REMARK    8  A    between atoms: C11_14  and  C12_15 
REMARK    9  A    between atoms: C12_15  and  C13_16 
REMARK   10  A    between atoms: C13_16  and  C14_17 
REMARK   11  A    between atoms: C14_17  and  C15_18 
REMARK   12  A    between atoms: C15_18  and  C16_19 
REMARK   13  A    between atoms: C16_19  and  C17_20 
REMARK   14  A    between atoms: C17_20  and  N2_21 
ROOT
HETATM    1  C8  UNL     1      22.950  -7.668  12.256  1.00  0.00     0.000 C 
ENDROOT
BRANCH   1   2
HETATM    2  C7  UNL     1      22.095  -8.497  13.144  1.00  0.00     0.000 C 
BRANCH   2   3
HETATM    3  C6  UNL     1      22.848  -9.552  13.889  1.00  0.00     0.006 C 
BRANCH   3   4
HETATM    4  C5  UNL     1      23.730  -9.101  14.992  1.00  0.00     0.057 C 
BRANCH   4   5
HETATM    5  C4  UNL     1      23.604  -9.849  16.261  1.00  0.00     0.007 A 
HETATM    6  C3  UNL     1      22.999  -9.367  17.348  1.00  0.00     0.006 A 
HETATM    7  C2  UNL     1      23.013 -10.309  18.468  1.00  0.00     0.105 A 
HETATM    8  C1  UNL     1      23.757 -11.478  17.953  1.00  0.00     0.078 A 
HETATM    9  N1  UNL     1      24.053 -12.564  18.582  1.00  0.00    -0.389 N 
HETATM   10  N3  UNL     1      24.084 -11.144  16.589  1.00  0.00    -0.350 N 
ATOM     11  H12 UNL     1      23.822 -12.801  19.547  1.00  0.00     0.157 HD
ATOM     12  H11 UNL     1      24.567 -13.371  18.228  1.00  0.00     0.157 HD
ATOM     13  H3  UNL     1      24.591 -11.754  15.949  1.00  0.00     0.167 HD
ENDBRANCH   4   5
ENDBRANCH   3   4
ENDBRANCH   2   3
ENDBRANCH   1   2
BRANCH   1  14
HETATM   14  C9  UNL     1      22.531  -7.788  10.811  1.00  0.00     0.000 C 
BRANCH  14  15
HETATM   15  C10 UNL     1      21.651  -8.968  10.627  1.00  0.00     0.000 C 
BRANCH  15  16
HETATM   16  C11 UNL     1      20.350  -8.602   9.999  1.00  0.00     0.000 C 
BRANCH  16  17
HETATM   17  C12 UNL     1      20.523  -7.434   9.066  1.00  0.00     0.000 C 
BRANCH  17  18
HETATM   18  C13 UNL     1      19.373  -6.478   9.368  1.00  0.00     0.000 C 
BRANCH  18  19
HETATM   19  C14 UNL     1      19.874  -5.140   9.845  1.00  0.00     0.000 C 
BRANCH  19  20
HETATM   20  C15 UNL     1      21.126  -4.721   9.075  1.00  0.00     0.002 C 
BRANCH  20  21
HETATM   21  C16 UNL     1      21.998  -3.920  10.041  1.00  0.00     0.030 C 
BRANCH  21  22
HETATM   22  C17 UNL     1      21.258  -3.619  11.302  1.00  0.00     0.272 C 
BRANCH  22  23
HETATM   23  N2  UNL     1      21.385  -2.266  11.709  1.00  0.00     0.088 N 
HETATM   24  C18 UNL     1      21.048  -1.225  10.784  1.00  0.00     0.274 C 
HETATM   25  C19 UNL     1      22.040  -0.341  11.559  1.00  0.00     0.060 C 
HETATM   26  C20 UNL     1      22.719  -1.708  11.756  1.00  0.00     0.274 C 
ENDBRANCH  22  23
ENDBRANCH  21  22
ENDBRANCH  20  21
ENDBRANCH  19  20
ENDBRANCH  18  19
ENDBRANCH  17  18
ENDBRANCH  16  17
ENDBRANCH  15  16
ENDBRANCH  14  15
ENDBRANCH   1  14
TORSDOF 14
ENDMDL
MODEL 5
REMARK VINA RESULT: -6.929149892      0.807      1.189
REMARK  14 active torsions:
REMARK  status: ('A' for Active; 'I' for Inactive)
REMARK    1  A    between atoms: C4_7  and  C5_8 
REMARK    2  A    between atoms: C5_8  and  C6_9 
REMARK    3  A    between atoms: C6_9  and  C7_10 
REMARK    4  A    between atoms: C7_10  and  C8_11 
REMARK    5  A    between atoms: C8_11  and  C9_12 
REMARK    6  A    between atoms: C9_12  and  C10_13 
REMARK    7  A    between atoms: C10_13  and  C11_14 
REMARK    8  A    between atoms: C11_14  and  C12_15 
REMARK    9  A    between atoms: C12_15  and  C13_16 
REMARK   10  A    between atoms: C13_16  and  C14_17 
REMARK   11  A    between atoms: C14_17  and  C15_18 
REMARK   12  A    between atoms: C15_18  and  C16_19 
REMARK   13  A    between atoms: C16_19  and  C17_20 
REMARK   14  A    between atoms: C17_20  and  N2_21 
ROOT
HETATM    1  C8  UNL     1      19.498  -5.950   9.664  1.00  0.00     0.000 C 
ENDROOT
BRANCH   1   2
HETATM    2  C7  UNL     1      20.355  -5.835   8.455  1.00  0.00     0.000 C 
BRANCH   2   3
HETATM    3  C6  UNL     1      21.518  -4.913   8.629  1.00  0.00     0.006 C 
BRANCH   3   4
HETATM    4  C5  UNL     1      21.234  -3.458   8.615  1.00  0.00     0.057 C 
BRANCH   4   5
HETATM    5  C4  UNL     1      21.683  -2.705   9.806  1.00  0.00     0.007 A 
HETATM    6  C3  UNL     1      22.604  -3.153  10.661  1.00  0.00     0.006 A 
HETATM    7  C2  UNL     1      22.865  -2.215  11.754  1.00  0.00     0.105 A 
HETATM    8  C1  UNL     1      21.939  -1.091  11.499  1.00  0.00     0.078 A 
HETATM    9  N1  UNL     1      21.779  -0.025  12.207  1.00  0.00    -0.389 N 
HETATM   10  N3  UNL     1      21.248  -1.442  10.284  1.00  0.00    -0.350 N 
ATOM     11  H12 UNL     1      22.268   0.224  13.067  1.00  0.00     0.157 HD
ATOM     12  H11 UNL     1      21.141   0.751  12.032  1.00  0.00     0.157 HD
ATOM     13  H3  UNL     1      20.543  -0.861   9.830  1.00  0.00     0.167 HD
ENDBRANCH   4   5
ENDBRANCH   3   4
ENDBRANCH   2   3
ENDBRANCH   1   2
BRANCH   1  14
HETATM   14  C9  UNL     1      20.143  -6.811  10.722  1.00  0.00     0.000 C 
BRANCH  14  15
HETATM   15  C10 UNL     1      20.533  -8.124  10.151  1.00  0.00     0.000 C 
BRANCH  15  16
HETATM   16  C11 UNL     1      21.795  -8.641  10.750  1.00  0.00     0.000 C 
BRANCH  16  17
HETATM   17  C12 UNL     1      22.646  -7.508  11.255  1.00  0.00     0.000 C 
BRANCH  17  18
HETATM   18  C13 UNL     1      23.056  -7.886  12.674  1.00  0.00     0.000 C 
BRANCH  18  19
HETATM   19  C14 UNL     1      22.056  -8.815  13.313  1.00  0.00     0.000 C 
BRANCH  19  20
HETATM   20  C15 UNL     1      22.763  -9.926  14.088  1.00  0.00     0.002 C 
BRANCH  20  21
HETATM   21  C16 UNL     1      23.764  -9.250  15.025  1.00  0.00     0.030 C 
BRANCH  21  22
HETATM   22  C17 UNL     1      24.973 -10.104  15.218  1.00  0.00     0.272 C 
BRANCH  22  23
HETATM   23  N2  UNL     1      25.001 -10.745  16.485  1.00  0.00     0.088 N 
HETATM   24  C18 UNL     1      26.030 -10.394  17.419  1.00  0.00     0.274 C 
HETATM   25  C19 UNL     1      25.852 -11.805  18.003  1.00  0.00     0.060 C 
HETATM   26  C20 UNL     1      25.504 -12.100  16.533  1.00  0.00     0.274 C 
ENDBRANCH  22  23
ENDBRANCH  21  22
ENDBRANCH  20  21
ENDBRANCH  19  20
ENDBRANCH  18  19
ENDBRANCH  17  18
ENDBRANCH  16  17
ENDBRANCH  15  16
ENDBRANCH  14  15
ENDBRANCH   1  14
TORSDOF 14
ENDMDL
