MODEL 1
REMARK VINA RESULT: -7.299321498      0.000      0.000
REMARK  16 active torsions:
REMARK  status: ('A' for Active; 'I' for Inactive)
REMARK    1  A    between atoms: N1_1  and  C1_5 
REMARK    2  A    between atoms: C3_7  and  N2_8 
REMARK    3  A    between atoms: C3_7  and  C4_12 
REMARK    4  A    between atoms: C4_12  and  C5_13 
REMARK    5  A    between atoms: C5_13  and  C6_14 
REMARK    6  A    between atoms: C6_14  and  C7_15 
REMARK    7  A    between atoms: C7_15  and  C8_16 
REMARK    8  A    between atoms: C8_16  and  C9_17 
REMARK    9  A    between atoms: C9_17  and  C10_18 
REMARK   10  A    between atoms: C10_18  and  C11_19 
REMARK   11  A    between atoms: C11_19  and  C12_20 
REMARK   12  A    between atoms: C12_20  and  C13_21 
REMARK   13  A    between atoms: C13_21  and  C14_22 
REMARK   14  A    between atoms: C14_22  and  C15_23 
REMARK   15  A    between atoms: C15_23  and  C16_24 
REMARK   16  A    between atoms: C16_24  and  C17_25 
ROOT
HETATM    1  C7  UNL     1      22.867  -8.895  13.359  1.00  0.00     0.000 C 
ENDROOT
BRANCH   1   2
HETATM    2  C6  UNL     1      23.633  -8.993  14.675  1.00  0.00     0.000 C 
BRANCH   2   3
HETATM    3  C5  UNL     1      23.641 -10.382  15.172  1.00  0.00     0.002 C 
BRANCH   3   4
HETATM    4  C4  UNL     1      24.892 -11.151  15.118  1.00  0.00     0.041 C 
BRANCH   4   5
HETATM    5  C3  UNL     1      24.914 -12.443  15.857  1.00  0.00     0.153 A 
HETATM    6  C1  UNL     1      24.709 -13.690  14.956  1.00  0.00     0.221 A 
HETATM    7  C2  UNL     1      26.075 -13.409  15.474  1.00  0.00     0.076 A 
BRANCH   6   8
HETATM    8  N1  UNL     1      23.932 -14.777  15.514  1.00  0.00    -0.072 N 
ATOM      9  H13 UNL     1      23.171 -14.993  14.870  1.00  0.00     0.274 HD
ATOM     10  H12 UNL     1      24.489 -15.630  15.466  1.00  0.00     0.274 HD
ATOM     11  H11 UNL     1      23.545 -14.698  16.455  1.00  0.00     0.274 HD
ENDBRANCH   6   8
BRANCH   5  12
HETATM   12  N2  UNL     1      24.465 -12.583  17.211  1.00  0.00    -0.068 N 
ATOM     13  H23 UNL     1      24.133 -13.533  17.374  1.00  0.00     0.275 HD
ATOM     14  H22 UNL     1      25.261 -12.558  17.848  1.00  0.00     0.275 HD
ATOM     15  H21 UNL     1      23.758 -11.910  17.510  1.00  0.00     0.275 HD
ENDBRANCH   5  12
ENDBRANCH   4   5
ENDBRANCH   3   4
ENDBRANCH   2   3
ENDBRANCH   1   2
BRANCH   1  16
HETATM   16  C8  UNL     1      22.784  -7.485  12.887  1.00  0.00     0.000 C 
BRANCH  16  17
HETATM   17  C9  UNL     1      22.934  -7.323  11.396  1.00  0.00     0.000 C 
BRANCH  17  18
HETATM   18  C10 UNL     1      22.225  -8.398  10.639  1.00  0.00     0.000 C 
BRANCH  18  19
HETATM   19  C11 UNL     1      20.712  -8.348  10.796  1.00  0.00     0.000 C 
BRANCH  19  20
HETATM   20  C12 UNL     1      20.027  -8.062   9.505  1.00  0.00     0.000 C 
BRANCH  20  21
HETATM   21  C13 UNL     1      19.585  -6.628   9.346  1.00  0.00     0.000 C 
BRANCH  21  22
HETATM   22  C14 UNL     1      20.538  -5.899   8.461  1.00  0.00     0.000 C 
BRANCH  22  23
HETATM   23  C15 UNL     1      21.174  -4.678   9.088  1.00  0.00     0.001 C 
BRANCH  23  24
HETATM   24  C16 UNL     1      20.595  -4.446  10.434  1.00  0.00     0.010 C 
BRANCH  24  25
HETATM   25  C17 UNL     1      21.314  -3.390  11.235  1.00  0.00     0.025 C 
HETATM   26  C18 UNL     1      22.766  -3.564  11.308  1.00  0.00     0.060 C 
HETATM   27  N3  UNL     1      23.357  -2.428  11.344  1.00  0.00    -0.402 N 
HETATM   28  C19 UNL     1      22.410  -1.344  11.301  1.00  0.00     0.119 C 
ATOM     29  H3  UNL     1      24.368  -2.306  11.396  1.00  0.00     0.158 HD
HETATM   30  C20 UNL     1      21.152  -1.994  10.694  1.00  0.00     0.029 C 
ENDBRANCH  24  25
ENDBRANCH  23  24
ENDBRANCH  22  23
ENDBRANCH  21  22
ENDBRANCH  20  21
ENDBRANCH  19  20
ENDBRANCH  18  19
ENDBRANCH  17  18
ENDBRANCH  16  17
ENDBRANCH   1  16
TORSDOF 16
ENDMDL
MODEL 2
REMARK VINA RESULT: -7.095129498      0.942      1.140
REMARK  16 active torsions:
REMARK  status: ('A' for Active; 'I' for Inactive)
REMARK    1  A    between atoms: N1_1  and  C1_5 
REMARK    2  A    between atoms: C3_7  and  N2_8 
REMARK    3  A    between atoms: C3_7  and  C4_12 
REMARK    4  A    between atoms: C4_12  and  C5_13 
REMARK    5  A    between atoms: C5_13  and  C6_14 
REMARK    6  A    between atoms: C6_14  and  C7_15 
REMARK    7  A    between atoms: C7_15  and  C8_16 
REMARK    8  A    between atoms: C8_16  and  C9_17 
REMARK    9  A    between atoms: C9_17  and  C10_18 
REMARK   10  A    between atoms: C10_18  and  C11_19 
REMARK   11  A    between atoms: C11_19  and  C12_20 
REMARK   12  A    between atoms: C12_20  and  C13_21 
REMARK   13  A    between atoms: C13_21  and  C14_22 
REMARK   14  A    between atoms: C14_22  and  C15_23 
REMARK   15  A    between atoms: C15_23  and  C16_24 
REMARK   16  A    between atoms: C16_24  and  C17_25 
ROOT
HETATM    1  C7  UNL     1      22.745  -9.991  14.003  1.00  0.00     0.000 C 
ENDROOT
BRANCH   1   2
HETATM    2  C6  UNL     1      23.897  -9.571  14.912  1.00  0.00     0.000 C 
BRANCH   2   3
HETATM    3  C5  UNL     1      24.825 -10.696  15.131  1.00  0.00     0.002 C 
BRANCH   3   4
HETATM    4  C4  UNL     1      24.332 -11.909  15.798  1.00  0.00     0.041 C 
BRANCH   4   5
HETATM    5  C3  UNL     1      25.095 -13.163  15.552  1.00  0.00     0.153 A 
HETATM    6  C1  UNL     1      24.443 -14.430  16.167  1.00  0.00     0.221 A 
HETATM    7  C2  UNL     1      24.356 -14.234  14.695  1.00  0.00     0.076 A 
BRANCH   6   8
HETATM    8  N1  UNL     1      25.342 -15.426  16.713  1.00  0.00    -0.072 N 
ATOM      9  H13 UNL     1      26.286 -15.039  16.720  1.00  0.00     0.274 HD
ATOM     10  H12 UNL     1      25.153 -15.518  17.711  1.00  0.00     0.274 HD
ATOM     11  H11 UNL     1      25.379 -16.359  16.305  1.00  0.00     0.274 HD
ENDBRANCH   6   8
BRANCH   5  12
HETATM   12  N2  UNL     1      26.523 -13.204  15.429  1.00  0.00    -0.068 N 
ATOM     13  H23 UNL     1      26.942 -12.435  15.951  1.00  0.00     0.275 HD
ATOM     14  H22 UNL     1      26.896 -13.999  15.948  1.00  0.00     0.275 HD
ATOM     15  H21 UNL     1      26.879 -13.213  14.473  1.00  0.00     0.275 HD
ENDBRANCH   5  12
ENDBRANCH   4   5
ENDBRANCH   3   4
ENDBRANCH   2   3
ENDBRANCH   1   2
BRANCH   1  16
HETATM   16  C8  UNL     1      22.141  -8.813  13.320  1.00  0.00     0.000 C 
BRANCH  16  17
HETATM   17  C9  UNL     1      23.093  -8.063  12.426  1.00  0.00     0.000 C 
BRANCH  17  18
HETATM   18  C10 UNL     1      22.406  -7.481  11.234  1.00  0.00     0.000 C 
BRANCH  18  19
HETATM   19  C11 UNL     1      20.908  -7.747  11.212  1.00  0.00     0.000 C 
BRANCH  19  20
HETATM   20  C12 UNL     1      20.375  -7.824   9.824  1.00  0.00     0.000 C 
BRANCH  20  21
HETATM   21  C13 UNL     1      19.728  -6.549   9.341  1.00  0.00     0.000 C 
BRANCH  21  22
HETATM   22  C14 UNL     1      20.669  -5.806   8.457  1.00  0.00     0.000 C 
BRANCH  22  23
HETATM   23  C15 UNL     1      21.125  -4.469   9.000  1.00  0.00     0.001 C 
BRANCH  23  24
HETATM   24  C16 UNL     1      20.503  -4.228  10.325  1.00  0.00     0.010 C 
BRANCH  24  25
HETATM   25  C17 UNL     1      21.267  -3.259  11.191  1.00  0.00     0.025 C 
HETATM   26  C18 UNL     1      22.697  -3.545  11.313  1.00  0.00     0.060 C 
HETATM   27  N3  UNL     1      23.370  -2.460  11.413  1.00  0.00    -0.402 N 
HETATM   28  C19 UNL     1      22.510  -1.306  11.374  1.00  0.00     0.119 C 
ATOM     29  H3  UNL     1      24.384  -2.418  11.507  1.00  0.00     0.158 HD
HETATM   30  C20 UNL     1      21.232  -1.836  10.696  1.00  0.00     0.029 C 
ENDBRANCH  24  25
ENDBRANCH  23  24
ENDBRANCH  22  23
ENDBRANCH  21  22
ENDBRANCH  20  21
ENDBRANCH  19  20
ENDBRANCH  18  19
ENDBRANCH  17  18
ENDBRANCH  16  17
ENDBRANCH   1  16
TORSDOF 16
ENDMDL
MODEL 3
REMARK VINA RESULT: -7.073582269      1.035      1.285
REMARK  16 active torsions:
REMARK  status: ('A' for Active; 'I' for Inactive)
REMARK    1  A    between atoms: N1_1  and  C1_5 
REMARK    2  A    between atoms: C3_7  and  N2_8 
REMARK    3  A    between atoms: C3_7  and  C4_12 
REMARK    4  A    between atoms: C4_12  and  C5_13 
REMARK    5  A    between atoms: C5_13  and  C6_14 
REMARK    6  A    between atoms: C6_14  and  C7_15 
REMARK    7  A    between atoms: C7_15  and  C8_16 
REMARK    8  A    between atoms: C8_16  and  C9_17 
REMARK    9  A    between atoms: C9_17  and  C10_18 
REMARK   10  A    between atoms: C10_18  and  C11_19 
REMARK   11  A    between atoms: C11_19  and  C12_20 
REMARK   12  A    between atoms: C12_20  and  C13_21 
REMARK   13  A    between atoms: C13_21  and  C14_22 
REMARK   14  A    between atoms: C14_22  and  C15_23 
REMARK   15  A    between atoms: C15_23  and  C16_24 
REMARK   16  A    between atoms: C16_24  and  C17_25 
ROOT
HETATM    1  C7  UNL     1      22.628  -8.835  13.351  1.00  0.00     0.000 C 
ENDROOT
BRANCH   1   2
HETATM    2  C6  UNL     1      23.472  -9.023  14.609  1.00  0.00     0.000 C 
BRANCH   2   3
HETATM    3  C5  UNL     1      23.690 -10.457  14.881  1.00  0.00     0.002 C 
BRANCH   3   4
HETATM    4  C4  UNL     1      25.043 -10.922  15.215  1.00  0.00     0.041 C 
BRANCH   4   5
HETATM    5  C3  UNL     1      25.186 -12.364  15.558  1.00  0.00     0.153 A 
HETATM    6  C1  UNL     1      26.615 -12.767  16.007  1.00  0.00     0.221 A 
HETATM    7  C2  UNL     1      25.554 -12.661  17.043  1.00  0.00     0.076 A 
BRANCH   6   8
HETATM    8  N1  UNL     1      27.088 -14.070  15.585  1.00  0.00    -0.072 N 
ATOM      9  H13 UNL     1      26.989 -14.717  16.366  1.00  0.00     0.274 HD
ATOM     10  H12 UNL     1      26.420 -14.454  14.916  1.00  0.00     0.274 HD
ATOM     11  H11 UNL     1      28.026 -14.172  15.198  1.00  0.00     0.274 HD
ENDBRANCH   6   8
BRANCH   5  12
HETATM   12  N2  UNL     1      24.423 -13.402  14.930  1.00  0.00    -0.068 N 
ATOM     13  H23 UNL     1      24.837 -13.646  14.030  1.00  0.00     0.275 HD
ATOM     14  H22 UNL     1      24.549 -14.282  15.432  1.00  0.00     0.275 HD
ATOM     15  H21 UNL     1      23.428 -13.206  14.814  1.00  0.00     0.275 HD
ENDBRANCH   5  12
ENDBRANCH   4   5
ENDBRANCH   3   4
ENDBRANCH   2   3
ENDBRANCH   1   2
BRANCH   1  16
HETATM   16  C8  UNL     1      22.744  -7.445  12.828  1.00  0.00     0.000 C 
BRANCH  16  17
HETATM   17  C9  UNL     1      23.059  -7.364  11.356  1.00  0.00     0.000 C 
BRANCH  17  18
HETATM   18  C10 UNL     1      22.119  -8.183  10.534  1.00  0.00     0.000 C 
BRANCH  18  19
HETATM   19  C11 UNL     1      20.665  -7.757  10.677  1.00  0.00     0.000 C 
BRANCH  19  20
HETATM   20  C12 UNL     1      20.024  -7.508   9.356  1.00  0.00     0.000 C 
BRANCH  20  21
HETATM   21  C13 UNL     1      19.391  -6.144   9.226  1.00  0.00     0.000 C 
BRANCH  21  22
HETATM   22  C14 UNL     1      20.336  -5.098   9.710  1.00  0.00     0.000 C 
BRANCH  22  23
HETATM   23  C15 UNL     1      21.317  -4.604   8.670  1.00  0.00     0.001 C 
BRANCH  23  24
HETATM   24  C16 UNL     1      21.641  -3.178   8.922  1.00  0.00     0.010 C 
BRANCH  24  25
HETATM   25  C17 UNL     1      21.644  -2.802  10.382  1.00  0.00     0.025 C 
HETATM   26  C18 UNL     1      22.964  -2.812  11.013  1.00  0.00     0.060 C 
HETATM   27  N3  UNL     1      23.045  -1.901  11.910  1.00  0.00    -0.402 N 
HETATM   28  C19 UNL     1      21.816  -1.159  12.014  1.00  0.00     0.119 C 
ATOM     29  H3  UNL     1      23.873  -1.724  12.478  1.00  0.00     0.158 HD
HETATM   30  C20 UNL     1      21.130  -1.413  10.658  1.00  0.00     0.029 C 
ENDBRANCH  24  25
ENDBRANCH  23  24
ENDBRANCH  22  23
ENDBRANCH  21  22
ENDBRANCH  20  21
ENDBRANCH  19  20
ENDBRANCH  18  19
ENDBRANCH  17  18
ENDBRANCH  16  17
ENDBRANCH   1  16
TORSDOF 16
ENDMDL
MODEL 4
REMARK VINA RESULT: -6.970032297      1.017      1.289
REMARK  16 active torsions:
REMARK  status: ('A' for Active; 'I' for Inactive)
REMARK    1  A    between atoms: N1_1  and  C1_5 
REMARK    2  A    between atoms: C3_7  and  N2_8 
REMARK    3  A    between atoms: C3_7  and  C4_12 
REMARK    4  A    between atoms: C4_12  and  C5_13 
REMARK    5  A    between atoms: C5_13  and  C6_14 
REMARK    6  A    between atoms: C6_14  and  C7_15 
REMARK    7  A    between atoms: C7_15  and  C8_16 
REMARK    8  A    between atoms: C8_16  and  C9_17 
REMARK    9  A    between atoms: C9_17  and  C10_18 
REMARK   10  A    between atoms: C10_18  and  C11_19 
REMARK   11  A    between atoms: C11_19  and  C12_20 
REMARK   12  A    between atoms: C12_20  and  C13_21 
REMARK   13  A    between atoms: C13_21  and  C14_22 
REMARK   14  A    between atoms: C14_22  and  C15_23 
REMARK   15  A    between atoms: C15_23  and  C16_24 
REMARK   16  A    between atoms: C16_24  and  C17_25 
ROOT
HETATM    1  C7  UNL     1      22.680  -9.824  13.809  1.00  0.00     0.000 C 
ENDROOT
BRANCH   1   2
HETATM    2  C6  UNL     1      23.005  -9.388  15.235  1.00  0.00     0.000 C 
BRANCH   2   3
HETATM    3  C5  UNL     1      24.351  -9.848  15.627  1.00  0.00     0.002 C 
BRANCH   3   4
HETATM    4  C4  UNL     1      24.908 -11.049  14.990  1.00  0.00     0.041 C 
BRANCH   4   5
HETATM    5  C3  UNL     1      24.902 -12.298  15.801  1.00  0.00     0.153 A 
HETATM    6  C1  UNL     1      24.719 -13.592  14.965  1.00  0.00     0.221 A 
HETATM    7  C2  UNL     1      26.069 -13.287  15.507  1.00  0.00     0.076 A 
BRANCH   6   8
HETATM    8  N1  UNL     1      23.920 -14.644  15.560  1.00  0.00    -0.072 N 
ATOM      9  H13 UNL     1      24.548 -15.321  15.991  1.00  0.00     0.274 HD
ATOM     10  H12 UNL     1      23.440 -14.263  16.375  1.00  0.00     0.274 HD
ATOM     11  H11 UNL     1      23.239 -15.150  14.993  1.00  0.00     0.274 HD
ENDBRANCH   6   8
BRANCH   5  12
HETATM   12  N2  UNL     1      24.412 -12.360  17.147  1.00  0.00    -0.068 N 
ATOM     13  H23 UNL     1      24.053 -13.294  17.346  1.00  0.00     0.275 HD
ATOM     14  H22 UNL     1      25.191 -12.322  17.804  1.00  0.00     0.275 HD
ATOM     15  H21 UNL     1      23.714 -11.658  17.391  1.00  0.00     0.275 HD
ENDBRANCH   5  12
ENDBRANCH   4   5
ENDBRANCH   3   4
ENDBRANCH   2   3
ENDBRANCH   1   2
BRANCH   1  16
HETATM   16  C8  UNL     1      22.003  -8.733  13.053  1.00  0.00     0.000 C 
BRANCH  16  17
HETATM   17  C9  UNL     1      22.936  -7.879  12.235  1.00  0.00     0.000 C 
BRANCH  17  18
HETATM   18  C10 UNL     1      22.264  -6.650  11.716  1.00  0.00     0.000 C 
BRANCH  18  19
HETATM   19  C11 UNL     1      20.777  -6.840  11.455  1.00  0.00     0.000 C 
BRANCH  19  20
HETATM   20  C12 UNL     1      20.502  -7.212  10.039  1.00  0.00     0.000 C 
BRANCH  20  21
HETATM   21  C13 UNL     1      20.121  -6.046   9.159  1.00  0.00     0.000 C 
BRANCH  21  22
HETATM   22  C14 UNL     1      21.281  -5.654   8.309  1.00  0.00     0.000 C 
BRANCH  22  23
HETATM   23  C15 UNL     1      21.595  -4.174   8.314  1.00  0.00     0.001 C 
BRANCH  23  24
HETATM   24  C16 UNL     1      21.016  -3.542   9.525  1.00  0.00     0.010 C 
BRANCH  24  25
HETATM   25  C17 UNL     1      21.902  -2.494  10.150  1.00  0.00     0.025 C 
HETATM   26  C18 UNL     1      21.185  -1.397  10.801  1.00  0.00     0.060 C 
HETATM   27  N3  UNL     1      21.832  -0.977  11.824  1.00  0.00    -0.402 N 
HETATM   28  C19 UNL     1      23.054  -1.713  12.008  1.00  0.00     0.119 C 
ATOM     29  H3  UNL     1      21.520  -0.218  12.430  1.00  0.00     0.158 HD
HETATM   30  C20 UNL     1      22.803  -3.022  11.236  1.00  0.00     0.029 C 
ENDBRANCH  24  25
ENDBRANCH  23  24
ENDBRANCH  22  23
ENDBRANCH  21  22
ENDBRANCH  20  21
ENDBRANCH  19  20
ENDBRANCH  18  19
ENDBRANCH  17  18
ENDBRANCH  16  17
ENDBRANCH   1  16
TORSDOF 16
ENDMDL
MODEL 5
REMARK VINA RESULT: -6.969999688      1.176      1.456
REMARK  16 active torsions:
REMARK  status: ('A' for Active; 'I' for Inactive)
REMARK    1  A    between atoms: N1_1  and  C1_5 
REMARK    2  A    between atoms: C3_7  and  N2_8 
REMARK    3  A    between atoms: C3_7  and  C4_12 
REMARK    4  A    between atoms: C4_12  and  C5_13 
REMARK    5  A    between atoms: C5_13  and  C6_14 
REMARK    6  A    between atoms: C6_14  and  C7_15 
REMARK    7  A    between atoms: C7_15  and  C8_16 
REMARK    8  A    between atoms: C8_16  and  C9_17 
REMARK    9  A    between atoms: C9_17  and  C10_18 
REMARK   10  A    between atoms: C10_18  and  C11_19 
REMARK   11  A    between atoms: C11_19  and  C12_20 
REMARK   12  A    between atoms: C12_20  and  C13_21 
REMARK   13  A    between atoms: C13_21  and  C14_22 
REMARK   14  A    between atoms: C14_22  and  C15_23 
REMARK   15  A    between atoms: C15_23  and  C16_24 
REMARK   16  A    between atoms: C16_24  and  C17_25 
ROOT
HETATM    1  C7  UNL     1      22.072  -8.637  13.286  1.00  0.00     0.000 C 
ENDROOT
BRANCH   1   2
HETATM    2  C6  UNL     1      22.627  -9.900  13.939  1.00  0.00     0.000 C 
BRANCH   2   3
HETATM    3  C5  UNL     1      23.447  -9.560  15.117  1.00  0.00     0.002 C 
BRANCH   3   4
HETATM    4  C4  UNL     1      24.877  -9.900  15.114  1.00  0.00     0.041 C 
BRANCH   4   5
HETATM    5  C3  UNL     1      25.351 -10.802  16.199  1.00  0.00     0.153 A 
HETATM    6  C1  UNL     1      24.336 -11.908  16.590  1.00  0.00     0.221 A 
HETATM    7  C2  UNL     1      25.529 -12.296  15.792  1.00  0.00     0.076 A 
BRANCH   6   8
HETATM    8  N1  UNL     1      24.259 -12.255  17.994  1.00  0.00    -0.072 N 
ATOM      9  H13 UNL     1      23.307 -12.557  18.199  1.00  0.00     0.274 HD
ATOM     10  H12 UNL     1      24.783 -13.118  18.142  1.00  0.00     0.274 HD
ATOM     11  H11 UNL     1      24.543 -11.580  18.703  1.00  0.00     0.274 HD
ENDBRANCH   6   8
BRANCH   5  12
HETATM   12  N2  UNL     1      26.232 -10.377  17.248  1.00  0.00    -0.068 N 
ATOM     13  H23 UNL     1      26.423  -9.379  17.161  1.00  0.00     0.275 HD
ATOM     14  H22 UNL     1      25.742 -10.391  18.143  1.00  0.00     0.275 HD
ATOM     15  H21 UNL     1      27.108 -10.895  17.320  1.00  0.00     0.275 HD
ENDBRANCH   5  12
ENDBRANCH   4   5
ENDBRANCH   3   4
ENDBRANCH   2   3
ENDBRANCH   1   2
BRANCH   1  16
HETATM   16  C8  UNL     1      23.081  -8.004  12.393  1.00  0.00     0.000 C 
BRANCH  16  17
HETATM   17  C9  UNL     1      22.669  -7.938  10.945  1.00  0.00     0.000 C 
BRANCH  17  18
HETATM   18  C10 UNL     1      21.582  -8.911  10.625  1.00  0.00     0.000 C 
BRANCH  18  19
HETATM   19  C11 UNL     1      20.386  -8.273   9.933  1.00  0.00     0.000 C 
BRANCH  19  20
HETATM   20  C12 UNL     1      20.076  -6.925  10.484  1.00  0.00     0.000 C 
BRANCH  20  21
HETATM   21  C13 UNL     1      19.433  -5.987   9.492  1.00  0.00     0.000 C 
BRANCH  21  22
HETATM   22  C14 UNL     1      20.412  -5.626   8.428  1.00  0.00     0.000 C 
BRANCH  22  23
HETATM   23  C15 UNL     1      21.658  -4.927   8.927  1.00  0.00     0.001 C 
BRANCH  23  24
HETATM   24  C16 UNL     1      21.401  -3.471   9.053  1.00  0.00     0.010 C 
BRANCH  24  25
HETATM   25  C17 UNL     1      21.490  -2.955  10.466  1.00  0.00     0.025 C 
HETATM   26  C18 UNL     1      22.834  -2.987  11.044  1.00  0.00     0.060 C 
HETATM   27  N3  UNL     1      23.008  -2.000  11.842  1.00  0.00    -0.402 N 
HETATM   28  C19 UNL     1      21.831  -1.175  11.918  1.00  0.00     0.119 C 
ATOM     29  H3  UNL     1      23.869  -1.821  12.358  1.00  0.00     0.158 HD
HETATM   30  C20 UNL     1      21.072  -1.516  10.621  1.00  0.00     0.029 C 
ENDBRANCH  24  25
ENDBRANCH  23  24
ENDBRANCH  22  23
ENDBRANCH  21  22
ENDBRANCH  20  21
ENDBRANCH  19  20
ENDBRANCH  18  19
ENDBRANCH  17  18
ENDBRANCH  16  17
ENDBRANCH   1  16
TORSDOF 16
ENDMDL
