MODEL 1
REMARK VINA RESULT: -6.188272192      0.000      0.000
REMARK  1 active torsions:
REMARK  status: ('A' for Active; 'I' for Inactive)
REMARK    1  A    between atoms: C2_2  and  C3_3 
ROOT
HETATM    1  C3  UNL     1      30.574  15.635  -0.833  1.00  0.00     0.163 C 
HETATM    2  O1  UNL     1      30.814  15.600  -2.176  1.00  0.00    -0.320 OA
HETATM    3  C4  UNL     1      32.051  15.118  -2.550  1.00  0.00     0.322 A 
HETATM    4  O2  UNL     1      33.083  15.597  -1.689  1.00  0.00    -0.280 OA
HETATM    5  C5  UNL     1      32.811  16.509  -0.659  1.00  0.00     0.126 A 
HETATM    6  S1  UNL     1      33.671  17.667   0.257  1.00  0.00    -0.057 SA
HETATM    7  C6  UNL     1      32.405  18.230   1.252  1.00  0.00     0.054 A 
HETATM    8 BR1  UNL     1      32.485  19.573   2.614  1.00  0.00    -0.043 Br
HETATM    9  C7  UNL     1      31.341  17.491   0.836  1.00  0.00     0.039 A 
HETATM   10  C8  UNL     1      31.543  16.597  -0.154  1.00  0.00     0.013 A 
HETATM   11  O3  UNL     1      32.287  15.573  -3.950  1.00  0.00    -0.311 OA
HETATM   12  C9  UNL     1      32.358  14.225  -3.593  1.00  0.00     0.144 A 
HETATM   13  C10 UNL     1      33.764  13.673  -3.694  1.00  0.00     0.054 C 
HETATM   14  C11 UNL     1      31.309  13.284  -4.165  1.00  0.00     0.054 C 
ENDROOT
BRANCH   1  15
HETATM   15  C2  UNL     1      29.168  16.219  -0.672  1.00  0.00     0.033 C 
HETATM   16  C1  UNL     1      28.451  16.230  -1.982  1.00  0.00     0.008 C 
ENDBRANCH   1  15
TORSDOF 1
ENDMDL
MODEL 2
REMARK VINA RESULT: -6.176422777      3.843      5.014
REMARK  1 active torsions:
REMARK  status: ('A' for Active; 'I' for Inactive)
REMARK    1  A    between atoms: C2_2  and  C3_3 
ROOT
HETATM    1  C3  UNL     1      28.315  15.554  -1.400  1.00  0.00     0.163 C 
HETATM    2  O1  UNL     1      29.294  16.488  -1.218  1.00  0.00    -0.320 OA
HETATM    3  C4  UNL     1      30.257  16.168  -0.282  1.00  0.00     0.322 A 
HETATM    4  O2  UNL     1      29.686  15.550   0.869  1.00  0.00    -0.280 OA
HETATM    5  C5  UNL     1      28.298  15.392   1.002  1.00  0.00     0.126 A 
HETATM    6  S1  UNL     1      27.170  15.186   2.268  1.00  0.00    -0.057 SA
HETATM    7  C6  UNL     1      25.735  15.092   1.350  1.00  0.00     0.054 A 
HETATM    8 BR1  UNL     1      23.944  14.856   1.984  1.00  0.00    -0.043 Br
HETATM    9  C7  UNL     1      26.184  15.225   0.072  1.00  0.00     0.039 A 
HETATM   10  C8  UNL     1      27.511  15.382  -0.117  1.00  0.00     0.013 A 
HETATM   11  O3  UNL     1      30.934  17.443   0.092  1.00  0.00    -0.311 OA
HETATM   12  C9  UNL     1      31.651  16.339  -0.376  1.00  0.00     0.144 A 
HETATM   13  C10 UNL     1      32.535  15.729   0.690  1.00  0.00     0.054 C 
HETATM   14  C11 UNL     1      32.345  16.464  -1.723  1.00  0.00     0.054 C 
ENDROOT
BRANCH   1  15
HETATM   15  C2  UNL     1      27.369  16.138  -2.453  1.00  0.00     0.033 C 
HETATM   16  C1  UNL     1      28.143  16.694  -3.604  1.00  0.00     0.008 C 
ENDBRANCH   1  15
TORSDOF 1
ENDMDL
MODEL 3
REMARK VINA RESULT: -6.041010810      1.056      1.237
REMARK  1 active torsions:
REMARK  status: ('A' for Active; 'I' for Inactive)
REMARK    1  A    between atoms: C2_2  and  C3_3 
ROOT
HETATM    1  C3  UNL     1      30.090  15.281  -2.112  1.00  0.00     0.163 C 
HETATM    2  O1  UNL     1      30.686  15.347  -3.338  1.00  0.00    -0.320 OA
HETATM    3  C4  UNL     1      31.976  14.861  -3.401  1.00  0.00     0.322 A 
HETATM    4  O2  UNL     1      32.737  15.240  -2.255  1.00  0.00    -0.280 OA
HETATM    5  C5  UNL     1      32.199  16.074  -1.264  1.00  0.00     0.126 A 
HETATM    6  S1  UNL     1      32.782  17.130  -0.054  1.00  0.00    -0.057 SA
HETATM    7  C6  UNL     1      31.296  17.648   0.604  1.00  0.00     0.054 A 
HETATM    8 BR1  UNL     1      31.010  18.875   2.046  1.00  0.00    -0.043 Br
HETATM    9  C7  UNL     1      30.382  16.975  -0.146  1.00  0.00     0.039 A 
HETATM   10  C8  UNL     1      30.841  16.158  -1.117  1.00  0.00     0.013 A 
HETATM   11  O3  UNL     1      32.587  15.420  -4.640  1.00  0.00    -0.311 OA
HETATM   12  C9  UNL     1      32.551  14.046  -4.394  1.00  0.00     0.144 A 
HETATM   13  C10 UNL     1      33.928  13.464  -4.155  1.00  0.00     0.054 C 
HETATM   14  C11 UNL     1      31.693  13.184  -5.307  1.00  0.00     0.054 C 
ENDROOT
BRANCH   1  15
HETATM   15  C2  UNL     1      28.696  15.890  -2.290  1.00  0.00     0.033 C 
HETATM   16  C1  UNL     1      28.567  16.521  -3.638  1.00  0.00     0.008 C 
ENDBRANCH   1  15
TORSDOF 1
ENDMDL
MODEL 4
REMARK VINA RESULT: -5.859131400      4.494      6.533
REMARK  1 active torsions:
REMARK  status: ('A' for Active; 'I' for Inactive)
REMARK    1  A    between atoms: C2_2  and  C3_3 
ROOT
HETATM    1  C3  UNL     1      29.214  15.822   0.342  1.00  0.00     0.163 C 
HETATM    2  O1  UNL     1      28.204  16.016   1.241  1.00  0.00    -0.320 OA
HETATM    3  C4  UNL     1      27.265  15.007   1.309  1.00  0.00     0.322 A 
HETATM    4  O2  UNL     1      26.935  14.508   0.014  1.00  0.00    -0.280 OA
HETATM    5  C5  UNL     1      27.477  15.076  -1.148  1.00  0.00     0.126 A 
HETATM    6  S1  UNL     1      27.077  15.173  -2.806  1.00  0.00    -0.057 SA
HETATM    7  C6  UNL     1      28.404  16.091  -3.359  1.00  0.00     0.054 A 
HETATM    8 BR1  UNL     1      28.769  16.678  -5.145  1.00  0.00    -0.043 Br
HETATM    9  C7  UNL     1      29.125  16.295  -2.224  1.00  0.00     0.039 A 
HETATM   10  C8  UNL     1      28.652  15.772  -1.074  1.00  0.00     0.013 A 
HETATM   11  O3  UNL     1      26.059  15.585   1.967  1.00  0.00    -0.311 OA
HETATM   12  C9  UNL     1      26.684  14.436   2.457  1.00  0.00     0.144 A 
HETATM   13  C10 UNL     1      25.825  13.200   2.303  1.00  0.00     0.054 C 
HETATM   14  C11 UNL     1      27.363  14.522   3.815  1.00  0.00     0.054 C 
ENDROOT
BRANCH   1  15
HETATM   15  C2  UNL     1      30.101  17.067   0.435  1.00  0.00     0.033 C 
HETATM   16  C1  UNL     1      31.538  16.680   0.567  1.00  0.00     0.008 C 
ENDBRANCH   1  15
TORSDOF 1
ENDMDL
MODEL 5
REMARK VINA RESULT: -5.648118766      2.662      3.380
REMARK  1 active torsions:
REMARK  status: ('A' for Active; 'I' for Inactive)
REMARK    1  A    between atoms: C2_2  and  C3_3 
ROOT
HETATM    1  C3  UNL     1      30.124  15.496  -4.584  1.00  0.00     0.163 C 
HETATM    2  O1  UNL     1      31.007  15.970  -5.512  1.00  0.00    -0.320 OA
HETATM    3  C4  UNL     1      32.243  15.355  -5.527  1.00  0.00     0.322 A 
HETATM    4  O2  UNL     1      32.718  15.097  -4.207  1.00  0.00    -0.280 OA
HETATM    5  C5  UNL     1      32.001  15.519  -3.077  1.00  0.00     0.126 A 
HETATM    6  S1  UNL     1      32.328  15.868  -1.437  1.00  0.00    -0.057 SA
HETATM    7  C6  UNL     1      30.758  16.295  -0.925  1.00  0.00     0.054 A 
HETATM    8 BR1  UNL     1      30.196  16.841   0.822  1.00  0.00    -0.043 Br
HETATM    9  C7  UNL     1      30.020  16.150  -2.059  1.00  0.00     0.039 A 
HETATM   10  C8  UNL     1      30.657  15.748  -3.179  1.00  0.00     0.013 A 
HETATM   11  O3  UNL     1      33.172  16.274  -6.245  1.00  0.00    -0.311 OA
HETATM   12  C9  UNL     1      32.997  14.946  -6.643  1.00  0.00     0.144 A 
HETATM   13  C10 UNL     1      34.237  14.107  -6.419  1.00  0.00     0.054 C 
HETATM   14  C11 UNL     1      32.342  14.690  -7.991  1.00  0.00     0.054 C 
ENDROOT
BRANCH   1  15
HETATM   15  C2  UNL     1      28.855  16.337  -4.746  1.00  0.00     0.033 C 
HETATM   16  C1  UNL     1      28.857  17.043  -6.063  1.00  0.00     0.008 C 
ENDBRANCH   1  15
TORSDOF 1
ENDMDL
