MODEL 1
REMARK VINA RESULT: -5.846416408      0.000      0.000
REMARK  3 active torsions:
REMARK  status: ('A' for Active; 'I' for Inactive)
REMARK    1  A    between atoms: C2_2  and  O2_4 
REMARK    2  A    between atoms: O2_4  and  C3_5 
REMARK    3  A    between atoms: C3_5  and  C4_6 
ROOT
HETATM    1  C3  UNL     1      30.702  15.466  -1.570  1.00  0.00     0.099 C 
HETATM    2  C8  UNL     1      30.442  13.964  -1.622  1.00  0.00     0.032 C 
HETATM    3  C9  UNL     1      30.273  13.237  -2.851  1.00  0.00     0.011 C 
HETATM    4 CL1  UNL     1      31.697  12.591  -3.674  1.00  0.00    -0.089 Cl
HETATM    5  C10 UNL     1      29.323  13.720  -3.897  1.00  0.00     0.058 C 
HETATM    6  C11 UNL     1      29.912  14.729  -4.839  1.00  0.00     0.029 C 
HETATM    7  C12 UNL     1      28.779  15.168  -5.743  1.00  0.00     0.118 C 
HETATM    8  C13 UNL     1      27.976  15.972  -4.771  1.00  0.00     0.259 C 
HETATM    9  O3  UNL     1      26.819  16.468  -4.936  1.00  0.00    -0.265 OA
HETATM   10  O4  UNL     1      28.711  16.107  -3.599  1.00  0.00    -0.316 OA
HETATM   11  C14 UNL     1      30.043  15.992  -3.973  1.00  0.00     0.140 C 
HETATM   12  C15 UNL     1      31.073  15.903  -2.956  1.00  0.00     0.076 C 
ENDROOT
BRANCH   1  13
HETATM   13  O2  UNL     1      29.579  15.974  -1.036  1.00  0.00    -0.305 OA
BRANCH  13  14
HETATM   14  C2  UNL     1      28.552  15.794  -0.258  1.00  0.00     0.255 C 
HETATM   15  C1  UNL     1      27.219  15.289  -0.714  1.00  0.00     0.126 C 
HETATM   16  O1  UNL     1      28.683  16.054   0.927  1.00  0.00    -0.266 OA
ENDBRANCH  13  14
ENDBRANCH   1  13
BRANCH   1  17
HETATM   17  C4  UNL     1      31.880  15.766  -0.685  1.00  0.00    -0.016 C 
HETATM   18  C5  UNL     1      33.212  15.517  -1.378  1.00  0.00     0.018 C 
HETATM   19  C6  UNL     1      31.939  17.243  -0.291  1.00  0.00     0.018 C 
HETATM   20  C7  UNL     1      31.990  15.050   0.620  1.00  0.00     0.018 C 
ENDBRANCH   1  17
TORSDOF 3
ENDMDL
MODEL 2
REMARK VINA RESULT: -5.672711761      1.537      4.528
REMARK  3 active torsions:
REMARK  status: ('A' for Active; 'I' for Inactive)
REMARK    1  A    between atoms: C2_2  and  O2_4 
REMARK    2  A    between atoms: O2_4  and  C3_5 
REMARK    3  A    between atoms: C3_5  and  C4_6 
ROOT
HETATM    1  C3  UNL     1      29.691  14.972  -3.141  1.00  0.00     0.099 C 
HETATM    2  C8  UNL     1      30.987  15.404  -3.817  1.00  0.00     0.032 C 
HETATM    3  C9  UNL     1      32.243  15.500  -3.124  1.00  0.00     0.011 C 
HETATM    4 CL1  UNL     1      33.276  14.072  -3.008  1.00  0.00    -0.089 Cl
HETATM    5  C10 UNL     1      32.343  16.241  -1.832  1.00  0.00     0.058 C 
HETATM    6  C11 UNL     1      31.999  15.417  -0.626  1.00  0.00     0.029 C 
HETATM    7  C12 UNL     1      32.056  16.361   0.558  1.00  0.00     0.118 C 
HETATM    8  C13 UNL     1      30.833  17.179   0.288  1.00  0.00     0.259 C 
HETATM    9  O3  UNL     1      30.455  18.235   0.881  1.00  0.00    -0.265 OA
HETATM   10  O4  UNL     1      30.132  16.590  -0.758  1.00  0.00    -0.316 OA
HETATM   11  C14 UNL     1      30.475  15.245  -0.734  1.00  0.00     0.140 C 
HETATM   12  C15 UNL     1      30.057  14.374  -1.815  1.00  0.00     0.076 C 
ENDROOT
BRANCH   1  13
HETATM   13  O2  UNL     1      28.937  16.084  -3.136  1.00  0.00    -0.305 OA
BRANCH  13  14
HETATM   14  C2  UNL     1      27.747  16.605  -3.058  1.00  0.00     0.255 C 
HETATM   15  C1  UNL     1      27.145  17.505  -4.092  1.00  0.00     0.126 C 
HETATM   16  O1  UNL     1      27.075  16.343  -2.075  1.00  0.00    -0.266 OA
ENDBRANCH  13  14
ENDBRANCH   1  13
BRANCH   1  17
HETATM   17  C4  UNL     1      29.015  13.890  -3.938  1.00  0.00    -0.016 C 
HETATM   18  C5  UNL     1      28.836  14.266  -5.402  1.00  0.00     0.018 C 
HETATM   19  C6  UNL     1      29.849  12.608  -3.986  1.00  0.00     0.018 C 
HETATM   20  C7  UNL     1      27.669  13.418  -3.498  1.00  0.00     0.018 C 
ENDBRANCH   1  17
TORSDOF 3
ENDMDL
MODEL 3
REMARK VINA RESULT: -5.426997196      2.267      5.534
REMARK  3 active torsions:
REMARK  status: ('A' for Active; 'I' for Inactive)
REMARK    1  A    between atoms: C2_2  and  O2_4 
REMARK    2  A    between atoms: O2_4  and  C3_5 
REMARK    3  A    between atoms: C3_5  and  C4_6 
ROOT
HETATM    1  C3  UNL     1      29.120  15.845  -5.220  1.00  0.00     0.099 C 
HETATM    2  C8  UNL     1      29.353  14.367  -5.513  1.00  0.00     0.032 C 
HETATM    3  C9  UNL     1      29.528  13.378  -4.484  1.00  0.00     0.011 C 
HETATM    4 CL1  UNL     1      28.106  12.584  -3.800  1.00  0.00    -0.089 Cl
HETATM    5  C10 UNL     1      30.503  13.599  -3.375  1.00  0.00     0.058 C 
HETATM    6  C11 UNL     1      29.949  14.377  -2.218  1.00  0.00     0.029 C 
HETATM    7  C12 UNL     1      31.104  14.584  -1.260  1.00  0.00     0.118 C 
HETATM    8  C13 UNL     1      31.906  15.576  -2.042  1.00  0.00     0.259 C 
HETATM    9  O3  UNL     1      33.074  16.005  -1.792  1.00  0.00    -0.265 OA
HETATM   10  O4  UNL     1      31.154  15.983  -3.138  1.00  0.00    -0.316 OA
HETATM   11  C14 UNL     1      29.826  15.805  -2.773  1.00  0.00     0.140 C 
HETATM   12  C15 UNL     1      28.779  15.963  -3.764  1.00  0.00     0.076 C 
ENDROOT
BRANCH   1  13
HETATM   13  O2  UNL     1      30.243  16.445  -5.648  1.00  0.00    -0.305 OA
BRANCH  13  14
HETATM   14  C2  UNL     1      31.195  16.494  -6.534  1.00  0.00     0.255 C 
HETATM   15  C1  UNL     1      32.404  15.613  -6.531  1.00  0.00     0.126 C 
HETATM   16  O1  UNL     1      31.095  17.316  -7.430  1.00  0.00    -0.266 OA
ENDBRANCH  13  14
ENDBRANCH   1  13
BRANCH   1  17
HETATM   17  C4  UNL     1      27.933  16.354  -5.991  1.00  0.00    -0.016 C 
HETATM   18  C5  UNL     1      26.611  15.847  -5.434  1.00  0.00     0.018 C 
HETATM   19  C6  UNL     1      27.808  17.877  -5.910  1.00  0.00     0.018 C 
HETATM   20  C7  UNL     1      27.863  16.074  -7.455  1.00  0.00     0.018 C 
ENDBRANCH   1  17
TORSDOF 3
ENDMDL
MODEL 4
REMARK VINA RESULT: -5.281343232      2.576      5.423
REMARK  3 active torsions:
REMARK  status: ('A' for Active; 'I' for Inactive)
REMARK    1  A    between atoms: C2_2  and  O2_4 
REMARK    2  A    between atoms: O2_4  and  C3_5 
REMARK    3  A    between atoms: C3_5  and  C4_6 
ROOT
HETATM    1  C3  UNL     1      30.752  15.233  -4.758  1.00  0.00     0.099 C 
HETATM    2  C8  UNL     1      30.218  13.842  -4.434  1.00  0.00     0.032 C 
HETATM    3  C9  UNL     1      29.673  13.487  -3.151  1.00  0.00     0.011 C 
HETATM    4 CL1  UNL     1      27.956  13.757  -2.839  1.00  0.00    -0.089 Cl
HETATM    5  C10 UNL     1      30.420  13.798  -1.896  1.00  0.00     0.058 C 
HETATM    6  C11 UNL     1      30.174  15.179  -1.364  1.00  0.00     0.029 C 
HETATM    7  C12 UNL     1      31.088  15.336  -0.167  1.00  0.00     0.118 C 
HETATM    8  C13 UNL     1      32.408  15.421  -0.865  1.00  0.00     0.259 C 
HETATM    9  O3  UNL     1      33.567  15.410  -0.347  1.00  0.00    -0.265 OA
HETATM   10  O4  UNL     1      32.177  15.519  -2.232  1.00  0.00    -0.316 OA
HETATM   11  C14 UNL     1      30.915  16.083  -2.363  1.00  0.00     0.140 C 
HETATM   12  C15 UNL     1      30.288  16.154  -3.669  1.00  0.00     0.076 C 
ENDROOT
BRANCH   1  13
HETATM   13  O2  UNL     1      32.075  15.052  -4.899  1.00  0.00    -0.305 OA
BRANCH  13  14
HETATM   14  C2  UNL     1      33.048  14.242  -5.202  1.00  0.00     0.255 C 
HETATM   15  C1  UNL     1      33.311  13.708  -6.575  1.00  0.00     0.126 C 
HETATM   16  O1  UNL     1      33.798  13.895  -4.306  1.00  0.00    -0.266 OA
ENDBRANCH  13  14
ENDBRANCH   1  13
BRANCH   1  17
HETATM   17  C4  UNL     1      30.157  15.740  -6.043  1.00  0.00    -0.016 C 
HETATM   18  C5  UNL     1      29.669  14.616  -6.947  1.00  0.00     0.018 C 
HETATM   19  C6  UNL     1      28.908  16.589  -5.802  1.00  0.00     0.018 C 
HETATM   20  C7  UNL     1      31.000  16.599  -6.926  1.00  0.00     0.018 C 
ENDBRANCH   1  17
TORSDOF 3
ENDMDL
MODEL 5
REMARK VINA RESULT: -5.226403166      2.138      3.503
REMARK  3 active torsions:
REMARK  status: ('A' for Active; 'I' for Inactive)
REMARK    1  A    between atoms: C2_2  and  O2_4 
REMARK    2  A    between atoms: O2_4  and  C3_5 
REMARK    3  A    between atoms: C3_5  and  C4_6 
ROOT
HETATM    1  C3  UNL     1      29.626  15.424  -3.411  1.00  0.00     0.099 C 
HETATM    2  C8  UNL     1      28.797  14.352  -4.109  1.00  0.00     0.032 C 
HETATM    3  C9  UNL     1      29.312  13.519  -5.162  1.00  0.00     0.011 C 
HETATM    4 CL1  UNL     1      30.134  12.012  -4.745  1.00  0.00    -0.089 Cl
HETATM    5  C10 UNL     1      30.026  14.121  -6.327  1.00  0.00     0.058 C 
HETATM    6  C11 UNL     1      31.492  14.346  -6.096  1.00  0.00     0.029 C 
HETATM    7  C12 UNL     1      32.008  15.050  -7.334  1.00  0.00     0.118 C 
HETATM    8  C13 UNL     1      31.377  16.392  -7.144  1.00  0.00     0.259 C 
HETATM    9  O3  UNL     1      31.340  17.360  -7.964  1.00  0.00    -0.265 OA
HETATM   10  O4  UNL     1      30.806  16.434  -5.877  1.00  0.00    -0.316 OA
HETATM   11  C14 UNL     1      31.521  15.524  -5.110  1.00  0.00     0.140 C 
HETATM   12  C15 UNL     1      31.062  15.187  -3.776  1.00  0.00     0.076 C 
ENDROOT
BRANCH   1  13
HETATM   13  O2  UNL     1      29.066  16.580  -3.805  1.00  0.00    -0.305 OA
BRANCH  13  14
HETATM   14  C2  UNL     1      28.005  17.197  -4.237  1.00  0.00     0.255 C 
HETATM   15  C1  UNL     1      27.822  17.692  -5.637  1.00  0.00     0.126 C 
HETATM   16  O1  UNL     1      27.095  17.385  -3.446  1.00  0.00    -0.266 OA
ENDBRANCH  13  14
ENDBRANCH   1  13
BRANCH   1  17
HETATM   17  C4  UNL     1      29.524  15.281  -1.918  1.00  0.00    -0.016 C 
HETATM   18  C5  UNL     1      28.180  14.720  -1.473  1.00  0.00     0.018 C 
HETATM   19  C6  UNL     1      30.542  14.280  -1.367  1.00  0.00     0.018 C 
HETATM   20  C7  UNL     1      29.729  16.493  -1.071  1.00  0.00     0.018 C 
ENDBRANCH   1  17
TORSDOF 3
ENDMDL
