MODEL 1
REMARK VINA RESULT: -5.994069723      0.000      0.000
REMARK  3 active torsions:
REMARK  status: ('A' for Active; 'I' for Inactive)
REMARK    1  A    between atoms: C2_2  and  O1_3 
REMARK    2  A    between atoms: O1_3  and  C3_4 
REMARK       I    between atoms: C3_4  and  N1_6 
REMARK    3  A    between atoms: C7_12  and  C9_14 
ROOT
HETATM    1  C3  UNL     1      29.850  16.810   0.776  1.00  0.00     0.364 C 
HETATM    2  O2  UNL     1      29.796  15.872   1.613  1.00  0.00    -0.238 OA
HETATM    3  N1  UNL     1      29.554  16.596  -0.538  1.00  0.00    -0.306 N 
ATOM      4  H1  UNL     1      28.595  16.882  -0.733  1.00  0.00     0.170 HD
HETATM    5  C4  UNL     1      30.087  16.162  -1.566  1.00  0.00     0.036 C 
HETATM    6  C5  UNL     1      29.200  16.172  -2.807  1.00  0.00     0.079 C 
HETATM    7  C6  UNL     1      29.289  14.874  -3.564  1.00  0.00     0.122 C 
HETATM    8 CL1  UNL     1      27.980  13.841  -3.050  1.00  0.00    -0.121 Cl
HETATM    9  C7  UNL     1      30.652  14.301  -3.573  1.00  0.00     0.083 C 
HETATM   10  C8  UNL     1      31.494  15.162  -4.532  1.00  0.00     0.048 C 
HETATM   11  O3  UNL     1      31.293  14.364  -2.332  1.00  0.00    -0.353 OA
HETATM   12  C13 UNL     1      31.432  15.633  -1.821  1.00  0.00     0.274 C 
HETATM   13  C14 UNL     1      32.297  15.570  -0.681  1.00  0.00     0.097 C 
HETATM   14  N2  UNL     1      33.008  15.513   0.214  1.00  0.00    -0.194 NA
ENDROOT
BRANCH   9  15
HETATM   15  C9  UNL     1      30.807  12.897  -4.035  1.00  0.00    -0.019 C 
HETATM   16  C10 UNL     1      30.538  11.872  -2.961  1.00  0.00     0.017 C 
HETATM   17  C11 UNL     1      30.043  12.591  -5.304  1.00  0.00     0.017 C 
HETATM   18  C12 UNL     1      32.289  12.725  -4.407  1.00  0.00     0.017 C 
ENDBRANCH   9  15
BRANCH   1  19
HETATM   19  O1  UNL     1      30.220  18.058   1.246  1.00  0.00    -0.304 OA
BRANCH  19  20
HETATM   20  C2  UNL     1      31.404  18.726   0.885  1.00  0.00     0.176 C 
HETATM   21  C1  UNL     1      32.240  19.138   2.067  1.00  0.00     0.034 C 
ENDBRANCH  19  20
ENDBRANCH   1  19
TORSDOF 3
ENDMDL
MODEL 2
REMARK VINA RESULT: -5.508085482      1.368      1.521
REMARK  3 active torsions:
REMARK  status: ('A' for Active; 'I' for Inactive)
REMARK    1  A    between atoms: C2_2  and  O1_3 
REMARK    2  A    between atoms: O1_3  and  C3_4 
REMARK       I    between atoms: C3_4  and  N1_6 
REMARK    3  A    between atoms: C7_12  and  C9_14 
ROOT
HETATM    1  C3  UNL     1      30.536  16.566   0.316  1.00  0.00     0.364 C 
HETATM    2  O2  UNL     1      30.879  15.524   0.931  1.00  0.00    -0.238 OA
HETATM    3  N1  UNL     1      29.664  16.508  -0.731  1.00  0.00    -0.306 N 
ATOM      4  H1  UNL     1      28.724  16.747  -0.418  1.00  0.00     0.170 HD
HETATM    5  C4  UNL     1      29.660  16.256  -1.942  1.00  0.00     0.036 C 
HETATM    6  C5  UNL     1      28.298  16.366  -2.620  1.00  0.00     0.079 C 
HETATM    7  C6  UNL     1      28.028  15.190  -3.520  1.00  0.00     0.122 C 
HETATM    8 CL1  UNL     1      27.111  14.006  -2.626  1.00  0.00    -0.121 Cl
HETATM    9  C7  UNL     1      29.232  14.725  -4.240  1.00  0.00     0.083 C 
HETATM   10  C8  UNL     1      29.530  15.765  -5.336  1.00  0.00     0.048 C 
HETATM   11  O3  UNL     1      30.376  14.668  -3.439  1.00  0.00    -0.353 OA
HETATM   12  C13 UNL     1      30.734  15.865  -2.862  1.00  0.00     0.274 C 
HETATM   13  C14 UNL     1      32.030  15.714  -2.271  1.00  0.00     0.097 C 
HETATM   14  N2  UNL     1      33.075  15.589  -1.822  1.00  0.00    -0.194 NA
ENDROOT
BRANCH   9  15
HETATM   15  C9  UNL     1      29.158  13.411  -4.930  1.00  0.00    -0.019 C 
HETATM   16  C10 UNL     1      29.457  12.237  -4.029  1.00  0.00     0.017 C 
HETATM   17  C11 UNL     1      27.877  13.206  -5.707  1.00  0.00     0.017 C 
HETATM   18  C12 UNL     1      30.275  13.412  -5.987  1.00  0.00     0.017 C 
ENDBRANCH   9  15
BRANCH   1  19
HETATM   19  O1  UNL     1      31.079  17.764   0.748  1.00  0.00    -0.304 OA
BRANCH  19  20
HETATM   20  C2  UNL     1      32.438  18.108   0.634  1.00  0.00     0.176 C 
HETATM   21  C1  UNL     1      32.837  19.261   1.518  1.00  0.00     0.034 C 
ENDBRANCH  19  20
ENDBRANCH   1  19
TORSDOF 3
ENDMDL
MODEL 3
REMARK VINA RESULT: -5.411692749      2.446      3.907
REMARK  3 active torsions:
REMARK  status: ('A' for Active; 'I' for Inactive)
REMARK    1  A    between atoms: C2_2  and  O1_3 
REMARK    2  A    between atoms: O1_3  and  C3_4 
REMARK       I    between atoms: C3_4  and  N1_6 
REMARK    3  A    between atoms: C7_12  and  C9_14 
ROOT
HETATM    1  C3  UNL     1      33.205  18.156   1.154  1.00  0.00     0.364 C 
HETATM    2  O2  UNL     1      33.413  19.063   0.307  1.00  0.00    -0.238 OA
HETATM    3  N1  UNL     1      32.696  16.948   0.778  1.00  0.00    -0.306 N 
ATOM      4  H1  UNL     1      33.447  16.266   0.679  1.00  0.00     0.170 HD
HETATM    5  C4  UNL     1      31.606  16.423   0.519  1.00  0.00     0.036 C 
HETATM    6  C5  UNL     1      31.674  14.948   0.136  1.00  0.00     0.079 C 
HETATM    7  C6  UNL     1      30.831  14.650  -1.075  1.00  0.00     0.122 C 
HETATM    8 CL1  UNL     1      31.850  14.715  -2.489  1.00  0.00    -0.121 Cl
HETATM    9  C7  UNL     1      29.567  15.415  -1.103  1.00  0.00     0.083 C 
HETATM   10  C8  UNL     1      28.640  14.791  -0.044  1.00  0.00     0.048 C 
HETATM   11  O3  UNL     1      29.717  16.757  -0.744  1.00  0.00    -0.353 OA
HETATM   12  C13 UNL     1      30.240  16.961   0.511  1.00  0.00     0.274 C 
HETATM   13  C14 UNL     1      30.122  18.352   0.832  1.00  0.00     0.097 C 
HETATM   14  N2  UNL     1      30.002  19.461   1.087  1.00  0.00    -0.194 NA
ENDROOT
BRANCH   9  15
HETATM   15  C9  UNL     1      28.794  15.422  -2.373  1.00  0.00    -0.019 C 
HETATM   16  C10 UNL     1      29.371  16.332  -3.429  1.00  0.00     0.017 C 
HETATM   17  C11 UNL     1      28.515  14.039  -2.919  1.00  0.00     0.017 C 
HETATM   18  C12 UNL     1      27.412  16.008  -2.036  1.00  0.00     0.017 C 
ENDBRANCH   9  15
BRANCH   1  19
HETATM   19  O1  UNL     1      33.516  18.437   2.473  1.00  0.00    -0.304 OA
BRANCH  19  20
HETATM   20  C2  UNL     1      33.415  19.712   3.059  1.00  0.00     0.176 C 
HETATM   21  C1  UNL     1      32.215  19.861   3.957  1.00  0.00     0.034 C 
ENDBRANCH  19  20
ENDBRANCH   1  19
TORSDOF 3
ENDMDL
MODEL 4
REMARK VINA RESULT: -5.241621190      3.209      5.562
REMARK  3 active torsions:
REMARK  status: ('A' for Active; 'I' for Inactive)
REMARK    1  A    between atoms: C2_2  and  O1_3 
REMARK    2  A    between atoms: O1_3  and  C3_4 
REMARK       I    between atoms: C3_4  and  N1_6 
REMARK    3  A    between atoms: C7_12  and  C9_14 
ROOT
HETATM    1  C3  UNL     1      27.280  17.308  -4.433  1.00  0.00     0.364 C 
HETATM    2  O2  UNL     1      27.730  18.459  -4.671  1.00  0.00    -0.238 OA
HETATM    3  N1  UNL     1      27.638  16.634  -3.303  1.00  0.00    -0.306 N 
ATOM      4  H1  UNL     1      26.915  16.734  -2.591  1.00  0.00     0.170 HD
HETATM    5  C4  UNL     1      28.567  15.939  -2.874  1.00  0.00     0.036 C 
HETATM    6  C5  UNL     1      28.390  15.434  -1.446  1.00  0.00     0.079 C 
HETATM    7  C6  UNL     1      29.644  15.614  -0.634  1.00  0.00     0.122 C 
HETATM    8 CL1  UNL     1      29.526  17.118   0.243  1.00  0.00    -0.121 Cl
HETATM    9  C7  UNL     1      30.877  15.367  -1.410  1.00  0.00     0.083 C 
HETATM   10  C8  UNL     1      30.979  13.845  -1.619  1.00  0.00     0.048 C 
HETATM   11  O3  UNL     1      30.856  15.933  -2.688  1.00  0.00    -0.353 OA
HETATM   12  C13 UNL     1      29.825  15.501  -3.490  1.00  0.00     0.274 C 
HETATM   13  C14 UNL     1      30.058  15.975  -4.822  1.00  0.00     0.097 C 
HETATM   14  N2  UNL     1      30.266  16.339  -5.887  1.00  0.00    -0.194 NA
ENDROOT
BRANCH   9  15
HETATM   15  C9  UNL     1      32.168  15.787  -0.806  1.00  0.00    -0.019 C 
HETATM   16  C10 UNL     1      32.400  17.277  -0.845  1.00  0.00     0.017 C 
HETATM   17  C11 UNL     1      32.400  15.222   0.578  1.00  0.00     0.017 C 
HETATM   18  C12 UNL     1      33.276  15.175  -1.681  1.00  0.00     0.017 C 
ENDBRANCH   9  15
BRANCH   1  19
HETATM   19  O1  UNL     1      26.411  16.763  -5.363  1.00  0.00    -0.304 OA
BRANCH  19  20
HETATM   20  C2  UNL     1      26.755  15.750  -6.275  1.00  0.00     0.176 C 
HETATM   21  C1  UNL     1      27.074  16.270  -7.652  1.00  0.00     0.034 C 
ENDBRANCH  19  20
ENDBRANCH   1  19
TORSDOF 3
ENDMDL
MODEL 5
REMARK VINA RESULT: -5.197518781      3.563      5.420
REMARK  3 active torsions:
REMARK  status: ('A' for Active; 'I' for Inactive)
REMARK    1  A    between atoms: C2_2  and  O1_3 
REMARK    2  A    between atoms: O1_3  and  C3_4 
REMARK       I    between atoms: C3_4  and  N1_6 
REMARK    3  A    between atoms: C7_12  and  C9_14 
ROOT
HETATM    1  C3  UNL     1      25.940  14.074   1.770  1.00  0.00     0.364 C 
HETATM    2  O2  UNL     1      26.324  12.939   2.152  1.00  0.00    -0.238 OA
HETATM    3  N1  UNL     1      26.627  14.762   0.813  1.00  0.00    -0.306 N 
ATOM      4  H1  UNL     1      26.182  14.639  -0.096  1.00  0.00     0.170 HD
HETATM    5  C4  UNL     1      27.622  15.489   0.707  1.00  0.00     0.036 C 
HETATM    6  C5  UNL     1      27.907  15.990  -0.706  1.00  0.00     0.079 C 
HETATM    7  C6  UNL     1      29.364  15.854  -1.060  1.00  0.00     0.122 C 
HETATM    8 CL1  UNL     1      29.589  14.349  -1.912  1.00  0.00    -0.121 Cl
HETATM    9  C7  UNL     1      30.265  16.141   0.076  1.00  0.00     0.083 C 
HETATM   10  C8  UNL     1      30.243  17.666   0.293  1.00  0.00     0.048 C 
HETATM   11  O3  UNL     1      29.844  15.573   1.282  1.00  0.00    -0.353 OA
HETATM   12  C13 UNL     1      28.593  15.967   1.697  1.00  0.00     0.274 C 
HETATM   13  C14 UNL     1      28.392  15.499   3.036  1.00  0.00     0.097 C 
HETATM   14  N2  UNL     1      28.250  15.141   4.113  1.00  0.00    -0.194 NA
ENDROOT
BRANCH   9  15
HETATM   15  C9  UNL     1      31.696  15.767  -0.067  1.00  0.00    -0.019 C 
HETATM   16  C10 UNL     1      32.048  14.457   0.593  1.00  0.00     0.017 C 
HETATM   17  C11 UNL     1      32.197  15.826  -1.493  1.00  0.00     0.017 C 
HETATM   18  C12 UNL     1      32.502  16.838   0.687  1.00  0.00     0.017 C 
ENDBRANCH   9  15
BRANCH   1  19
HETATM   19  O1  UNL     1      24.796  14.587   2.357  1.00  0.00    -0.304 OA
BRANCH  19  20
HETATM   20  C2  UNL     1      23.535  14.629   1.738  1.00  0.00     0.176 C 
HETATM   21  C1  UNL     1      22.561  15.547   2.429  1.00  0.00     0.034 C 
ENDBRANCH  19  20
ENDBRANCH   1  19
TORSDOF 3
ENDMDL
