MODEL 1
REMARK VINA RESULT: -7.297826094      0.000      0.000
REMARK  1 active torsions:
REMARK  status: ('A' for Active; 'I' for Inactive)
REMARK    1  A    between atoms: C2_2  and  C3_3 
ROOT
HETATM    1  C3  UNL     1      31.758  15.910  -0.863  1.00  0.00     0.082 C 
HETATM    2 CL1  UNL     1      33.076  15.154   0.114  1.00  0.00    -0.115 Cl
HETATM    3  C4  UNL     1      30.526  15.780   0.095  1.00  0.00     0.037 C 
HETATM    4  C5  UNL     1      29.422  15.895  -0.869  1.00  0.00     0.029 C 
HETATM    5  C6  UNL     1      28.145  15.213  -0.701  1.00  0.00     0.008 C 
HETATM    6  C7  UNL     1      27.284  15.793  -1.834  1.00  0.00     0.005 C 
HETATM    7  C8  UNL     1      27.895  16.051  -3.110  1.00  0.00    -0.011 C 
HETATM    8  C9  UNL     1      27.221  17.218  -3.806  1.00  0.00     0.010 C 
HETATM    9  C10 UNL     1      29.419  16.335  -3.164  1.00  0.00     0.033 C 
HETATM   10  C11 UNL     1      29.768  16.269  -4.594  1.00  0.00     0.034 C 
HETATM   11  C12 UNL     1      31.080  15.703  -4.973  1.00  0.00     0.172 C 
HETATM   12  O1  UNL     1      32.014  15.635  -3.979  1.00  0.00    -0.350 OA
HETATM   13  C13 UNL     1      31.695  14.596  -3.141  1.00  0.00     0.235 C 
HETATM   14  C14 UNL     1      32.854  13.608  -3.176  1.00  0.00     0.086 C 
HETATM   15  O2  UNL     1      30.501  13.942  -3.562  1.00  0.00    -0.196 OA
HETATM   16  O3  UNL     1      29.561  14.169  -2.646  1.00  0.00    -0.222 OA
HETATM   17  C15 UNL     1      29.917  15.433  -2.196  1.00  0.00     0.147 C 
HETATM   18  C16 UNL     1      31.287  15.032  -1.850  1.00  0.00     0.217 C 
HETATM   19  F1  UNL     1      31.163  13.807  -1.108  1.00  0.00    -0.231 F 
ENDROOT
BRANCH   1  20
HETATM   20  C2  UNL     1      32.144  17.301  -1.080  1.00  0.00     0.025 C 
HETATM   21  C1  UNL     1      32.725  17.912   0.175  1.00  0.00     0.007 C 
ENDBRANCH   1  20
TORSDOF 1
ENDMDL
MODEL 2
REMARK VINA RESULT: -6.592988320      6.041      8.320
REMARK  1 active torsions:
REMARK  status: ('A' for Active; 'I' for Inactive)
REMARK    1  A    between atoms: C2_2  and  C3_3 
ROOT
HETATM    1  C3  UNL     1      25.252  12.050   3.629  1.00  0.00     0.082 C 
HETATM    2 CL1  UNL     1      24.681  11.543   5.266  1.00  0.00    -0.115 Cl
HETATM    3  C4  UNL     1      26.517  12.905   3.974  1.00  0.00     0.037 C 
HETATM    4  C5  UNL     1      26.642  13.709   2.750  1.00  0.00     0.029 C 
HETATM    5  C6  UNL     1      27.166  15.069   2.741  1.00  0.00     0.008 C 
HETATM    6  C7  UNL     1      27.276  15.394   1.244  1.00  0.00     0.005 C 
HETATM    7  C8  UNL     1      26.252  14.922   0.351  1.00  0.00    -0.011 C 
HETATM    8  C9  UNL     1      26.818  14.656  -1.030  1.00  0.00     0.010 C 
HETATM    9  C10 UNL     1      25.448  13.655   0.742  1.00  0.00     0.033 C 
HETATM   10  C11 UNL     1      24.321  13.611  -0.206  1.00  0.00     0.034 C 
HETATM   11  C12 UNL     1      23.012  13.123   0.278  1.00  0.00     0.172 C 
HETATM   12  O1  UNL     1      23.032  12.403   1.439  1.00  0.00    -0.350 OA
HETATM   13  C13 UNL     1      23.214  13.264   2.492  1.00  0.00     0.235 C 
HETATM   14  C14 UNL     1      21.995  13.142   3.398  1.00  0.00     0.086 C 
HETATM   15  O2  UNL     1      23.338  14.611   2.041  1.00  0.00    -0.196 OA
HETATM   16  O3  UNL     1      24.584  15.014   2.286  1.00  0.00    -0.222 OA
HETATM   17  C15 UNL     1      25.290  13.829   2.136  1.00  0.00     0.147 C 
HETATM   18  C16 UNL     1      24.478  13.105   3.124  1.00  0.00     0.217 C 
HETATM   19  F1  UNL     1      24.390  13.970   4.269  1.00  0.00    -0.231 F 
ENDROOT
BRANCH   1  20
HETATM   20  C2  UNL     1      25.592  10.828   2.908  1.00  0.00     0.025 C 
HETATM   21  C1  UNL     1      24.482   9.805   3.004  1.00  0.00     0.007 C 
ENDBRANCH   1  20
TORSDOF 1
ENDMDL
MODEL 3
REMARK VINA RESULT: -6.502380049      1.518      1.974
REMARK  1 active torsions:
REMARK  status: ('A' for Active; 'I' for Inactive)
REMARK    1  A    between atoms: C2_2  and  C3_3 
ROOT
HETATM    1  C3  UNL     1      30.762  15.385  -1.615  1.00  0.00     0.082 C 
HETATM    2 CL1  UNL     1      31.197  14.565  -0.064  1.00  0.00    -0.115 Cl
HETATM    3  C4  UNL     1      29.534  16.257  -1.190  1.00  0.00     0.037 C 
HETATM    4  C5  UNL     1      28.896  16.478  -2.495  1.00  0.00     0.029 C 
HETATM    5  C6  UNL     1      27.455  16.620  -2.664  1.00  0.00     0.008 C 
HETATM    6  C7  UNL     1      27.311  17.020  -4.140  1.00  0.00     0.005 C 
HETATM    7  C8  UNL     1      28.177  16.414  -5.114  1.00  0.00    -0.011 C 
HETATM    8  C9  UNL     1      28.442  17.361  -6.268  1.00  0.00     0.010 C 
HETATM    9  C10 UNL     1      29.563  15.890  -4.656  1.00  0.00     0.033 C 
HETATM   10  C11 UNL     1      30.062  15.092  -5.790  1.00  0.00     0.034 C 
HETATM   11  C12 UNL     1      30.848  13.874  -5.501  1.00  0.00     0.172 C 
HETATM   12  O1  UNL     1      31.372  13.781  -4.243  1.00  0.00    -0.350 OA
HETATM   13  C13 UNL     1      30.366  13.462  -3.366  1.00  0.00     0.235 C 
HETATM   14  C14 UNL     1      30.724  12.127  -2.726  1.00  0.00     0.086 C 
HETATM   15  O2  UNL     1      29.114  13.347  -4.038  1.00  0.00    -0.196 OA
HETATM   16  O3  UNL     1      28.331  14.343  -3.624  1.00  0.00    -0.222 OA
HETATM   17  C15 UNL     1      29.263  15.343  -3.388  1.00  0.00     0.147 C 
HETATM   18  C16 UNL     1      30.059  14.521  -2.467  1.00  0.00     0.217 C 
HETATM   19  F1  UNL     1      29.117  13.925  -1.558  1.00  0.00    -0.231 F 
ENDROOT
BRANCH   1  20
HETATM   20  C2  UNL     1      31.912  16.199  -1.994  1.00  0.00     0.025 C 
HETATM   21  C1  UNL     1      33.145  15.809  -1.209  1.00  0.00     0.007 C 
ENDBRANCH   1  20
TORSDOF 1
ENDMDL
MODEL 4
REMARK VINA RESULT: -6.412802706      2.374      4.790
REMARK  1 active torsions:
REMARK  status: ('A' for Active; 'I' for Inactive)
REMARK    1  A    between atoms: C2_2  and  C3_3 
ROOT
HETATM    1  C3  UNL     1      28.631  15.963  -4.780  1.00  0.00     0.082 C 
HETATM    2 CL1  UNL     1      27.827  15.321  -6.265  1.00  0.00    -0.115 Cl
HETATM    3  C4  UNL     1      30.146  15.864  -5.161  1.00  0.00     0.037 C 
HETATM    4  C5  UNL     1      30.761  15.874  -3.825  1.00  0.00     0.029 C 
HETATM    5  C6  UNL     1      31.996  15.167  -3.512  1.00  0.00     0.008 C 
HETATM    6  C7  UNL     1      32.319  15.635  -2.085  1.00  0.00     0.005 C 
HETATM    7  C8  UNL     1      31.241  15.820  -1.152  1.00  0.00    -0.011 C 
HETATM    8  C9  UNL     1      31.570  16.911  -0.152  1.00  0.00     0.010 C 
HETATM    9  C10 UNL     1      29.827  16.146  -1.700  1.00  0.00     0.033 C 
HETATM   10  C11 UNL     1      28.924  15.988  -0.546  1.00  0.00     0.034 C 
HETATM   11  C12 UNL     1      27.573  15.437  -0.780  1.00  0.00     0.172 C 
HETATM   12  O1  UNL     1      27.126  15.471  -2.071  1.00  0.00    -0.350 OA
HETATM   13  C13 UNL     1      27.760  14.486  -2.785  1.00  0.00     0.235 C 
HETATM   14  C14 UNL     1      26.688  13.535  -3.303  1.00  0.00     0.086 C 
HETATM   15  O2  UNL     1      28.679  13.766  -1.967  1.00  0.00    -0.196 OA
HETATM   16  O3  UNL     1      29.911  14.029  -2.401  1.00  0.00    -0.222 OA
HETATM   17  C15 UNL     1      29.768  15.333  -2.856  1.00  0.00     0.147 C 
HETATM   18  C16 UNL     1      28.659  15.001  -3.759  1.00  0.00     0.217 C 
HETATM   19  F1  UNL     1      29.077  13.830  -4.481  1.00  0.00    -0.231 F 
ENDROOT
BRANCH   1  20
HETATM   20  C2  UNL     1      28.189  17.346  -4.630  1.00  0.00     0.025 C 
HETATM   21  C1  UNL     1      26.723  17.494  -4.972  1.00  0.00     0.007 C 
ENDBRANCH   1  20
TORSDOF 1
ENDMDL
MODEL 5
REMARK VINA RESULT: -6.216052695      2.281      4.325
REMARK  1 active torsions:
REMARK  status: ('A' for Active; 'I' for Inactive)
REMARK    1  A    between atoms: C2_2  and  C3_3 
ROOT
HETATM    1  C3  UNL     1      28.488  15.694  -3.077  1.00  0.00     0.082 C 
HETATM    2 CL1  UNL     1      27.003  16.359  -2.291  1.00  0.00    -0.115 Cl
HETATM    3  C4  UNL     1      27.977  14.323  -3.634  1.00  0.00     0.037 C 
HETATM    4  C5  UNL     1      29.248  13.601  -3.780  1.00  0.00     0.029 C 
HETATM    5  C6  UNL     1      29.368  12.158  -3.612  1.00  0.00     0.008 C 
HETATM    6  C7  UNL     1      30.812  11.870  -4.050  1.00  0.00     0.005 C 
HETATM    7  C8  UNL     1      31.845  12.807  -3.702  1.00  0.00    -0.011 C 
HETATM    8  C9  UNL     1      32.946  12.813  -4.745  1.00  0.00     0.010 C 
HETATM    9  C10 UNL     1      31.459  14.292  -3.471  1.00  0.00     0.033 C 
HETATM   10  C11 UNL     1      32.653  14.906  -2.863  1.00  0.00     0.034 C 
HETATM   11  C12 UNL     1      32.461  15.949  -1.834  1.00  0.00     0.172 C 
HETATM   12  O1  UNL     1      31.226  16.531  -1.791  1.00  0.00    -0.350 OA
HETATM   13  C13 UNL     1      30.343  15.654  -1.212  1.00  0.00     0.235 C 
HETATM   14  C14 UNL     1      29.797  16.320   0.045  1.00  0.00     0.086 C 
HETATM   15  O2  UNL     1      30.985  14.431  -0.861  1.00  0.00    -0.196 OA
HETATM   16  O3  UNL     1      30.490  13.468  -1.637  1.00  0.00    -0.222 OA
HETATM   17  C15 UNL     1      30.218  14.169  -2.804  1.00  0.00     0.147 C 
HETATM   18  C16 UNL     1      29.372  15.162  -2.127  1.00  0.00     0.217 C 
HETATM   19  F1  UNL     1      28.476  14.409  -1.291  1.00  0.00    -0.231 F 
ENDROOT
BRANCH   1  20
HETATM   20  C2  UNL     1      28.848  16.623  -4.143  1.00  0.00     0.025 C 
HETATM   21  C1  UNL     1      27.683  17.512  -4.514  1.00  0.00     0.007 C 
ENDBRANCH   1  20
TORSDOF 1
ENDMDL
