MODEL 1
REMARK VINA RESULT: -8.135370428      0.000      0.000
REMARK  2 active torsions:
REMARK  status: ('A' for Active; 'I' for Inactive)
REMARK    1  A    between atoms: O1_2  and  C2_3 
REMARK    2  A    between atoms: C2_3  and  C3_6 
ROOT
HETATM    1  C3  UNL     1      28.030  15.454   0.599  1.00  0.00     0.050 A 
HETATM    2  C4  UNL     1      28.888  16.000   1.535  1.00  0.00     0.018 A 
HETATM    3  C5  UNL     1      30.179  16.298   1.191  1.00  0.00     0.024 A 
HETATM    4  C6  UNL     1      30.645  16.055  -0.114  1.00  0.00     0.053 A 
HETATM    5  C7  UNL     1      31.989  16.400  -0.460  1.00  0.00     0.100 C 
HETATM    6  N1  UNL     1      33.097  16.709  -0.722  1.00  0.00    -0.191 NA
HETATM    7  C8  UNL     1      29.808  15.511  -1.056  1.00  0.00    -0.005 A 
HETATM    8  C9  UNL     1      28.489  15.215  -0.681  1.00  0.00    -0.029 A 
HETATM    9  C10 UNL     1      27.759  14.648  -1.871  1.00  0.00     0.025 C 
HETATM   10  C11 UNL     1      27.073  15.762  -2.567  1.00  0.00     0.046 C 
HETATM   11  C12 UNL     1      27.404  15.922  -4.032  1.00  0.00     0.054 C 
HETATM   12  C13 UNL     1      26.990  17.345  -4.419  1.00  0.00     0.045 C 
HETATM   13  C14 UNL     1      26.502  15.002  -4.858  1.00  0.00     0.045 C 
HETATM   14  O2  UNL     1      28.722  15.774  -4.356  1.00  0.00    -0.379 OA
HETATM   15  C15 UNL     1      29.605  16.223  -3.411  1.00  0.00     0.198 C 
HETATM   16  C16 UNL     1      29.972  15.132  -2.438  1.00  0.00     0.100 C 
HETATM   17  C17 UNL     1      31.266  14.531  -2.734  1.00  0.00     0.076 C 
HETATM   18  N2  UNL     1      32.276  14.032  -2.988  1.00  0.00    -0.196 NA
HETATM   19  C18 UNL     1      28.896  14.039  -2.606  1.00  0.00     0.041 C 
ENDROOT
BRANCH   1  20
HETATM   20  C2  UNL     1      26.622  15.134   1.012  1.00  0.00     0.384 C 
HETATM   21  F1  UNL     1      25.704  15.951   0.414  1.00  0.00    -0.170 F 
HETATM   22  F2  UNL     1      26.325  13.823   0.728  1.00  0.00    -0.170 F 
BRANCH  20  23
HETATM   23  O1  UNL     1      26.547  15.294   2.401  1.00  0.00    -0.327 OA
HETATM   24  C1  UNL     1      26.178  14.140   3.045  1.00  0.00     0.209 C 
ENDBRANCH  20  23
ENDBRANCH   1  20
TORSDOF 2
ENDMDL
MODEL 2
REMARK VINA RESULT: -7.358487372      2.692      3.436
REMARK  2 active torsions:
REMARK  status: ('A' for Active; 'I' for Inactive)
REMARK    1  A    between atoms: O1_2  and  C2_3 
REMARK    2  A    between atoms: C2_3  and  C3_6 
ROOT
HETATM    1  C3  UNL     1      31.350  15.882  -0.579  1.00  0.00     0.050 A 
HETATM    2  C4  UNL     1      32.731  15.897  -0.525  1.00  0.00     0.018 A 
HETATM    3  C5  UNL     1      33.463  15.226  -1.468  1.00  0.00     0.024 A 
HETATM    4  C6  UNL     1      32.820  14.518  -2.499  1.00  0.00     0.053 A 
HETATM    5  C7  UNL     1      33.603  13.847  -3.491  1.00  0.00     0.100 C 
HETATM    6  N1  UNL     1      34.274  13.316  -4.303  1.00  0.00    -0.191 NA
HETATM    7  C8  UNL     1      31.449  14.490  -2.568  1.00  0.00    -0.005 A 
HETATM    8  C9  UNL     1      30.721  15.186  -1.592  1.00  0.00    -0.029 A 
HETATM    9  C10 UNL     1      29.249  15.029  -1.876  1.00  0.00     0.025 C 
HETATM   10  C11 UNL     1      28.812  16.180  -2.702  1.00  0.00     0.046 C 
HETATM   11  C12 UNL     1      28.144  15.830  -4.010  1.00  0.00     0.054 C 
HETATM   12  C13 UNL     1      28.207  17.089  -4.880  1.00  0.00     0.045 C 
HETATM   13  C14 UNL     1      26.653  15.585  -3.767  1.00  0.00     0.045 C 
HETATM   14  O2  UNL     1      28.723  14.814  -4.712  1.00  0.00    -0.379 OA
HETATM   15  C15 UNL     1      30.087  14.741  -4.611  1.00  0.00     0.198 C 
HETATM   16  C16 UNL     1      30.506  13.863  -3.461  1.00  0.00     0.100 C 
HETATM   17  C17 UNL     1      30.903  12.528  -3.893  1.00  0.00     0.076 C 
HETATM   18  N2  UNL     1      31.186  11.462  -4.233  1.00  0.00    -0.196 NA
HETATM   19  C18 UNL     1      29.258  13.715  -2.567  1.00  0.00     0.041 C 
ENDROOT
BRANCH   1  20
HETATM   20  C2  UNL     1      30.579  16.625   0.474  1.00  0.00     0.384 C 
HETATM   21  F1  UNL     1      29.602  17.419  -0.056  1.00  0.00    -0.170 F 
HETATM   22  F2  UNL     1      30.022  15.745   1.370  1.00  0.00    -0.170 F 
BRANCH  20  23
HETATM   23  O1  UNL     1      31.492  17.423   1.176  1.00  0.00    -0.327 OA
HETATM   24  C1  UNL     1      31.059  18.717   1.319  1.00  0.00     0.209 C 
ENDBRANCH  20  23
ENDBRANCH   1  20
TORSDOF 2
ENDMDL
MODEL 3
REMARK VINA RESULT: -7.320691917      3.462      5.021
REMARK  2 active torsions:
REMARK  status: ('A' for Active; 'I' for Inactive)
REMARK    1  A    between atoms: O1_2  and  C2_3 
REMARK    2  A    between atoms: C2_3  and  C3_6 
ROOT
HETATM    1  C3  UNL     1      31.292  16.286  -0.158  1.00  0.00     0.050 A 
HETATM    2  C4  UNL     1      30.544  16.305   1.004  1.00  0.00     0.018 A 
HETATM    3  C5  UNL     1      29.215  15.974   0.971  1.00  0.00     0.024 A 
HETATM    4  C6  UNL     1      28.600  15.612  -0.240  1.00  0.00     0.053 A 
HETATM    5  C7  UNL     1      27.218  15.242  -0.248  1.00  0.00     0.100 C 
HETATM    6  N1  UNL     1      26.082  14.928  -0.222  1.00  0.00    -0.191 NA
HETATM    7  C8  UNL     1      29.327  15.589  -1.404  1.00  0.00    -0.005 A 
HETATM    8  C9  UNL     1      30.686  15.931  -1.346  1.00  0.00    -0.029 A 
HETATM    9  C10 UNL     1      31.277  15.820  -2.728  1.00  0.00     0.025 C 
HETATM   10  C11 UNL     1      31.855  14.464  -2.877  1.00  0.00     0.046 C 
HETATM   11  C12 UNL     1      31.346  13.661  -4.051  1.00  0.00     0.054 C 
HETATM   12  C13 UNL     1      31.686  12.197  -3.757  1.00  0.00     0.045 C 
HETATM   13  C14 UNL     1      32.158  14.019  -5.299  1.00  0.00     0.045 C 
HETATM   14  O2  UNL     1      30.002  13.735  -4.275  1.00  0.00    -0.379 OA
HETATM   15  C15 UNL     1      29.231  13.845  -3.149  1.00  0.00     0.198 C 
HETATM   16  C16 UNL     1      29.004  15.288  -2.777  1.00  0.00     0.100 C 
HETATM   17  C17 UNL     1      27.694  15.772  -3.194  1.00  0.00     0.076 C 
HETATM   18  N2  UNL     1      26.669  16.165  -3.553  1.00  0.00    -0.196 NA
HETATM   19  C18 UNL     1      30.070  16.094  -3.548  1.00  0.00     0.041 C 
ENDROOT
BRANCH   1  20
HETATM   20  C2  UNL     1      32.745  16.660  -0.086  1.00  0.00     0.384 C 
HETATM   21  F1  UNL     1      33.570  15.584  -0.257  1.00  0.00    -0.170 F 
HETATM   22  F2  UNL     1      33.040  17.619  -1.024  1.00  0.00    -0.170 F 
BRANCH  20  23
HETATM   23  O1  UNL     1      32.971  17.219   1.178  1.00  0.00    -0.327 OA
HETATM   24  C1  UNL     1      33.580  18.446   1.110  1.00  0.00     0.209 C 
ENDBRANCH  20  23
ENDBRANCH   1  20
TORSDOF 2
ENDMDL
MODEL 4
REMARK VINA RESULT: -7.151900406      3.325      5.247
REMARK  2 active torsions:
REMARK  status: ('A' for Active; 'I' for Inactive)
REMARK    1  A    between atoms: O1_2  and  C2_3 
REMARK    2  A    between atoms: C2_3  and  C3_6 
ROOT
HETATM    1  C3  UNL     1      29.831  15.877  -2.198  1.00  0.00     0.050 A 
HETATM    2  C4  UNL     1      28.545  16.382  -2.222  1.00  0.00     0.018 A 
HETATM    3  C5  UNL     1      27.928  16.633  -3.419  1.00  0.00     0.024 A 
HETATM    4  C6  UNL     1      28.593  16.379  -4.631  1.00  0.00     0.053 A 
HETATM    5  C7  UNL     1      27.921  16.620  -5.870  1.00  0.00     0.100 C 
HETATM    6  N1  UNL     1      27.336  16.814  -6.876  1.00  0.00    -0.191 NA
HETATM    7  C8  UNL     1      29.871  15.878  -4.627  1.00  0.00    -0.005 A 
HETATM    8  C9  UNL     1      30.482  15.629  -3.389  1.00  0.00    -0.029 A 
HETATM    9  C10 UNL     1      31.863  15.073  -3.629  1.00  0.00     0.025 C 
HETATM   10  C11 UNL     1      31.773  13.594  -3.630  1.00  0.00     0.046 C 
HETATM   11  C12 UNL     1      32.303  12.907  -4.866  1.00  0.00     0.054 C 
HETATM   12  C13 UNL     1      31.703  11.497  -4.871  1.00  0.00     0.045 C 
HETATM   13  C14 UNL     1      33.813  12.700  -4.722  1.00  0.00     0.045 C 
HETATM   14  O2  UNL     1      31.977  13.497  -6.052  1.00  0.00    -0.379 OA
HETATM   15  C15 UNL     1      30.742  14.088  -6.086  1.00  0.00     0.198 C 
HETATM   16  C16 UNL     1      30.813  15.533  -5.664  1.00  0.00     0.100 C 
HETATM   17  C17 UNL     1      30.801  16.448  -6.798  1.00  0.00     0.076 C 
HETATM   18  N2  UNL     1      30.825  17.172  -7.698  1.00  0.00    -0.196 NA
HETATM   19  C18 UNL     1      32.167  15.695  -4.942  1.00  0.00     0.041 C 
ENDROOT
BRANCH   1  20
HETATM   20  C2  UNL     1      30.479  15.619  -0.867  1.00  0.00     0.384 C 
HETATM   21  F1  UNL     1      30.703  14.289  -0.645  1.00  0.00    -0.170 F 
HETATM   22  F2  UNL     1      31.664  16.308  -0.770  1.00  0.00    -0.170 F 
BRANCH  20  23
HETATM   23  O1  UNL     1      29.618  16.114   0.120  1.00  0.00    -0.327 OA
HETATM   24  C1  UNL     1      30.226  17.035   0.935  1.00  0.00     0.209 C 
ENDBRANCH  20  23
ENDBRANCH   1  20
TORSDOF 2
ENDMDL
MODEL 5
REMARK VINA RESULT: -6.986350893      3.707      5.407
REMARK  2 active torsions:
REMARK  status: ('A' for Active; 'I' for Inactive)
REMARK    1  A    between atoms: O1_2  and  C2_3 
REMARK    2  A    between atoms: C2_3  and  C3_6 
ROOT
HETATM    1  C3  UNL     1      31.478  15.780  -1.311  1.00  0.00     0.050 A 
HETATM    2  C4  UNL     1      30.360  16.217  -0.626  1.00  0.00     0.018 A 
HETATM    3  C5  UNL     1      29.181  16.418  -1.293  1.00  0.00     0.024 A 
HETATM    4  C6  UNL     1      29.095  16.180  -2.676  1.00  0.00     0.053 A 
HETATM    5  C7  UNL     1      27.846  16.369  -3.349  1.00  0.00     0.100 C 
HETATM    6  N1  UNL     1      26.801  16.517  -3.874  1.00  0.00    -0.191 NA
HETATM    7  C8  UNL     1      30.195  15.747  -3.373  1.00  0.00    -0.005 A 
HETATM    8  C9  UNL     1      31.391  15.547  -2.668  1.00  0.00    -0.029 A 
HETATM    9  C10 UNL     1      32.447  15.060  -3.627  1.00  0.00     0.025 C 
HETATM   10  C11 UNL     1      32.447  13.578  -3.602  1.00  0.00     0.046 C 
HETATM   11  C12 UNL     1      32.257  12.901  -4.938  1.00  0.00     0.054 C 
HETATM   12  C13 UNL     1      31.824  11.463  -4.639  1.00  0.00     0.045 C 
HETATM   13  C14 UNL     1      33.612  12.775  -5.639  1.00  0.00     0.045 C 
HETATM   14  O2  UNL     1      31.310  13.457  -5.750  1.00  0.00    -0.379 OA
HETATM   15  C15 UNL     1      30.226  13.983  -5.100  1.00  0.00     0.198 C 
HETATM   16  C16 UNL     1      30.440  15.435  -4.760  1.00  0.00     0.100 C 
HETATM   17  C17 UNL     1      29.769  16.332  -5.693  1.00  0.00     0.076 C 
HETATM   18  N2  UNL     1      29.264  17.042  -6.450  1.00  0.00    -0.196 NA
HETATM   19  C18 UNL     1      31.958  15.678  -4.886  1.00  0.00     0.041 C 
ENDROOT
BRANCH   1  20
HETATM   20  C2  UNL     1      32.756  15.575  -0.548  1.00  0.00     0.384 C 
HETATM   21  F1  UNL     1      32.537  15.230   0.756  1.00  0.00    -0.170 F 
HETATM   22  F2  UNL     1      33.527  14.614  -1.155  1.00  0.00    -0.170 F 
BRANCH  20  23
HETATM   23  O1  UNL     1      33.467  16.781  -0.594  1.00  0.00    -0.327 OA
HETATM   24  C1  UNL     1      33.465  17.438   0.610  1.00  0.00     0.209 C 
ENDBRANCH  20  23
ENDBRANCH   1  20
TORSDOF 2
ENDMDL
