MODEL 1
REMARK VINA RESULT: -7.090862087      0.000      0.000
REMARK  1 active torsions:
REMARK  status: ('A' for Active; 'I' for Inactive)
REMARK    1  A    between atoms: N1_5  and  C4_6 
ROOT
HETATM    1  C4  UNL     1      29.110  16.175   1.286  1.00  0.00     0.118 A 
HETATM    2  N2  UNL     1      29.006  16.011   2.610  1.00  0.00    -0.338 N 
ATOM      3  H2  UNL     1      29.729  16.413   3.206  1.00  0.00     0.168 HD
HETATM    4  C5  UNL     1      28.012  15.353   3.185  1.00  0.00     0.182 A 
HETATM    5  N3  UNL     1      27.059  14.824   2.391  1.00  0.00    -0.346 N 
ATOM      6  H3  UNL     1      26.279  14.311   2.799  1.00  0.00     0.167 HD
HETATM    7  C6  UNL     1      27.143  14.980   1.039  1.00  0.00     0.089 A 
HETATM    8  S1  UNL     1      26.132  14.462  -0.241  1.00  0.00    -0.075 SA
HETATM    9  C7  UNL     1      26.996  15.103  -1.541  1.00  0.00    -0.008 A 
HETATM   10  C8  UNL     1      28.093  15.730  -0.937  1.00  0.00    -0.028 A 
HETATM   11  C9  UNL     1      28.155  15.654   0.404  1.00  0.00     0.049 A 
HETATM   12  C10 UNL     1      28.907  16.369  -2.037  1.00  0.00     0.041 C 
HETATM   13  C11 UNL     1      29.343  15.193  -2.920  1.00  0.00     0.005 C 
HETATM   14  C12 UNL     1      28.131  14.803  -3.734  1.00  0.00     0.005 C 
HETATM   15  C13 UNL     1      26.838  15.116  -3.030  1.00  0.00     0.047 C 
ENDROOT
BRANCH   1  16
HETATM   16  N1  UNL     1      30.302  16.851   0.892  1.00  0.00    -0.364 N 
HETATM   17  C3  UNL     1      31.354  15.916   0.591  1.00  0.00     0.127 C 
HETATM   18  C2  UNL     1      32.494  16.520  -0.177  1.00  0.00     0.059 C 
HETATM   19  C1  UNL     1      33.439  17.331   0.629  1.00  0.00     0.195 C 
HETATM   20  F1  UNL     1      33.882  18.395  -0.149  1.00  0.00    -0.247 F 
HETATM   21  C16 UNL     1      32.902  17.890   1.898  1.00  0.00     0.204 C 
HETATM   22  O1  UNL     1      32.162  19.057   1.708  1.00  0.00    -0.387 OA
HETATM   23  C15 UNL     1      30.839  18.909   2.114  1.00  0.00     0.187 C 
HETATM   24  C14 UNL     1      30.111  18.270   0.923  1.00  0.00     0.150 C 
ENDBRANCH   1  16
TORSDOF 1
ENDMDL
MODEL 2
REMARK VINA RESULT: -6.964395134      1.452      2.256
REMARK  1 active torsions:
REMARK  status: ('A' for Active; 'I' for Inactive)
REMARK    1  A    between atoms: N1_5  and  C4_6 
ROOT
HETATM    1  C4  UNL     1      28.698  15.925   0.485  1.00  0.00     0.118 A 
HETATM    2  N2  UNL     1      27.894  15.713   1.533  1.00  0.00    -0.338 N 
ATOM      3  H2  UNL     1      28.218  15.998   2.457  1.00  0.00     0.168 HD
HETATM    4  C5  UNL     1      26.700  15.153   1.432  1.00  0.00     0.182 A 
HETATM    5  N3  UNL     1      26.278  14.778   0.206  1.00  0.00    -0.346 N 
ATOM      6  H3  UNL     1      25.364  14.343   0.090  1.00  0.00     0.167 HD
HETATM    7  C6  UNL     1      27.080  14.986  -0.877  1.00  0.00     0.089 A 
HETATM    8  S1  UNL     1      26.868  14.653  -2.542  1.00  0.00    -0.075 SA
HETATM    9  C7  UNL     1      28.337  15.246  -3.123  1.00  0.00    -0.008 A 
HETATM   10  C8  UNL     1      28.988  15.708  -1.973  1.00  0.00    -0.028 A 
HETATM   11  C9  UNL     1      28.322  15.564  -0.814  1.00  0.00     0.049 A 
HETATM   12  C10 UNL     1      30.309  16.297  -2.412  1.00  0.00     0.041 C 
HETATM   13  C11 UNL     1      31.057  15.120  -3.051  1.00  0.00     0.005 C 
HETATM   14  C12 UNL     1      30.438  14.916  -4.414  1.00  0.00     0.005 C 
HETATM   15  C13 UNL     1      28.996  15.347  -4.464  1.00  0.00     0.047 C 
ENDROOT
BRANCH   1  16
HETATM   16  N1  UNL     1      29.965  16.472   0.845  1.00  0.00    -0.364 N 
HETATM   17  C3  UNL     1      30.001  17.893   0.619  1.00  0.00     0.127 C 
HETATM   18  C2  UNL     1      31.139  18.585   1.312  1.00  0.00     0.059 C 
HETATM   19  C1  UNL     1      32.459  18.443   0.651  1.00  0.00     0.195 C 
HETATM   20  F1  UNL     1      33.440  18.367   1.634  1.00  0.00    -0.247 F 
HETATM   21  C16 UNL     1      32.620  17.262  -0.241  1.00  0.00     0.204 C 
HETATM   22  O1  UNL     1      32.914  16.091   0.457  1.00  0.00    -0.387 OA
HETATM   23  C15 UNL     1      31.933  15.120   0.282  1.00  0.00     0.187 C 
HETATM   24  C14 UNL     1      30.844  15.444   1.315  1.00  0.00     0.150 C 
ENDBRANCH   1  16
TORSDOF 1
ENDMDL
MODEL 3
REMARK VINA RESULT: -6.960481076      3.389      6.328
REMARK  1 active torsions:
REMARK  status: ('A' for Active; 'I' for Inactive)
REMARK    1  A    between atoms: N1_5  and  C4_6 
ROOT
HETATM    1  C4  UNL     1      30.993  16.082  -0.531  1.00  0.00     0.118 A 
HETATM    2  N2  UNL     1      31.395  15.072  -1.311  1.00  0.00    -0.338 N 
ATOM      3  H2  UNL     1      30.685  14.466  -1.721  1.00  0.00     0.168 HD
HETATM    4  C5  UNL     1      32.666  14.820  -1.577  1.00  0.00     0.182 A 
HETATM    5  N3  UNL     1      33.599  15.627  -1.031  1.00  0.00    -0.346 N 
ATOM      6  H3  UNL     1      34.589  15.462  -1.213  1.00  0.00     0.167 HD
HETATM    7  C6  UNL     1      33.213  16.663  -0.233  1.00  0.00     0.089 A 
HETATM    8  S1  UNL     1      34.103  17.865   0.599  1.00  0.00    -0.075 SA
HETATM    9  C7  UNL     1      32.823  18.710   1.299  1.00  0.00    -0.008 A 
HETATM   10  C8  UNL     1      31.687  18.021   0.860  1.00  0.00    -0.028 A 
HETATM   11  C9  UNL     1      31.907  16.958   0.066  1.00  0.00     0.049 A 
HETATM   12  C10 UNL     1      30.481  18.742   1.416  1.00  0.00     0.041 C 
HETATM   13  C11 UNL     1      30.648  18.644   2.938  1.00  0.00     0.005 C 
HETATM   14  C12 UNL     1      31.707  19.655   3.313  1.00  0.00     0.005 C 
HETATM   15  C13 UNL     1      32.690  19.901   2.199  1.00  0.00     0.047 C 
ENDROOT
BRANCH   1  16
HETATM   16  N1  UNL     1      29.582  16.112  -0.326  1.00  0.00    -0.364 N 
HETATM   17  C3  UNL     1      29.215  15.406   0.873  1.00  0.00     0.127 C 
HETATM   18  C2  UNL     1      27.823  15.708   1.349  1.00  0.00     0.059 C 
HETATM   19  C1  UNL     1      26.740  15.019   0.607  1.00  0.00     0.195 C 
HETATM   20  F1  UNL     1      25.645  15.873   0.529  1.00  0.00    -0.247 F 
HETATM   21  C16 UNL     1      27.071  14.581  -0.776  1.00  0.00     0.204 C 
HETATM   22  O1  UNL     1      26.970  15.610  -1.711  1.00  0.00    -0.387 OA
HETATM   23  C15 UNL     1      28.188  15.874  -2.331  1.00  0.00     0.187 C 
HETATM   24  C14 UNL     1      28.933  16.826  -1.385  1.00  0.00     0.150 C 
ENDBRANCH   1  16
TORSDOF 1
ENDMDL
MODEL 4
REMARK VINA RESULT: -6.527371966      4.596      7.193
REMARK  1 active torsions:
REMARK  status: ('A' for Active; 'I' for Inactive)
REMARK    1  A    between atoms: N1_5  and  C4_6 
ROOT
HETATM    1  C4  UNL     1      30.006  15.568  -4.156  1.00  0.00     0.118 A 
HETATM    2  N2  UNL     1      30.861  15.277  -5.142  1.00  0.00    -0.338 N 
ATOM      3  H2  UNL     1      30.485  15.102  -6.073  1.00  0.00     0.168 HD
HETATM    4  C5  UNL     1      32.171  15.205  -4.971  1.00  0.00     0.182 A 
HETATM    5  N3  UNL     1      32.662  15.438  -3.736  1.00  0.00    -0.346 N 
ATOM      6  H3  UNL     1      33.666  15.390  -3.567  1.00  0.00     0.167 HD
HETATM    7  C6  UNL     1      31.809  15.738  -2.716  1.00  0.00     0.089 A 
HETATM    8  S1  UNL     1      32.077  16.092  -1.063  1.00  0.00    -0.075 SA
HETATM    9  C7  UNL     1      30.480  16.342  -0.580  1.00  0.00    -0.008 A 
HETATM   10  C8  UNL     1      29.741  16.139  -1.752  1.00  0.00    -0.028 A 
HETATM   11  C9  UNL     1      30.447  15.823  -2.852  1.00  0.00     0.049 A 
HETATM   12  C10 UNL     1      28.289  16.383  -1.415  1.00  0.00     0.041 C 
HETATM   13  C11 UNL     1      27.963  15.327  -0.350  1.00  0.00     0.005 C 
HETATM   14  C12 UNL     1      28.579  15.821   0.938  1.00  0.00     0.005 C 
HETATM   15  C13 UNL     1      29.790  16.684   0.705  1.00  0.00     0.047 C 
ENDROOT
BRANCH   1  16
HETATM   16  N1  UNL     1      28.639  15.515  -4.558  1.00  0.00    -0.364 N 
HETATM   17  C3  UNL     1      28.085  14.204  -4.345  1.00  0.00     0.127 C 
HETATM   18  C2  UNL     1      26.584  14.170  -4.388  1.00  0.00     0.059 C 
HETATM   19  C1  UNL     1      25.991  14.205  -5.746  1.00  0.00     0.195 C 
HETATM   20  F1  UNL     1      24.809  14.937  -5.694  1.00  0.00    -0.247 F 
HETATM   21  C16 UNL     1      26.841  14.792  -6.816  1.00  0.00     0.204 C 
HETATM   22  O1  UNL     1      26.805  16.186  -6.834  1.00  0.00    -0.387 OA
HETATM   23  C15 UNL     1      28.059  16.744  -6.601  1.00  0.00     0.187 C 
HETATM   24  C14 UNL     1      28.215  16.783  -5.074  1.00  0.00     0.150 C 
ENDBRANCH   1  16
TORSDOF 1
ENDMDL
MODEL 5
REMARK VINA RESULT: -6.464417486      3.382      5.332
REMARK  1 active torsions:
REMARK  status: ('A' for Active; 'I' for Inactive)
REMARK    1  A    between atoms: N1_5  and  C4_6 
ROOT
HETATM    1  C4  UNL     1      30.079  16.740   1.202  1.00  0.00     0.118 A 
HETATM    2  N2  UNL     1      29.885  17.786   2.012  1.00  0.00    -0.338 N 
ATOM      3  H2  UNL     1      29.022  17.825   2.554  1.00  0.00     0.168 HD
HETATM    4  C5  UNL     1      30.755  18.773   2.147  1.00  0.00     0.182 A 
HETATM    5  N3  UNL     1      31.895  18.715   1.427  1.00  0.00    -0.346 N 
ATOM      6  H3  UNL     1      32.588  19.458   1.505  1.00  0.00     0.167 HD
HETATM    7  C6  UNL     1      32.115  17.657   0.595  1.00  0.00     0.089 A 
HETATM    8  S1  UNL     1      33.422  17.261  -0.436  1.00  0.00    -0.075 SA
HETATM    9  C7  UNL     1      32.845  15.800  -1.051  1.00  0.00    -0.008 A 
HETATM   10  C8  UNL     1      31.604  15.640  -0.422  1.00  0.00    -0.028 A 
HETATM   11  C9  UNL     1      31.239  16.615   0.428  1.00  0.00     0.049 A 
HETATM   12  C10 UNL     1      31.030  14.324  -0.892  1.00  0.00     0.041 C 
HETATM   13  C11 UNL     1      30.877  14.494  -2.409  1.00  0.00     0.005 C 
HETATM   14  C12 UNL     1      32.265  14.355  -2.992  1.00  0.00     0.005 C 
HETATM   15  C13 UNL     1      33.341  14.778  -2.027  1.00  0.00     0.047 C 
ENDROOT
BRANCH   1  16
HETATM   16  N1  UNL     1      28.973  15.841   1.163  1.00  0.00    -0.364 N 
HETATM   17  C3  UNL     1      28.152  16.075   0.004  1.00  0.00     0.127 C 
HETATM   18  C2  UNL     1      27.206  14.950  -0.301  1.00  0.00     0.059 C 
HETATM   19  C1  UNL     1      25.993  14.897   0.552  1.00  0.00     0.195 C 
HETATM   20  F1  UNL     1      25.664  13.563   0.769  1.00  0.00    -0.247 F 
HETATM   21  C16 UNL     1      26.098  15.560   1.879  1.00  0.00     0.204 C 
HETATM   22  O1  UNL     1      26.728  14.764   2.835  1.00  0.00    -0.387 OA
HETATM   23  C15 UNL     1      27.897  15.348   3.313  1.00  0.00     0.187 C 
HETATM   24  C14 UNL     1      28.989  14.971   2.301  1.00  0.00     0.150 C 
ENDBRANCH   1  16
TORSDOF 1
ENDMDL
