MODEL 1
REMARK VINA RESULT: -8.546946716      0.000      0.000
REMARK  2 active torsions:
REMARK  status: ('A' for Active; 'I' for Inactive)
REMARK    1  A    between atoms: C6_9  and  C7_10 
REMARK    2  A    between atoms: C7_10  and  C8_11 
ROOT
HETATM    1  C1  UNL     1      26.749  14.321  -2.462  1.00  0.00     0.025 C 
HETATM    2  C2  UNL     1      27.771  15.150  -1.764  1.00  0.00     0.114 C 
HETATM    3  C3  UNL     1      27.539  15.210  -0.285  1.00  0.00     0.273 C 
HETATM    4  O1  UNL     1      26.515  14.662   0.141  1.00  0.00    -0.264 OA
HETATM    5  O2  UNL     1      28.401  15.841   0.610  1.00  0.00    -0.252 OA
HETATM    6  C4  UNL     1      29.581  16.553   0.376  1.00  0.00     0.224 C 
HETATM    7  C5  UNL     1      30.381  16.393  -0.647  1.00  0.00     0.152 C 
HETATM    8  O3  UNL     1      31.418  17.305  -0.471  1.00  0.00    -0.315 OA
HETATM    9  C6  UNL     1      31.124  18.183   0.588  1.00  0.00     0.275 C 
HETATM   10  O4  UNL     1      30.050  17.550   1.242  1.00  0.00    -0.296 OA
HETATM   11  C13 UNL     1      30.389  15.508  -1.846  1.00  0.00     0.180 C 
HETATM   12  F1  UNL     1      30.514  16.362  -2.945  1.00  0.00    -0.230 F 
HETATM   13  C14 UNL     1      31.645  14.672  -1.811  1.00  0.00     0.056 C 
HETATM   14  C15 UNL     1      31.514  13.650  -2.938  1.00  0.00     0.008 C 
HETATM   15  C16 UNL     1      30.463  12.681  -2.505  1.00  0.00     0.027 C 
HETATM   16  C17 UNL     1      29.193  13.411  -2.256  1.00  0.00    -0.019 C 
HETATM   17  C18 UNL     1      29.163  14.689  -1.957  1.00  0.00    -0.024 C 
ENDROOT
BRANCH   9  18
HETATM   18  C7  UNL     1      32.308  18.208   1.542  1.00  0.00     0.066 C 
BRANCH  18  19
HETATM   19  C8  UNL     1      32.402  19.516   2.277  1.00  0.00    -0.010 C 
HETATM   20  C9  UNL     1      31.530  19.424   3.505  1.00  0.00     0.005 C 
HETATM   21  C10 UNL     1      32.499  19.511   4.679  1.00  0.00     0.000 C 
HETATM   22  C11 UNL     1      33.577  20.418   4.100  1.00  0.00     0.000 C 
HETATM   23  C12 UNL     1      33.808  19.774   2.749  1.00  0.00     0.005 C 
ENDBRANCH  18  19
ENDBRANCH   9  18
TORSDOF 2
ENDMDL
MODEL 2
REMARK VINA RESULT: -8.436726845      1.970      3.322
REMARK  2 active torsions:
REMARK  status: ('A' for Active; 'I' for Inactive)
REMARK    1  A    between atoms: C6_9  and  C7_10 
REMARK    2  A    between atoms: C7_10  and  C8_11 
ROOT
HETATM    1  C1  UNL     1      30.397  13.022  -3.331  1.00  0.00     0.025 C 
HETATM    2  C2  UNL     1      30.957  14.056  -2.415  1.00  0.00     0.114 C 
HETATM    3  C3  UNL     1      31.646  15.158  -3.158  1.00  0.00     0.273 C 
HETATM    4  O1  UNL     1      31.741  15.029  -4.385  1.00  0.00    -0.264 OA
HETATM    5  O2  UNL     1      32.174  16.294  -2.546  1.00  0.00    -0.252 OA
HETATM    6  C4  UNL     1      32.228  16.647  -1.195  1.00  0.00     0.224 C 
HETATM    7  C5  UNL     1      31.402  16.242  -0.265  1.00  0.00     0.152 C 
HETATM    8  O3  UNL     1      31.832  16.837   0.917  1.00  0.00    -0.315 OA
HETATM    9  C6  UNL     1      33.080  17.460   0.727  1.00  0.00     0.275 C 
HETATM   10  O4  UNL     1      33.208  17.504  -0.673  1.00  0.00    -0.296 OA
HETATM   11  C13 UNL     1      30.208  15.351  -0.236  1.00  0.00     0.180 C 
HETATM   12  F1  UNL     1      30.472  14.398   0.752  1.00  0.00    -0.230 F 
HETATM   13  C14 UNL     1      29.027  16.154   0.251  1.00  0.00     0.056 C 
HETATM   14  C15 UNL     1      27.799  15.265   0.076  1.00  0.00     0.008 C 
HETATM   15  C16 UNL     1      27.551  15.177  -1.395  1.00  0.00     0.027 C 
HETATM   16  C17 UNL     1      28.754  14.616  -2.063  1.00  0.00    -0.019 C 
HETATM   17  C18 UNL     1      29.954  14.697  -1.537  1.00  0.00    -0.024 C 
ENDROOT
BRANCH   9  18
HETATM   18  C7  UNL     1      32.993  18.888   1.239  1.00  0.00     0.066 C 
BRANCH  18  19
HETATM   19  C8  UNL     1      32.816  18.936   2.731  1.00  0.00    -0.010 C 
HETATM   20  C9  UNL     1      33.661  20.067   3.265  1.00  0.00     0.005 C 
HETATM   21  C10 UNL     1      32.658  21.068   3.830  1.00  0.00     0.000 C 
HETATM   22  C11 UNL     1      31.552  20.135   4.306  1.00  0.00     0.000 C 
HETATM   23  C12 UNL     1      31.388  19.235   3.101  1.00  0.00     0.005 C 
ENDBRANCH  18  19
ENDBRANCH   9  18
TORSDOF 2
ENDMDL
MODEL 3
REMARK VINA RESULT: -8.299269782      2.901      4.491
REMARK  2 active torsions:
REMARK  status: ('A' for Active; 'I' for Inactive)
REMARK    1  A    between atoms: C6_9  and  C7_10 
REMARK    2  A    between atoms: C7_10  and  C8_11 
ROOT
HETATM    1  C1  UNL     1      30.072  14.914  -7.129  1.00  0.00     0.025 C 
HETATM    2  C2  UNL     1      30.267  14.954  -5.652  1.00  0.00     0.114 C 
HETATM    3  C3  UNL     1      31.641  15.413  -5.274  1.00  0.00     0.273 C 
HETATM    4  O1  UNL     1      32.439  15.605  -6.199  1.00  0.00    -0.264 OA
HETATM    5  O2  UNL     1      32.052  15.627  -3.959  1.00  0.00    -0.252 OA
HETATM    6  C4  UNL     1      31.362  15.446  -2.757  1.00  0.00     0.224 C 
HETATM    7  C5  UNL     1      30.062  15.492  -2.607  1.00  0.00     0.152 C 
HETATM    8  O3  UNL     1      29.823  15.257  -1.256  1.00  0.00    -0.315 OA
HETATM    9  C6  UNL     1      31.007  14.855  -0.611  1.00  0.00     0.275 C 
HETATM   10  O4  UNL     1      32.010  15.187  -1.541  1.00  0.00    -0.296 OA
HETATM   11  C13 UNL     1      28.907  15.723  -3.519  1.00  0.00     0.180 C 
HETATM   12  F1  UNL     1      28.053  14.632  -3.331  1.00  0.00    -0.230 F 
HETATM   13  C14 UNL     1      28.157  16.940  -3.036  1.00  0.00     0.056 C 
HETATM   14  C15 UNL     1      27.111  17.254  -4.104  1.00  0.00     0.008 C 
HETATM   15  C16 UNL     1      27.862  17.778  -5.284  1.00  0.00     0.027 C 
HETATM   16  C17 UNL     1      28.842  16.758  -5.737  1.00  0.00    -0.019 C 
HETATM   17  C18 UNL     1      29.313  15.830  -4.937  1.00  0.00    -0.024 C 
ENDROOT
BRANCH   9  18
HETATM   18  C7  UNL     1      31.205  15.719   0.624  1.00  0.00     0.066 C 
BRANCH  18  19
HETATM   19  C8  UNL     1      31.450  17.157   0.264  1.00  0.00    -0.010 C 
HETATM   20  C9  UNL     1      30.328  17.981   0.847  1.00  0.00     0.005 C 
HETATM   21  C10 UNL     1      30.999  18.870   1.889  1.00  0.00     0.000 C 
HETATM   22  C11 UNL     1      32.369  19.078   1.256  1.00  0.00     0.000 C 
HETATM   23  C12 UNL     1      32.733  17.660   0.872  1.00  0.00     0.005 C 
ENDBRANCH  18  19
ENDBRANCH   9  18
TORSDOF 2
ENDMDL
MODEL 4
REMARK VINA RESULT: -8.011524224      1.937      3.513
REMARK  2 active torsions:
REMARK  status: ('A' for Active; 'I' for Inactive)
REMARK    1  A    between atoms: C6_9  and  C7_10 
REMARK    2  A    between atoms: C7_10  and  C8_11 
ROOT
HETATM    1  C1  UNL     1      30.471  12.871  -4.641  1.00  0.00     0.025 C 
HETATM    2  C2  UNL     1      30.817  13.837  -3.560  1.00  0.00     0.114 C 
HETATM    3  C3  UNL     1      31.941  14.746  -3.951  1.00  0.00     0.273 C 
HETATM    4  O1  UNL     1      32.481  14.528  -5.043  1.00  0.00    -0.264 OA
HETATM    5  O2  UNL     1      32.397  15.799  -3.160  1.00  0.00    -0.252 OA
HETATM    6  C4  UNL     1      31.986  16.218  -1.891  1.00  0.00     0.224 C 
HETATM    7  C5  UNL     1      30.800  16.030  -1.370  1.00  0.00     0.152 C 
HETATM    8  O3  UNL     1      30.841  16.606  -0.104  1.00  0.00    -0.315 OA
HETATM    9  C6  UNL     1      32.159  16.974   0.225  1.00  0.00     0.275 C 
HETATM   10  O4  UNL     1      32.830  16.909  -1.010  1.00  0.00    -0.296 OA
HETATM   11  C13 UNL     1      29.542  15.378  -1.831  1.00  0.00     0.180 C 
HETATM   12  F1  UNL     1      29.209  14.454  -0.836  1.00  0.00    -0.230 F 
HETATM   13  C14 UNL     1      28.445  16.414  -1.836  1.00  0.00     0.056 C 
HETATM   14  C15 UNL     1      27.236  15.758  -2.498  1.00  0.00     0.008 C 
HETATM   15  C16 UNL     1      27.571  15.628  -3.948  1.00  0.00     0.027 C 
HETATM   16  C17 UNL     1      28.806  14.815  -4.097  1.00  0.00    -0.019 C 
HETATM   17  C18 UNL     1      29.695  14.705  -3.138  1.00  0.00    -0.024 C 
ENDROOT
BRANCH   9  18
HETATM   18  C7  UNL     1      32.158  18.423   0.686  1.00  0.00     0.066 C 
BRANCH  18  19
HETATM   19  C8  UNL     1      32.434  18.538   2.159  1.00  0.00    -0.010 C 
HETATM   20  C9  UNL     1      33.596  19.483   2.343  1.00  0.00     0.005 C 
HETATM   21  C10 UNL     1      33.010  20.680   3.085  1.00  0.00     0.000 C 
HETATM   22  C11 UNL     1      31.934  20.005   3.924  1.00  0.00     0.000 C 
HETATM   23  C12 UNL     1      31.258  19.132   2.889  1.00  0.00     0.005 C 
ENDBRANCH  18  19
ENDBRANCH   9  18
TORSDOF 2
ENDMDL
MODEL 5
REMARK VINA RESULT: -7.942566201      2.447      4.030
REMARK  2 active torsions:
REMARK  status: ('A' for Active; 'I' for Inactive)
REMARK    1  A    between atoms: C6_9  and  C7_10 
REMARK    2  A    between atoms: C7_10  and  C8_11 
ROOT
HETATM    1  C1  UNL     1      29.690  14.474  -6.253  1.00  0.00     0.025 C 
HETATM    2  C2  UNL     1      30.256  14.640  -4.885  1.00  0.00     0.114 C 
HETATM    3  C3  UNL     1      31.543  15.405  -4.892  1.00  0.00     0.273 C 
HETATM    4  O1  UNL     1      32.003  15.711  -6.000  1.00  0.00    -0.264 OA
HETATM    5  O2  UNL     1      32.229  15.779  -3.738  1.00  0.00    -0.252 OA
HETATM    6  C4  UNL     1      31.942  15.523  -2.395  1.00  0.00     0.224 C 
HETATM    7  C5  UNL     1      30.752  15.296  -1.897  1.00  0.00     0.152 C 
HETATM    8  O3  UNL     1      30.939  15.093  -0.533  1.00  0.00    -0.315 OA
HETATM    9  C6  UNL     1      32.311  14.994  -0.235  1.00  0.00     0.275 C 
HETATM   10  O4  UNL     1      32.930  15.480  -1.401  1.00  0.00    -0.296 OA
HETATM   11  C13 UNL     1      29.375  15.220  -2.460  1.00  0.00     0.180 C 
HETATM   12  F1  UNL     1      28.868  13.983  -2.051  1.00  0.00    -0.230 F 
HETATM   13  C14 UNL     1      28.528  16.272  -1.788  1.00  0.00     0.056 C 
HETATM   14  C15 UNL     1      27.194  16.291  -2.531  1.00  0.00     0.008 C 
HETATM   15  C16 UNL     1      27.467  16.896  -3.869  1.00  0.00     0.027 C 
HETATM   16  C17 UNL     1      28.495  16.087  -4.574  1.00  0.00    -0.019 C 
HETATM   17  C18 UNL     1      29.356  15.330  -3.935  1.00  0.00    -0.024 C 
ENDROOT
BRANCH   9  18
HETATM   18  C7  UNL     1      32.631  15.950   0.903  1.00  0.00     0.066 C 
BRANCH  18  19
HETATM   19  C8  UNL     1      32.442  17.384   0.495  1.00  0.00    -0.010 C 
HETATM   20  C9  UNL     1      31.053  17.807   0.907  1.00  0.00     0.005 C 
HETATM   21  C10 UNL     1      31.272  18.882   1.967  1.00  0.00     0.000 C 
HETATM   22  C11 UNL     1      32.568  19.515   1.477  1.00  0.00     0.000 C 
HETATM   23  C12 UNL     1      33.412  18.287   1.211  1.00  0.00     0.005 C 
ENDBRANCH  18  19
ENDBRANCH   9  18
TORSDOF 2
ENDMDL
