MODEL 1
REMARK VINA RESULT: -7.480855059      0.000      0.000
REMARK  1 active torsions:
REMARK  status: ('A' for Active; 'I' for Inactive)
REMARK    1  A    between atoms: C4_5  and  C5_6 
ROOT
HETATM    1  C5  UNL     1      32.880  15.384  -1.475  1.00  0.00     0.383 C 
HETATM    2  O1  UNL     1      32.545  16.666  -1.803  1.00  0.00    -0.195 OA
HETATM    3  O2  UNL     1      32.526  17.529  -0.879  1.00  0.00    -0.195 OA
HETATM    4  C6  UNL     1      32.381  17.137   0.406  1.00  0.00     0.229 C 
HETATM    5  C7  UNL     1      33.434  17.796   1.251  1.00  0.00     0.074 C 
HETATM    6  C8  UNL     1      33.124  19.206   1.633  1.00  0.00     0.006 C 
HETATM    7  C9  UNL     1      31.767  19.220   2.331  1.00  0.00     0.000 C 
HETATM    8  C10 UNL     1      30.767  18.884   1.215  1.00  0.00     0.006 C 
HETATM    9  C11 UNL     1      30.976  17.449   0.866  1.00  0.00     0.074 C 
HETATM   10  O3  UNL     1      32.553  15.757   0.615  1.00  0.00    -0.195 OA
HETATM   11  O4  UNL     1      32.083  15.037  -0.358  1.00  0.00    -0.195 OA
ENDROOT
BRANCH   1  12
HETATM   12  C4  UNL     1      32.718  14.457  -2.590  1.00  0.00     0.070 A 
HETATM   13  C3  UNL     1      31.582  13.748  -2.830  1.00  0.00     0.032 A 
HETATM   14  C2  UNL     1      31.475  12.883  -3.895  1.00  0.00     0.022 A 
HETATM   15  C1  UNL     1      32.569  12.736  -4.750  1.00  0.00     0.026 A 
HETATM   16 BR1  UNL     1      32.531  11.570  -6.252  1.00  0.00    -0.050 Br
HETATM   17  C12 UNL     1      33.698  13.452  -4.498  1.00  0.00     0.107 A 
HETATM   18  N1  UNL     1      33.754  14.275  -3.455  1.00  0.00    -0.364 N 
ATOM     19  H1  UNL     1      34.615  14.796  -3.294  1.00  0.00     0.165 HD
ENDBRANCH   1  12
TORSDOF 1
ENDMDL
MODEL 2
REMARK VINA RESULT: -7.267684402      3.635      6.791
REMARK  1 active torsions:
REMARK  status: ('A' for Active; 'I' for Inactive)
REMARK    1  A    between atoms: C4_5  and  C5_6 
ROOT
HETATM    1  C5  UNL     1      31.788  16.695  -0.934  1.00  0.00     0.383 C 
HETATM    2  O1  UNL     1      32.378  15.480  -0.740  1.00  0.00    -0.195 OA
HETATM    3  O2  UNL     1      32.227  14.598  -1.633  1.00  0.00    -0.195 OA
HETATM    4  C6  UNL     1      31.179  14.674  -2.484  1.00  0.00     0.229 C 
HETATM    5  C7  UNL     1      31.671  14.511  -3.895  1.00  0.00     0.074 C 
HETATM    6  C8  UNL     1      31.915  13.094  -4.302  1.00  0.00     0.006 C 
HETATM    7  C9  UNL     1      30.628  12.306  -4.070  1.00  0.00     0.000 C 
HETATM    8  C10 UNL     1      30.488  12.259  -2.542  1.00  0.00     0.006 C 
HETATM    9  C11 UNL     1      30.147  13.642  -2.096  1.00  0.00     0.074 C 
HETATM   10  O3  UNL     1      30.508  15.910  -2.470  1.00  0.00    -0.195 OA
HETATM   11  O4  UNL     1      30.442  16.433  -1.283  1.00  0.00    -0.195 OA
ENDROOT
BRANCH   1  12
HETATM   12  C4  UNL     1      31.906  17.570   0.228  1.00  0.00     0.070 A 
HETATM   13  C3  UNL     1      30.847  18.003   0.965  1.00  0.00     0.032 A 
HETATM   14  C2  UNL     1      31.006  18.829   2.054  1.00  0.00     0.022 A 
HETATM   15  C1  UNL     1      32.296  19.229   2.407  1.00  0.00     0.026 A 
HETATM   16 BR1  UNL     1      32.633  20.368   3.892  1.00  0.00    -0.050 Br
HETATM   17  C12 UNL     1      33.346  18.788   1.661  1.00  0.00     0.107 A 
HETATM   18  N1  UNL     1      33.141  17.991   0.616  1.00  0.00    -0.364 N 
ATOM     19  H1  UNL     1      33.950  17.679   0.079  1.00  0.00     0.165 HD
ENDBRANCH   1  12
TORSDOF 1
ENDMDL
MODEL 3
REMARK VINA RESULT: -7.053866095      3.696      6.847
REMARK  1 active torsions:
REMARK  status: ('A' for Active; 'I' for Inactive)
REMARK    1  A    between atoms: C4_5  and  C5_6 
ROOT
HETATM    1  C5  UNL     1      31.998  16.721  -1.004  1.00  0.00     0.383 C 
HETATM    2  O1  UNL     1      32.585  15.498  -0.858  1.00  0.00    -0.195 OA
HETATM    3  O2  UNL     1      32.358  14.623  -1.741  1.00  0.00    -0.195 OA
HETATM    4  C6  UNL     1      31.253  14.716  -2.515  1.00  0.00     0.229 C 
HETATM    5  C7  UNL     1      31.639  14.554  -3.959  1.00  0.00     0.074 C 
HETATM    6  C8  UNL     1      31.836  13.137  -4.388  1.00  0.00     0.006 C 
HETATM    7  C9  UNL     1      30.559  12.364  -4.067  1.00  0.00     0.000 C 
HETATM    8  C10 UNL     1      30.529  12.311  -2.533  1.00  0.00     0.006 C 
HETATM    9  C11 UNL     1      30.239  13.695  -2.058  1.00  0.00     0.074 C 
HETATM   10  O3  UNL     1      30.601  15.960  -2.447  1.00  0.00    -0.195 OA
HETATM   11  O4  UNL     1      30.627  16.478  -1.256  1.00  0.00    -0.195 OA
ENDROOT
BRANCH   1  12
HETATM   12  C4  UNL     1      32.210  17.589   0.150  1.00  0.00     0.070 A 
HETATM   13  C3  UNL     1      33.430  18.042   0.548  1.00  0.00     0.032 A 
HETATM   14  C2  UNL     1      33.582  18.859   1.645  1.00  0.00     0.022 A 
HETATM   15  C1  UNL     1      32.444  19.232   2.364  1.00  0.00     0.026 A 
HETATM   16 BR1  UNL     1      32.537  20.358   3.893  1.00  0.00    -0.050 Br
HETATM   17  C12 UNL     1      31.231  18.773   1.954  1.00  0.00     0.107 A 
HETATM   18  N1  UNL     1      31.135  17.983   0.887  1.00  0.00    -0.364 N 
ATOM     19  H1  UNL     1      30.211  17.657   0.608  1.00  0.00     0.165 HD
ENDBRANCH   1  12
TORSDOF 1
ENDMDL
MODEL 4
REMARK VINA RESULT: -7.000969281      3.522      6.775
REMARK  1 active torsions:
REMARK  status: ('A' for Active; 'I' for Inactive)
REMARK    1  A    between atoms: C4_5  and  C5_6 
ROOT
HETATM    1  C5  UNL     1      31.563  16.570  -0.814  1.00  0.00     0.383 C 
HETATM    2  O1  UNL     1      32.345  16.864  -1.892  1.00  0.00    -0.195 OA
HETATM    3  O2  UNL     1      32.335  16.061  -2.869  1.00  0.00    -0.195 OA
HETATM    4  C6  UNL     1      31.958  14.777  -2.681  1.00  0.00     0.229 C 
HETATM    5  C7  UNL     1      30.941  14.398  -3.720  1.00  0.00     0.074 C 
HETATM    6  C8  UNL     1      31.523  14.046  -5.051  1.00  0.00     0.006 C 
HETATM    7  C9  UNL     1      32.542  12.929  -4.842  1.00  0.00     0.000 C 
HETATM    8  C10 UNL     1      33.688  13.606  -4.077  1.00  0.00     0.006 C 
HETATM    9  C11 UNL     1      33.182  13.891  -2.703  1.00  0.00     0.074 C 
HETATM   10  O3  UNL     1      31.331  14.531  -1.446  1.00  0.00    -0.195 OA
HETATM   11  O4  UNL     1      31.841  15.224  -0.475  1.00  0.00    -0.195 OA
ENDROOT
BRANCH   1  12
HETATM   12  C4  UNL     1      31.776  17.485   0.303  1.00  0.00     0.070 A 
HETATM   13  C3  UNL     1      30.777  17.982   1.081  1.00  0.00     0.032 A 
HETATM   14  C2  UNL     1      31.025  18.843   2.125  1.00  0.00     0.022 A 
HETATM   15  C1  UNL     1      32.346  19.212   2.388  1.00  0.00     0.026 A 
HETATM   16 BR1  UNL     1      32.805  20.395   3.804  1.00  0.00    -0.050 Br
HETATM   17  C12 UNL     1      33.336  18.707   1.602  1.00  0.00     0.107 A 
HETATM   18  N1  UNL     1      33.045  17.878   0.603  1.00  0.00    -0.364 N 
ATOM     19  H1  UNL     1      33.810  17.518   0.034  1.00  0.00     0.165 HD
ENDBRANCH   1  12
TORSDOF 1
ENDMDL
MODEL 5
REMARK VINA RESULT: -6.923945467      4.021      7.010
REMARK  1 active torsions:
REMARK  status: ('A' for Active; 'I' for Inactive)
REMARK    1  A    between atoms: C4_5  and  C5_6 
ROOT
HETATM    1  C5  UNL     1      30.407  16.778  -0.408  1.00  0.00     0.383 C 
HETATM    2  O1  UNL     1      31.196  16.447  -1.471  1.00  0.00    -0.195 OA
HETATM    3  O2  UNL     1      30.749  15.606  -2.302  1.00  0.00    -0.195 OA
HETATM    4  C6  UNL     1      29.778  14.742  -1.931  1.00  0.00     0.229 C 
HETATM    5  C7  UNL     1      28.678  14.758  -2.955  1.00  0.00     0.074 C 
HETATM    6  C8  UNL     1      28.958  13.939  -4.172  1.00  0.00     0.006 C 
HETATM    7  C9  UNL     1      29.274  12.515  -3.723  1.00  0.00     0.000 C 
HETATM    8  C10 UNL     1      30.629  12.639  -3.010  1.00  0.00     0.006 C 
HETATM    9  C11 UNL     1      30.380  13.371  -1.734  1.00  0.00     0.074 C 
HETATM   10  O3  UNL     1      29.151  15.062  -0.713  1.00  0.00    -0.195 OA
HETATM   11  O4  UNL     1      29.973  15.557   0.162  1.00  0.00    -0.195 OA
ENDROOT
BRANCH   1  12
HETATM   12  C4  UNL     1      31.090  17.635   0.556  1.00  0.00     0.070 A 
HETATM   13  C3  UNL     1      32.400  17.991   0.463  1.00  0.00     0.032 A 
HETATM   14  C2  UNL     1      33.002  18.802   1.397  1.00  0.00     0.022 A 
HETATM   15  C1  UNL     1      32.239  19.270   2.468  1.00  0.00     0.026 A 
HETATM   16 BR1  UNL     1      32.967  20.397   3.816  1.00  0.00    -0.050 Br
HETATM   17  C12 UNL     1      30.930  18.907   2.548  1.00  0.00     0.107 A 
HETATM   18  N1  UNL     1      30.393  18.119   1.620  1.00  0.00    -0.364 N 
ATOM     19  H1  UNL     1      29.409  17.866   1.710  1.00  0.00     0.165 HD
ENDBRANCH   1  12
TORSDOF 1
ENDMDL
