MODEL 1
REMARK VINA RESULT: -6.773415750      0.000      0.000
REMARK  1 active torsions:
REMARK  status: ('A' for Active; 'I' for Inactive)
REMARK    1  A    between atoms: O1_2  and  C2_3 
ROOT
HETATM    1  C2  UNL     1      32.100  18.261   0.954  1.00  0.00     0.042 C 
HETATM    2  C3  UNL     1      33.012  17.490   0.409  1.00  0.00     0.008 C 
HETATM    3  C4  UNL     1      32.622  16.085   0.081  1.00  0.00     0.071 C 
HETATM    4  C5  UNL     1      31.292  16.032  -0.637  1.00  0.00     0.100 C 
HETATM    5  C6  UNL     1      30.350  17.060  -0.125  1.00  0.00     0.048 C 
HETATM    6  C7  UNL     1      30.772  17.672   1.195  1.00  0.00     0.067 C 
HETATM    7  C8  UNL     1      30.762  14.627  -0.461  1.00  0.00     0.044 C 
HETATM    8  C9  UNL     1      29.553  14.336  -1.278  1.00  0.00     0.047 C 
HETATM    9  C10 UNL     1      29.844  13.933  -2.694  1.00  0.00     0.124 C 
HETATM   10  C11 UNL     1      28.503  13.800  -3.415  1.00  0.00     0.052 C 
HETATM   11  O2  UNL     1      30.442  12.645  -2.740  1.00  0.00    -0.322 OA
HETATM   12  C12 UNL     1      30.907  12.185  -3.977  1.00  0.00     0.162 C 
HETATM   13 CL1  UNL     1      31.137  10.500  -4.339  1.00  0.00    -0.055 Cl
HETATM   14  C13 UNL     1      31.194  13.061  -4.943  1.00  0.00     0.188 C 
HETATM   15  O3  UNL     1      31.023  14.409  -4.693  1.00  0.00    -0.317 OA
HETATM   16  C14 UNL     1      30.670  14.934  -3.438  1.00  0.00     0.229 C 
HETATM   17  C15 UNL     1      29.874  16.210  -3.627  1.00  0.00     0.085 C 
HETATM   18  O4  UNL     1      31.821  15.189  -2.658  1.00  0.00    -0.197 OA
HETATM   19  O5  UNL     1      31.587  16.277  -1.996  1.00  0.00    -0.226 OA
ENDROOT
BRANCH   1  20
HETATM   20  O1  UNL     1      32.334  19.564   1.299  1.00  0.00    -0.361 OA
HETATM   21  C1  UNL     1      33.012  19.960   2.473  1.00  0.00     0.209 C 
ENDBRANCH   1  20
TORSDOF 1
ENDMDL
MODEL 2
REMARK VINA RESULT: -6.761689943      2.537      3.752
REMARK  1 active torsions:
REMARK  status: ('A' for Active; 'I' for Inactive)
REMARK    1  A    between atoms: O1_2  and  C2_3 
ROOT
HETATM    1  C2  UNL     1      33.595  19.283   2.127  1.00  0.00     0.042 C 
HETATM    2  C3  UNL     1      32.425  19.760   1.768  1.00  0.00     0.008 C 
HETATM    3  C4  UNL     1      31.855  19.282   0.471  1.00  0.00     0.071 C 
HETATM    4  C5  UNL     1      31.948  17.778   0.345  1.00  0.00     0.100 C 
HETATM    5  C6  UNL     1      33.200  17.253   0.947  1.00  0.00     0.048 C 
HETATM    6  C7  UNL     1      34.241  18.319   1.220  1.00  0.00     0.067 C 
HETATM    7  C8  UNL     1      31.842  17.462  -1.130  1.00  0.00     0.044 C 
HETATM    8  C9  UNL     1      31.710  16.009  -1.423  1.00  0.00     0.047 C 
HETATM    9  C10 UNL     1      30.309  15.480  -1.318  1.00  0.00     0.124 C 
HETATM   10  C11 UNL     1      30.377  13.967  -1.521  1.00  0.00     0.052 C 
HETATM   11  O2  UNL     1      29.500  15.980  -2.374  1.00  0.00    -0.322 OA
HETATM   12  C12 UNL     1      28.131  15.695  -2.338  1.00  0.00     0.162 C 
HETATM   13 CL1  UNL     1      27.117  15.722  -3.750  1.00  0.00    -0.055 Cl
HETATM   14  C13 UNL     1      27.551  15.385  -1.176  1.00  0.00     0.188 C 
HETATM   15  O3  UNL     1      28.324  15.353  -0.032  1.00  0.00    -0.317 OA
HETATM   16  C14 UNL     1      29.675  15.738   0.011  1.00  0.00     0.229 C 
HETATM   17  C15 UNL     1      30.396  14.945   1.082  1.00  0.00     0.085 C 
HETATM   18  O4  UNL     1      29.794  17.124   0.269  1.00  0.00    -0.197 OA
HETATM   19  O5  UNL     1      30.827  17.271   1.036  1.00  0.00    -0.226 OA
ENDROOT
BRANCH   1  20
HETATM   20  O1  UNL     1      34.221  19.642   3.289  1.00  0.00    -0.361 OA
HETATM   21  C1  UNL     1      33.586  20.326   4.350  1.00  0.00     0.209 C 
ENDBRANCH   1  20
TORSDOF 1
ENDMDL
MODEL 3
REMARK VINA RESULT: -6.690426608      1.224      1.328
REMARK  1 active torsions:
REMARK  status: ('A' for Active; 'I' for Inactive)
REMARK    1  A    between atoms: O1_2  and  C2_3 
ROOT
HETATM    1  C2  UNL     1      30.757  17.594   0.892  1.00  0.00     0.042 C 
HETATM    2  C3  UNL     1      31.898  17.265   0.333  1.00  0.00     0.008 C 
HETATM    3  C4  UNL     1      32.000  15.906  -0.281  1.00  0.00     0.071 C 
HETATM    4  C5  UNL     1      30.801  15.600  -1.150  1.00  0.00     0.100 C 
HETATM    5  C6  UNL     1      29.551  16.165  -0.582  1.00  0.00     0.048 C 
HETATM    6  C7  UNL     1      29.677  16.593   0.865  1.00  0.00     0.067 C 
HETATM    7  C8  UNL     1      30.741  14.095  -1.288  1.00  0.00     0.044 C 
HETATM    8  C9  UNL     1      29.739  13.623  -2.282  1.00  0.00     0.047 C 
HETATM    9  C10 UNL     1      30.226  13.627  -3.702  1.00  0.00     0.124 C 
HETATM   10  C11 UNL     1      29.043  13.242  -4.590  1.00  0.00     0.052 C 
HETATM   11  O2  UNL     1      31.208  12.619  -3.902  1.00  0.00    -0.322 OA
HETATM   12  C12 UNL     1      31.866  12.585  -5.136  1.00  0.00     0.162 C 
HETATM   13 CL1  UNL     1      32.646  11.161  -5.758  1.00  0.00    -0.055 Cl
HETATM   14  C13 UNL     1      31.911  13.685  -5.891  1.00  0.00     0.188 C 
HETATM   15  O3  UNL     1      31.303  14.836  -5.431  1.00  0.00    -0.317 OA
HETATM   16  C14 UNL     1      30.727  14.961  -4.155  1.00  0.00     0.229 C 
HETATM   17  C15 UNL     1      29.576  15.945  -4.210  1.00  0.00     0.085 C 
HETATM   18  O4  UNL     1      31.689  15.389  -3.210  1.00  0.00    -0.197 OA
HETATM   19  O5  UNL     1      31.080  16.195  -2.400  1.00  0.00    -0.226 OA
ENDROOT
BRANCH   1  20
HETATM   20  O1  UNL     1      30.539  18.807   1.486  1.00  0.00    -0.361 OA
HETATM   21  C1  UNL     1      30.955  19.130   2.797  1.00  0.00     0.209 C 
ENDBRANCH   1  20
TORSDOF 1
ENDMDL
MODEL 4
REMARK VINA RESULT: -6.498321690      2.203      2.695
REMARK  1 active torsions:
REMARK  status: ('A' for Active; 'I' for Inactive)
REMARK    1  A    between atoms: O1_2  and  C2_3 
ROOT
HETATM    1  C2  UNL     1      32.491  16.468   0.189  1.00  0.00     0.042 C 
HETATM    2  C3  UNL     1      32.762  16.647  -1.084  1.00  0.00     0.008 C 
HETATM    3  C4  UNL     1      32.232  15.637  -2.050  1.00  0.00     0.071 C 
HETATM    4  C5  UNL     1      30.774  15.333  -1.790  1.00  0.00     0.100 C 
HETATM    5  C6  UNL     1      30.462  15.338  -0.338  1.00  0.00     0.048 C 
HETATM    6  C7  UNL     1      31.688  15.287   0.550  1.00  0.00     0.067 C 
HETATM    7  C8  UNL     1      30.491  13.994  -2.433  1.00  0.00     0.044 C 
HETATM    8  C9  UNL     1      29.048  13.631  -2.451  1.00  0.00     0.047 C 
HETATM    9  C10 UNL     1      28.273  14.223  -3.593  1.00  0.00     0.124 C 
HETATM   10  C11 UNL     1      26.804  13.857  -3.385  1.00  0.00     0.052 C 
HETATM   11  O2  UNL     1      28.654  13.625  -4.825  1.00  0.00    -0.322 OA
HETATM   12  C12 UNL     1      28.128  14.167  -6.003  1.00  0.00     0.162 C 
HETATM   13 CL1  UNL     1      28.018  13.277  -7.492  1.00  0.00    -0.055 Cl
HETATM   14  C13 UNL     1      27.681  15.425  -6.009  1.00  0.00     0.188 C 
HETATM   15  O3  UNL     1      27.752  16.164  -4.845  1.00  0.00    -0.317 OA
HETATM   16  C14 UNL     1      28.371  15.713  -3.667  1.00  0.00     0.229 C 
HETATM   17  C15 UNL     1      27.686  16.329  -2.464  1.00  0.00     0.085 C 
HETATM   18  O4  UNL     1      29.747  16.042  -3.665  1.00  0.00    -0.197 OA
HETATM   19  O5  UNL     1      30.052  16.353  -2.445  1.00  0.00    -0.226 OA
ENDROOT
BRANCH   1  20
HETATM   20  O1  UNL     1      32.918  17.321   1.169  1.00  0.00    -0.361 OA
HETATM   21  C1  UNL     1      33.760  18.432   0.938  1.00  0.00     0.209 C 
ENDBRANCH   1  20
TORSDOF 1
ENDMDL
MODEL 5
REMARK VINA RESULT: -6.397752341      2.784      6.434
REMARK  1 active torsions:
REMARK  status: ('A' for Active; 'I' for Inactive)
REMARK    1  A    between atoms: O1_2  and  C2_3 
ROOT
HETATM    1  C2  UNL     1      31.114  13.781  -6.342  1.00  0.00     0.042 C 
HETATM    2  C3  UNL     1      31.078  15.085  -6.190  1.00  0.00     0.008 C 
HETATM    3  C4  UNL     1      30.456  15.616  -4.938  1.00  0.00     0.071 C 
HETATM    4  C5  UNL     1      30.966  14.888  -3.714  1.00  0.00     0.100 C 
HETATM    5  C6  UNL     1      31.188  13.445  -3.986  1.00  0.00     0.048 C 
HETATM    6  C7  UNL     1      30.539  12.957  -5.265  1.00  0.00     0.067 C 
HETATM    7  C8  UNL     1      29.948  15.118  -2.621  1.00  0.00     0.044 C 
HETATM    8  C9  UNL     1      30.389  14.642  -1.281  1.00  0.00     0.047 C 
HETATM    9  C10 UNL     1      31.254  15.613  -0.532  1.00  0.00     0.124 C 
HETATM   10  C11 UNL     1      31.716  14.919   0.749  1.00  0.00     0.052 C 
HETATM   11  O2  UNL     1      30.500  16.743  -0.114  1.00  0.00    -0.322 OA
HETATM   12  C12 UNL     1      31.192  17.808   0.473  1.00  0.00     0.162 C 
HETATM   13 CL1  UNL     1      30.434  18.974   1.517  1.00  0.00    -0.055 Cl
HETATM   14  C13 UNL     1      32.497  17.959   0.236  1.00  0.00     0.188 C 
HETATM   15  O3  UNL     1      33.135  17.053  -0.588  1.00  0.00    -0.317 OA
HETATM   16  C14 UNL     1      32.471  16.033  -1.293  1.00  0.00     0.229 C 
HETATM   17  C15 UNL     1      33.399  14.847  -1.465  1.00  0.00     0.085 C 
HETATM   18  O4  UNL     1      32.036  16.497  -2.556  1.00  0.00    -0.197 OA
HETATM   19  O5  UNL     1      32.188  15.514  -3.385  1.00  0.00    -0.226 OA
ENDROOT
BRANCH   1  20
HETATM   20  O1  UNL     1      31.655  13.174  -7.441  1.00  0.00    -0.361 OA
HETATM   21  C1  UNL     1      33.044  13.047  -7.670  1.00  0.00     0.209 C 
ENDBRANCH   1  20
TORSDOF 1
ENDMDL
