MODEL 1
REMARK VINA RESULT: -9.717729852      0.000      0.000
REMARK  9 active torsions:
REMARK  status: ('A' for Active; 'I' for Inactive)
REMARK    1  A    between atoms: C4_5  and  C5_6 
REMARK    2  A    between atoms: C6_8  and  C7_9 
REMARK    3  A    between atoms: C12_18  and  C13_19 
REMARK    4  A    between atoms: C13_19  and  N3_20 
REMARK    5  A    between atoms: N3_20  and  C14_22 
REMARK    6  A    between atoms: N5_32  and  O1_34 
REMARK    7  A    between atoms: O1_34  and  C22_35 
REMARK    8  A    between atoms: C22_35  and  C23_36 
REMARK    9  A    between atoms: C23_36  and  N6_37 
ROOT
HETATM    1  N3  UNL     1      21.338  -2.891  10.938  1.00  0.00    -0.407 N 
ATOM      2  H3  UNL     1      20.477  -3.424  11.058  1.00  0.00     0.154 HD
ENDROOT
BRANCH   1   3
HETATM    3  C13 UNL     1      21.620  -2.668   9.605  1.00  0.00     0.173 C 
BRANCH   3   4
HETATM    4  C12 UNL     1      22.154  -3.934   8.838  1.00  0.00     0.045 A 
HETATM    5  C5  UNL     1      23.495  -4.095   8.536  1.00  0.00     0.041 A 
HETATM    6  S1  UNL     1      23.392  -5.199   7.267  1.00  0.00    -0.069 SA
HETATM    7  C6  UNL     1      21.696  -5.414   7.170  1.00  0.00     0.086 A 
HETATM    8  N2  UNL     1      21.282  -4.608   8.143  1.00  0.00    -0.351 N 
ATOM      9  H2  UNL     1      20.287  -4.519   8.345  1.00  0.00     0.166 HD
BRANCH   5  10
HETATM   10  C4  UNL     1      24.637  -3.408   9.148  1.00  0.00    -0.017 A 
HETATM   11  C3  UNL     1      24.677  -2.092   9.411  1.00  0.00     0.016 A 
HETATM   12  C2  UNL     1      25.755  -1.384   9.933  1.00  0.00     0.043 A 
HETATM   13  C1  UNL     1      26.913  -2.139  10.224  1.00  0.00     0.116 A 
HETATM   14  F1  UNL     1      28.003  -1.523  10.713  1.00  0.00    -0.206 F 
HETATM   15  C30 UNL     1      26.891  -3.488   9.975  1.00  0.00     0.043 A 
HETATM   16  C29 UNL     1      25.856  -4.140   9.450  1.00  0.00     0.016 A 
ENDBRANCH   5  10
BRANCH   7  17
HETATM   17  C7  UNL     1      20.957  -6.276   6.224  1.00  0.00     0.013 A 
HETATM   18  C8  UNL     1      20.332  -7.417   6.650  1.00  0.00     0.017 A 
HETATM   19  C9  UNL     1      19.623  -8.257   5.725  1.00  0.00     0.018 A 
HETATM   20  C10 UNL     1      19.607  -7.886   4.406  1.00  0.00     0.087 A 
HETATM   21  N1  UNL     1      20.253  -6.748   4.009  1.00  0.00    -0.374 N 
HETATM   22  C11 UNL     1      20.900  -5.977   4.910  1.00  0.00     0.101 A 
ATOM     23  H1  UNL     1      20.247  -6.479   3.025  1.00  0.00     0.164 HD
ENDBRANCH   7  17
ENDBRANCH   3   4
ENDBRANCH   1   3
BRANCH   1  24
HETATM   24  C14 UNL     1      21.928  -2.575  12.170  1.00  0.00     0.115 C 
HETATM   25  C15 UNL     1      22.915  -3.731  12.327  1.00  0.00     0.081 C 
HETATM   26  N4  UNL     1      23.441  -3.925  13.609  1.00  0.00    -0.385 N 
HETATM   27  C16 UNL     1      24.163  -2.823  14.208  1.00  0.00     0.075 A 
ATOM     28  H4  UNL     1      23.322  -4.810  14.102  1.00  0.00     0.159 HD
HETATM   29  C17 UNL     1      25.592  -2.616  14.177  1.00  0.00     0.045 A 
HETATM   30  C18 UNL     1      24.803  -1.860  13.185  1.00  0.00     0.032 A 
HETATM   31  C21 UNL     1      23.251  -1.821  14.715  1.00  0.00     0.043 C 
HETATM   32  C19 UNL     1      23.511  -1.096  13.439  1.00  0.00     0.045 C 
HETATM   33  C20 UNL     1      22.569  -1.278  12.310  1.00  0.00     0.041 C 
HETATM   34  N5  UNL     1      22.737  -1.609  15.864  1.00  0.00    -0.272 N 
ATOM     35  H5  UNL     1      22.100  -0.843  16.085  1.00  0.00     0.193 HD
BRANCH  34  36
HETATM   36  O1  UNL     1      23.197  -2.636  16.829  1.00  0.00    -0.279 OA
BRANCH  36  37
HETATM   37  C22 UNL     1      22.158  -3.263  17.508  1.00  0.00     0.231 C 
BRANCH  37  38
HETATM   38  C23 UNL     1      21.807  -2.542  18.812  1.00  0.00     0.301 C 
BRANCH  38  39
HETATM   39  N6  UNL     1      21.793  -3.556  19.893  1.00  0.00     0.090 N 
HETATM   40  C24 UNL     1      23.042  -3.468  20.647  1.00  0.00     0.272 C 
HETATM   41  C25 UNL     1      23.394  -4.791  21.275  1.00  0.00     0.030 C 
HETATM   42  C26 UNL     1      22.139  -5.650  21.500  1.00  0.00     0.003 C 
HETATM   43  C27 UNL     1      21.521  -5.939  20.141  1.00  0.00     0.030 C 
HETATM   44  C28 UNL     1      21.890  -4.847  19.190  1.00  0.00     0.272 C 
ENDBRANCH  38  39
ENDBRANCH  37  38
ENDBRANCH  36  37
ENDBRANCH  34  36
ENDBRANCH   1  24
TORSDOF 9
ENDMDL
MODEL 2
REMARK VINA RESULT: -9.408460397      3.008      9.921
REMARK  9 active torsions:
REMARK  status: ('A' for Active; 'I' for Inactive)
REMARK    1  A    between atoms: C4_5  and  C5_6 
REMARK    2  A    between atoms: C6_8  and  C7_9 
REMARK    3  A    between atoms: C12_18  and  C13_19 
REMARK    4  A    between atoms: C13_19  and  N3_20 
REMARK    5  A    between atoms: N3_20  and  C14_22 
REMARK    6  A    between atoms: N5_32  and  O1_34 
REMARK    7  A    between atoms: O1_34  and  C22_35 
REMARK    8  A    between atoms: C22_35  and  C23_36 
REMARK    9  A    between atoms: C23_36  and  N6_37 
ROOT
HETATM    1  N3  UNL     1      21.613  -0.919  12.340  1.00  0.00    -0.407 N 
ATOM      2  H3  UNL     1      21.034  -0.813  13.173  1.00  0.00     0.154 HD
ENDROOT
BRANCH   1   3
HETATM    3  C13 UNL     1      22.959  -0.835  12.638  1.00  0.00     0.173 C 
BRANCH   3   4
HETATM    4  C12 UNL     1      23.476  -1.960  13.608  1.00  0.00     0.045 A 
HETATM    5  C5  UNL     1      24.087  -3.109  13.136  1.00  0.00     0.041 A 
HETATM    6  S1  UNL     1      23.859  -4.137  14.452  1.00  0.00    -0.069 SA
HETATM    7  C6  UNL     1      23.022  -3.099  15.526  1.00  0.00     0.086 A 
HETATM    8  N2  UNL     1      22.960  -1.984  14.804  1.00  0.00    -0.351 N 
ATOM      9  H2  UNL     1      22.510  -1.153  15.184  1.00  0.00     0.166 HD
BRANCH   5  10
HETATM   10  C4  UNL     1      24.686  -3.324  11.816  1.00  0.00    -0.017 A 
HETATM   11  C3  UNL     1      24.143  -4.083  10.851  1.00  0.00     0.016 A 
HETATM   12  C2  UNL     1      24.698  -4.366   9.608  1.00  0.00     0.043 A 
HETATM   13  C1  UNL     1      25.955  -3.780   9.340  1.00  0.00     0.116 A 
HETATM   14  F1  UNL     1      26.566  -4.022   8.167  1.00  0.00    -0.206 F 
HETATM   15  C30 UNL     1      26.525  -2.991  10.306  1.00  0.00     0.043 A 
HETATM   16  C29 UNL     1      25.986  -2.754  11.500  1.00  0.00     0.016 A 
ENDBRANCH   5  10
BRANCH   7  17
HETATM   17  C7  UNL     1      22.524  -3.425  16.878  1.00  0.00     0.013 A 
HETATM   18  C8  UNL     1      22.316  -2.443  17.809  1.00  0.00     0.017 A 
HETATM   19  C9  UNL     1      21.841  -2.767  19.126  1.00  0.00     0.018 A 
HETATM   20  C10 UNL     1      21.619  -4.086  19.421  1.00  0.00     0.087 A 
HETATM   21  N1  UNL     1      21.851  -5.045  18.474  1.00  0.00    -0.374 N 
HETATM   22  C11 UNL     1      22.287  -4.702  17.242  1.00  0.00     0.101 A 
ATOM     23  H1  UNL     1      21.693  -6.027  18.699  1.00  0.00     0.164 HD
ENDBRANCH   7  17
ENDBRANCH   3   4
ENDBRANCH   1   3
BRANCH   1  24
HETATM   24  C14 UNL     1      20.835  -1.112  11.189  1.00  0.00     0.115 C 
HETATM   25  C15 UNL     1      20.725  -2.635  11.163  1.00  0.00     0.081 C 
HETATM   26  N4  UNL     1      20.299  -3.204   9.957  1.00  0.00    -0.385 N 
HETATM   27  C16 UNL     1      19.008  -2.795   9.446  1.00  0.00     0.075 A 
ATOM     28  H4  UNL     1      20.875  -3.882   9.458  1.00  0.00     0.159 HD
HETATM   29  C17 UNL     1      17.750  -3.473   9.654  1.00  0.00     0.045 A 
HETATM   30  C18 UNL     1      18.022  -2.321  10.536  1.00  0.00     0.032 A 
HETATM   31  C21 UNL     1      19.086  -1.491   8.824  1.00  0.00     0.043 C 
HETATM   32  C19 UNL     1      18.569  -0.964  10.119  1.00  0.00     0.045 C 
HETATM   33  C20 UNL     1      19.537  -0.463  11.123  1.00  0.00     0.041 C 
HETATM   34  N5  UNL     1      19.258  -1.108   7.620  1.00  0.00    -0.272 N 
ATOM     35  H5  UNL     1      19.286  -0.134   7.316  1.00  0.00     0.193 HD
BRANCH  34  36
HETATM   36  O1  UNL     1      19.413  -2.280   6.725  1.00  0.00    -0.279 OA
BRANCH  36  37
HETATM   37  C22 UNL     1      20.717  -2.470   6.281  1.00  0.00     0.231 C 
BRANCH  37  38
HETATM   38  C23 UNL     1      21.149  -3.935   6.382  1.00  0.00     0.301 C 
BRANCH  38  39
HETATM   39  N6  UNL     1      21.480  -4.398   5.014  1.00  0.00     0.090 N 
HETATM   40  C24 UNL     1      20.505  -5.405   4.600  1.00  0.00     0.272 C 
HETATM   41  C25 UNL     1      21.096  -6.356   3.593  1.00  0.00     0.030 C 
HETATM   42  C26 UNL     1      22.254  -5.701   2.825  1.00  0.00     0.003 C 
HETATM   43  C27 UNL     1      23.347  -5.361   3.827  1.00  0.00     0.030 C 
HETATM   44  C28 UNL     1      22.732  -5.159   5.174  1.00  0.00     0.272 C 
ENDBRANCH  38  39
ENDBRANCH  37  38
ENDBRANCH  36  37
ENDBRANCH  34  36
ENDBRANCH   1  24
TORSDOF 9
ENDMDL
MODEL 3
REMARK VINA RESULT: -9.346498115      1.586      2.028
REMARK  9 active torsions:
REMARK  status: ('A' for Active; 'I' for Inactive)
REMARK    1  A    between atoms: C4_5  and  C5_6 
REMARK    2  A    between atoms: C6_8  and  C7_9 
REMARK    3  A    between atoms: C12_18  and  C13_19 
REMARK    4  A    between atoms: C13_19  and  N3_20 
REMARK    5  A    between atoms: N3_20  and  C14_22 
REMARK    6  A    between atoms: N5_32  and  O1_34 
REMARK    7  A    between atoms: O1_34  and  C22_35 
REMARK    8  A    between atoms: C22_35  and  C23_36 
REMARK    9  A    between atoms: C23_36  and  N6_37 
ROOT
HETATM    1  N3  UNL     1      22.455  -0.870  11.348  1.00  0.00    -0.407 N 
ATOM      2  H3  UNL     1      21.674  -0.223  11.233  1.00  0.00     0.154 HD
ENDROOT
BRANCH   1   3
HETATM    3  C13 UNL     1      23.076  -1.140  10.144  1.00  0.00     0.173 C 
BRANCH   3   4
HETATM    4  C12 UNL     1      22.755  -2.564   9.558  1.00  0.00     0.045 A 
HETATM    5  C5  UNL     1      23.755  -3.467   9.240  1.00  0.00     0.041 A 
HETATM    6  S1  UNL     1      22.934  -4.460   8.154  1.00  0.00    -0.069 SA
HETATM    7  C6  UNL     1      21.392  -3.716   8.144  1.00  0.00     0.086 A 
HETATM    8  N2  UNL     1      21.588  -2.717   9.000  1.00  0.00    -0.351 N 
ATOM      9  H2  UNL     1      20.827  -2.075   9.218  1.00  0.00     0.166 HD
BRANCH   5  10
HETATM   10  C4  UNL     1      25.145  -3.460   9.704  1.00  0.00    -0.017 A 
HETATM   11  C3  UNL     1      25.548  -2.960  10.883  1.00  0.00     0.016 A 
HETATM   12  C2  UNL     1      26.857  -2.875  11.344  1.00  0.00     0.043 A 
HETATM   13  C1  UNL     1      27.854  -3.382  10.480  1.00  0.00     0.116 A 
HETATM   14  F1  UNL     1      29.146  -3.318  10.847  1.00  0.00    -0.206 F 
HETATM   15  C30 UNL     1      27.466  -3.909   9.275  1.00  0.00     0.043 A 
HETATM   16  C29 UNL     1      26.207  -3.956   8.844  1.00  0.00     0.016 A 
ENDBRANCH   5  10
BRANCH   7  17
HETATM   17  C7  UNL     1      20.207  -4.125   7.362  1.00  0.00     0.013 A 
HETATM   18  C8  UNL     1      20.298  -5.093   6.399  1.00  0.00     0.017 A 
HETATM   19  C9  UNL     1      19.144  -5.480   5.634  1.00  0.00     0.018 A 
HETATM   20  C10 UNL     1      17.961  -4.840   5.891  1.00  0.00     0.087 A 
HETATM   21  N1  UNL     1      17.906  -3.866   6.850  1.00  0.00    -0.374 N 
HETATM   22  C11 UNL     1      19.009  -3.536   7.557  1.00  0.00     0.101 A 
ATOM     23  H1  UNL     1      17.026  -3.384   7.032  1.00  0.00     0.164 HD
ENDBRANCH   7  17
ENDBRANCH   3   4
ENDBRANCH   1   3
BRANCH   1  24
HETATM   24  C14 UNL     1      22.619  -1.253  12.686  1.00  0.00     0.115 C 
HETATM   25  C15 UNL     1      22.179  -2.715  12.628  1.00  0.00     0.081 C 
HETATM   26  N4  UNL     1      21.890  -3.323  13.854  1.00  0.00    -0.385 N 
HETATM   27  C16 UNL     1      22.945  -3.360  14.845  1.00  0.00     0.075 A 
ATOM     28  H4  UNL     1      20.972  -3.726  14.043  1.00  0.00     0.159 HD
HETATM   29  C17 UNL     1      23.870  -4.446  15.071  1.00  0.00     0.045 A 
HETATM   30  C18 UNL     1      24.369  -3.327  14.248  1.00  0.00     0.032 A 
HETATM   31  C21 UNL     1      23.090  -2.077  15.496  1.00  0.00     0.043 C 
HETATM   32  C19 UNL     1      24.208  -1.841  14.538  1.00  0.00     0.045 C 
HETATM   33  C20 UNL     1      23.932  -1.095  13.289  1.00  0.00     0.041 C 
HETATM   34  N5  UNL     1      22.617  -1.586  16.574  1.00  0.00    -0.272 N 
ATOM     35  H5  UNL     1      22.814  -0.648  16.923  1.00  0.00     0.193 HD
BRANCH  34  36
HETATM   36  O1  UNL     1      21.741  -2.575  17.247  1.00  0.00    -0.279 OA
BRANCH  36  37
HETATM   37  C22 UNL     1      22.221  -2.990  18.484  1.00  0.00     0.231 C 
BRANCH  37  38
HETATM   38  C23 UNL     1      22.215  -4.514  18.620  1.00  0.00     0.301 C 
BRANCH  38  39
HETATM   39  N6  UNL     1      21.654  -4.842  19.952  1.00  0.00     0.090 N 
HETATM   40  C24 UNL     1      22.649  -4.539  20.979  1.00  0.00     0.272 C 
HETATM   41  C25 UNL     1      22.457  -5.402  22.197  1.00  0.00     0.030 C 
HETATM   42  C26 UNL     1      21.000  -5.878  22.316  1.00  0.00     0.003 C 
HETATM   43  C27 UNL     1      20.687  -6.732  21.097  1.00  0.00     0.030 C 
HETATM   44  C28 UNL     1      21.567  -6.314  19.964  1.00  0.00     0.272 C 
ENDBRANCH  38  39
ENDBRANCH  37  38
ENDBRANCH  36  37
ENDBRANCH  34  36
ENDBRANCH   1  24
TORSDOF 9
ENDMDL
MODEL 4
REMARK VINA RESULT: -9.283339908      2.565     10.039
REMARK  9 active torsions:
REMARK  status: ('A' for Active; 'I' for Inactive)
REMARK    1  A    between atoms: C4_5  and  C5_6 
REMARK    2  A    between atoms: C6_8  and  C7_9 
REMARK    3  A    between atoms: C12_18  and  C13_19 
REMARK    4  A    between atoms: C13_19  and  N3_20 
REMARK    5  A    between atoms: N3_20  and  C14_22 
REMARK    6  A    between atoms: N5_32  and  O1_34 
REMARK    7  A    between atoms: O1_34  and  C22_35 
REMARK    8  A    between atoms: C22_35  and  C23_36 
REMARK    9  A    between atoms: C23_36  and  N6_37 
ROOT
HETATM    1  N3  UNL     1      21.749  -1.204  12.315  1.00  0.00    -0.407 N 
ATOM      2  H3  UNL     1      20.913  -0.780  12.717  1.00  0.00     0.154 HD
ENDROOT
BRANCH   1   3
HETATM    3  C13 UNL     1      22.881  -0.889  13.040  1.00  0.00     0.173 C 
BRANCH   3   4
HETATM    4  C12 UNL     1      23.404  -2.054  13.959  1.00  0.00     0.045 A 
HETATM    5  C5  UNL     1      24.009  -3.184  13.434  1.00  0.00     0.041 A 
HETATM    6  S1  UNL     1      23.789  -4.265  14.708  1.00  0.00    -0.069 SA
HETATM    7  C6  UNL     1      22.963  -3.272  15.831  1.00  0.00     0.086 A 
HETATM    8  N2  UNL     1      22.897  -2.128  15.156  1.00  0.00    -0.351 N 
ATOM      9  H2  UNL     1      22.451  -1.312  15.575  1.00  0.00     0.166 HD
BRANCH   5  10
HETATM   10  C4  UNL     1      24.598  -3.344  12.102  1.00  0.00    -0.017 A 
HETATM   11  C3  UNL     1      24.109  -4.155  11.150  1.00  0.00     0.016 A 
HETATM   12  C2  UNL     1      24.663  -4.387   9.895  1.00  0.00     0.043 A 
HETATM   13  C1  UNL     1      25.852  -3.684   9.600  1.00  0.00     0.116 A 
HETATM   14  F1  UNL     1      26.458  -3.870   8.414  1.00  0.00    -0.206 F 
HETATM   15  C30 UNL     1      26.364  -2.841  10.553  1.00  0.00     0.043 A 
HETATM   16  C29 UNL     1      25.830  -2.653  11.758  1.00  0.00     0.016 A 
ENDBRANCH   5  10
BRANCH   7  17
HETATM   17  C7  UNL     1      22.474  -3.654  17.172  1.00  0.00     0.013 A 
HETATM   18  C8  UNL     1      22.273  -2.711  18.144  1.00  0.00     0.017 A 
HETATM   19  C9  UNL     1      21.808  -3.089  19.450  1.00  0.00     0.018 A 
HETATM   20  C10 UNL     1      21.587  -4.419  19.692  1.00  0.00     0.087 A 
HETATM   21  N1  UNL     1      21.812  -5.338  18.704  1.00  0.00    -0.374 N 
HETATM   22  C11 UNL     1      22.239  -4.944  17.484  1.00  0.00     0.101 A 
ATOM     23  H1  UNL     1      21.656  -6.329  18.889  1.00  0.00     0.164 HD
ENDBRANCH   7  17
ENDBRANCH   3   4
ENDBRANCH   1   3
BRANCH   1  24
HETATM   24  C14 UNL     1      21.451  -1.955  11.169  1.00  0.00     0.115 C 
HETATM   25  C15 UNL     1      19.935  -2.096  11.299  1.00  0.00     0.081 C 
HETATM   26  N4  UNL     1      19.335  -3.080  10.504  1.00  0.00    -0.385 N 
HETATM   27  C16 UNL     1      19.513  -2.979   9.071  1.00  0.00     0.075 A 
ATOM     28  H4  UNL     1      18.793  -3.838  10.918  1.00  0.00     0.159 HD
HETATM   29  C17 UNL     1      18.605  -2.354   8.137  1.00  0.00     0.045 A 
HETATM   30  C18 UNL     1      19.759  -1.540   8.568  1.00  0.00     0.032 A 
HETATM   31  C21 UNL     1      20.826  -3.438   8.677  1.00  0.00     0.043 C 
HETATM   32  C19 UNL     1      21.207  -1.996   8.671  1.00  0.00     0.045 C 
HETATM   33  C20 UNL     1      21.848  -1.422   9.877  1.00  0.00     0.041 C 
HETATM   34  N5  UNL     1      21.274  -4.561   8.269  1.00  0.00    -0.272 N 
ATOM     35  H5  UNL     1      22.245  -4.744   8.015  1.00  0.00     0.193 HD
BRANCH  34  36
HETATM   36  O1  UNL     1      20.180  -5.561   8.218  1.00  0.00    -0.279 OA
BRANCH  36  37
HETATM   37  C22 UNL     1      20.114  -6.248   7.011  1.00  0.00     0.231 C 
BRANCH  37  38
HETATM   38  C23 UNL     1      19.353  -5.460   5.943  1.00  0.00     0.301 C 
BRANCH  38  39
HETATM   39  N6  UNL     1      20.199  -5.425   4.726  1.00  0.00     0.090 N 
HETATM   40  C24 UNL     1      19.675  -6.379   3.751  1.00  0.00     0.272 C 
HETATM   41  C25 UNL     1      20.763  -6.879   2.838  1.00  0.00     0.030 C 
HETATM   42  C26 UNL     1      21.912  -5.863   2.736  1.00  0.00     0.003 C 
HETATM   43  C27 UNL     1      22.517  -5.703   4.122  1.00  0.00     0.030 C 
HETATM   44  C28 UNL     1      21.481  -6.017   5.151  1.00  0.00     0.272 C 
ENDBRANCH  38  39
ENDBRANCH  37  38
ENDBRANCH  36  37
ENDBRANCH  34  36
ENDBRANCH   1  24
TORSDOF 9
ENDMDL
MODEL 5
REMARK VINA RESULT: -9.191042945      2.941      9.585
REMARK  9 active torsions:
REMARK  status: ('A' for Active; 'I' for Inactive)
REMARK    1  A    between atoms: C4_5  and  C5_6 
REMARK    2  A    between atoms: C6_8  and  C7_9 
REMARK    3  A    between atoms: C12_18  and  C13_19 
REMARK    4  A    between atoms: C13_19  and  N3_20 
REMARK    5  A    between atoms: N3_20  and  C14_22 
REMARK    6  A    between atoms: N5_32  and  O1_34 
REMARK    7  A    between atoms: O1_34  and  C22_35 
REMARK    8  A    between atoms: C22_35  and  C23_36 
REMARK    9  A    between atoms: C23_36  and  N6_37 
ROOT
HETATM    1  N3  UNL     1      21.589  -1.060  12.314  1.00  0.00    -0.407 N 
ATOM      2  H3  UNL     1      20.934  -1.133  13.093  1.00  0.00     0.154 HD
ENDROOT
BRANCH   1   3
HETATM    3  C13 UNL     1      22.880  -0.837  12.753  1.00  0.00     0.173 C 
BRANCH   3   4
HETATM    4  C12 UNL     1      23.431  -1.945  13.725  1.00  0.00     0.045 A 
HETATM    5  C5  UNL     1      24.092  -3.067  13.255  1.00  0.00     0.041 A 
HETATM    6  S1  UNL     1      23.891  -4.108  14.565  1.00  0.00    -0.069 SA
HETATM    7  C6  UNL     1      23.002  -3.109  15.634  1.00  0.00     0.086 A 
HETATM    8  N2  UNL     1      22.903  -1.995  14.915  1.00  0.00    -0.351 N 
ATOM      9  H2  UNL     1      22.417  -1.183  15.294  1.00  0.00     0.166 HD
BRANCH   5  10
HETATM   10  C4  UNL     1      24.714  -3.252  11.941  1.00  0.00    -0.017 A 
HETATM   11  C3  UNL     1      24.231  -4.058  10.981  1.00  0.00     0.016 A 
HETATM   12  C2  UNL     1      24.814  -4.314   9.744  1.00  0.00     0.043 A 
HETATM   13  C1  UNL     1      26.028  -3.643   9.477  1.00  0.00     0.116 A 
HETATM   14  F1  UNL     1      26.662  -3.853   8.311  1.00  0.00    -0.206 F 
HETATM   15  C30 UNL     1      26.535  -2.806  10.438  1.00  0.00     0.043 A 
HETATM   16  C29 UNL     1      25.972  -2.596  11.627  1.00  0.00     0.016 A 
ENDBRANCH   5  10
BRANCH   7  17
HETATM   17  C7  UNL     1      22.503  -3.460  16.979  1.00  0.00     0.013 A 
HETATM   18  C8  UNL     1      22.293  -2.496  17.927  1.00  0.00     0.017 A 
HETATM   19  C9  UNL     1      21.817  -2.844  19.238  1.00  0.00     0.018 A 
HETATM   20  C10 UNL     1      21.595  -4.168  19.508  1.00  0.00     0.087 A 
HETATM   21  N1  UNL     1      21.828  -5.110  18.544  1.00  0.00    -0.374 N 
HETATM   22  C11 UNL     1      22.266  -4.743  17.319  1.00  0.00     0.101 A 
ATOM     23  H1  UNL     1      21.671  -6.096  18.750  1.00  0.00     0.164 HD
ENDBRANCH   7  17
ENDBRANCH   3   4
ENDBRANCH   1   3
BRANCH   1  24
HETATM   24  C14 UNL     1      20.946  -1.210  11.078  1.00  0.00     0.115 C 
HETATM   25  C15 UNL     1      21.262  -2.671  10.761  1.00  0.00     0.081 C 
HETATM   26  N4  UNL     1      21.062  -3.074   9.435  1.00  0.00    -0.385 N 
HETATM   27  C16 UNL     1      19.732  -2.920   8.884  1.00  0.00     0.075 A 
ATOM     28  H4  UNL     1      21.824  -3.460   8.878  1.00  0.00     0.159 HD
HETATM   29  C17 UNL     1      18.702  -3.932   8.839  1.00  0.00     0.045 A 
HETATM   30  C18 UNL     1      18.607  -2.954   9.941  1.00  0.00     0.032 A 
HETATM   31  C21 UNL     1      19.475  -1.543   8.524  1.00  0.00     0.043 C 
HETATM   32  C19 UNL     1      18.777  -1.445   9.837  1.00  0.00     0.045 C 
HETATM   33  C20 UNL     1      19.523  -0.924  11.006  1.00  0.00     0.041 C 
HETATM   34  N5  UNL     1      19.588  -0.891   7.433  1.00  0.00    -0.272 N 
ATOM     35  H5  UNL     1      19.359   0.097   7.319  1.00  0.00     0.193 HD
BRANCH  34  36
HETATM   36  O1  UNL     1      20.098  -1.774   6.357  1.00  0.00    -0.279 OA
BRANCH  36  37
HETATM   37  C22 UNL     1      19.099  -2.269   5.526  1.00  0.00     0.231 C 
BRANCH  37  38
HETATM   38  C23 UNL     1      19.509  -3.583   4.857  1.00  0.00     0.301 C 
BRANCH  38  39
HETATM   39  N6  UNL     1      20.624  -4.158   5.645  1.00  0.00     0.090 N 
HETATM   40  C24 UNL     1      21.818  -4.228   4.806  1.00  0.00     0.272 C 
HETATM   41  C25 UNL     1      22.736  -5.334   5.255  1.00  0.00     0.030 C 
HETATM   42  C26 UNL     1      22.532  -5.655   6.744  1.00  0.00     0.003 C 
HETATM   43  C27 UNL     1      21.104  -6.146   6.923  1.00  0.00     0.030 C 
HETATM   44  C28 UNL     1      20.245  -5.568   5.845  1.00  0.00     0.272 C 
ENDBRANCH  38  39
ENDBRANCH  37  38
ENDBRANCH  36  37
ENDBRANCH  34  36
ENDBRANCH   1  24
TORSDOF 9
ENDMDL
