MODEL 1
REMARK VINA RESULT: -9.334770210      0.000      0.000
REMARK  8 active torsions:
REMARK  status: ('A' for Active; 'I' for Inactive)
REMARK    1  A    between atoms: C2_3  and  C3_4 
REMARK    2  A    between atoms: C3_4  and  C4_5 
REMARK    3  A    between atoms: C4_5  and  C5_6 
REMARK    4  A    between atoms: N2_9  and  C8_10 
REMARK    5  A    between atoms: C8_10  and  C9_11 
REMARK    6  A    between atoms: N5_19  and  C13_21 
REMARK    7  A    between atoms: C16_24  and  O1_25 
REMARK    8  A    between atoms: N7_33  and  C20_34 
ROOT
HETATM    1  N1  UNL     1      22.210  -6.122  20.376  1.00  0.00    -0.197 NA
HETATM    2  C1  UNL     1      22.218  -6.065  19.223  1.00  0.00     0.059 C 
HETATM    3  C2  UNL     1      22.197  -6.002  17.768  1.00  0.00     0.124 C 
ENDROOT
BRANCH   3   4
HETATM    4  C3  UNL     1      21.824  -4.554  17.431  1.00  0.00     0.014 C 
BRANCH   4   5
HETATM    5  C4  UNL     1      21.872  -4.308  15.960  1.00  0.00     0.005 C 
BRANCH   5   6
HETATM    6  C5  UNL     1      23.184  -3.666  15.628  1.00  0.00    -0.012 C 
HETATM    7  C6  UNL     1      23.533  -3.847  14.162  1.00  0.00     0.024 C 
HETATM    8  C7  UNL     1      24.690  -2.871  13.938  1.00  0.00     0.122 C 
HETATM    9  N2  UNL     1      24.299  -1.557  14.083  1.00  0.00    -0.388 N 
HETATM   10  C27 UNL     1      23.392  -1.226  15.133  1.00  0.00     0.122 C 
HETATM   11  C28 UNL     1      23.383  -2.325  16.188  1.00  0.00     0.024 C 
BRANCH   9  12
HETATM   12  C8  UNL     1      24.214  -0.619  13.037  1.00  0.00     0.121 C 
BRANCH  12  13
HETATM   13  C9  UNL     1      23.899  -1.317  11.758  1.00  0.00     0.117 A 
HETATM   14  N3  UNL     1      24.818  -2.058  11.127  1.00  0.00    -0.347 N 
HETATM   15  C10 UNL     1      24.481  -2.792  10.095  1.00  0.00     0.094 A 
ATOM     16  H3  UNL     1      25.785  -2.052  11.451  1.00  0.00     0.166 HD
HETATM   17  C11 UNL     1      25.390  -3.584   9.436  1.00  0.00     0.139 A 
HETATM   18  C19 UNL     1      23.153  -2.806   9.634  1.00  0.00     0.154 A 
HETATM   19  N4  UNL     1      25.060  -4.343   8.414  1.00  0.00    -0.199 N 
HETATM   20  C12 UNL     1      23.735  -4.371   7.944  1.00  0.00     0.684 A 
ATOM     21  H4  UNL     1      25.771  -4.916   7.959  1.00  0.00     0.183 HD
HETATM   22  N5  UNL     1      23.561  -5.144   6.992  1.00  0.00    -0.192 N 
HETATM   23  N6  UNL     1      22.880  -3.573   8.611  1.00  0.00    -0.174 N 
ATOM     24  H5  UNL     1      24.433  -5.595   6.718  1.00  0.00     0.184 HD
ATOM     25  H6  UNL     1      21.914  -3.567   8.284  1.00  0.00     0.186 HD
HETATM   26  N7  UNL     1      22.187  -2.053  10.274  1.00  0.00    -0.291 N 
HETATM   27  C26 UNL     1      22.638  -1.350  11.303  1.00  0.00     0.277 A 
HETATM   28  O2  UNL     1      21.803  -0.621  11.954  1.00  0.00    -0.265 OA
BRANCH  22  29
HETATM   29  C13 UNL     1      22.474  -5.577   6.172  1.00  0.00     0.051 A 
HETATM   30  C14 UNL     1      22.611  -5.382   4.835  1.00  0.00     0.033 A 
HETATM   31  C15 UNL     1      21.675  -5.987   3.920  1.00  0.00     0.040 A 
HETATM   32  C16 UNL     1      20.678  -6.765   4.431  1.00  0.00     0.087 A 
HETATM   33  C17 UNL     1      20.582  -6.947   5.851  1.00  0.00     0.069 A 
HETATM   34 CL1  UNL     1      19.305  -7.978   6.423  1.00  0.00    -0.081 Cl
HETATM   35  C18 UNL     1      21.482  -6.341   6.682  1.00  0.00     0.056 A 
BRANCH  32  36
HETATM   36  O1  UNL     1      19.782  -7.398   3.611  1.00  0.00    -0.359 OA
ATOM     37  H1  UNL     1      18.922  -7.651   3.925  1.00  0.00     0.217 HD
ENDBRANCH  32  36
ENDBRANCH  22  29
BRANCH  26  38
HETATM   38  C20 UNL     1      20.836  -1.946   9.847  1.00  0.00     0.095 C 
HETATM   39  C21 UNL     1      19.935  -3.092  10.250  1.00  0.00     0.026 C 
HETATM   40  C22 UNL     1      19.223  -3.761   9.129  1.00  0.00     0.002 C 
HETATM   41  C23 UNL     1      18.601  -2.859   8.107  1.00  0.00     0.000 C 
HETATM   42  C24 UNL     1      19.404  -1.597   7.885  1.00  0.00     0.002 C 
HETATM   43  C25 UNL     1      20.821  -1.804   8.306  1.00  0.00     0.026 C 
ENDBRANCH  26  38
ENDBRANCH  12  13
ENDBRANCH   9  12
ENDBRANCH   5   6
ENDBRANCH   4   5
ENDBRANCH   3   4
TORSDOF 8
ENDMDL
MODEL 2
REMARK VINA RESULT: -9.077305884      0.861      1.157
REMARK  8 active torsions:
REMARK  status: ('A' for Active; 'I' for Inactive)
REMARK    1  A    between atoms: C2_3  and  C3_4 
REMARK    2  A    between atoms: C3_4  and  C4_5 
REMARK    3  A    between atoms: C4_5  and  C5_6 
REMARK    4  A    between atoms: N2_9  and  C8_10 
REMARK    5  A    between atoms: C8_10  and  C9_11 
REMARK    6  A    between atoms: N5_19  and  C13_21 
REMARK    7  A    between atoms: C16_24  and  O1_25 
REMARK    8  A    between atoms: N7_33  and  C20_34 
ROOT
HETATM    1  N1  UNL     1      22.518  -6.080  20.363  1.00  0.00    -0.197 NA
HETATM    2  C1  UNL     1      22.386  -6.038  19.217  1.00  0.00     0.059 C 
HETATM    3  C2  UNL     1      22.188  -5.991  17.774  1.00  0.00     0.124 C 
ENDROOT
BRANCH   3   4
HETATM    4  C3  UNL     1      21.846  -4.531  17.460  1.00  0.00     0.014 C 
BRANCH   4   5
HETATM    5  C4  UNL     1      21.924  -4.258  15.995  1.00  0.00     0.005 C 
BRANCH   5   6
HETATM    6  C5  UNL     1      23.212  -3.549  15.711  1.00  0.00    -0.012 C 
HETATM    7  C6  UNL     1      23.654  -3.759  14.275  1.00  0.00     0.024 C 
HETATM    8  C7  UNL     1      24.762  -2.723  14.076  1.00  0.00     0.122 C 
HETATM    9  N2  UNL     1      24.287  -1.431  14.149  1.00  0.00    -0.388 N 
HETATM   10  C27 UNL     1      23.303  -1.119  15.135  1.00  0.00     0.122 C 
HETATM   11  C28 UNL     1      23.299  -2.180  16.229  1.00  0.00     0.024 C 
BRANCH   9  12
HETATM   12  C8  UNL     1      24.206  -0.537  13.065  1.00  0.00     0.121 C 
BRANCH  12  13
HETATM   13  C9  UNL     1      23.909  -1.289  11.813  1.00  0.00     0.117 A 
HETATM   14  N3  UNL     1      24.869  -1.956  11.158  1.00  0.00    -0.347 N 
HETATM   15  C10 UNL     1      24.563  -2.740  10.154  1.00  0.00     0.094 A 
ATOM     16  H3  UNL     1      25.843  -1.852  11.442  1.00  0.00     0.166 HD
HETATM   17  C11 UNL     1      25.516  -3.458   9.473  1.00  0.00     0.139 A 
HETATM   18  C19 UNL     1      23.225  -2.888   9.747  1.00  0.00     0.154 A 
HETATM   19  N4  UNL     1      25.220  -4.266   8.480  1.00  0.00    -0.199 N 
HETATM   20  C12 UNL     1      23.887  -4.428   8.064  1.00  0.00     0.684 A 
ATOM     21  H4  UNL     1      25.964  -4.780   8.007  1.00  0.00     0.183 HD
HETATM   22  N5  UNL     1      23.749  -5.235   7.134  1.00  0.00    -0.192 N 
HETATM   23  N6  UNL     1      22.986  -3.699   8.751  1.00  0.00    -0.174 N 
ATOM     24  H5  UNL     1      24.649  -5.608   6.833  1.00  0.00     0.184 HD
ATOM     25  H6  UNL     1      22.012  -3.791   8.463  1.00  0.00     0.186 HD
HETATM   26  N7  UNL     1      22.217  -2.214  10.412  1.00  0.00    -0.291 N 
HETATM   27  C26 UNL     1      22.640  -1.450  11.409  1.00  0.00     0.277 A 
HETATM   28  O2  UNL     1      21.766  -0.788  12.080  1.00  0.00    -0.265 OA
BRANCH  22  29
HETATM   29  C13 UNL     1      22.677  -5.786   6.366  1.00  0.00     0.051 A 
HETATM   30  C14 UNL     1      21.704  -6.427   7.063  1.00  0.00     0.033 A 
HETATM   31  C15 UNL     1      20.482  -6.814   6.402  1.00  0.00     0.040 A 
HETATM   32  C16 UNL     1      20.330  -6.500   5.083  1.00  0.00     0.087 A 
HETATM   33  C17 UNL     1      21.386  -5.813   4.394  1.00  0.00     0.069 A 
HETATM   34 CL1  UNL     1      21.104  -5.420   2.725  1.00  0.00    -0.081 Cl
HETATM   35  C18 UNL     1      22.533  -5.481   5.057  1.00  0.00     0.056 A 
BRANCH  32  36
HETATM   36  O1  UNL     1      19.177  -6.805   4.410  1.00  0.00    -0.359 OA
ATOM     37  H1  UNL     1      19.196  -7.309   3.605  1.00  0.00     0.217 HD
ENDBRANCH  32  36
ENDBRANCH  22  29
BRANCH  26  38
HETATM   38  C20 UNL     1      20.848  -2.244  10.038  1.00  0.00     0.095 C 
HETATM   39  C21 UNL     1      20.137  -3.557  10.278  1.00  0.00     0.026 C 
HETATM   40  C22 UNL     1      19.476  -4.146   9.083  1.00  0.00     0.002 C 
HETATM   41  C23 UNL     1      18.688  -3.201   8.229  1.00  0.00     0.000 C 
HETATM   42  C24 UNL     1      19.293  -1.816   8.189  1.00  0.00     0.002 C 
HETATM   43  C25 UNL     1      20.742  -1.874   8.539  1.00  0.00     0.026 C 
ENDBRANCH  26  38
ENDBRANCH  12  13
ENDBRANCH   9  12
ENDBRANCH   5   6
ENDBRANCH   4   5
ENDBRANCH   3   4
TORSDOF 8
ENDMDL
MODEL 3
REMARK VINA RESULT: -8.939298247      0.851      1.234
REMARK  8 active torsions:
REMARK  status: ('A' for Active; 'I' for Inactive)
REMARK    1  A    between atoms: C2_3  and  C3_4 
REMARK    2  A    between atoms: C3_4  and  C4_5 
REMARK    3  A    between atoms: C4_5  and  C5_6 
REMARK    4  A    between atoms: N2_9  and  C8_10 
REMARK    5  A    between atoms: C8_10  and  C9_11 
REMARK    6  A    between atoms: N5_19  and  C13_21 
REMARK    7  A    between atoms: C16_24  and  O1_25 
REMARK    8  A    between atoms: N7_33  and  C20_34 
ROOT
HETATM    1  N1  UNL     1      21.572  -6.171  20.638  1.00  0.00    -0.197 NA
HETATM    2  C1  UNL     1      21.821  -6.076  19.516  1.00  0.00     0.059 C 
HETATM    3  C2  UNL     1      22.106  -5.965  18.091  1.00  0.00     0.124 C 
ENDROOT
BRANCH   3   4
HETATM    4  C3  UNL     1      21.768  -4.516  17.723  1.00  0.00     0.014 C 
BRANCH   4   5
HETATM    5  C4  UNL     1      21.770  -4.317  16.244  1.00  0.00     0.005 C 
BRANCH   5   6
HETATM    6  C5  UNL     1      23.098  -3.753  15.842  1.00  0.00    -0.012 C 
HETATM    7  C6  UNL     1      23.357  -3.950  14.360  1.00  0.00     0.024 C 
HETATM    8  C7  UNL     1      24.556  -3.044  14.073  1.00  0.00     0.122 C 
HETATM    9  N2  UNL     1      24.252  -1.710  14.238  1.00  0.00    -0.388 N 
HETATM   10  C27 UNL     1      23.424  -1.328  15.335  1.00  0.00     0.122 C 
HETATM   11  C28 UNL     1      23.405  -2.428  16.389  1.00  0.00     0.024 C 
BRANCH   9  12
HETATM   12  C8  UNL     1      24.167  -0.765  13.198  1.00  0.00     0.121 C 
BRANCH  12  13
HETATM   13  C9  UNL     1      23.797  -1.449  11.926  1.00  0.00     0.117 A 
HETATM   14  N3  UNL     1      24.714  -2.090  11.189  1.00  0.00    -0.347 N 
HETATM   15  C10 UNL     1      24.347  -2.818  10.164  1.00  0.00     0.094 A 
ATOM     16  H3  UNL     1      25.702  -2.011  11.428  1.00  0.00     0.166 HD
HETATM   17  C11 UNL     1      25.255  -3.510   9.398  1.00  0.00     0.139 A 
HETATM   18  C19 UNL     1      22.988  -2.931   9.820  1.00  0.00     0.154 A 
HETATM   19  N4  UNL     1      24.899  -4.262   8.382  1.00  0.00    -0.199 N 
HETATM   20  C12 UNL     1      23.543  -4.389   8.028  1.00  0.00     0.684 A 
ATOM     21  H4  UNL     1      25.610  -4.759   7.845  1.00  0.00     0.183 HD
HETATM   22  N5  UNL     1      23.348  -5.145   7.066  1.00  0.00    -0.192 N 
HETATM   23  N6  UNL     1      22.688  -3.688   8.797  1.00  0.00    -0.174 N 
ATOM     24  H5  UNL     1      24.227  -5.512   6.700  1.00  0.00     0.184 HD
ATOM     25  H6  UNL     1      21.700  -3.755   8.555  1.00  0.00     0.186 HD
HETATM   26  N7  UNL     1      22.025  -2.283  10.569  1.00  0.00    -0.291 N 
HETATM   27  C26 UNL     1      22.507  -1.576  11.581  1.00  0.00     0.277 A 
HETATM   28  O2  UNL     1      21.677  -0.941  12.329  1.00  0.00    -0.265 OA
BRANCH  22  29
HETATM   29  C13 UNL     1      22.231  -5.645   6.328  1.00  0.00     0.051 A 
HETATM   30  C14 UNL     1      22.207  -5.357   5.001  1.00  0.00     0.033 A 
HETATM   31  C15 UNL     1      21.247  -6.005   4.142  1.00  0.00     0.040 A 
HETATM   32  C16 UNL     1      20.394  -6.916   4.692  1.00  0.00     0.087 A 
HETATM   33  C17 UNL     1      20.466  -7.191   6.099  1.00  0.00     0.069 A 
HETATM   34 CL1  UNL     1      19.369  -8.387   6.720  1.00  0.00    -0.081 Cl
HETATM   35  C18 UNL     1      21.381  -6.541   6.878  1.00  0.00     0.056 A 
BRANCH  32  36
HETATM   36  O1  UNL     1      19.486  -7.593   3.922  1.00  0.00    -0.359 OA
ATOM     37  H1  UNL     1      19.743  -8.001   3.103  1.00  0.00     0.217 HD
ENDBRANCH  32  36
ENDBRANCH  22  29
BRANCH  26  38
HETATM   38  C20 UNL     1      20.637  -2.280  10.266  1.00  0.00     0.095 C 
HETATM   39  C21 UNL     1      20.076  -0.953   9.807  1.00  0.00     0.026 C 
HETATM   40  C22 UNL     1      18.917  -0.451  10.594  1.00  0.00     0.002 C 
HETATM   41  C23 UNL     1      17.855  -1.455  10.922  1.00  0.00     0.000 C 
HETATM   42  C24 UNL     1      18.418  -2.838  11.151  1.00  0.00     0.002 C 
HETATM   43  C25 UNL     1      19.862  -2.757  11.518  1.00  0.00     0.026 C 
ENDBRANCH  26  38
ENDBRANCH  12  13
ENDBRANCH   9  12
ENDBRANCH   5   6
ENDBRANCH   4   5
ENDBRANCH   3   4
TORSDOF 8
ENDMDL
MODEL 4
REMARK VINA RESULT: -8.703395335      1.093      1.606
REMARK  8 active torsions:
REMARK  status: ('A' for Active; 'I' for Inactive)
REMARK    1  A    between atoms: C2_3  and  C3_4 
REMARK    2  A    between atoms: C3_4  and  C4_5 
REMARK    3  A    between atoms: C4_5  and  C5_6 
REMARK    4  A    between atoms: N2_9  and  C8_10 
REMARK    5  A    between atoms: C8_10  and  C9_11 
REMARK    6  A    between atoms: N5_19  and  C13_21 
REMARK    7  A    between atoms: C16_24  and  O1_25 
REMARK    8  A    between atoms: N7_33  and  C20_34 
ROOT
HETATM    1  N1  UNL     1      21.836  -6.304  20.413  1.00  0.00    -0.197 NA
HETATM    2  C1  UNL     1      22.038  -6.142  19.289  1.00  0.00     0.059 C 
HETATM    3  C2  UNL     1      22.265  -5.948  17.862  1.00  0.00     0.124 C 
ENDROOT
BRANCH   3   4
HETATM    4  C3  UNL     1      21.837  -4.504  17.577  1.00  0.00     0.014 C 
BRANCH   4   5
HETATM    5  C4  UNL     1      21.819  -4.222  16.113  1.00  0.00     0.005 C 
BRANCH   5   6
HETATM    6  C5  UNL     1      23.127  -3.600  15.732  1.00  0.00    -0.012 C 
HETATM    7  C6  UNL     1      23.447  -3.838  14.267  1.00  0.00     0.024 C 
HETATM    8  C7  UNL     1      24.604  -2.877  13.984  1.00  0.00     0.122 C 
HETATM    9  N2  UNL     1      24.221  -1.557  14.086  1.00  0.00    -0.388 N 
HETATM   10  C27 UNL     1      23.336  -1.181  15.139  1.00  0.00     0.122 C 
HETATM   11  C28 UNL     1      23.342  -2.239  16.235  1.00  0.00     0.024 C 
BRANCH   9  12
HETATM   12  C8  UNL     1      24.120  -0.659  13.007  1.00  0.00     0.121 C 
BRANCH  12  13
HETATM   13  C9  UNL     1      23.783  -1.404  11.760  1.00  0.00     0.117 A 
HETATM   14  N3  UNL     1      24.728  -2.040  11.054  1.00  0.00    -0.347 N 
HETATM   15  C10 UNL     1      24.394  -2.820  10.056  1.00  0.00     0.094 A 
ATOM     16  H3  UNL     1      25.711  -1.915  11.294  1.00  0.00     0.166 HD
HETATM   17  C11 UNL     1      25.332  -3.507   9.323  1.00  0.00     0.139 A 
HETATM   18  C19 UNL     1      23.043  -2.997   9.710  1.00  0.00     0.154 A 
HETATM   19  N4  UNL     1      25.010  -4.311   8.335  1.00  0.00    -0.199 N 
HETATM   20  C12 UNL     1      23.662  -4.502   7.979  1.00  0.00     0.684 A 
ATOM     21  H4  UNL     1      25.743  -4.802   7.822  1.00  0.00     0.183 HD
HETATM   22  N5  UNL     1      23.501  -5.301   7.047  1.00  0.00    -0.192 N 
HETATM   23  N6  UNL     1      22.777  -3.803   8.716  1.00  0.00    -0.174 N 
ATOM     24  H5  UNL     1      24.395  -5.649   6.700  1.00  0.00     0.184 HD
ATOM     25  H6  UNL     1      21.794  -3.916   8.472  1.00  0.00     0.186 HD
HETATM   26  N7  UNL     1      22.051  -2.356  10.429  1.00  0.00    -0.291 N 
HETATM   27  C26 UNL     1      22.501  -1.592  11.415  1.00  0.00     0.277 A 
HETATM   28  O2  UNL     1      21.644  -0.959  12.133  1.00  0.00    -0.265 OA
BRANCH  22  29
HETATM   29  C13 UNL     1      22.408  -5.871   6.323  1.00  0.00     0.051 A 
HETATM   30  C14 UNL     1      21.458  -6.500   7.062  1.00  0.00     0.033 A 
HETATM   31  C15 UNL     1      20.218  -6.903   6.446  1.00  0.00     0.040 A 
HETATM   32  C16 UNL     1      20.026  -6.616   5.126  1.00  0.00     0.087 A 
HETATM   33  C17 UNL     1      21.058  -5.941   4.392  1.00  0.00     0.069 A 
HETATM   34 CL1  UNL     1      20.725  -5.582   2.725  1.00  0.00    -0.081 Cl
HETATM   35  C18 UNL     1      22.224  -5.593   5.013  1.00  0.00     0.056 A 
BRANCH  32  36
HETATM   36  O1  UNL     1      18.854  -6.938   4.495  1.00  0.00    -0.359 OA
ATOM     37  H1  UNL     1      18.541  -6.435   3.752  1.00  0.00     0.217 HD
ENDBRANCH  32  36
ENDBRANCH  22  29
BRANCH  26  38
HETATM   38  C20 UNL     1      20.667  -2.415  10.119  1.00  0.00     0.095 C 
HETATM   39  C21 UNL     1      20.098  -1.186   9.446  1.00  0.00     0.026 C 
HETATM   40  C22 UNL     1      18.929  -0.574  10.132  1.00  0.00     0.002 C 
HETATM   41  C23 UNL     1      17.872  -1.521  10.611  1.00  0.00     0.000 C 
HETATM   42  C24 UNL     1      18.445  -2.844  11.066  1.00  0.00     0.002 C 
HETATM   43  C25 UNL     1      19.884  -2.690  11.425  1.00  0.00     0.026 C 
ENDBRANCH  26  38
ENDBRANCH  12  13
ENDBRANCH   9  12
ENDBRANCH   5   6
ENDBRANCH   4   5
ENDBRANCH   3   4
TORSDOF 8
ENDMDL
MODEL 5
REMARK VINA RESULT: -8.369695552      9.388     15.375
REMARK  8 active torsions:
REMARK  status: ('A' for Active; 'I' for Inactive)
REMARK    1  A    between atoms: C2_3  and  C3_4 
REMARK    2  A    between atoms: C3_4  and  C4_5 
REMARK    3  A    between atoms: C4_5  and  C5_6 
REMARK    4  A    between atoms: N2_9  and  C8_10 
REMARK    5  A    between atoms: C8_10  and  C9_11 
REMARK    6  A    between atoms: N5_19  and  C13_21 
REMARK    7  A    between atoms: C16_24  and  O1_25 
REMARK    8  A    between atoms: N7_33  and  C20_34 
ROOT
HETATM    1  N1  UNL     1      13.935  -3.806  30.773  1.00  0.00    -0.197 NA
HETATM    2  C1  UNL     1      14.104  -4.856  31.220  1.00  0.00     0.059 C 
HETATM    3  C2  UNL     1      14.303  -6.194  31.761  1.00  0.00     0.124 C 
ENDROOT
BRANCH   3   4
HETATM    4  C3  UNL     1      15.657  -6.655  31.212  1.00  0.00     0.014 C 
BRANCH   4   5
HETATM    5  C4  UNL     1      16.769  -6.299  32.141  1.00  0.00     0.005 C 
BRANCH   5   6
HETATM    6  C5  UNL     1      18.053  -6.303  31.369  1.00  0.00    -0.012 C 
HETATM    7  C6  UNL     1      18.600  -7.710  31.212  1.00  0.00     0.024 C 
HETATM    8  C7  UNL     1      19.688  -7.564  30.146  1.00  0.00     0.122 C 
HETATM    9  N2  UNL     1      19.171  -7.212  28.919  1.00  0.00    -0.388 N 
HETATM   10  C27 UNL     1      18.113  -6.256  28.871  1.00  0.00     0.122 C 
HETATM   11  C28 UNL     1      18.063  -5.460  30.169  1.00  0.00     0.024 C 
BRANCH   9  12
HETATM   12  C8  UNL     1      19.140  -8.046  27.785  1.00  0.00     0.121 C 
BRANCH  12  13
HETATM   13  C9  UNL     1      19.602  -7.287  26.588  1.00  0.00     0.117 A 
HETATM   14  N3  UNL     1      20.907  -7.095  26.349  1.00  0.00    -0.347 N 
HETATM   15  C10 UNL     1      21.300  -6.569  25.215  1.00  0.00     0.094 A 
ATOM     16  H3  UNL     1      21.596  -7.361  27.051  1.00  0.00     0.166 HD
HETATM   17  C11 UNL     1      22.629  -6.379  24.922  1.00  0.00     0.139 A 
HETATM   18  C19 UNL     1      20.360  -6.193  24.240  1.00  0.00     0.154 A 
HETATM   19  N4  UNL     1      23.039  -5.874  23.781  1.00  0.00    -0.199 N 
HETATM   20  C12 UNL     1      22.111  -5.497  22.793  1.00  0.00     0.684 A 
ATOM     21  H4  UNL     1      24.037  -5.755  23.609  1.00  0.00     0.183 HD
HETATM   22  N5  UNL     1      22.634  -5.057  21.760  1.00  0.00    -0.192 N 
HETATM   23  N6  UNL     1      20.820  -5.691  23.124  1.00  0.00    -0.174 N 
ATOM     24  H5  UNL     1      23.651  -5.032  21.843  1.00  0.00     0.184 HD
ATOM     25  H6  UNL     1      20.127  -5.416  22.429  1.00  0.00     0.186 HD
HETATM   26  N7  UNL     1      19.010  -6.387  24.463  1.00  0.00    -0.291 N 
HETATM   27  C26 UNL     1      18.725  -6.925  25.641  1.00  0.00     0.277 A 
HETATM   28  O2  UNL     1      17.491  -7.138  25.930  1.00  0.00    -0.265 OA
BRANCH  22  29
HETATM   29  C13 UNL     1      22.207  -4.575  20.484  1.00  0.00     0.051 A 
HETATM   30  C14 UNL     1      22.184  -3.226  20.326  1.00  0.00     0.033 A 
HETATM   31  C15 UNL     1      21.986  -2.660  19.015  1.00  0.00     0.040 A 
HETATM   32  C16 UNL     1      21.846  -3.508  17.955  1.00  0.00     0.087 A 
HETATM   33  C17 UNL     1      21.886  -4.926  18.176  1.00  0.00     0.069 A 
HETATM   34 CL1  UNL     1      21.733  -5.940  16.772  1.00  0.00    -0.081 Cl
HETATM   35  C18 UNL     1      22.060  -5.418  19.438  1.00  0.00     0.056 A 
BRANCH  32  36
HETATM   36  O1  UNL     1      21.694  -3.031  16.680  1.00  0.00    -0.359 OA
ATOM     37  H1  UNL     1      20.853  -3.065  16.239  1.00  0.00     0.217 HD
ENDBRANCH  32  36
ENDBRANCH  22  29
BRANCH  26  38
HETATM   38  C20 UNL     1      17.981  -5.981  23.573  1.00  0.00     0.095 C 
HETATM   39  C21 UNL     1      16.919  -5.086  24.171  1.00  0.00     0.026 C 
HETATM   40  C22 UNL     1      15.522  -5.576  24.024  1.00  0.00     0.002 C 
HETATM   41  C23 UNL     1      15.147  -6.109  22.675  1.00  0.00     0.000 C 
HETATM   42  C24 UNL     1      16.300  -6.804  21.987  1.00  0.00     0.002 C 
HETATM   43  C25 UNL     1      17.311  -7.248  22.990  1.00  0.00     0.026 C 
ENDBRANCH  26  38
ENDBRANCH  12  13
ENDBRANCH   9  12
ENDBRANCH   5   6
ENDBRANCH   4   5
ENDBRANCH   3   4
TORSDOF 8
ENDMDL
