MODEL 1
REMARK VINA RESULT: -6.684487904      0.000      0.000
REMARK  13 active torsions:
REMARK  status: ('A' for Active; 'I' for Inactive)
REMARK    1  A    between atoms: C3_3  and  C4_4 
REMARK    2  A    between atoms: C4_4  and  C5_5 
REMARK    3  A    between atoms: C5_5  and  O2_7 
REMARK    4  A    between atoms: C16_19  and  C17_20 
REMARK    5  A    between atoms: C17_20  and  C18_22 
REMARK    6  A    between atoms: C18_22  and  O4_25 
REMARK    7  A    between atoms: C21_27  and  C22_28 
REMARK    8  A    between atoms: C22_28  and  C23_29 
REMARK    9  A    between atoms: C23_29  and  C25_31 
REMARK   10  A    between atoms: C25_31  and  C26_32 
REMARK   11  A    between atoms: C26_32  and  O5_33 
REMARK   12  A    between atoms: C28_36  and  O6_37 
REMARK   13  A    between atoms: O6_37  and  C29_38 
ROOT
HETATM    1  C1  UNL     1      23.708  -4.734  12.002  1.00  0.00     0.020 C 
HETATM    2  C2  UNL     1      23.630  -3.561  11.522  1.00  0.00    -0.027 C 
HETATM    3  C3  UNL     1      23.299  -2.301  12.169  1.00  0.00     0.163 C 
HETATM    4  O3  UNL     1      22.904  -1.356  11.239  1.00  0.00    -0.366 OA
HETATM    5  C7  UNL     1      22.072  -1.667  10.206  1.00  0.00     0.085 C 
HETATM    6  C8  UNL     1      22.121  -0.516   9.165  1.00  0.00     0.051 C 
HETATM    7  C9  UNL     1      20.723  -1.539  10.816  1.00  0.00     0.046 C 
HETATM    8  C10 UNL     1      20.103  -2.736  11.431  1.00  0.00     0.030 C 
HETATM    9  C11 UNL     1      18.691  -2.793  10.968  1.00  0.00    -0.024 C 
HETATM   10  C12 UNL     1      18.320  -3.617  10.032  1.00  0.00    -0.087 C 
HETATM   11  C13 UNL     1      16.865  -3.615   9.617  1.00  0.00     0.043 C 
HETATM   12  C14 UNL     1      19.237  -4.540   9.359  1.00  0.00     0.038 C 
HETATM   13  C15 UNL     1      19.500  -4.097   7.924  1.00  0.00     0.042 C 
HETATM   14  C16 UNL     1      20.633  -3.153   7.784  1.00  0.00    -0.033 C 
HETATM   15  C21 UNL     1      21.897  -3.560   8.465  1.00  0.00    -0.022 C 
HETATM   16  C27 UNL     1      22.466  -2.879   9.493  1.00  0.00    -0.002 C 
HETATM   17  C28 UNL     1      23.805  -3.382   9.995  1.00  0.00     0.195 C 
ENDROOT
BRANCH  14  18
HETATM   18  C17 UNL     1      20.726  -2.601   6.421  1.00  0.00     0.233 C 
HETATM   19  F1  UNL     1      20.374  -3.561   5.453  1.00  0.00    -0.241 F 
BRANCH  18  20
HETATM   20  C18 UNL     1      19.931  -1.415   6.026  1.00  0.00     0.085 C 
HETATM   21  C19 UNL     1      18.919  -0.890   6.971  1.00  0.00     0.049 C 
HETATM   22  C20 UNL     1      19.395  -1.384   4.629  1.00  0.00     0.049 C 
BRANCH  20  23
HETATM   23  O4  UNL     1      20.918  -0.334   6.006  1.00  0.00    -0.387 OA
ATOM     24  H4  UNL     1      20.424   0.422   6.301  1.00  0.00     0.210 HD
ENDBRANCH  20  23
ENDBRANCH  18  20
ENDBRANCH  14  18
BRANCH  15  25
HETATM   25  C22 UNL     1      22.553  -4.861   8.156  1.00  0.00     0.018 C 
BRANCH  25  26
HETATM   26  C23 UNL     1      22.484  -5.514   6.888  1.00  0.00    -0.063 C 
HETATM   27  C24 UNL     1      21.480  -6.578   6.534  1.00  0.00     0.048 C 
BRANCH  26  28
HETATM   28  C25 UNL     1      23.291  -5.284   5.879  1.00  0.00     0.005 C 
BRANCH  28  29
HETATM   29  C26 UNL     1      22.991  -5.320   4.432  1.00  0.00     0.192 C 
BRANCH  29  30
HETATM   30  O5  UNL     1      23.971  -4.541   3.782  1.00  0.00    -0.397 OA
ATOM     31  H5  UNL     1      23.535  -3.772   3.435  1.00  0.00     0.209 HD
ENDBRANCH  29  30
ENDBRANCH  28  29
ENDBRANCH  26  28
ENDBRANCH  25  26
ENDBRANCH  15  25
BRANCH  17  32
HETATM   32  O6  UNL     1      24.776  -2.317   9.942  1.00  0.00    -0.307 OA
BRANCH  32  33
HETATM   33  C29 UNL     1      26.115  -2.576   9.776  1.00  0.00     0.255 C 
HETATM   34  C30 UNL     1      26.606  -3.816   9.076  1.00  0.00     0.126 C 
HETATM   35  O7  UNL     1      27.010  -1.805  10.192  1.00  0.00    -0.266 OA
ENDBRANCH  32  33
ENDBRANCH  17  32
BRANCH   3  36
HETATM   36  C4  UNL     1      24.386  -1.683  12.985  1.00  0.00     0.147 C 
BRANCH  36  37
HETATM   37  C5  UNL     1      24.131  -1.160  14.296  1.00  0.00     0.261 C 
HETATM   38  O1  UNL     1      24.203  -1.741  15.395  1.00  0.00    -0.265 OA
BRANCH  37  39
HETATM   39  O2  UNL     1      23.742   0.205  14.347  1.00  0.00    -0.326 OA
HETATM   40  C6  UNL     1      24.188   1.076  13.328  1.00  0.00     0.213 C 
ENDBRANCH  37  39
ENDBRANCH  36  37
ENDBRANCH   3  36
TORSDOF 13
ENDMDL
MODEL 2
REMARK VINA RESULT: -6.009678848      2.675      5.719
REMARK  13 active torsions:
REMARK  status: ('A' for Active; 'I' for Inactive)
REMARK    1  A    between atoms: C3_3  and  C4_4 
REMARK    2  A    between atoms: C4_4  and  C5_5 
REMARK    3  A    between atoms: C5_5  and  O2_7 
REMARK    4  A    between atoms: C16_19  and  C17_20 
REMARK    5  A    between atoms: C17_20  and  C18_22 
REMARK    6  A    between atoms: C18_22  and  O4_25 
REMARK    7  A    between atoms: C21_27  and  C22_28 
REMARK    8  A    between atoms: C22_28  and  C23_29 
REMARK    9  A    between atoms: C23_29  and  C25_31 
REMARK   10  A    between atoms: C25_31  and  C26_32 
REMARK   11  A    between atoms: C26_32  and  O5_33 
REMARK   12  A    between atoms: C28_36  and  O6_37 
REMARK   13  A    between atoms: O6_37  and  C29_38 
ROOT
HETATM    1  C1  UNL     1      22.481  -0.187  11.691  1.00  0.00     0.020 C 
HETATM    2  C2  UNL     1      22.653  -1.380  11.292  1.00  0.00    -0.027 C 
HETATM    3  C3  UNL     1      23.611  -1.923  10.341  1.00  0.00     0.163 C 
HETATM    4  O3  UNL     1      23.195  -3.155   9.868  1.00  0.00    -0.366 OA
HETATM    5  C7  UNL     1      21.898  -3.393   9.525  1.00  0.00     0.085 C 
HETATM    6  C8  UNL     1      21.693  -4.927   9.393  1.00  0.00     0.051 C 
HETATM    7  C9  UNL     1      21.831  -2.903   8.124  1.00  0.00     0.046 C 
HETATM    8  C10 UNL     1      21.443  -1.494   7.880  1.00  0.00     0.030 C 
HETATM    9  C11 UNL     1      20.446  -1.492   6.775  1.00  0.00    -0.024 C 
HETATM   10  C12 UNL     1      19.175  -1.347   7.013  1.00  0.00    -0.087 C 
HETATM   11  C13 UNL     1      18.225  -1.355   5.835  1.00  0.00     0.043 C 
HETATM   12  C14 UNL     1      18.619  -1.181   8.358  1.00  0.00     0.038 C 
HETATM   13  C15 UNL     1      17.864  -2.432   8.793  1.00  0.00     0.042 C 
HETATM   14  C16 UNL     1      18.714  -3.443   9.465  1.00  0.00    -0.033 C 
HETATM   15  C21 UNL     1      19.585  -2.927  10.561  1.00  0.00    -0.022 C 
HETATM   16  C27 UNL     1      20.942  -2.938  10.530  1.00  0.00    -0.002 C 
HETATM   17  C28 UNL     1      21.664  -2.466  11.777  1.00  0.00     0.195 C 
ENDROOT
BRANCH  14  18
HETATM   18  C17 UNL     1      17.993  -4.709   9.689  1.00  0.00     0.233 C 
HETATM   19  F1  UNL     1      16.601  -4.503   9.746  1.00  0.00    -0.241 F 
BRANCH  18  20
HETATM   20  C18 UNL     1      18.129  -5.839   8.741  1.00  0.00     0.085 C 
HETATM   21  C19 UNL     1      18.652  -7.131   9.245  1.00  0.00     0.049 C 
HETATM   22  C20 UNL     1      18.711  -5.539   7.396  1.00  0.00     0.049 C 
BRANCH  20  23
HETATM   23  O4  UNL     1      16.743  -6.179   8.415  1.00  0.00    -0.387 OA
ATOM     24  H4  UNL     1      16.758  -7.127   8.349  1.00  0.00     0.210 HD
ENDBRANCH  20  23
ENDBRANCH  18  20
ENDBRANCH  14  18
BRANCH  15  25
HETATM   25  C22 UNL     1      19.005  -2.203  11.727  1.00  0.00     0.018 C 
BRANCH  25  26
HETATM   26  C23 UNL     1      17.766  -2.545  12.349  1.00  0.00    -0.063 C 
HETATM   27  C24 UNL     1      17.541  -3.788  13.168  1.00  0.00     0.048 C 
BRANCH  26  28
HETATM   28  C25 UNL     1      16.667  -1.832  12.276  1.00  0.00     0.005 C 
BRANCH  28  29
HETATM   29  C26 UNL     1      15.510  -1.826  13.196  1.00  0.00     0.192 C 
BRANCH  29  30
HETATM   30  O5  UNL     1      15.598  -0.652  13.972  1.00  0.00    -0.397 OA
ATOM     31  H5  UNL     1      16.199  -0.830  14.686  1.00  0.00     0.209 HD
ENDBRANCH  29  30
ENDBRANCH  28  29
ENDBRANCH  26  28
ENDBRANCH  25  26
ENDBRANCH  15  25
BRANCH  17  32
HETATM   32  O6  UNL     1      22.567  -3.493  12.235  1.00  0.00    -0.307 OA
BRANCH  32  33
HETATM   33  C29 UNL     1      22.824  -3.677  13.572  1.00  0.00     0.255 C 
HETATM   34  C30 UNL     1      24.221  -3.606  14.132  1.00  0.00     0.126 C 
HETATM   35  O7  UNL     1      21.922  -3.913  14.408  1.00  0.00    -0.266 OA
ENDBRANCH  32  33
ENDBRANCH  17  32
BRANCH   3  36
HETATM   36  C4  UNL     1      25.005  -2.098  10.848  1.00  0.00     0.147 C 
BRANCH  36  37
HETATM   37  C5  UNL     1      26.088  -1.303  10.346  1.00  0.00     0.261 C 
HETATM   38  O1  UNL     1      26.123  -0.076  10.136  1.00  0.00    -0.265 OA
BRANCH  37  39
HETATM   39  O2  UNL     1      27.281  -2.011  10.046  1.00  0.00    -0.326 OA
HETATM   40  C6  UNL     1      27.904  -2.757  11.072  1.00  0.00     0.213 C 
ENDBRANCH  37  39
ENDBRANCH  36  37
ENDBRANCH   3  36
TORSDOF 13
ENDMDL
MODEL 3
REMARK VINA RESULT: -6.005118878      2.585      5.544
REMARK  13 active torsions:
REMARK  status: ('A' for Active; 'I' for Inactive)
REMARK    1  A    between atoms: C3_3  and  C4_4 
REMARK    2  A    between atoms: C4_4  and  C5_5 
REMARK    3  A    between atoms: C5_5  and  O2_7 
REMARK    4  A    between atoms: C16_19  and  C17_20 
REMARK    5  A    between atoms: C17_20  and  C18_22 
REMARK    6  A    between atoms: C18_22  and  O4_25 
REMARK    7  A    between atoms: C21_27  and  C22_28 
REMARK    8  A    between atoms: C22_28  and  C23_29 
REMARK    9  A    between atoms: C23_29  and  C25_31 
REMARK   10  A    between atoms: C25_31  and  C26_32 
REMARK   11  A    between atoms: C26_32  and  O5_33 
REMARK   12  A    between atoms: C28_36  and  O6_37 
REMARK   13  A    between atoms: O6_37  and  C29_38 
ROOT
HETATM    1  C1  UNL     1      22.416  -0.198  11.720  1.00  0.00     0.020 C 
HETATM    2  C2  UNL     1      22.623  -1.379  11.302  1.00  0.00    -0.027 C 
HETATM    3  C3  UNL     1      23.609  -1.881  10.358  1.00  0.00     0.163 C 
HETATM    4  O3  UNL     1      23.230  -3.114   9.856  1.00  0.00    -0.366 OA
HETATM    5  C7  UNL     1      21.945  -3.375   9.485  1.00  0.00     0.085 C 
HETATM    6  C8  UNL     1      21.778  -4.910   9.321  1.00  0.00     0.051 C 
HETATM    7  C9  UNL     1      21.890  -2.860   8.092  1.00  0.00     0.046 C 
HETATM    8  C10 UNL     1      21.474  -1.456   7.867  1.00  0.00     0.030 C 
HETATM    9  C11 UNL     1      20.496  -1.456   6.746  1.00  0.00    -0.024 C 
HETATM   10  C12 UNL     1      19.219  -1.345   6.964  1.00  0.00    -0.087 C 
HETATM   11  C13 UNL     1      18.289  -1.353   5.770  1.00  0.00     0.043 C 
HETATM   12  C14 UNL     1      18.635  -1.217   8.302  1.00  0.00     0.038 C 
HETATM   13  C15 UNL     1      17.903  -2.494   8.701  1.00  0.00     0.042 C 
HETATM   14  C16 UNL     1      18.764  -3.497   9.368  1.00  0.00    -0.033 C 
HETATM   15  C21 UNL     1      19.604  -2.982  10.489  1.00  0.00    -0.022 C 
HETATM   16  C27 UNL     1      20.962  -2.961  10.481  1.00  0.00    -0.002 C 
HETATM   17  C28 UNL     1      21.650  -2.496  11.750  1.00  0.00     0.195 C 
ENDROOT
BRANCH  14  18
HETATM   18  C17 UNL     1      18.070  -4.783   9.556  1.00  0.00     0.233 C 
HETATM   19  F1  UNL     1      16.674  -4.607   9.625  1.00  0.00    -0.241 F 
BRANCH  18  20
HETATM   20  C18 UNL     1      18.224  -5.881   8.574  1.00  0.00     0.085 C 
HETATM   21  C19 UNL     1      18.729  -7.192   9.046  1.00  0.00     0.049 C 
HETATM   22  C20 UNL     1      18.839  -5.539   7.254  1.00  0.00     0.049 C 
BRANCH  20  23
HETATM   23  O4  UNL     1      16.845  -6.203   8.203  1.00  0.00    -0.387 OA
ATOM     24  H4  UNL     1      16.947  -6.803   7.474  1.00  0.00     0.210 HD
ENDBRANCH  20  23
ENDBRANCH  18  20
ENDBRANCH  14  18
BRANCH  15  25
HETATM   25  C22 UNL     1      18.988  -2.294  11.658  1.00  0.00     0.018 C 
BRANCH  25  26
HETATM   26  C23 UNL     1      17.771  -2.705  12.282  1.00  0.00    -0.063 C 
HETATM   27  C24 UNL     1      16.540  -1.847  12.392  1.00  0.00     0.048 C 
BRANCH  26  28
HETATM   28  C25 UNL     1      17.576  -3.871  12.852  1.00  0.00     0.005 C 
BRANCH  28  29
HETATM   29  C26 UNL     1      17.668  -4.224  14.284  1.00  0.00     0.192 C 
BRANCH  29  30
HETATM   30  O5  UNL     1      19.030  -4.165  14.643  1.00  0.00    -0.397 OA
ATOM     31  H5  UNL     1      19.075  -4.218  15.591  1.00  0.00     0.209 HD
ENDBRANCH  29  30
ENDBRANCH  28  29
ENDBRANCH  26  28
ENDBRANCH  25  26
ENDBRANCH  15  25
BRANCH  17  32
HETATM   32  O6  UNL     1      22.569  -3.511  12.204  1.00  0.00    -0.307 OA
BRANCH  32  33
HETATM   33  C29 UNL     1      22.831  -3.693  13.540  1.00  0.00     0.255 C 
HETATM   34  C30 UNL     1      24.234  -3.658  14.089  1.00  0.00     0.126 C 
HETATM   35  O7  UNL     1      21.930  -3.899  14.384  1.00  0.00    -0.266 OA
ENDBRANCH  32  33
ENDBRANCH  17  32
BRANCH   3  36
HETATM   36  C4  UNL     1      24.998  -2.034  10.886  1.00  0.00     0.147 C 
BRANCH  36  37
HETATM   37  C5  UNL     1      26.085  -1.257  10.364  1.00  0.00     0.261 C 
HETATM   38  O1  UNL     1      26.133  -0.032  10.146  1.00  0.00    -0.265 OA
BRANCH  37  39
HETATM   39  O2  UNL     1      27.265  -1.984  10.054  1.00  0.00    -0.326 OA
HETATM   40  C6  UNL     1      27.868  -2.763  11.066  1.00  0.00     0.213 C 
ENDBRANCH  37  39
ENDBRANCH  36  37
ENDBRANCH   3  36
TORSDOF 13
ENDMDL
MODEL 4
REMARK VINA RESULT: -5.941772468      2.487      4.953
REMARK  13 active torsions:
REMARK  status: ('A' for Active; 'I' for Inactive)
REMARK    1  A    between atoms: C3_3  and  C4_4 
REMARK    2  A    between atoms: C4_4  and  C5_5 
REMARK    3  A    between atoms: C5_5  and  O2_7 
REMARK    4  A    between atoms: C16_19  and  C17_20 
REMARK    5  A    between atoms: C17_20  and  C18_22 
REMARK    6  A    between atoms: C18_22  and  O4_25 
REMARK    7  A    between atoms: C21_27  and  C22_28 
REMARK    8  A    between atoms: C22_28  and  C23_29 
REMARK    9  A    between atoms: C23_29  and  C25_31 
REMARK   10  A    between atoms: C25_31  and  C26_32 
REMARK   11  A    between atoms: C26_32  and  O5_33 
REMARK   12  A    between atoms: C28_36  and  O6_37 
REMARK   13  A    between atoms: O6_37  and  C29_38 
ROOT
HETATM    1  C1  UNL     1      19.080  -2.849  11.891  1.00  0.00     0.020 C 
HETATM    2  C2  UNL     1      19.382  -2.209  10.837  1.00  0.00    -0.027 C 
HETATM    3  C3  UNL     1      18.573  -1.331  10.007  1.00  0.00     0.163 C 
HETATM    4  O3  UNL     1      19.130  -1.188   8.748  1.00  0.00    -0.366 OA
HETATM    5  C7  UNL     1      19.649  -2.248   8.067  1.00  0.00     0.085 C 
HETATM    6  C8  UNL     1      20.504  -1.710   6.887  1.00  0.00     0.051 C 
HETATM    7  C9  UNL     1      18.455  -2.834   7.405  1.00  0.00     0.046 C 
HETATM    8  C10 UNL     1      17.698  -3.895   8.109  1.00  0.00     0.030 C 
HETATM    9  C11 UNL     1      17.423  -4.974   7.122  1.00  0.00    -0.024 C 
HETATM   10  C12 UNL     1      18.115  -6.075   7.115  1.00  0.00    -0.087 C 
HETATM   11  C13 UNL     1      17.772  -7.125   6.080  1.00  0.00     0.043 C 
HETATM   12  C14 UNL     1      19.208  -6.349   8.051  1.00  0.00     0.038 C 
HETATM   13  C15 UNL     1      20.557  -6.295   7.343  1.00  0.00     0.042 C 
HETATM   14  C16 UNL     1      21.165  -4.945   7.308  1.00  0.00    -0.033 C 
HETATM   15  C21 UNL     1      21.210  -4.225   8.614  1.00  0.00    -0.022 C 
HETATM   16  C27 UNL     1      20.543  -3.071   8.876  1.00  0.00    -0.002 C 
HETATM   17  C28 UNL     1      20.787  -2.426  10.226  1.00  0.00     0.195 C 
ENDROOT
BRANCH  14  18
HETATM   18  C17 UNL     1      22.362  -4.900   6.450  1.00  0.00     0.233 C 
HETATM   19  F1  UNL     1      23.171  -6.037   6.637  1.00  0.00    -0.241 F 
BRANCH  18  20
HETATM   20  C18 UNL     1      22.237  -4.813   4.976  1.00  0.00     0.085 C 
HETATM   21  C19 UNL     1      20.969  -5.241   4.342  1.00  0.00     0.049 C 
HETATM   22  C20 UNL     1      23.402  -5.281   4.161  1.00  0.00     0.049 C 
BRANCH  20  23
HETATM   23  O4  UNL     1      22.234  -3.372   4.719  1.00  0.00    -0.387 OA
ATOM     24  H4  UNL     1      22.095  -2.994   5.579  1.00  0.00     0.210 HD
ENDBRANCH  20  23
ENDBRANCH  18  20
ENDBRANCH  14  18
BRANCH  15  25
HETATM   25  C22 UNL     1      21.885  -4.824   9.799  1.00  0.00     0.018 C 
BRANCH  25  26
HETATM   26  C23 UNL     1      23.217  -4.514  10.207  1.00  0.00    -0.063 C 
HETATM   27  C24 UNL     1      23.677  -4.460  11.639  1.00  0.00     0.048 C 
BRANCH  26  28
HETATM   28  C25 UNL     1      24.203  -4.223   9.392  1.00  0.00     0.005 C 
BRANCH  28  29
HETATM   29  C26 UNL     1      25.572  -3.775   9.724  1.00  0.00     0.192 C 
BRANCH  29  30
HETATM   30  O5  UNL     1      25.622  -2.383   9.507  1.00  0.00    -0.397 OA
ATOM     31  H5  UNL     1      26.539  -2.131   9.500  1.00  0.00     0.209 HD
ENDBRANCH  29  30
ENDBRANCH  28  29
ENDBRANCH  26  28
ENDBRANCH  25  26
ENDBRANCH  15  25
BRANCH  17  32
HETATM   32  O6  UNL     1      21.232  -1.066  10.042  1.00  0.00    -0.307 OA
BRANCH  32  33
HETATM   33  C29 UNL     1      22.564  -0.735  10.100  1.00  0.00     0.255 C 
HETATM   34  C30 UNL     1      23.259  -0.456  11.408  1.00  0.00     0.126 C 
HETATM   35  O7  UNL     1      23.284  -0.643   9.080  1.00  0.00    -0.266 OA
ENDBRANCH  32  33
ENDBRANCH  17  32
BRANCH   3  36
HETATM   36  C4  UNL     1      18.346   0.045  10.542  1.00  0.00     0.147 C 
BRANCH  36  37
HETATM   37  C5  UNL     1      17.175   0.798  10.195  1.00  0.00     0.261 C 
HETATM   38  O1  UNL     1      15.994   0.410  10.116  1.00  0.00    -0.265 OA
BRANCH  37  39
HETATM   39  O2  UNL     1      17.392   2.170   9.901  1.00  0.00    -0.326 OA
HETATM   40  C6  UNL     1      16.700   2.750   8.815  1.00  0.00     0.213 C 
ENDBRANCH  37  39
ENDBRANCH  36  37
ENDBRANCH   3  36
TORSDOF 13
ENDMDL
MODEL 5
REMARK VINA RESULT: -5.926977647      1.017      1.459
REMARK  13 active torsions:
REMARK  status: ('A' for Active; 'I' for Inactive)
REMARK    1  A    between atoms: C3_3  and  C4_4 
REMARK    2  A    between atoms: C4_4  and  C5_5 
REMARK    3  A    between atoms: C5_5  and  O2_7 
REMARK    4  A    between atoms: C16_19  and  C17_20 
REMARK    5  A    between atoms: C17_20  and  C18_22 
REMARK    6  A    between atoms: C18_22  and  O4_25 
REMARK    7  A    between atoms: C21_27  and  C22_28 
REMARK    8  A    between atoms: C22_28  and  C23_29 
REMARK    9  A    between atoms: C23_29  and  C25_31 
REMARK   10  A    between atoms: C25_31  and  C26_32 
REMARK   11  A    between atoms: C26_32  and  O5_33 
REMARK   12  A    between atoms: C28_36  and  O6_37 
REMARK   13  A    between atoms: O6_37  and  C29_38 
ROOT
HETATM    1  C1  UNL     1      23.705  -4.890  11.847  1.00  0.00     0.020 C 
HETATM    2  C2  UNL     1      23.625  -3.702  11.408  1.00  0.00    -0.027 C 
HETATM    3  C3  UNL     1      23.300  -2.465  12.101  1.00  0.00     0.163 C 
HETATM    4  O3  UNL     1      22.900  -1.487  11.206  1.00  0.00    -0.366 OA
HETATM    5  C7  UNL     1      22.062  -1.761  10.168  1.00  0.00     0.085 C 
HETATM    6  C8  UNL     1      22.106  -0.575   9.167  1.00  0.00     0.051 C 
HETATM    7  C9  UNL     1      20.717  -1.654  10.790  1.00  0.00     0.046 C 
HETATM    8  C10 UNL     1      20.099  -2.871  11.367  1.00  0.00     0.030 C 
HETATM    9  C11 UNL     1      18.684  -2.911  10.910  1.00  0.00    -0.024 C 
HETATM   10  C12 UNL     1      18.307  -3.701   9.949  1.00  0.00    -0.087 C 
HETATM   11  C13 UNL     1      16.850  -3.683   9.543  1.00  0.00     0.043 C 
HETATM   12  C14 UNL     1      19.219  -4.601   9.238  1.00  0.00     0.038 C 
HETATM   13  C15 UNL     1      19.474  -4.109   7.818  1.00  0.00     0.042 C 
HETATM   14  C16 UNL     1      20.608  -3.162   7.704  1.00  0.00    -0.033 C 
HETATM   15  C21 UNL     1      21.875  -3.592   8.364  1.00  0.00    -0.022 C 
HETATM   16  C27 UNL     1      22.451  -2.948   9.411  1.00  0.00    -0.002 C 
HETATM   17  C28 UNL     1      23.792  -3.469   9.888  1.00  0.00     0.195 C 
ENDROOT
BRANCH  14  18
HETATM   18  C17 UNL     1      20.693  -2.562   6.361  1.00  0.00     0.233 C 
HETATM   19  F1  UNL     1      20.313  -3.481   5.364  1.00  0.00    -0.241 F 
BRANCH  18  20
HETATM   20  C18 UNL     1      19.914  -1.350   6.019  1.00  0.00     0.085 C 
HETATM   21  C19 UNL     1      18.940  -0.827   7.005  1.00  0.00     0.049 C 
HETATM   22  C20 UNL     1      19.339  -1.272   4.639  1.00  0.00     0.049 C 
BRANCH  20  23
HETATM   23  O4  UNL     1      20.923  -0.290   5.998  1.00  0.00    -0.387 OA
ATOM     24  H4  UNL     1      21.698  -0.716   6.347  1.00  0.00     0.210 HD
ENDBRANCH  20  23
ENDBRANCH  18  20
ENDBRANCH  14  18
BRANCH  15  25
HETATM   25  C22 UNL     1      22.528  -4.883   8.006  1.00  0.00     0.018 C 
BRANCH  25  26
HETATM   26  C23 UNL     1      22.359  -5.548   6.754  1.00  0.00    -0.063 C 
HETATM   27  C24 UNL     1      23.128  -5.214   5.504  1.00  0.00     0.048 C 
BRANCH  26  28
HETATM   28  C25 UNL     1      21.506  -6.519   6.528  1.00  0.00     0.005 C 
BRANCH  28  29
HETATM   29  C26 UNL     1      20.632  -6.724   5.354  1.00  0.00     0.192 C 
BRANCH  29  30
HETATM   30  O5  UNL     1      19.808  -7.834   5.633  1.00  0.00    -0.397 OA
ATOM     31  H5  UNL     1      19.303  -7.622   6.409  1.00  0.00     0.209 HD
ENDBRANCH  29  30
ENDBRANCH  28  29
ENDBRANCH  26  28
ENDBRANCH  25  26
ENDBRANCH  15  25
BRANCH  17  32
HETATM   32  O6  UNL     1      24.764  -2.403   9.866  1.00  0.00    -0.307 OA
BRANCH  32  33
HETATM   33  C29 UNL     1      26.108  -2.662   9.756  1.00  0.00     0.255 C 
HETATM   34  C30 UNL     1      26.631  -3.847   8.985  1.00  0.00     0.126 C 
HETATM   35  O7  UNL     1      26.982  -1.938  10.285  1.00  0.00    -0.266 OA
ENDBRANCH  32  33
ENDBRANCH  17  32
BRANCH   3  36
HETATM   36  C4  UNL     1      24.392  -1.876  12.932  1.00  0.00     0.147 C 
BRANCH  36  37
HETATM   37  C5  UNL     1      24.107  -0.975  14.011  1.00  0.00     0.261 C 
HETATM   38  O1  UNL     1      23.706   0.203  13.958  1.00  0.00    -0.265 OA
BRANCH  37  39
HETATM   39  O2  UNL     1      24.311  -1.497  15.316  1.00  0.00    -0.326 OA
HETATM   40  C6  UNL     1      23.395  -2.448  15.817  1.00  0.00     0.213 C 
ENDBRANCH  37  39
ENDBRANCH  36  37
ENDBRANCH   3  36
TORSDOF 13
ENDMDL
