MODEL 1
REMARK VINA RESULT: -8.678761785      0.000      0.000
REMARK  8 active torsions:
REMARK  status: ('A' for Active; 'I' for Inactive)
REMARK    1  A    between atoms: C2_2  and  C3_3 
REMARK    2  A    between atoms: C3_3  and  N1_4 
REMARK    3  A    between atoms: C5_6  and  N2_7 
REMARK    4  A    between atoms: N2_7  and  C6_9 
REMARK    5  A    between atoms: C13_18  and  C14_19 
REMARK    6  A    between atoms: N5_25  and  C17_26 
REMARK    7  A    between atoms: C17_26  and  C18_27 
REMARK    8  A    between atoms: C24_34  and  N6_35 
ROOT
HETATM    1  C14 UNL     1      22.018  -2.975  12.676  1.00  0.00     0.153 A 
HETATM    2  N4  UNL     1      22.774  -3.594  11.721  1.00  0.00    -0.332 N 
ATOM      3  H4  UNL     1      23.629  -4.116  11.911  1.00  0.00     0.168 HD
HETATM    4  C15 UNL     1      22.244  -3.425  10.503  1.00  0.00     0.148 A 
HETATM    5  C16 UNL     1      22.626  -3.845   9.240  1.00  0.00     0.292 A 
HETATM    6  O1  UNL     1      23.667  -4.523   9.121  1.00  0.00    -0.265 OA
HETATM    7  N5  UNL     1      21.840  -3.493   8.170  1.00  0.00    -0.141 N 
HETATM    8  C24 UNL     1      20.747  -2.762   8.381  1.00  0.00     0.687 A 
HETATM    9  N7  UNL     1      20.378  -2.347   9.653  1.00  0.00    -0.174 N 
ATOM     10  H7  UNL     1      19.534  -1.789   9.779  1.00  0.00     0.186 HD
HETATM   11  C29 UNL     1      21.115  -2.673  10.705  1.00  0.00     0.155 A 
HETATM   12  N8  UNL     1      21.020  -2.425  12.038  1.00  0.00    -0.323 N 
ATOM     13  H8  UNL     1      20.274  -1.886  12.479  1.00  0.00     0.169 HD
ENDROOT
BRANCH   1  14
HETATM   14  C13 UNL     1      22.399  -3.033  14.090  1.00  0.00     0.154 A 
HETATM   15  N1  UNL     1      23.354  -2.365  14.742  1.00  0.00    -0.337 N 
HETATM   16  C4  UNL     1      23.298  -2.735  16.063  1.00  0.00     0.140 A 
HETATM   17  C5  UNL     1      22.290  -3.649  16.234  1.00  0.00     0.118 A 
HETATM   18  N3  UNL     1      21.761  -3.813  15.020  1.00  0.00    -0.324 N 
ATOM     19  H3  UNL     1      20.981  -4.437  14.810  1.00  0.00     0.169 HD
BRANCH  15  20
HETATM   20  C3  UNL     1      24.358  -1.431  14.289  1.00  0.00     0.130 C 
BRANCH  20  21
HETATM   21  C2  UNL     1      23.983   0.009  14.406  1.00  0.00     0.016 C 
HETATM   22  C1  UNL     1      23.988   0.828  13.177  1.00  0.00     0.006 C 
ENDBRANCH  20  21
ENDBRANCH  15  20
BRANCH  17  23
HETATM   23  N2  UNL     1      21.891  -4.293  17.453  1.00  0.00    -0.370 N 
ATOM     24  H2  UNL     1      21.111  -4.949  17.434  1.00  0.00     0.161 HD
BRANCH  23  25
HETATM   25  C6  UNL     1      22.557  -4.041  18.702  1.00  0.00     0.087 C 
HETATM   26  C7  UNL     1      21.574  -3.599  19.760  1.00  0.00     0.030 C 
HETATM   27  C8  UNL     1      21.805  -4.516  20.938  1.00  0.00    -0.012 C 
HETATM   28  C9  UNL     1      21.225  -5.848  20.582  1.00  0.00     0.005 C 
HETATM   29  C12 UNL     1      23.307  -4.800  20.771  1.00  0.00     0.011 C 
HETATM   30  C10 UNL     1      22.159  -6.351  19.474  1.00  0.00     0.007 C 
HETATM   31  C11 UNL     1      23.195  -5.264  19.306  1.00  0.00     0.009 C 
ENDBRANCH  23  25
ENDBRANCH  17  23
ENDBRANCH   1  14
BRANCH   7  32
HETATM   32  C17 UNL     1      22.236  -3.929   6.864  1.00  0.00     0.189 C 
BRANCH  32  33
HETATM   33  C18 UNL     1      21.545  -5.046   6.251  1.00  0.00    -0.039 A 
HETATM   34  C19 UNL     1      21.518  -5.146   4.853  1.00  0.00     0.010 A 
HETATM   35  C20 UNL     1      20.897  -6.152   4.170  1.00  0.00     0.024 A 
HETATM   36  C21 UNL     1      20.248  -7.148   4.860  1.00  0.00     0.034 A 
HETATM   37 CL1  UNL     1      19.448  -8.444   3.994  1.00  0.00    -0.084 Cl
HETATM   38  C22 UNL     1      20.251  -7.086   6.222  1.00  0.00     0.024 A 
HETATM   39  C23 UNL     1      20.893  -6.047   6.915  1.00  0.00     0.010 A 
ENDBRANCH  32  33
ENDBRANCH   7  32
BRANCH   8  40
HETATM   40  N6  UNL     1      19.896  -2.342   7.329  1.00  0.00    -0.217 N 
HETATM   41  C25 UNL     1      20.116  -1.135   6.531  1.00  0.00     0.141 C 
HETATM   42  C26 UNL     1      20.036  -1.748   5.129  1.00  0.00     0.022 C 
HETATM   43  C27 UNL     1      18.817  -2.636   5.255  1.00  0.00     0.022 C 
HETATM   44  C28 UNL     1      18.707  -2.927   6.756  1.00  0.00     0.141 C 
ENDBRANCH   8  40
TORSDOF 8
ENDMDL
MODEL 2
REMARK VINA RESULT: -8.314321443      5.639      7.910
REMARK  8 active torsions:
REMARK  status: ('A' for Active; 'I' for Inactive)
REMARK    1  A    between atoms: C2_2  and  C3_3 
REMARK    2  A    between atoms: C3_3  and  N1_4 
REMARK    3  A    between atoms: C5_6  and  N2_7 
REMARK    4  A    between atoms: N2_7  and  C6_9 
REMARK    5  A    between atoms: C13_18  and  C14_19 
REMARK    6  A    between atoms: N5_25  and  C17_26 
REMARK    7  A    between atoms: C17_26  and  C18_27 
REMARK    8  A    between atoms: C24_34  and  N6_35 
ROOT
HETATM    1  C14 UNL     1      19.194  -1.086  11.320  1.00  0.00     0.153 A 
HETATM    2  N4  UNL     1      20.021  -1.952  11.976  1.00  0.00    -0.332 N 
ATOM      3  H4  UNL     1      19.703  -2.762  12.508  1.00  0.00     0.168 HD
HETATM    4  C15 UNL     1      21.304  -1.598  11.829  1.00  0.00     0.148 A 
HETATM    5  C16 UNL     1      22.491  -2.140  12.291  1.00  0.00     0.292 A 
HETATM    6  O1  UNL     1      22.449  -3.167  12.999  1.00  0.00    -0.265 OA
HETATM    7  N5  UNL     1      23.668  -1.518  11.951  1.00  0.00    -0.141 N 
HETATM    8  C24 UNL     1      23.626  -0.421  11.197  1.00  0.00     0.687 A 
HETATM    9  N7  UNL     1      22.427   0.110  10.742  1.00  0.00    -0.174 N 
ATOM     10  H7  UNL     1      22.432   0.951  10.165  1.00  0.00     0.186 HD
HETATM   11  C29 UNL     1      21.277  -0.469  11.053  1.00  0.00     0.155 A 
HETATM   12  N8  UNL     1      19.976  -0.196  10.768  1.00  0.00    -0.323 N 
ATOM     13  H8  UNL     1      19.655   0.591  10.204  1.00  0.00     0.169 HD
ENDROOT
BRANCH   1  14
HETATM   14  C13 UNL     1      17.740  -1.279  11.331  1.00  0.00     0.154 A 
HETATM   15  N1  UNL     1      16.808  -0.757  10.531  1.00  0.00    -0.337 N 
HETATM   16  C4  UNL     1      15.592  -1.268  10.915  1.00  0.00     0.140 A 
HETATM   17  C5  UNL     1      15.774  -2.121  11.973  1.00  0.00     0.118 A 
HETATM   18  N3  UNL     1      17.088  -2.109  12.205  1.00  0.00    -0.324 N 
ATOM     19  H3  UNL     1      17.549  -2.649  12.939  1.00  0.00     0.169 HD
BRANCH  15  20
HETATM   20  C3  UNL     1      16.887   0.199   9.452  1.00  0.00     0.130 C 
BRANCH  20  21
HETATM   21  C2  UNL     1      16.964   1.629   9.875  1.00  0.00     0.016 C 
HETATM   22  C1  UNL     1      16.568   2.663   8.899  1.00  0.00     0.006 C 
ENDBRANCH  20  21
ENDBRANCH  15  20
BRANCH  17  23
HETATM   23  N2  UNL     1      14.770  -2.865  12.679  1.00  0.00    -0.370 N 
ATOM     24  H2  UNL     1      14.372  -2.472  13.532  1.00  0.00     0.161 HD
BRANCH  23  25
HETATM   25  C6  UNL     1      14.308  -4.146  12.222  1.00  0.00     0.087 C 
HETATM   26  C7  UNL     1      15.049  -4.577  10.978  1.00  0.00     0.030 C 
HETATM   27  C8  UNL     1      15.576  -5.960  11.277  1.00  0.00    -0.012 C 
HETATM   28  C9  UNL     1      16.723  -5.802  12.224  1.00  0.00     0.005 C 
HETATM   29  C12 UNL     1      14.481  -6.467  12.231  1.00  0.00     0.011 C 
HETATM   30  C10 UNL     1      16.047  -5.326  13.515  1.00  0.00     0.007 C 
HETATM   31  C11 UNL     1      14.572  -5.267  13.192  1.00  0.00     0.009 C 
ENDBRANCH  23  25
ENDBRANCH  17  23
ENDBRANCH   1  14
BRANCH   7  32
HETATM   32  C17 UNL     1      24.896  -2.078  12.429  1.00  0.00     0.189 C 
BRANCH  32  33
HETATM   33  C18 UNL     1      25.811  -2.689  11.484  1.00  0.00    -0.039 A 
HETATM   34  C19 UNL     1      27.191  -2.533  11.674  1.00  0.00     0.010 A 
HETATM   35  C20 UNL     1      28.141  -3.062  10.848  1.00  0.00     0.024 A 
HETATM   36  C21 UNL     1      27.761  -3.799   9.752  1.00  0.00     0.034 A 
HETATM   37 CL1  UNL     1      28.972  -4.482   8.685  1.00  0.00    -0.084 Cl
HETATM   38  C22 UNL     1      26.426  -3.974   9.533  1.00  0.00     0.024 A 
HETATM   39  C23 UNL     1      25.457  -3.426  10.388  1.00  0.00     0.010 A 
ENDBRANCH  32  33
ENDBRANCH   7  32
BRANCH   8  40
HETATM   40  N6  UNL     1      24.793   0.290  10.819  1.00  0.00    -0.217 N 
HETATM   41  C25 UNL     1      25.458   0.140   9.523  1.00  0.00     0.141 C 
HETATM   42  C26 UNL     1      25.528   1.614   9.111  1.00  0.00     0.022 C 
HETATM   43  C27 UNL     1      26.003   2.266  10.392  1.00  0.00     0.022 C 
HETATM   44  C28 UNL     1      25.574   1.296  11.499  1.00  0.00     0.141 C 
ENDBRANCH   8  40
TORSDOF 8
ENDMDL
MODEL 3
REMARK VINA RESULT: -8.162140404      3.831      9.453
REMARK  8 active torsions:
REMARK  status: ('A' for Active; 'I' for Inactive)
REMARK    1  A    between atoms: C2_2  and  C3_3 
REMARK    2  A    between atoms: C3_3  and  N1_4 
REMARK    3  A    between atoms: C5_6  and  N2_7 
REMARK    4  A    between atoms: N2_7  and  C6_9 
REMARK    5  A    between atoms: C13_18  and  C14_19 
REMARK    6  A    between atoms: N5_25  and  C17_26 
REMARK    7  A    between atoms: C17_26  and  C18_27 
REMARK    8  A    between atoms: C24_34  and  N6_35 
ROOT
HETATM    1  C14 UNL     1      21.453  -3.937   8.075  1.00  0.00     0.153 A 
HETATM    2  N4  UNL     1      21.898  -4.476   9.248  1.00  0.00    -0.332 N 
ATOM      3  H4  UNL     1      21.608  -5.384   9.612  1.00  0.00     0.168 HD
HETATM    4  C15 UNL     1      22.763  -3.657   9.859  1.00  0.00     0.148 A 
HETATM    5  C16 UNL     1      23.472  -3.745  11.045  1.00  0.00     0.292 A 
HETATM    6  O1  UNL     1      23.335  -4.764  11.753  1.00  0.00    -0.265 OA
HETATM    7  N5  UNL     1      24.297  -2.704  11.391  1.00  0.00    -0.141 N 
HETATM    8  C24 UNL     1      24.383  -1.649  10.582  1.00  0.00     0.687 A 
HETATM    9  N7  UNL     1      23.665  -1.574   9.398  1.00  0.00    -0.174 N 
ATOM     10  H7  UNL     1      23.755  -0.751   8.801  1.00  0.00     0.186 HD
HETATM   11  C29 UNL     1      22.862  -2.564   9.036  1.00  0.00     0.155 A 
HETATM   12  N8  UNL     1      22.051  -2.780   7.967  1.00  0.00    -0.323 N 
ATOM     13  H8  UNL     1      21.925  -2.131   7.190  1.00  0.00     0.169 HD
ENDROOT
BRANCH   1  14
HETATM   14  C13 UNL     1      20.503  -4.662   7.226  1.00  0.00     0.154 A 
HETATM   15  N1  UNL     1      20.553  -4.910   5.915  1.00  0.00    -0.337 N 
HETATM   16  C4  UNL     1      19.449  -5.659   5.588  1.00  0.00     0.140 A 
HETATM   17  C5  UNL     1      18.700  -5.877   6.716  1.00  0.00     0.118 A 
HETATM   18  N3  UNL     1      19.364  -5.261   7.696  1.00  0.00    -0.324 N 
ATOM     19  H3  UNL     1      19.061  -5.238   8.671  1.00  0.00     0.169 HD
BRANCH  15  20
HETATM   20  C3  UNL     1      21.492  -4.512   4.893  1.00  0.00     0.130 C 
BRANCH  20  21
HETATM   21  C2  UNL     1      22.321  -5.618   4.328  1.00  0.00     0.016 C 
HETATM   22  C1  UNL     1      22.135  -5.966   2.905  1.00  0.00     0.006 C 
ENDBRANCH  20  21
ENDBRANCH  15  20
BRANCH  17  23
HETATM   23  N2  UNL     1      17.470  -6.608   6.821  1.00  0.00    -0.370 N 
ATOM     24  H2  UNL     1      16.672  -6.316   6.257  1.00  0.00     0.161 HD
BRANCH  23  25
HETATM   25  C6  UNL     1      17.327  -7.739   7.695  1.00  0.00     0.087 C 
HETATM   26  C7  UNL     1      18.569  -7.937   8.532  1.00  0.00     0.030 C 
HETATM   27  C8  UNL     1      18.089  -8.001   9.963  1.00  0.00    -0.012 C 
HETATM   28  C9  UNL     1      17.717  -6.610  10.369  1.00  0.00     0.005 C 
HETATM   29  C12 UNL     1      16.698  -8.623   9.754  1.00  0.00     0.011 C 
HETATM   30  C10 UNL     1      16.470  -6.321   9.524  1.00  0.00     0.007 C 
HETATM   31  C11 UNL     1      16.235  -7.579   8.720  1.00  0.00     0.009 C 
ENDBRANCH  23  25
ENDBRANCH  17  23
ENDBRANCH   1  14
BRANCH   7  32
HETATM   32  C17 UNL     1      25.031  -2.796  12.617  1.00  0.00     0.189 C 
BRANCH  32  33
HETATM   33  C18 UNL     1      24.343  -2.569  13.873  1.00  0.00    -0.039 A 
HETATM   34  C19 UNL     1      23.839  -3.668  14.582  1.00  0.00     0.010 A 
HETATM   35  C20 UNL     1      23.174  -3.571  15.771  1.00  0.00     0.024 A 
HETATM   36  C21 UNL     1      22.967  -2.338  16.340  1.00  0.00     0.034 A 
HETATM   37 CL1  UNL     1      22.115  -2.203  17.866  1.00  0.00    -0.084 Cl
HETATM   38  C22 UNL     1      23.443  -1.244  15.681  1.00  0.00     0.024 A 
HETATM   39  C23 UNL     1      24.125  -1.353  14.459  1.00  0.00     0.010 A 
ENDBRANCH  32  33
ENDBRANCH   7  32
BRANCH   8  40
HETATM   40  N6  UNL     1      25.196  -0.526  10.877  1.00  0.00    -0.217 N 
HETATM   41  C25 UNL     1      26.546  -0.331  10.347  1.00  0.00     0.141 C 
HETATM   42  C26 UNL     1      26.385   1.080   9.773  1.00  0.00     0.022 C 
HETATM   43  C27 UNL     1      25.659   1.785  10.899  1.00  0.00     0.022 C 
HETATM   44  C28 UNL     1      24.957   0.659  11.668  1.00  0.00     0.141 C 
ENDBRANCH   8  40
TORSDOF 8
ENDMDL
MODEL 4
REMARK VINA RESULT: -8.089771699      2.354      3.918
REMARK  8 active torsions:
REMARK  status: ('A' for Active; 'I' for Inactive)
REMARK    1  A    between atoms: C2_2  and  C3_3 
REMARK    2  A    between atoms: C3_3  and  N1_4 
REMARK    3  A    between atoms: C5_6  and  N2_7 
REMARK    4  A    between atoms: N2_7  and  C6_9 
REMARK    5  A    between atoms: C13_18  and  C14_19 
REMARK    6  A    between atoms: N5_25  and  C17_26 
REMARK    7  A    between atoms: C17_26  and  C18_27 
REMARK    8  A    between atoms: C24_34  and  N6_35 
ROOT
HETATM    1  C14 UNL     1      22.324  -2.489  12.579  1.00  0.00     0.153 A 
HETATM    2  N4  UNL     1      21.203  -1.898  12.069  1.00  0.00    -0.332 N 
ATOM      3  H4  UNL     1      20.658  -1.183  12.551  1.00  0.00     0.168 HD
HETATM    4  C15 UNL     1      20.914  -2.381  10.854  1.00  0.00     0.148 A 
HETATM    5  C16 UNL     1      19.902  -2.113   9.948  1.00  0.00     0.292 A 
HETATM    6  O1  UNL     1      19.039  -1.262  10.244  1.00  0.00    -0.265 OA
HETATM    7  N5  UNL     1      19.893  -2.800   8.759  1.00  0.00    -0.141 N 
HETATM    8  C24 UNL     1      20.848  -3.698   8.522  1.00  0.00     0.687 A 
HETATM    9  N7  UNL     1      21.854  -3.957   9.441  1.00  0.00    -0.174 N 
ATOM     10  H7  UNL     1      22.571  -4.650   9.226  1.00  0.00     0.186 HD
HETATM   11  C29 UNL     1      21.891  -3.308  10.596  1.00  0.00     0.155 A 
HETATM   12  N8  UNL     1      22.724  -3.338  11.670  1.00  0.00    -0.323 N 
ATOM     13  H8  UNL     1      23.544  -3.938  11.755  1.00  0.00     0.169 HD
ENDROOT
BRANCH   1  14
HETATM   14  C13 UNL     1      22.841  -2.110  13.898  1.00  0.00     0.154 A 
HETATM   15  N1  UNL     1      23.422  -0.973  14.288  1.00  0.00    -0.337 N 
HETATM   16  C4  UNL     1      23.698  -1.082  15.629  1.00  0.00     0.140 A 
HETATM   17  C5  UNL     1      23.281  -2.309  16.078  1.00  0.00     0.118 A 
HETATM   18  N3  UNL     1      22.764  -2.913  15.006  1.00  0.00    -0.324 N 
ATOM     19  H3  UNL     1      22.363  -3.851  15.010  1.00  0.00     0.169 HD
BRANCH  15  20
HETATM   20  C3  UNL     1      23.795   0.218  13.563  1.00  0.00     0.130 C 
BRANCH  20  21
HETATM   21  C2  UNL     1      24.440  -0.021  12.238  1.00  0.00     0.016 C 
HETATM   22  C1  UNL     1      25.138   1.108  11.592  1.00  0.00     0.006 C 
ENDBRANCH  20  21
ENDBRANCH  15  20
BRANCH  17  23
HETATM   23  N2  UNL     1      23.379  -2.832  17.411  1.00  0.00    -0.370 N 
ATOM     24  H2  UNL     1      24.298  -2.905  17.847  1.00  0.00     0.161 HD
BRANCH  23  25
HETATM   25  C6  UNL     1      22.223  -3.257  18.150  1.00  0.00     0.087 C 
HETATM   26  C7  UNL     1      21.992  -4.741  17.989  1.00  0.00     0.030 C 
HETATM   27  C8  UNL     1      21.887  -5.291  19.391  1.00  0.00    -0.012 C 
HETATM   28  C9  UNL     1      23.268  -5.302  19.967  1.00  0.00     0.005 C 
HETATM   29  C12 UNL     1      21.281  -4.077  20.114  1.00  0.00     0.011 C 
HETATM   30  C10 UNL     1      23.590  -3.811  20.128  1.00  0.00     0.007 C 
HETATM   31  C11 UNL     1      22.359  -3.084  19.640  1.00  0.00     0.009 C 
ENDBRANCH  23  25
ENDBRANCH  17  23
ENDBRANCH   1  14
BRANCH   7  32
HETATM   32  C17 UNL     1      18.846  -2.522   7.821  1.00  0.00     0.189 C 
BRANCH  32  33
HETATM   33  C18 UNL     1      18.956  -1.359   6.962  1.00  0.00    -0.039 A 
HETATM   34  C19 UNL     1      17.944  -0.390   6.996  1.00  0.00     0.010 A 
HETATM   35  C20 UNL     1      17.943   0.741   6.231  1.00  0.00     0.024 A 
HETATM   36  C21 UNL     1      18.981   0.981   5.364  1.00  0.00     0.034 A 
HETATM   37 CL1  UNL     1      18.990   2.430   4.378  1.00  0.00    -0.084 Cl
HETATM   38  C22 UNL     1      19.985   0.061   5.302  1.00  0.00     0.024 A 
HETATM   39  C23 UNL     1      19.977  -1.099   6.092  1.00  0.00     0.010 A 
ENDBRANCH  32  33
ENDBRANCH   7  32
BRANCH   8  40
HETATM   40  N6  UNL     1      20.897  -4.462   7.329  1.00  0.00    -0.217 N 
HETATM   41  C25 UNL     1      21.802  -4.181   6.214  1.00  0.00     0.141 C 
HETATM   42  C26 UNL     1      22.432  -5.568   6.051  1.00  0.00     0.022 C 
HETATM   43  C27 UNL     1      21.216  -6.465   6.128  1.00  0.00     0.022 C 
HETATM   44  C28 UNL     1      20.182  -5.644   6.908  1.00  0.00     0.141 C 
ENDBRANCH   8  40
TORSDOF 8
ENDMDL
MODEL 5
REMARK VINA RESULT: -8.038303176      1.114      1.495
REMARK  8 active torsions:
REMARK  status: ('A' for Active; 'I' for Inactive)
REMARK    1  A    between atoms: C2_2  and  C3_3 
REMARK    2  A    between atoms: C3_3  and  N1_4 
REMARK    3  A    between atoms: C5_6  and  N2_7 
REMARK    4  A    between atoms: N2_7  and  C6_9 
REMARK    5  A    between atoms: C13_18  and  C14_19 
REMARK    6  A    between atoms: N5_25  and  C17_26 
REMARK    7  A    between atoms: C17_26  and  C18_27 
REMARK    8  A    between atoms: C24_34  and  N6_35 
ROOT
HETATM    1  C14 UNL     1      22.095  -1.903  12.514  1.00  0.00     0.153 A 
HETATM    2  N4  UNL     1      22.777  -2.390  11.437  1.00  0.00    -0.332 N 
ATOM      3  H4  UNL     1      23.751  -2.694  11.459  1.00  0.00     0.168 HD
HETATM    4  C15 UNL     1      22.002  -2.414  10.345  1.00  0.00     0.148 A 
HETATM    5  C16 UNL     1      22.224  -2.809   9.037  1.00  0.00     0.292 A 
HETATM    6  O1  UNL     1      23.352  -3.242   8.723  1.00  0.00    -0.265 OA
HETATM    7  N5  UNL     1      21.190  -2.705   8.139  1.00  0.00    -0.141 N 
HETATM    8  C24 UNL     1      20.018  -2.226   8.553  1.00  0.00     0.687 A 
HETATM    9  N7  UNL     1      19.811  -1.834   9.868  1.00  0.00    -0.174 N 
ATOM     10  H7  UNL     1      18.900  -1.472  10.151  1.00  0.00     0.186 HD
HETATM   11  C29 UNL     1      20.789  -1.924  10.757  1.00  0.00     0.155 A 
HETATM   12  N8  UNL     1      20.893  -1.628  12.080  1.00  0.00    -0.323 N 
ATOM     13  H8  UNL     1      20.141  -1.246  12.653  1.00  0.00     0.169 HD
ENDROOT
BRANCH   1  14
HETATM   14  C13 UNL     1      22.739  -1.793  13.826  1.00  0.00     0.154 A 
HETATM   15  N1  UNL     1      23.505  -0.816  14.318  1.00  0.00    -0.337 N 
HETATM   16  C4  UNL     1      23.842  -1.154  15.605  1.00  0.00     0.140 A 
HETATM   17  C5  UNL     1      23.275  -2.364  15.918  1.00  0.00     0.118 A 
HETATM   18  N3  UNL     1      22.611  -2.729  14.819  1.00  0.00    -0.324 N 
ATOM     19  H3  UNL     1      22.077  -3.594  14.730  1.00  0.00     0.169 HD
BRANCH  15  20
HETATM   20  C3  UNL     1      24.006   0.404  13.731  1.00  0.00     0.130 C 
BRANCH  20  21
HETATM   21  C2  UNL     1      24.441   0.292  12.307  1.00  0.00     0.016 C 
HETATM   22  C1  UNL     1      25.204   1.414  11.725  1.00  0.00     0.006 C 
ENDBRANCH  20  21
ENDBRANCH  15  20
BRANCH  17  23
HETATM   23  N2  UNL     1      23.375  -3.082  17.156  1.00  0.00    -0.370 N 
ATOM     24  H2  UNL     1      24.296  -3.369  17.489  1.00  0.00     0.161 HD
BRANCH  23  25
HETATM   25  C6  UNL     1      22.218  -3.411  17.942  1.00  0.00     0.087 C 
HETATM   26  C7  UNL     1      21.948  -4.897  17.913  1.00  0.00     0.030 C 
HETATM   27  C8  UNL     1      21.847  -5.320  19.359  1.00  0.00    -0.012 C 
HETATM   28  C9  UNL     1      23.234  -5.317  19.919  1.00  0.00     0.005 C 
HETATM   29  C12 UNL     1      21.281  -4.033  19.980  1.00  0.00     0.011 C 
HETATM   30  C10 UNL     1      23.596  -3.827  19.946  1.00  0.00     0.007 C 
HETATM   31  C11 UNL     1      22.377  -3.113  19.410  1.00  0.00     0.009 C 
ENDBRANCH  23  25
ENDBRANCH  17  23
ENDBRANCH   1  14
BRANCH   7  32
HETATM   32  C17 UNL     1      21.421  -3.114   6.786  1.00  0.00     0.189 C 
BRANCH  32  33
HETATM   33  C18 UNL     1      20.989  -4.432   6.362  1.00  0.00    -0.039 A 
HETATM   34  C19 UNL     1      20.544  -4.611   5.045  1.00  0.00     0.010 A 
HETATM   35  C20 UNL     1      20.114  -5.805   4.539  1.00  0.00     0.024 A 
HETATM   36  C21 UNL     1      20.103  -6.922   5.339  1.00  0.00     0.034 A 
HETATM   37 CL1  UNL     1      19.553  -8.459   4.700  1.00  0.00    -0.084 Cl
HETATM   38  C22 UNL     1      20.529  -6.788   6.627  1.00  0.00     0.024 A 
HETATM   39  C23 UNL     1      20.970  -5.557   7.138  1.00  0.00     0.010 A 
ENDBRANCH  32  33
ENDBRANCH   7  32
BRANCH   8  40
HETATM   40  N6  UNL     1      18.909  -2.069   7.686  1.00  0.00    -0.217 N 
HETATM   41  C25 UNL     1      18.638  -0.854   6.916  1.00  0.00     0.141 C 
HETATM   42  C26 UNL     1      18.481  -1.473   5.524  1.00  0.00     0.022 C 
HETATM   43  C27 UNL     1      17.600  -2.667   5.819  1.00  0.00     0.022 C 
HETATM   44  C28 UNL     1      17.847  -2.969   7.302  1.00  0.00     0.141 C 
ENDBRANCH   8  40
TORSDOF 8
ENDMDL
