MODEL 1
REMARK VINA RESULT: -4.549649610      0.000      0.000
REMARK  3 active torsions:
REMARK  status: ('A' for Active; 'I' for Inactive)
REMARK    1  A    between atoms: C2_2  and  C3_3 
REMARK    2  A    between atoms: C3_3  and  N1_4 
REMARK    3  A    between atoms: N1_4  and  C4_6 
ROOT
HETATM    1  C4  UNL     1     -27.174 -23.225 -31.086  1.00  0.00     0.674 A 
HETATM    2  N2  UNL     1     -26.568 -23.926 -31.958  1.00  0.00    -0.222 N 
ATOM      3  H2  UNL     1     -25.649 -23.715 -32.347  1.00  0.00     0.178 HD
HETATM    4  C5  UNL     1     -27.375 -25.056 -32.307  1.00  0.00     0.183 A 
HETATM    5  C6  UNL     1     -28.568 -24.891 -31.480  1.00  0.00     0.099 A 
HETATM    6  N3  UNL     1     -28.414 -23.823 -30.790  1.00  0.00    -0.204 N 
ATOM      7  H3  UNL     1     -29.092 -23.458 -30.121  1.00  0.00     0.183 HD
ENDROOT
BRANCH   1   8
HETATM    8  N1  UNL     1     -26.666 -21.999 -30.491  1.00  0.00    -0.223 N 
ATOM      9  H1  UNL     1     -26.369 -21.206 -31.060  1.00  0.00     0.178 HD
BRANCH   8  10
HETATM   10  C3  UNL     1     -26.605 -21.966 -29.045  1.00  0.00     0.164 C 
BRANCH  10  11
HETATM   11  C2  UNL     1     -25.457 -22.796 -28.625  1.00  0.00    -0.017 C 
HETATM   12  C1  UNL     1     -24.246 -22.331 -28.756  1.00  0.00     0.008 C 
ENDBRANCH  10  11
ENDBRANCH   8  10
ENDBRANCH   1   8
TORSDOF 3
ENDMDL
MODEL 2
REMARK VINA RESULT: -4.549247994      1.526      1.955
REMARK  3 active torsions:
REMARK  status: ('A' for Active; 'I' for Inactive)
REMARK    1  A    between atoms: C2_2  and  C3_3 
REMARK    2  A    between atoms: C3_3  and  N1_4 
REMARK    3  A    between atoms: N1_4  and  C4_6 
ROOT
HETATM    1  C4  UNL     1     -26.036 -24.835 -30.884  1.00  0.00     0.674 A 
HETATM    2  N2  UNL     1     -26.399 -25.379 -31.976  1.00  0.00    -0.222 N 
ATOM      3  H2  UNL     1     -25.779 -25.854 -32.631  1.00  0.00     0.178 HD
HETATM    4  C5  UNL     1     -27.812 -25.222 -32.140  1.00  0.00     0.183 A 
HETATM    5  C6  UNL     1     -28.215 -24.486 -30.944  1.00  0.00     0.099 A 
HETATM    6  N3  UNL     1     -27.161 -24.281 -30.245  1.00  0.00    -0.204 N 
ATOM      7  H3  UNL     1     -27.141 -23.787 -29.352  1.00  0.00     0.183 HD
ENDROOT
BRANCH   1   8
HETATM    8  N1  UNL     1     -24.673 -24.792 -30.379  1.00  0.00    -0.223 N 
ATOM      9  H1  UNL     1     -23.867 -24.935 -30.988  1.00  0.00     0.178 HD
BRANCH   8  10
HETATM   10  C3  UNL     1     -24.523 -24.534 -28.962  1.00  0.00     0.164 C 
BRANCH  10  11
HETATM   11  C2  UNL     1     -24.027 -23.152 -28.808  1.00  0.00    -0.017 C 
HETATM   12  C1  UNL     1     -24.841 -22.219 -28.396  1.00  0.00     0.008 C 
ENDBRANCH  10  11
ENDBRANCH   8  10
ENDBRANCH   1   8
TORSDOF 3
ENDMDL
MODEL 3
REMARK VINA RESULT: -4.542374733      1.061      1.140
REMARK  3 active torsions:
REMARK  status: ('A' for Active; 'I' for Inactive)
REMARK    1  A    between atoms: C2_2  and  C3_3 
REMARK    2  A    between atoms: C3_3  and  N1_4 
REMARK    3  A    between atoms: N1_4  and  C4_6 
ROOT
HETATM    1  C4  UNL     1     -27.830 -24.306 -30.997  1.00  0.00     0.674 A 
HETATM    2  N2  UNL     1     -27.061 -24.638 -31.956  1.00  0.00    -0.222 N 
ATOM      3  H2  UNL     1     -26.129 -24.260 -32.121  1.00  0.00     0.178 HD
HETATM    4  C5  UNL     1     -27.708 -25.625 -32.766  1.00  0.00     0.183 A 
HETATM    5  C6  UNL     1     -28.999 -25.814 -32.108  1.00  0.00     0.099 A 
HETATM    6  N3  UNL     1     -29.031 -25.035 -31.091  1.00  0.00    -0.204 N 
ATOM      7  H3  UNL     1     -29.815 -24.954 -30.443  1.00  0.00     0.183 HD
ENDROOT
BRANCH   1   8
HETATM    8  N1  UNL     1     -27.516 -23.328 -29.968  1.00  0.00    -0.223 N 
ATOM      9  H1  UNL     1     -28.059 -23.258 -29.107  1.00  0.00     0.178 HD
BRANCH   8  10
HETATM   10  C3  UNL     1     -26.390 -22.459 -30.234  1.00  0.00     0.164 C 
BRANCH  10  11
HETATM   11  C2  UNL     1     -25.808 -22.067 -28.933  1.00  0.00    -0.017 C 
HETATM   12  C1  UNL     1     -24.562 -22.353 -28.674  1.00  0.00     0.008 C 
ENDBRANCH  10  11
ENDBRANCH   8  10
ENDBRANCH   1   8
TORSDOF 3
ENDMDL
MODEL 4
REMARK VINA RESULT: -4.512452265      1.497      2.215
REMARK  3 active torsions:
REMARK  status: ('A' for Active; 'I' for Inactive)
REMARK    1  A    between atoms: C2_2  and  C3_3 
REMARK    2  A    between atoms: C3_3  and  N1_4 
REMARK    3  A    between atoms: N1_4  and  C4_6 
ROOT
HETATM    1  C4  UNL     1     -26.184 -24.800 -31.012  1.00  0.00     0.674 A 
HETATM    2  N2  UNL     1     -27.113 -24.299 -30.301  1.00  0.00    -0.222 N 
ATOM      3  H2  UNL     1     -26.978 -23.810 -29.417  1.00  0.00     0.178 HD
HETATM    4  C5  UNL     1     -28.376 -24.530 -30.935  1.00  0.00     0.183 A 
HETATM    5  C6  UNL     1     -28.019 -25.259 -32.150  1.00  0.00     0.099 A 
HETATM    6  N3  UNL     1     -26.745 -25.395 -32.158  1.00  0.00    -0.204 N 
ATOM      7  H3  UNL     1     -26.213 -25.867 -32.890  1.00  0.00     0.183 HD
ENDROOT
BRANCH   1   8
HETATM    8  N1  UNL     1     -24.766 -24.764 -30.690  1.00  0.00    -0.223 N 
ATOM      9  H1  UNL     1     -24.047 -24.839 -31.410  1.00  0.00     0.178 HD
BRANCH   8  10
HETATM   10  C3  UNL     1     -24.432 -24.614 -29.289  1.00  0.00     0.164 C 
BRANCH  10  11
HETATM   11  C2  UNL     1     -23.827 -23.278 -29.113  1.00  0.00    -0.017 C 
HETATM   12  C1  UNL     1     -24.512 -22.335 -28.527  1.00  0.00     0.008 C 
ENDBRANCH  10  11
ENDBRANCH   8  10
ENDBRANCH   1   8
TORSDOF 3
ENDMDL
MODEL 5
REMARK VINA RESULT: -4.464582660      1.554      2.370
REMARK  3 active torsions:
REMARK  status: ('A' for Active; 'I' for Inactive)
REMARK    1  A    between atoms: C2_2  and  C3_3 
REMARK    2  A    between atoms: C3_3  and  N1_4 
REMARK    3  A    between atoms: N1_4  and  C4_6 
ROOT
HETATM    1  C4  UNL     1     -26.862 -22.784 -29.374  1.00  0.00     0.674 A 
HETATM    2  N2  UNL     1     -27.534 -21.752 -29.695  1.00  0.00    -0.222 N 
ATOM      3  H2  UNL     1     -27.472 -20.843 -29.237  1.00  0.00     0.178 HD
HETATM    4  C5  UNL     1     -28.389 -22.064 -30.800  1.00  0.00     0.183 A 
HETATM    5  C6  UNL     1     -28.097 -23.470 -31.070  1.00  0.00     0.099 A 
HETATM    6  N3  UNL     1     -27.211 -23.849 -30.226  1.00  0.00    -0.204 N 
ATOM      7  H3  UNL     1     -26.815 -24.788 -30.178  1.00  0.00     0.183 HD
ENDROOT
BRANCH   1   8
HETATM    8  N1  UNL     1     -25.887 -22.851 -28.296  1.00  0.00    -0.223 N 
ATOM      9  H1  UNL     1     -26.130 -23.208 -27.372  1.00  0.00     0.178 HD
BRANCH   8  10
HETATM   10  C3  UNL     1     -24.554 -22.383 -28.608  1.00  0.00     0.164 C 
BRANCH  10  11
HETATM   11  C2  UNL     1     -23.771 -23.542 -29.084  1.00  0.00    -0.017 C 
HETATM   12  C1  UNL     1     -23.929 -24.703 -28.511  1.00  0.00     0.008 C 
ENDBRANCH  10  11
ENDBRANCH   8  10
ENDBRANCH   1   8
TORSDOF 3
ENDMDL
