MODEL 1
REMARK VINA RESULT: -5.248083830      0.000      0.000
REMARK  3 active torsions:
REMARK  status: ('A' for Active; 'I' for Inactive)
REMARK    1  A    between atoms: N1_1  and  C1_5 
REMARK    2  A    between atoms: C1_5  and  C2_6 
REMARK    3  A    between atoms: C2_6  and  C3_7 
ROOT
HETATM    1  C3  UNL     1     -26.157 -23.291 -29.775  1.00  0.00    -0.054 A 
HETATM    2  C4  UNL     1     -25.507 -24.507 -29.685  1.00  0.00     0.024 A 
HETATM    3  C5  UNL     1     -24.332 -24.654 -28.976  1.00  0.00     0.088 A 
HETATM    4  N2  UNL     1     -23.844 -23.549 -28.369  1.00  0.00    -0.375 N 
ATOM      5  H2  UNL     1     -22.977 -23.624 -27.837  1.00  0.00     0.164 HD
HETATM    6  C6  UNL     1     -24.449 -22.370 -28.440  1.00  0.00     0.088 A 
HETATM    7  C7  UNL     1     -25.624 -22.212 -29.147  1.00  0.00     0.024 A 
ENDROOT
BRANCH   1   8
HETATM    8  C2  UNL     1     -27.412 -23.257 -30.567  1.00  0.00     0.066 C 
BRANCH   8   9
HETATM    9  C1  UNL     1     -27.610 -24.495 -31.396  1.00  0.00     0.234 C 
BRANCH   9  10
HETATM   10  N1  UNL     1     -28.889 -25.069 -31.021  1.00  0.00    -0.079 N 
ATOM     11  H13 UNL     1     -29.655 -24.397 -31.064  1.00  0.00     0.274 HD
ATOM     12  H12 UNL     1     -29.249 -25.725 -31.715  1.00  0.00     0.274 HD
ATOM     13  H11 UNL     1     -28.779 -25.488 -30.098  1.00  0.00     0.274 HD
ENDBRANCH   9  10
ENDBRANCH   8   9
ENDBRANCH   1   8
TORSDOF 3
ENDMDL
MODEL 2
REMARK VINA RESULT: -5.230094287      1.373      1.559
REMARK  3 active torsions:
REMARK  status: ('A' for Active; 'I' for Inactive)
REMARK    1  A    between atoms: N1_1  and  C1_5 
REMARK    2  A    between atoms: C1_5  and  C2_6 
REMARK    3  A    between atoms: C2_6  and  C3_7 
ROOT
HETATM    1  C3  UNL     1     -25.988 -23.252 -29.881  1.00  0.00    -0.054 A 
HETATM    2  C4  UNL     1     -25.421 -24.503 -29.731  1.00  0.00     0.024 A 
HETATM    3  C5  UNL     1     -24.304 -24.707 -28.946  1.00  0.00     0.088 A 
HETATM    4  N2  UNL     1     -23.788 -23.622 -28.327  1.00  0.00    -0.375 N 
ATOM      5  H2  UNL     1     -22.962 -23.740 -27.740  1.00  0.00     0.164 HD
HETATM    6  C6  UNL     1     -24.314 -22.411 -28.454  1.00  0.00     0.088 A 
HETATM    7  C7  UNL     1     -25.431 -22.196 -29.236  1.00  0.00     0.024 A 
ENDROOT
BRANCH   1   8
HETATM    8  C2  UNL     1     -27.186 -23.158 -30.750  1.00  0.00     0.066 C 
BRANCH   8   9
HETATM    9  C1  UNL     1     -27.472 -21.750 -31.196  1.00  0.00     0.234 C 
BRANCH   9  10
HETATM   10  N1  UNL     1     -28.727 -21.348 -30.590  1.00  0.00    -0.079 N 
ATOM     11  H13 UNL     1     -29.058 -20.443 -30.925  1.00  0.00     0.274 HD
ATOM     12  H12 UNL     1     -29.519 -21.905 -30.908  1.00  0.00     0.274 HD
ATOM     13  H11 UNL     1     -28.601 -21.376 -29.578  1.00  0.00     0.274 HD
ENDBRANCH   9  10
ENDBRANCH   8   9
ENDBRANCH   1   8
TORSDOF 3
ENDMDL
MODEL 3
REMARK VINA RESULT: -5.217442320      1.375      2.215
REMARK  3 active torsions:
REMARK  status: ('A' for Active; 'I' for Inactive)
REMARK    1  A    between atoms: N1_1  and  C1_5 
REMARK    2  A    between atoms: C1_5  and  C2_6 
REMARK    3  A    between atoms: C2_6  and  C3_7 
ROOT
HETATM    1  C3  UNL     1     -26.015 -23.383 -29.901  1.00  0.00    -0.054 A 
HETATM    2  C4  UNL     1     -25.506 -22.270 -29.260  1.00  0.00     0.024 A 
HETATM    3  C5  UNL     1     -24.384 -22.340 -28.459  1.00  0.00     0.088 A 
HETATM    4  N2  UNL     1     -23.802 -23.553 -28.329  1.00  0.00    -0.375 N 
ATOM      5  H2  UNL     1     -22.972 -23.639 -27.743  1.00  0.00     0.164 HD
HETATM    6  C6  UNL     1     -24.271 -24.637 -28.934  1.00  0.00     0.088 A 
HETATM    7  C7  UNL     1     -25.392 -24.578 -29.738  1.00  0.00     0.024 A 
ENDROOT
BRANCH   1   8
HETATM    8  C2  UNL     1     -27.225 -23.183 -30.735  1.00  0.00     0.066 C 
BRANCH   8   9
HETATM    9  C1  UNL     1     -27.396 -21.758 -31.181  1.00  0.00     0.234 C 
BRANCH   9  10
HETATM   10  N1  UNL     1     -28.703 -21.315 -30.734  1.00  0.00    -0.079 N 
ATOM     11  H13 UNL     1     -29.015 -21.789 -29.887  1.00  0.00     0.274 HD
ATOM     12  H12 UNL     1     -28.695 -20.367 -30.360  1.00  0.00     0.274 HD
ATOM     13  H11 UNL     1     -29.349 -21.429 -31.515  1.00  0.00     0.274 HD
ENDBRANCH   9  10
ENDBRANCH   8   9
ENDBRANCH   1   8
TORSDOF 3
ENDMDL
MODEL 4
REMARK VINA RESULT: -5.210286340      0.110      1.572
REMARK  3 active torsions:
REMARK  status: ('A' for Active; 'I' for Inactive)
REMARK    1  A    between atoms: N1_1  and  C1_5 
REMARK    2  A    between atoms: C1_5  and  C2_6 
REMARK    3  A    between atoms: C2_6  and  C3_7 
ROOT
HETATM    1  C3  UNL     1     -26.098 -23.419 -29.868  1.00  0.00    -0.054 A 
HETATM    2  C4  UNL     1     -25.637 -22.300 -29.201  1.00  0.00     0.024 A 
HETATM    3  C5  UNL     1     -24.500 -22.334 -28.420  1.00  0.00     0.088 A 
HETATM    4  N2  UNL     1     -23.853 -23.519 -28.337  1.00  0.00    -0.375 N 
ATOM      5  H2  UNL     1     -23.009 -23.577 -27.767  1.00  0.00     0.164 HD
HETATM    6  C6  UNL     1     -24.274 -24.607 -28.968  1.00  0.00     0.088 A 
HETATM    7  C7  UNL     1     -25.410 -24.584 -29.751  1.00  0.00     0.024 A 
ENDROOT
BRANCH   1   8
HETATM    8  C2  UNL     1     -27.331 -23.259 -30.677  1.00  0.00     0.066 C 
BRANCH   8   9
HETATM    9  C1  UNL     1     -27.633 -24.465 -31.523  1.00  0.00     0.234 C 
BRANCH   9  10
HETATM   10  N1  UNL     1     -28.855 -25.059 -31.014  1.00  0.00    -0.079 N 
ATOM     11  H13 UNL     1     -28.804 -25.285 -30.021  1.00  0.00     0.274 HD
ATOM     12  H12 UNL     1     -29.627 -24.395 -30.960  1.00  0.00     0.274 HD
ATOM     13  H11 UNL     1     -29.067 -25.869 -31.596  1.00  0.00     0.274 HD
ENDBRANCH   9  10
ENDBRANCH   8   9
ENDBRANCH   1   8
TORSDOF 3
ENDMDL
MODEL 5
REMARK VINA RESULT: -5.154051629      1.723      2.307
REMARK  3 active torsions:
REMARK  status: ('A' for Active; 'I' for Inactive)
REMARK    1  A    between atoms: N1_1  and  C1_5 
REMARK    2  A    between atoms: C1_5  and  C2_6 
REMARK    3  A    between atoms: C2_6  and  C3_7 
ROOT
HETATM    1  C3  UNL     1     -26.263 -22.786 -29.343  1.00  0.00    -0.054 A 
HETATM    2  C4  UNL     1     -25.178 -22.115 -28.814  1.00  0.00     0.024 A 
HETATM    3  C5  UNL     1     -23.965 -22.740 -28.608  1.00  0.00     0.088 A 
HETATM    4  N2  UNL     1     -23.886 -24.045 -28.949  1.00  0.00    -0.375 N 
ATOM      5  H2  UNL     1     -23.003 -24.537 -28.808  1.00  0.00     0.164 HD
HETATM    6  C6  UNL     1     -24.913 -24.712 -29.459  1.00  0.00     0.088 A 
HETATM    7  C7  UNL     1     -26.131 -24.097 -29.670  1.00  0.00     0.024 A 
ENDROOT
BRANCH   1   8
HETATM    8  C2  UNL     1     -27.514 -22.008 -29.518  1.00  0.00     0.066 C 
BRANCH   8   9
HETATM    9  C1  UNL     1     -28.087 -22.130 -30.903  1.00  0.00     0.234 C 
BRANCH   9  10
HETATM   10  N1  UNL     1     -27.198 -21.422 -31.806  1.00  0.00    -0.079 N 
ATOM     11  H13 UNL     1     -27.079 -20.441 -31.557  1.00  0.00     0.274 HD
ATOM     12  H12 UNL     1     -26.224 -21.704 -31.707  1.00  0.00     0.274 HD
ATOM     13  H11 UNL     1     -27.556 -21.553 -32.752  1.00  0.00     0.274 HD
ENDBRANCH   9  10
ENDBRANCH   8   9
ENDBRANCH   1   8
TORSDOF 3
ENDMDL
