MODEL 1
REMARK VINA RESULT: -5.526519783      0.000      0.000
REMARK  2 active torsions:
REMARK  status: ('A' for Active; 'I' for Inactive)
REMARK    1  A    between atoms: N1_1  and  N2_4 
REMARK    2  A    between atoms: C1_6  and  C2_7 
ROOT
HETATM    1  C2  UNL     1     -26.465 -22.986 -29.749  1.00  0.00    -0.004 A 
HETATM    2  C3  UNL     1     -25.665 -22.069 -29.104  1.00  0.00     0.015 A 
HETATM    3  C4  UNL     1     -24.485 -22.473 -28.493  1.00  0.00     0.018 A 
HETATM    4  C5  UNL     1     -24.086 -23.795 -28.516  1.00  0.00     0.087 A 
HETATM    5  N3  UNL     1     -24.899 -24.655 -29.158  1.00  0.00    -0.374 N 
ATOM      6  H3  UNL     1     -24.630 -25.639 -29.190  1.00  0.00     0.164 HD
HETATM    7  C6  UNL     1     -26.046 -24.295 -29.757  1.00  0.00     0.100 A 
ENDROOT
BRANCH   1   8
HETATM    8  C1  UNL     1     -27.703 -22.557 -30.389  1.00  0.00     0.119 C 
HETATM    9  N2  UNL     1     -28.277 -21.442 -30.103  1.00  0.00    -0.318 N 
ATOM     10  H2  UNL     1     -27.856 -20.829 -29.405  1.00  0.00     0.185 HD
BRANCH   9  11
HETATM   11  N1  UNL     1     -29.455 -21.054 -30.724  1.00  0.00    -0.345 N 
ATOM     12  H12 UNL     1     -29.918 -21.722 -31.341  1.00  0.00     0.176 HD
ATOM     13  H11 UNL     1     -29.855 -20.129 -30.574  1.00  0.00     0.176 HD
ENDBRANCH   9  11
ENDBRANCH   1   8
TORSDOF 2
ENDMDL
MODEL 2
REMARK VINA RESULT: -5.393818414      2.021      2.094
REMARK  2 active torsions:
REMARK  status: ('A' for Active; 'I' for Inactive)
REMARK    1  A    between atoms: N1_1  and  N2_4 
REMARK    2  A    between atoms: C1_6  and  C2_7 
ROOT
HETATM    1  C2  UNL     1     -26.892 -23.637 -30.106  1.00  0.00    -0.004 A 
HETATM    2  C3  UNL     1     -26.744 -22.406 -29.506  1.00  0.00     0.015 A 
HETATM    3  C4  UNL     1     -25.633 -22.137 -28.718  1.00  0.00     0.018 A 
HETATM    4  C5  UNL     1     -24.654 -23.089 -28.517  1.00  0.00     0.087 A 
HETATM    5  N3  UNL     1     -24.839 -24.277 -29.123  1.00  0.00    -0.374 N 
ATOM      6  H3  UNL     1     -24.132 -25.000 -28.991  1.00  0.00     0.164 HD
HETATM    7  C6  UNL     1     -25.903 -24.567 -29.890  1.00  0.00     0.100 A 
ENDROOT
BRANCH   1   8
HETATM    8  C1  UNL     1     -28.060 -23.915 -30.932  1.00  0.00     0.119 C 
HETATM    9  N2  UNL     1     -28.699 -25.030 -30.871  1.00  0.00    -0.318 N 
ATOM     10  H2  UNL     1     -28.382 -25.751 -30.222  1.00  0.00     0.185 HD
BRANCH   9  11
HETATM   11  N1  UNL     1     -29.807 -25.274 -31.667  1.00  0.00    -0.345 N 
ATOM     12  H12 UNL     1     -30.368 -24.478 -31.971  1.00  0.00     0.176 HD
ATOM     13  H11 UNL     1     -30.063 -26.221 -31.947  1.00  0.00     0.176 HD
ENDBRANCH   9  11
ENDBRANCH   1   8
TORSDOF 2
ENDMDL
MODEL 3
REMARK VINA RESULT: -5.352183600      1.092      1.246
REMARK  2 active torsions:
REMARK  status: ('A' for Active; 'I' for Inactive)
REMARK    1  A    between atoms: N1_1  and  N2_4 
REMARK    2  A    between atoms: C1_6  and  C2_7 
ROOT
HETATM    1  C2  UNL     1     -27.390 -22.544 -30.238  1.00  0.00    -0.004 A 
HETATM    2  C3  UNL     1     -26.659 -21.899 -29.266  1.00  0.00     0.015 A 
HETATM    3  C4  UNL     1     -25.732 -22.598 -28.504  1.00  0.00     0.018 A 
HETATM    4  C5  UNL     1     -25.519 -23.947 -28.700  1.00  0.00     0.087 A 
HETATM    5  N3  UNL     1     -26.257 -24.537 -29.661  1.00  0.00    -0.374 N 
ATOM      6  H3  UNL     1     -26.121 -25.534 -29.827  1.00  0.00     0.164 HD
HETATM    7  C6  UNL     1     -27.160 -23.888 -30.413  1.00  0.00     0.100 A 
ENDROOT
BRANCH   1   8
HETATM    8  C1  UNL     1     -28.362 -21.807 -31.035  1.00  0.00     0.119 C 
HETATM    9  N2  UNL     1     -29.256 -21.048 -30.505  1.00  0.00    -0.318 N 
ATOM     10  H2  UNL     1     -29.292 -20.954 -29.489  1.00  0.00     0.185 HD
BRANCH   9  11
HETATM   11  N1  UNL     1     -30.172 -20.356 -31.282  1.00  0.00    -0.345 N 
ATOM     12  H12 UNL     1     -31.079 -20.789 -31.461  1.00  0.00     0.176 HD
ATOM     13  H11 UNL     1     -29.955 -19.439 -31.670  1.00  0.00     0.176 HD
ENDBRANCH   9  11
ENDBRANCH   1   8
TORSDOF 2
ENDMDL
MODEL 4
REMARK VINA RESULT: -5.158131305      0.990      1.570
REMARK  2 active torsions:
REMARK  status: ('A' for Active; 'I' for Inactive)
REMARK    1  A    between atoms: N1_1  and  N2_4 
REMARK    2  A    between atoms: C1_6  and  C2_7 
ROOT
HETATM    1  C2  UNL     1     -26.258 -22.662 -30.096  1.00  0.00    -0.004 A 
HETATM    2  C3  UNL     1     -25.694 -23.833 -30.550  1.00  0.00     0.015 A 
HETATM    3  C4  UNL     1     -24.582 -24.370 -29.915  1.00  0.00     0.018 A 
HETATM    4  C5  UNL     1     -24.017 -23.748 -28.820  1.00  0.00     0.087 A 
HETATM    5  N3  UNL     1     -24.601 -22.606 -28.411  1.00  0.00    -0.374 N 
ATOM      6  H3  UNL     1     -24.204 -22.125 -27.604  1.00  0.00     0.164 HD
HETATM    7  C6  UNL     1     -25.677 -22.063 -29.004  1.00  0.00     0.100 A 
ENDROOT
BRANCH   1   8
HETATM    8  C1  UNL     1     -27.426 -22.102 -30.766  1.00  0.00     0.119 C 
HETATM    9  N2  UNL     1     -28.344 -21.461 -30.131  1.00  0.00    -0.318 N 
ATOM     10  H2  UNL     1     -28.258 -21.336 -29.122  1.00  0.00     0.185 HD
BRANCH   9  11
HETATM   11  N1  UNL     1     -29.447 -20.938 -30.788  1.00  0.00    -0.345 N 
ATOM     12  H12 UNL     1     -29.684 -19.958 -30.628  1.00  0.00     0.176 HD
ATOM     13  H11 UNL     1     -30.013 -21.508 -31.416  1.00  0.00     0.176 HD
ENDBRANCH   9  11
ENDBRANCH   1   8
TORSDOF 2
ENDMDL
MODEL 5
REMARK VINA RESULT: -5.122584403      2.266      2.581
REMARK  2 active torsions:
REMARK  status: ('A' for Active; 'I' for Inactive)
REMARK    1  A    between atoms: N1_1  and  N2_4 
REMARK    2  A    between atoms: C1_6  and  C2_7 
ROOT
HETATM    1  C2  UNL     1     -26.257 -23.770 -30.292  1.00  0.00    -0.004 A 
HETATM    2  C3  UNL     1     -24.958 -24.209 -30.169  1.00  0.00     0.015 A 
HETATM    3  C4  UNL     1     -24.063 -23.533 -29.350  1.00  0.00     0.018 A 
HETATM    4  C5  UNL     1     -24.449 -22.412 -28.643  1.00  0.00     0.087 A 
HETATM    5  N3  UNL     1     -25.728 -22.020 -28.794  1.00  0.00    -0.374 N 
ATOM      6  H3  UNL     1     -26.041 -21.193 -28.284  1.00  0.00     0.164 HD
HETATM    7  C6  UNL     1     -26.617 -22.652 -29.578  1.00  0.00     0.100 A 
ENDROOT
BRANCH   1   8
HETATM    8  C1  UNL     1     -27.194 -24.483 -31.152  1.00  0.00     0.119 C 
HETATM    9  N2  UNL     1     -28.344 -24.882 -30.738  1.00  0.00    -0.318 N 
ATOM     10  H2  UNL     1     -28.619 -24.695 -29.773  1.00  0.00     0.185 HD
BRANCH   9  11
HETATM   11  N1  UNL     1     -29.220 -25.559 -31.573  1.00  0.00    -0.345 N 
ATOM     12  H12 UNL     1     -29.015 -25.580 -32.573  1.00  0.00     0.176 HD
ATOM     13  H11 UNL     1     -30.048 -26.028 -31.208  1.00  0.00     0.176 HD
ENDBRANCH   9  11
ENDBRANCH   1   8
TORSDOF 2
ENDMDL
