MODEL 1
REMARK VINA RESULT: -4.818520950      0.000      0.000
REMARK  3 active torsions:
REMARK  status: ('A' for Active; 'I' for Inactive)
REMARK    1  A    between atoms: N1_1  and  C1_5 
REMARK    2  A    between atoms: C1_5  and  C2_6 
REMARK    3  A    between atoms: C2_6  and  C3_7 
ROOT
HETATM    1  C2  UNL     1     -27.191 -21.985 -29.482  1.00  0.00     0.059 C 
ENDROOT
BRANCH   1   2
HETATM    2  C1  UNL     1     -27.816 -21.917 -30.854  1.00  0.00     0.232 C 
BRANCH   2   3
HETATM    3  N1  UNL     1     -27.080 -22.758 -31.772  1.00  0.00    -0.079 N 
ATOM      4  H13 UNL     1     -26.081 -22.551 -31.763  1.00  0.00     0.274 HD
ATOM      5  H12 UNL     1     -27.035 -23.726 -31.453  1.00  0.00     0.274 HD
ATOM      6  H11 UNL     1     -27.479 -22.681 -32.708  1.00  0.00     0.274 HD
ENDBRANCH   2   3
ENDBRANCH   1   2
BRANCH   1   7
HETATM    7  C3  UNL     1     -25.966 -22.828 -29.433  1.00  0.00     0.123 C 
HETATM    8  C4  UNL     1     -24.936 -22.314 -28.445  1.00  0.00     0.034 C 
HETATM    9  C5  UNL     1     -23.964 -23.503 -28.486  1.00  0.00     0.029 C 
HETATM   10  C6  UNL     1     -24.906 -24.633 -28.774  1.00  0.00     0.168 C 
HETATM   11  O1  UNL     1     -26.160 -24.110 -28.989  1.00  0.00    -0.386 OA
ENDBRANCH   1   7
TORSDOF 3
ENDMDL
MODEL 2
REMARK VINA RESULT: -4.712071632      2.081      3.296
REMARK  3 active torsions:
REMARK  status: ('A' for Active; 'I' for Inactive)
REMARK    1  A    between atoms: N1_1  and  C1_5 
REMARK    2  A    between atoms: C1_5  and  C2_6 
REMARK    3  A    between atoms: C2_6  and  C3_7 
ROOT
HETATM    1  C2  UNL     1     -25.435 -22.219 -28.337  1.00  0.00     0.059 C 
ENDROOT
BRANCH   1   2
HETATM    2  C1  UNL     1     -24.096 -22.669 -28.866  1.00  0.00     0.232 C 
BRANCH   2   3
HETATM    3  N1  UNL     1     -23.742 -23.946 -28.287  1.00  0.00    -0.079 N 
ATOM      4  H13 UNL     1     -24.273 -24.140 -27.437  1.00  0.00     0.274 HD
ATOM      5  H12 UNL     1     -24.074 -24.728 -28.851  1.00  0.00     0.274 HD
ATOM      6  H11 UNL     1     -22.736 -23.988 -28.128  1.00  0.00     0.274 HD
ENDBRANCH   2   3
ENDBRANCH   1   2
BRANCH   1   7
HETATM    7  C3  UNL     1     -26.584 -22.715 -29.142  1.00  0.00     0.123 C 
HETATM    8  C4  UNL     1     -26.648 -22.092 -30.524  1.00  0.00     0.034 C 
HETATM    9  C5  UNL     1     -27.757 -22.972 -31.122  1.00  0.00     0.029 C 
HETATM   10  C6  UNL     1     -27.532 -24.256 -30.384  1.00  0.00     0.168 C 
HETATM   11  O1  UNL     1     -26.550 -24.052 -29.442  1.00  0.00    -0.386 OA
ENDBRANCH   1   7
TORSDOF 3
ENDMDL
MODEL 3
REMARK VINA RESULT: -4.650844392      1.122      1.122
REMARK  3 active torsions:
REMARK  status: ('A' for Active; 'I' for Inactive)
REMARK    1  A    between atoms: N1_1  and  C1_5 
REMARK    2  A    between atoms: C1_5  and  C2_6 
REMARK    3  A    between atoms: C2_6  and  C3_7 
ROOT
HETATM    1  C2  UNL     1     -26.969 -21.998 -29.214  1.00  0.00     0.059 C 
ENDROOT
BRANCH   1   2
HETATM    2  C1  UNL     1     -27.676 -21.936 -30.546  1.00  0.00     0.232 C 
BRANCH   2   3
HETATM    3  N1  UNL     1     -28.958 -21.285 -30.392  1.00  0.00    -0.079 N 
ATOM      4  H13 UNL     1     -28.975 -20.658 -29.588  1.00  0.00     0.274 HD
ATOM      5  H12 UNL     1     -29.128 -20.594 -31.123  1.00  0.00     0.274 HD
ATOM      6  H11 UNL     1     -29.699 -21.985 -30.348  1.00  0.00     0.274 HD
ENDBRANCH   2   3
ENDBRANCH   1   2
BRANCH   1   7
HETATM    7  C3  UNL     1     -25.893 -23.025 -29.166  1.00  0.00     0.123 C 
HETATM    8  C4  UNL     1     -24.509 -22.422 -29.013  1.00  0.00     0.034 C 
HETATM    9  C5  UNL     1     -23.719 -23.716 -28.770  1.00  0.00     0.029 C 
HETATM   10  C6  UNL     1     -24.753 -24.558 -28.086  1.00  0.00     0.168 C 
HETATM   11  O1  UNL     1     -25.946 -23.872 -28.090  1.00  0.00    -0.386 OA
ENDBRANCH   1   7
TORSDOF 3
ENDMDL
MODEL 4
REMARK VINA RESULT: -4.621902824      1.006      1.135
REMARK  3 active torsions:
REMARK  status: ('A' for Active; 'I' for Inactive)
REMARK    1  A    between atoms: N1_1  and  C1_5 
REMARK    2  A    between atoms: C1_5  and  C2_6 
REMARK    3  A    between atoms: C2_6  and  C3_7 
ROOT
HETATM    1  C2  UNL     1     -26.677 -22.017 -29.164  1.00  0.00     0.059 C 
ENDROOT
BRANCH   1   2
HETATM    2  C1  UNL     1     -27.713 -22.057 -30.260  1.00  0.00     0.232 C 
BRANCH   2   3
HETATM    3  N1  UNL     1     -27.117 -21.661 -31.516  1.00  0.00    -0.079 N 
ATOM      4  H13 UNL     1     -26.098 -21.645 -31.467  1.00  0.00     0.274 HD
ATOM      5  H12 UNL     1     -27.220 -22.380 -32.233  1.00  0.00     0.274 HD
ATOM      6  H11 UNL     1     -27.500 -20.764 -31.814  1.00  0.00     0.274 HD
ENDBRANCH   2   3
ENDBRANCH   1   2
BRANCH   1   7
HETATM    7  C3  UNL     1     -25.536 -22.944 -29.396  1.00  0.00     0.123 C 
HETATM    8  C4  UNL     1     -25.190 -23.770 -28.172  1.00  0.00     0.034 C 
HETATM    9  C5  UNL     1     -24.181 -24.731 -28.819  1.00  0.00     0.029 C 
HETATM   10  C6  UNL     1     -24.716 -24.806 -30.218  1.00  0.00     0.168 C 
HETATM   11  O1  UNL     1     -25.761 -23.918 -30.333  1.00  0.00    -0.386 OA
ENDBRANCH   1   7
TORSDOF 3
ENDMDL
MODEL 5
REMARK VINA RESULT: -4.607339518      1.703      1.945
REMARK  3 active torsions:
REMARK  status: ('A' for Active; 'I' for Inactive)
REMARK    1  A    between atoms: N1_1  and  C1_5 
REMARK    2  A    between atoms: C1_5  and  C2_6 
REMARK    3  A    between atoms: C2_6  and  C3_7 
ROOT
HETATM    1  C2  UNL     1     -27.285 -23.317 -31.303  1.00  0.00     0.059 C 
ENDROOT
BRANCH   1   2
HETATM    2  C1  UNL     1     -27.696 -24.707 -31.724  1.00  0.00     0.232 C 
BRANCH   2   3
HETATM    3  N1  UNL     1     -28.890 -25.104 -31.011  1.00  0.00    -0.079 N 
ATOM      4  H13 UNL     1     -29.254 -24.351 -30.426  1.00  0.00     0.274 HD
ATOM      5  H12 UNL     1     -29.691 -25.209 -31.634  1.00  0.00     0.274 HD
ATOM      6  H11 UNL     1     -28.707 -25.952 -30.475  1.00  0.00     0.274 HD
ENDBRANCH   2   3
ENDBRANCH   1   2
BRANCH   1   7
HETATM    7  C3  UNL     1     -26.202 -23.307 -30.282  1.00  0.00     0.123 C 
HETATM    8  C4  UNL     1     -26.167 -22.025 -29.473  1.00  0.00     0.034 C 
HETATM    9  C5  UNL     1     -25.137 -22.448 -28.414  1.00  0.00     0.029 C 
HETATM   10  C6  UNL     1     -25.398 -23.922 -28.335  1.00  0.00     0.168 C 
HETATM   11  O1  UNL     1     -26.323 -24.253 -29.297  1.00  0.00    -0.386 OA
ENDBRANCH   1   7
TORSDOF 3
ENDMDL
