MODEL 1
REMARK VINA RESULT: -4.645675511      0.000      0.000
REMARK  2 active torsions:
REMARK  status: ('A' for Active; 'I' for Inactive)
REMARK    1  A    between atoms: C2_2  and  C3_3 
REMARK    2  A    between atoms: C3_3  and  C4_4 
ROOT
HETATM    1  C4  UNL     1     -26.742 -22.979 -30.089  1.00  0.00     0.084 A 
HETATM    2  N1  UNL     1     -26.769 -22.685 -31.400  1.00  0.00    -0.354 N 
ATOM      3  H1  UNL     1     -26.617 -21.758 -31.796  1.00  0.00     0.166 HD
HETATM    4  C5  UNL     1     -27.029 -23.805 -32.116  1.00  0.00     0.106 A 
HETATM    5  C6  UNL     1     -27.169 -24.839 -31.212  1.00  0.00     0.106 A 
HETATM    6  N2  UNL     1     -26.982 -24.275 -29.984  1.00  0.00    -0.354 N 
ATOM      7  H2  UNL     1     -27.024 -24.785 -29.101  1.00  0.00     0.166 HD
ENDROOT
BRANCH   1   8
HETATM    8  C3  UNL     1     -26.485 -21.999 -28.999  1.00  0.00     0.102 C 
BRANCH   8   9
HETATM    9  C2  UNL     1     -25.210 -22.314 -28.310  1.00  0.00    -0.029 C 
HETATM   10  C1  UNL     1     -24.053 -22.408 -28.948  1.00  0.00     0.007 C 
ENDBRANCH   8   9
ENDBRANCH   1   8
TORSDOF 2
ENDMDL
MODEL 2
REMARK VINA RESULT: -4.571173341      1.441      1.910
REMARK  2 active torsions:
REMARK  status: ('A' for Active; 'I' for Inactive)
REMARK    1  A    between atoms: C2_2  and  C3_3 
REMARK    2  A    between atoms: C3_3  and  C4_4 
ROOT
HETATM    1  C4  UNL     1     -26.129 -22.391 -29.584  1.00  0.00     0.084 A 
HETATM    2  N1  UNL     1     -26.132 -23.055 -30.752  1.00  0.00    -0.354 N 
ATOM      3  H1  UNL     1     -25.352 -23.601 -31.117  1.00  0.00     0.166 HD
HETATM    4  C5  UNL     1     -27.325 -22.890 -31.371  1.00  0.00     0.106 A 
HETATM    5  C6  UNL     1     -28.097 -22.089 -30.554  1.00  0.00     0.106 A 
HETATM    6  N2  UNL     1     -27.313 -21.813 -29.471  1.00  0.00    -0.354 N 
ATOM      7  H2  UNL     1     -27.601 -21.237 -28.680  1.00  0.00     0.166 HD
ENDROOT
BRANCH   1   8
HETATM    8  C3  UNL     1     -24.987 -22.343 -28.630  1.00  0.00     0.102 C 
BRANCH   8   9
HETATM    9  C2  UNL     1     -23.964 -23.351 -28.998  1.00  0.00    -0.029 C 
HETATM   10  C1  UNL     1     -23.896 -24.545 -28.429  1.00  0.00     0.007 C 
ENDBRANCH   8   9
ENDBRANCH   1   8
TORSDOF 2
ENDMDL
MODEL 3
REMARK VINA RESULT: -4.557514856      1.439      1.910
REMARK  2 active torsions:
REMARK  status: ('A' for Active; 'I' for Inactive)
REMARK    1  A    between atoms: C2_2  and  C3_3 
REMARK    2  A    between atoms: C3_3  and  C4_4 
ROOT
HETATM    1  C4  UNL     1     -26.112 -22.415 -29.607  1.00  0.00     0.084 A 
HETATM    2  N1  UNL     1     -27.308 -21.819 -29.470  1.00  0.00    -0.354 N 
ATOM      3  H1  UNL     1     -27.588 -21.243 -28.677  1.00  0.00     0.166 HD
HETATM    4  C5  UNL     1     -28.086 -22.099 -30.543  1.00  0.00     0.106 A 
HETATM    5  C6  UNL     1     -27.342 -22.904 -31.382  1.00  0.00     0.106 A 
HETATM    6  N2  UNL     1     -26.139 -23.065 -30.758  1.00  0.00    -0.354 N 
ATOM      7  H2  UNL     1     -25.363 -23.614 -31.131  1.00  0.00     0.166 HD
ENDROOT
BRANCH   1   8
HETATM    8  C3  UNL     1     -24.997 -22.333 -28.623  1.00  0.00     0.102 C 
BRANCH   8   9
HETATM    9  C2  UNL     1     -23.954 -23.338 -28.937  1.00  0.00    -0.029 C 
HETATM   10  C1  UNL     1     -23.946 -24.553 -28.410  1.00  0.00     0.007 C 
ENDBRANCH   8   9
ENDBRANCH   1   8
TORSDOF 2
ENDMDL
MODEL 4
REMARK VINA RESULT: -4.553159355      1.920      3.041
REMARK  2 active torsions:
REMARK  status: ('A' for Active; 'I' for Inactive)
REMARK    1  A    between atoms: C2_2  and  C3_3 
REMARK    2  A    between atoms: C3_3  and  C4_4 
ROOT
HETATM    1  C4  UNL     1     -25.719 -22.940 -29.004  1.00  0.00     0.084 A 
HETATM    2  N1  UNL     1     -24.434 -22.548 -28.988  1.00  0.00    -0.354 N 
ATOM      3  H1  UNL     1     -24.117 -21.582 -28.907  1.00  0.00     0.166 HD
HETATM    4  C5  UNL     1     -23.623 -23.627 -29.097  1.00  0.00     0.106 A 
HETATM    5  C6  UNL     1     -24.439 -24.737 -29.184  1.00  0.00     0.106 A 
HETATM    6  N2  UNL     1     -25.715 -24.256 -29.121  1.00  0.00    -0.354 N 
ATOM      7  H2  UNL     1     -26.553 -24.836 -29.160  1.00  0.00     0.166 HD
ENDROOT
BRANCH   1   8
HETATM    8  C3  UNL     1     -26.892 -22.029 -28.905  1.00  0.00     0.102 C 
BRANCH   8   9
HETATM    9  C2  UNL     1     -27.698 -22.086 -30.148  1.00  0.00    -0.029 C 
HETATM   10  C1  UNL     1     -27.199 -21.798 -31.341  1.00  0.00     0.007 C 
ENDBRANCH   8   9
ENDBRANCH   1   8
TORSDOF 2
ENDMDL
MODEL 5
REMARK VINA RESULT: -4.550573353      1.925      3.214
REMARK  2 active torsions:
REMARK  status: ('A' for Active; 'I' for Inactive)
REMARK    1  A    between atoms: C2_2  and  C3_3 
REMARK    2  A    between atoms: C3_3  and  C4_4 
ROOT
HETATM    1  C4  UNL     1     -25.648 -22.895 -28.988  1.00  0.00     0.084 A 
HETATM    2  N1  UNL     1     -25.670 -24.234 -29.091  1.00  0.00    -0.354 N 
ATOM      3  H1  UNL     1     -26.514 -24.807 -29.102  1.00  0.00     0.166 HD
HETATM    4  C5  UNL     1     -24.405 -24.710 -29.178  1.00  0.00     0.106 A 
HETATM    5  C6  UNL     1     -23.560 -23.619 -29.126  1.00  0.00     0.106 A 
HETATM    6  N2  UNL     1     -24.377 -22.532 -29.010  1.00  0.00    -0.354 N 
ATOM      7  H2  UNL     1     -24.050 -21.568 -28.949  1.00  0.00     0.166 HD
ENDROOT
BRANCH   1   8
HETATM    8  C3  UNL     1     -26.851 -22.026 -28.873  1.00  0.00     0.102 C 
BRANCH   8   9
HETATM    9  C2  UNL     1     -27.668 -22.109 -30.107  1.00  0.00    -0.029 C 
HETATM   10  C1  UNL     1     -27.198 -21.790 -31.303  1.00  0.00     0.007 C 
ENDBRANCH   8   9
ENDBRANCH   1   8
TORSDOF 2
ENDMDL
