MODEL 1
REMARK VINA RESULT: -7.604700048      0.000      0.000
REMARK  11 active torsions:
REMARK  status: ('A' for Active; 'I' for Inactive)
REMARK    1  A    between atoms: N1_2  and  C2_4 
REMARK    2  A    between atoms: C3_7  and  N3_8 
REMARK    3  A    between atoms: C7_20  and  S1_21 
REMARK    4  A    between atoms: N7_25  and  C8_26 
REMARK    5  A    between atoms: C8_26  and  O4_27 
REMARK    6  A    between atoms: O4_27  and  C9_28 
REMARK    7  A    between atoms: C9_28  and  C10_29 
REMARK    8  A    between atoms: C10_29  and  O5_30 
REMARK    9  A    between atoms: O5_30  and  C11_31 
REMARK   10  A    between atoms: C11_31  and  C12_32 
REMARK   11  A    between atoms: C12_32  and  O6_33 
ROOT
HETATM    1  C2  UNL     1     -12.635  -8.364  15.726  1.00  0.00     0.133 A 
HETATM    2  N2  UNL     1     -11.486  -8.637  15.096  1.00  0.00    -0.176 N 
ATOM      3  H2  UNL     1     -10.793  -7.896  14.984  1.00  0.00     0.186 HD
HETATM    4  C3  UNL     1     -11.217  -9.878  14.600  1.00  0.00     0.679 A 
HETATM    5  N4  UNL     1     -12.119 -10.858  14.741  1.00  0.00    -0.176 N 
ATOM      6  H4  UNL     1     -11.907 -11.782  14.366  1.00  0.00     0.186 HD
HETATM    7  C4  UNL     1     -13.302 -10.661  15.365  1.00  0.00     0.139 A 
HETATM    8  N5  UNL     1     -14.371 -11.423  15.652  1.00  0.00    -0.325 N 
ATOM      9  H5  UNL     1     -14.459 -12.408  15.402  1.00  0.00     0.169 HD
HETATM   10  C5  UNL     1     -15.317 -10.716  16.313  1.00  0.00     0.141 A 
HETATM   11  C6  UNL     1     -14.793  -9.441  16.440  1.00  0.00     0.097 A 
HETATM   12  N6  UNL     1     -15.735  -8.738  17.099  1.00  0.00    -0.326 N 
ATOM     13  H6  UNL     1     -15.655  -7.753  17.352  1.00  0.00     0.168 HD
HETATM   14  C7  UNL     1     -16.796  -9.518  17.375  1.00  0.00     0.231 A 
HETATM   15  N7  UNL     1     -16.534 -10.752  16.885  1.00  0.00    -0.283 N 
HETATM   16  C13 UNL     1     -13.544  -9.388  15.857  1.00  0.00     0.083 A 
ENDROOT
BRANCH  15  17
HETATM   17  C8  UNL     1     -17.351 -11.940  16.924  1.00  0.00     0.302 C 
BRANCH  17  18
HETATM   18  O4  UNL     1     -16.692 -13.082  16.594  1.00  0.00    -0.369 OA
BRANCH  18  19
HETATM   19  C9  UNL     1     -17.335 -13.896  15.675  1.00  0.00     0.196 C 
BRANCH  19  20
HETATM   20  C10 UNL     1     -17.986 -15.107  16.264  1.00  0.00     0.193 C 
BRANCH  20  21
HETATM   21  O5  UNL     1     -17.524 -16.300  15.770  1.00  0.00    -0.387 OA
BRANCH  21  22
HETATM   22  C11 UNL     1     -16.839 -17.084  16.678  1.00  0.00     0.193 C 
BRANCH  22  23
HETATM   23  C12 UNL     1     -17.556 -18.389  16.964  1.00  0.00     0.190 C 
BRANCH  23  24
HETATM   24  O6  UNL     1     -16.993 -19.447  16.252  1.00  0.00    -0.399 OA
ATOM     25  H6  UNL     1     -16.504 -20.028  16.822  1.00  0.00     0.209 HD
ENDBRANCH  23  24
ENDBRANCH  22  23
ENDBRANCH  21  22
ENDBRANCH  20  21
ENDBRANCH  19  20
ENDBRANCH  18  19
ENDBRANCH  17  18
ENDBRANCH  15  17
BRANCH  14  26
HETATM   26  S1  UNL     1     -18.247  -9.059  18.205  1.00  0.00     0.172 S 
HETATM   27  O1  UNL     1     -19.421  -9.201  17.244  1.00  0.00    -0.589 OA
HETATM   28  O2  UNL     1     -18.559  -9.937  19.368  1.00  0.00    -0.589 OA
HETATM   29  O3  UNL     1     -18.201  -7.435  18.630  1.00  0.00    -0.589 OA
ENDBRANCH  14  26
BRANCH   1  30
HETATM   30  N1  UNL     1     -12.832  -7.178  16.170  1.00  0.00    -0.379 N 
HETATM   31  C1  UNL     1     -12.400  -6.810  17.500  1.00  0.00     0.147 C 
ATOM     32  H1  UNL     1     -13.298  -6.488  15.581  1.00  0.00     0.160 HD
ENDBRANCH   1  30
BRANCH   4  33
HETATM   33  N3  UNL     1     -10.079 -10.049  14.003  1.00  0.00    -0.234 N 
ATOM     34  H32 UNL     1      -9.403  -9.296  13.873  1.00  0.00     0.174 HD
ATOM     35  H31 UNL     1      -9.866 -10.985  13.657  1.00  0.00     0.174 HD
ENDBRANCH   4  33
TORSDOF 11
ENDMDL
MODEL 2
REMARK VINA RESULT: -7.453424876      2.472      3.541
REMARK  11 active torsions:
REMARK  status: ('A' for Active; 'I' for Inactive)
REMARK    1  A    between atoms: N1_2  and  C2_4 
REMARK    2  A    between atoms: C3_7  and  N3_8 
REMARK    3  A    between atoms: C7_20  and  S1_21 
REMARK    4  A    between atoms: N7_25  and  C8_26 
REMARK    5  A    between atoms: C8_26  and  O4_27 
REMARK    6  A    between atoms: O4_27  and  C9_28 
REMARK    7  A    between atoms: C9_28  and  C10_29 
REMARK    8  A    between atoms: C10_29  and  O5_30 
REMARK    9  A    between atoms: O5_30  and  C11_31 
REMARK   10  A    between atoms: C11_31  and  C12_32 
REMARK   11  A    between atoms: C12_32  and  O6_33 
ROOT
HETATM    1  C2  UNL     1     -13.303  -8.255  15.973  1.00  0.00     0.133 A 
HETATM    2  N2  UNL     1     -12.503  -7.422  16.649  1.00  0.00    -0.176 N 
ATOM      3  H2  UNL     1     -11.698  -7.013  16.175  1.00  0.00     0.186 HD
HETATM    4  C3  UNL     1     -12.737  -7.105  17.955  1.00  0.00     0.679 A 
HETATM    5  N4  UNL     1     -13.791  -7.636  18.587  1.00  0.00    -0.176 N 
ATOM      6  H4  UNL     1     -13.955  -7.391  19.564  1.00  0.00     0.186 HD
HETATM    7  C4  UNL     1     -14.644  -8.485  17.973  1.00  0.00     0.139 A 
HETATM    8  N5  UNL     1     -15.752  -9.155  18.333  1.00  0.00    -0.325 N 
ATOM      9  H5  UNL     1     -16.173  -9.115  19.261  1.00  0.00     0.169 HD
HETATM   10  C5  UNL     1     -16.238  -9.891  17.306  1.00  0.00     0.141 A 
HETATM   11  C6  UNL     1     -15.374  -9.656  16.251  1.00  0.00     0.097 A 
HETATM   12  N6  UNL     1     -15.859 -10.389  15.229  1.00  0.00    -0.326 N 
ATOM     13  H6  UNL     1     -15.445 -10.435  14.299  1.00  0.00     0.168 HD
HETATM   14  C7  UNL     1     -16.966 -11.052  15.611  1.00  0.00     0.231 A 
HETATM   15  N7  UNL     1     -17.203 -10.740  16.907  1.00  0.00    -0.283 N 
HETATM   16  C13 UNL     1     -14.379  -8.787  16.647  1.00  0.00     0.083 A 
ENDROOT
BRANCH  15  17
HETATM   17  C8  UNL     1     -18.264 -11.190  17.773  1.00  0.00     0.302 C 
BRANCH  17  18
HETATM   18  O4  UNL     1     -18.282 -12.532  17.986  1.00  0.00    -0.369 OA
BRANCH  18  19
HETATM   19  C9  UNL     1     -19.539 -13.113  18.021  1.00  0.00     0.196 C 
BRANCH  19  20
HETATM   20  C10 UNL     1     -19.555 -14.579  17.727  1.00  0.00     0.193 C 
BRANCH  20  21
HETATM   21  O5  UNL     1     -19.045 -15.367  18.727  1.00  0.00    -0.387 OA
BRANCH  21  22
HETATM   22  C11 UNL     1     -18.888 -16.700  18.400  1.00  0.00     0.193 C 
BRANCH  22  23
HETATM   23  C12 UNL     1     -19.497 -17.620  19.440  1.00  0.00     0.190 C 
BRANCH  23  24
HETATM   24  O6  UNL     1     -19.379 -18.958  19.069  1.00  0.00    -0.399 OA
ATOM     25  H6  UNL     1     -19.745 -19.114  18.207  1.00  0.00     0.209 HD
ENDBRANCH  23  24
ENDBRANCH  22  23
ENDBRANCH  21  22
ENDBRANCH  20  21
ENDBRANCH  19  20
ENDBRANCH  18  19
ENDBRANCH  17  18
ENDBRANCH  15  17
BRANCH  14  26
HETATM   26  S1  UNL     1     -17.935 -12.116  14.645  1.00  0.00     0.172 S 
HETATM   27  O1  UNL     1     -17.495 -11.986  13.191  1.00  0.00    -0.589 OA
HETATM   28  O2  UNL     1     -17.759 -13.552  15.001  1.00  0.00    -0.589 OA
HETATM   29  O3  UNL     1     -19.547 -11.645  14.675  1.00  0.00    -0.589 OA
ENDBRANCH  14  26
BRANCH   1  30
HETATM   30  N1  UNL     1     -13.033  -8.517  14.747  1.00  0.00    -0.379 N 
HETATM   31  C1  UNL     1     -11.725  -8.223  14.205  1.00  0.00     0.147 C 
ATOM     32  H1  UNL     1     -13.746  -8.935  14.150  1.00  0.00     0.160 HD
ENDBRANCH   1  30
BRANCH   4  33
HETATM   33  N3  UNL     1     -11.908  -6.290  18.529  1.00  0.00    -0.234 N 
ATOM     34  H32 UNL     1     -11.991  -5.276  18.461  1.00  0.00     0.174 HD
ATOM     35  H31 UNL     1     -11.145  -6.699  19.068  1.00  0.00     0.174 HD
ENDBRANCH   4  33
TORSDOF 11
ENDMDL
MODEL 3
REMARK VINA RESULT: -7.401711611      3.669      7.718
REMARK  11 active torsions:
REMARK  status: ('A' for Active; 'I' for Inactive)
REMARK    1  A    between atoms: N1_2  and  C2_4 
REMARK    2  A    between atoms: C3_7  and  N3_8 
REMARK    3  A    between atoms: C7_20  and  S1_21 
REMARK    4  A    between atoms: N7_25  and  C8_26 
REMARK    5  A    between atoms: C8_26  and  O4_27 
REMARK    6  A    between atoms: O4_27  and  C9_28 
REMARK    7  A    between atoms: C9_28  and  C10_29 
REMARK    8  A    between atoms: C10_29  and  O5_30 
REMARK    9  A    between atoms: O5_30  and  C11_31 
REMARK   10  A    between atoms: C11_31  and  C12_32 
REMARK   11  A    between atoms: C12_32  and  O6_33 
ROOT
HETATM    1  C2  UNL     1     -18.784 -16.157  17.826  1.00  0.00     0.133 A 
HETATM    2  N2  UNL     1     -18.446 -17.445  17.693  1.00  0.00    -0.176 N 
ATOM      3  H2  UNL     1     -18.900 -18.141  18.285  1.00  0.00     0.186 HD
HETATM    4  C3  UNL     1     -17.512 -17.852  16.787  1.00  0.00     0.679 A 
HETATM    5  N4  UNL     1     -16.910 -16.948  16.004  1.00  0.00    -0.176 N 
ATOM      6  H4  UNL     1     -16.213 -17.264  15.330  1.00  0.00     0.186 HD
HETATM    7  C4  UNL     1     -17.197 -15.629  16.078  1.00  0.00     0.139 A 
HETATM    8  N5  UNL     1     -16.775 -14.521  15.446  1.00  0.00    -0.325 N 
ATOM      9  H5  UNL     1     -16.070 -14.512  14.709  1.00  0.00     0.169 HD
HETATM   10  C5  UNL     1     -17.403 -13.417  15.914  1.00  0.00     0.141 A 
HETATM   11  C6  UNL     1     -18.265 -13.879  16.893  1.00  0.00     0.097 A 
HETATM   12  N6  UNL     1     -18.890 -12.779  17.359  1.00  0.00    -0.326 N 
ATOM     13  H6  UNL     1     -19.595 -12.779  18.095  1.00  0.00     0.168 HD
HETATM   14  C7  UNL     1     -18.453 -11.682  16.714  1.00  0.00     0.231 A 
HETATM   15  N7  UNL     1     -17.525 -12.081  15.813  1.00  0.00    -0.283 N 
HETATM   16  C13 UNL     1     -18.150 -15.249  17.009  1.00  0.00     0.083 A 
ENDROOT
BRANCH  15  17
HETATM   17  C8  UNL     1     -16.761 -11.289  14.880  1.00  0.00     0.302 C 
BRANCH  17  18
HETATM   18  O4  UNL     1     -15.502 -11.748  14.657  1.00  0.00    -0.369 OA
BRANCH  18  19
HETATM   19  C9  UNL     1     -14.523 -11.232  15.491  1.00  0.00     0.196 C 
BRANCH  19  20
HETATM   20  C10 UNL     1     -14.689  -9.782  15.821  1.00  0.00     0.193 C 
BRANCH  20  21
HETATM   21  O5  UNL     1     -13.544  -9.160  16.249  1.00  0.00    -0.387 OA
BRANCH  21  22
HETATM   22  C11 UNL     1     -13.732  -8.182  17.207  1.00  0.00     0.193 C 
BRANCH  22  23
HETATM   23  C12 UNL     1     -12.663  -7.109  17.145  1.00  0.00     0.190 C 
BRANCH  23  24
HETATM   24  O6  UNL     1     -11.896  -7.085  18.309  1.00  0.00    -0.399 OA
ATOM     25  H6  UNL     1     -10.990  -6.873  18.124  1.00  0.00     0.209 HD
ENDBRANCH  23  24
ENDBRANCH  22  23
ENDBRANCH  21  22
ENDBRANCH  20  21
ENDBRANCH  19  20
ENDBRANCH  18  19
ENDBRANCH  17  18
ENDBRANCH  15  17
BRANCH  14  26
HETATM   26  S1  UNL     1     -18.963 -10.045  16.967  1.00  0.00     0.172 S 
HETATM   27  O1  UNL     1     -20.059 -10.037  18.027  1.00  0.00    -0.589 OA
HETATM   28  O2  UNL     1     -17.878  -9.168  17.491  1.00  0.00    -0.589 OA
HETATM   29  O3  UNL     1     -19.670  -9.420  15.578  1.00  0.00    -0.589 OA
ENDBRANCH  14  26
BRANCH   1  30
HETATM   30  N1  UNL     1     -19.668 -15.834  18.696  1.00  0.00    -0.379 N 
HETATM   31  C1  UNL     1     -21.073 -15.844  18.354  1.00  0.00     0.147 C 
ATOM     32  H1  UNL     1     -19.378 -15.568  19.637  1.00  0.00     0.160 HD
ENDBRANCH   1  30
BRANCH   4  33
HETATM   33  N3  UNL     1     -17.248 -19.120  16.730  1.00  0.00    -0.234 N 
ATOM     34  H32 UNL     1     -16.419 -19.534  17.157  1.00  0.00     0.174 HD
ATOM     35  H31 UNL     1     -17.911 -19.715  16.232  1.00  0.00     0.174 HD
ENDBRANCH   4  33
TORSDOF 11
ENDMDL
MODEL 4
REMARK VINA RESULT: -7.372416753      5.233      8.826
REMARK  11 active torsions:
REMARK  status: ('A' for Active; 'I' for Inactive)
REMARK    1  A    between atoms: N1_2  and  C2_4 
REMARK    2  A    between atoms: C3_7  and  N3_8 
REMARK    3  A    between atoms: C7_20  and  S1_21 
REMARK    4  A    between atoms: N7_25  and  C8_26 
REMARK    5  A    between atoms: C8_26  and  O4_27 
REMARK    6  A    between atoms: O4_27  and  C9_28 
REMARK    7  A    between atoms: C9_28  and  C10_29 
REMARK    8  A    between atoms: C10_29  and  O5_30 
REMARK    9  A    between atoms: O5_30  and  C11_31 
REMARK   10  A    between atoms: C11_31  and  C12_32 
REMARK   11  A    between atoms: C12_32  and  O6_33 
ROOT
HETATM    1  C2  UNL     1     -15.794  -8.891  17.379  1.00  0.00     0.133 A 
HETATM    2  N2  UNL     1     -16.843  -8.332  17.994  1.00  0.00    -0.176 N 
ATOM      3  H2  UNL     1     -17.573  -8.934  18.376  1.00  0.00     0.186 HD
HETATM    4  C3  UNL     1     -16.961  -6.980  18.125  1.00  0.00     0.679 A 
HETATM    5  N4  UNL     1     -16.009  -6.180  17.629  1.00  0.00    -0.176 N 
ATOM      6  H4  UNL     1     -16.108  -5.171  17.734  1.00  0.00     0.186 HD
HETATM    7  C4  UNL     1     -14.920  -6.668  16.995  1.00  0.00     0.139 A 
HETATM    8  N5  UNL     1     -13.833  -6.135  16.411  1.00  0.00    -0.325 N 
ATOM      9  H5  UNL     1     -13.644  -5.135  16.353  1.00  0.00     0.169 HD
HETATM   10  C5  UNL     1     -13.022  -7.095  15.910  1.00  0.00     0.141 A 
HETATM   11  C6  UNL     1     -13.651  -8.292  16.205  1.00  0.00     0.097 A 
HETATM   12  N6  UNL     1     -12.842  -9.247  15.706  1.00  0.00    -0.326 N 
ATOM     13  H6  UNL     1     -13.024 -10.250  15.759  1.00  0.00     0.168 HD
HETATM   14  C7  UNL     1     -11.762  -8.692  15.126  1.00  0.00     0.231 A 
HETATM   15  N7  UNL     1     -11.875  -7.350  15.254  1.00  0.00    -0.283 N 
HETATM   16  C13 UNL     1     -14.830  -8.046  16.878  1.00  0.00     0.083 A 
ENDROOT
BRANCH  15  17
HETATM   17  C8  UNL     1     -10.980  -6.313  14.801  1.00  0.00     0.302 C 
BRANCH  17  18
HETATM   18  O4  UNL     1     -11.077  -6.031  13.475  1.00  0.00    -0.369 OA
BRANCH  18  19
HETATM   19  C9  UNL     1      -9.883  -5.714  12.846  1.00  0.00     0.196 C 
BRANCH  19  20
HETATM   20  C10 UNL     1     -10.009  -5.426  11.383  1.00  0.00     0.193 C 
BRANCH  20  21
HETATM   21  O5  UNL     1     -11.293  -5.468  10.902  1.00  0.00    -0.387 OA
BRANCH  21  22
HETATM   22  C11 UNL     1     -11.468  -6.235   9.767  1.00  0.00     0.193 C 
BRANCH  22  23
HETATM   23  C12 UNL     1     -10.439  -7.344   9.661  1.00  0.00     0.190 C 
BRANCH  23  24
HETATM   24  O6  UNL     1     -10.876  -8.507  10.293  1.00  0.00    -0.399 OA
ATOM     25  H6  UNL     1     -11.366  -9.062   9.699  1.00  0.00     0.209 HD
ENDBRANCH  23  24
ENDBRANCH  22  23
ENDBRANCH  21  22
ENDBRANCH  20  21
ENDBRANCH  19  20
ENDBRANCH  18  19
ENDBRANCH  17  18
ENDBRANCH  15  17
BRANCH  14  26
HETATM   26  S1  UNL     1     -10.450  -9.517  14.350  1.00  0.00     0.172 S 
HETATM   27  O1  UNL     1     -10.530  -9.252  12.851  1.00  0.00    -0.589 OA
HETATM   28  O2  UNL     1      -9.111  -9.025  14.784  1.00  0.00    -0.589 OA
HETATM   29  O3  UNL     1     -10.604 -11.180  14.526  1.00  0.00    -0.589 OA
ENDBRANCH  14  26
BRANCH   1  30
HETATM   30  N1  UNL     1     -15.738 -10.168  17.285  1.00  0.00    -0.379 N 
HETATM   31  C1  UNL     1     -16.947 -10.949  17.155  1.00  0.00     0.147 C 
ATOM     32  H1  UNL     1     -14.832 -10.637  17.301  1.00  0.00     0.160 HD
ENDBRANCH   1  30
BRANCH   4  33
HETATM   33  N3  UNL     1     -18.012  -6.529  18.736  1.00  0.00    -0.234 N 
ATOM     34  H32 UNL     1     -18.395  -6.965  19.575  1.00  0.00     0.174 HD
ATOM     35  H31 UNL     1     -18.463  -5.702  18.346  1.00  0.00     0.174 HD
ENDBRANCH   4  33
TORSDOF 11
ENDMDL
MODEL 5
REMARK VINA RESULT: -7.363191122      4.336      8.407
REMARK  11 active torsions:
REMARK  status: ('A' for Active; 'I' for Inactive)
REMARK    1  A    between atoms: N1_2  and  C2_4 
REMARK    2  A    between atoms: C3_7  and  N3_8 
REMARK    3  A    between atoms: C7_20  and  S1_21 
REMARK    4  A    between atoms: N7_25  and  C8_26 
REMARK    5  A    between atoms: C8_26  and  O4_27 
REMARK    6  A    between atoms: O4_27  and  C9_28 
REMARK    7  A    between atoms: C9_28  and  C10_29 
REMARK    8  A    between atoms: C10_29  and  O5_30 
REMARK    9  A    between atoms: O5_30  and  C11_31 
REMARK   10  A    between atoms: C11_31  and  C12_32 
REMARK   11  A    between atoms: C12_32  and  O6_33 
ROOT
HETATM    1  C2  UNL     1     -18.327 -16.893  17.545  1.00  0.00     0.133 A 
HETATM    2  N2  UNL     1     -19.079 -17.798  18.184  1.00  0.00    -0.176 N 
ATOM      3  H2  UNL     1     -18.793 -18.778  18.172  1.00  0.00     0.186 HD
HETATM    4  C3  UNL     1     -20.216 -17.446  18.849  1.00  0.00     0.679 A 
HETATM    5  N4  UNL     1     -20.601 -16.164  18.872  1.00  0.00    -0.176 N 
ATOM      6  H4  UNL     1     -21.453 -15.913  19.373  1.00  0.00     0.186 HD
HETATM    7  C4  UNL     1     -19.896 -15.191  18.251  1.00  0.00     0.139 A 
HETATM    8  N5  UNL     1     -20.024 -13.862  18.103  1.00  0.00    -0.325 N 
ATOM      9  H5  UNL     1     -20.788 -13.311  18.496  1.00  0.00     0.169 HD
HETATM   10  C5  UNL     1     -19.013 -13.348  17.366  1.00  0.00     0.141 A 
HETATM   11  C6  UNL     1     -18.213 -14.431  17.044  1.00  0.00     0.097 A 
HETATM   12  N6  UNL     1     -17.205 -13.918  16.310  1.00  0.00    -0.326 N 
ATOM     13  H6  UNL     1     -16.439 -14.461  15.914  1.00  0.00     0.168 HD
HETATM   14  C7  UNL     1     -17.354 -12.587  16.174  1.00  0.00     0.231 A 
HETATM   15  N7  UNL     1     -18.482 -12.232  16.833  1.00  0.00    -0.283 N 
HETATM   16  C13 UNL     1     -18.746 -15.583  17.584  1.00  0.00     0.083 A 
ENDROOT
BRANCH  15  17
HETATM   17  C8  UNL     1     -19.076 -10.927  16.985  1.00  0.00     0.302 C 
BRANCH  17  18
HETATM   18  O4  UNL     1     -19.518 -10.657  18.242  1.00  0.00    -0.369 OA
BRANCH  18  19
HETATM   19  C9  UNL     1     -19.236  -9.384  18.711  1.00  0.00     0.196 C 
BRANCH  19  20
HETATM   20  C10 UNL     1     -18.262  -9.341  19.846  1.00  0.00     0.193 C 
BRANCH  20  21
HETATM   21  O5  UNL     1     -16.955  -9.169  19.469  1.00  0.00    -0.387 OA
BRANCH  21  22
HETATM   22  C11 UNL     1     -16.682  -7.977  18.827  1.00  0.00     0.193 C 
BRANCH  22  23
HETATM   23  C12 UNL     1     -15.195  -7.766  18.621  1.00  0.00     0.190 C 
BRANCH  23  24
HETATM   24  O6  UNL     1     -14.488  -8.961  18.744  1.00  0.00    -0.399 OA
ATOM     25  H6  UNL     1     -13.876  -8.929  19.469  1.00  0.00     0.209 HD
ENDBRANCH  23  24
ENDBRANCH  22  23
ENDBRANCH  21  22
ENDBRANCH  20  21
ENDBRANCH  19  20
ENDBRANCH  18  19
ENDBRANCH  17  18
ENDBRANCH  15  17
BRANCH  14  26
HETATM   26  S1  UNL     1     -16.311 -11.499  15.317  1.00  0.00     0.172 S 
HETATM   27  O1  UNL     1     -15.206 -12.311  14.651  1.00  0.00    -0.589 OA
HETATM   28  O2  UNL     1     -17.004 -10.769  14.218  1.00  0.00    -0.589 OA
HETATM   29  O3  UNL     1     -15.533 -10.459  16.381  1.00  0.00    -0.589 OA
ENDBRANCH  14  26
BRANCH   1  30
HETATM   30  N1  UNL     1     -17.270 -17.283  16.936  1.00  0.00    -0.379 N 
HETATM   31  C1  UNL     1     -16.413 -18.290  17.522  1.00  0.00     0.147 C 
ATOM     32  H1  UNL     1     -17.031 -16.881  16.029  1.00  0.00     0.160 HD
ENDBRANCH   1  30
BRANCH   4  33
HETATM   33  N3  UNL     1     -20.880 -18.392  19.438  1.00  0.00    -0.234 N 
ATOM     34  H32 UNL     1     -20.784 -19.376  19.187  1.00  0.00     0.174 HD
ATOM     35  H31 UNL     1     -21.522 -18.121  20.182  1.00  0.00     0.174 HD
ENDBRANCH   4  33
TORSDOF 11
ENDMDL
