MODEL 1
REMARK VINA RESULT: -7.826556005      0.000      0.000
REMARK  11 active torsions:
REMARK  status: ('A' for Active; 'I' for Inactive)
REMARK    1  A    between atoms: C8_11  and  O3_12 
REMARK    2  A    between atoms: C8_11  and  C9_14 
REMARK    3  A    between atoms: C9_14  and  O4_15 
REMARK    4  A    between atoms: O4_15  and  C10_16 
REMARK    5  A    between atoms: C10_16  and  C11_18 
REMARK    6  A    between atoms: C11_18  and  N2_19 
REMARK    7  A    between atoms: C11_18  and  N3_23 
REMARK       I    between atoms: N3_23  and  C12_25 
REMARK    8  A    between atoms: C12_25  and  C13_27 
REMARK    9  A    between atoms: C13_27  and  N4_28 
REMARK   10  A    between atoms: C13_27  and  C14_32 
REMARK   11  A    between atoms: C14_32  and  C15_33 
ROOT
HETATM    1  C1  UNL     1     -19.514  -8.105  17.003  1.00  0.00     0.016 C 
HETATM    2  C2  UNL     1     -18.441  -8.588  16.737  1.00  0.00    -0.058 C 
HETATM    3  C3  UNL     1     -17.156  -9.180  16.394  1.00  0.00     0.274 C 
HETATM    4  C4  UNL     1     -16.386  -8.309  15.512  1.00  0.00     0.118 C 
HETATM    5  N1  UNL     1     -15.797  -7.621  14.813  1.00  0.00    -0.193 NA
HETATM    6  O1  UNL     1     -17.429 -10.416  15.759  1.00  0.00    -0.314 OA
HETATM    7  C5  UNL     1     -17.411 -11.374  16.739  1.00  0.00     0.164 C 
HETATM    8  C6  UNL     1     -18.777 -12.030  16.775  1.00  0.00     0.078 C 
HETATM    9  C7  UNL     1     -16.398 -12.482  16.454  1.00  0.00     0.078 C 
HETATM   10  O2  UNL     1     -17.073 -10.794  17.939  1.00  0.00    -0.313 OA
HETATM   11  C8  UNL     1     -16.384  -9.657  17.575  1.00  0.00     0.245 C 
ENDROOT
BRANCH  11  12
HETATM   12  O3  UNL     1     -15.124 -10.075  17.117  1.00  0.00    -0.360 OA
ATOM     13  H3  UNL     1     -15.188 -10.999  16.907  1.00  0.00     0.213 HD
ENDBRANCH  11  12
BRANCH  11  14
HETATM   14  C9  UNL     1     -16.171  -8.672  18.649  1.00  0.00     0.253 C 
BRANCH  14  15
HETATM   15  O4  UNL     1     -14.826  -8.296  18.847  1.00  0.00    -0.313 OA
BRANCH  15  16
HETATM   16  C10 UNL     1     -14.380  -7.039  18.486  1.00  0.00     0.309 C 
HETATM   17  O5  UNL     1     -15.016  -6.050  18.918  1.00  0.00    -0.261 OA
BRANCH  16  18
HETATM   18  C11 UNL     1     -13.179  -6.839  17.609  1.00  0.00     0.384 C 
BRANCH  18  19
HETATM   19  N2  UNL     1     -12.014  -6.977  18.496  1.00  0.00    -0.049 N 
ATOM     20  H23 UNL     1     -11.371  -6.186  18.455  1.00  0.00     0.277 HD
ATOM     21  H22 UNL     1     -12.242  -6.897  19.487  1.00  0.00     0.277 HD
ATOM     22  H21 UNL     1     -11.582  -7.868  18.245  1.00  0.00     0.277 HD
ENDBRANCH  18  19
BRANCH  18  23
HETATM   23  N3  UNL     1     -13.095  -7.890  16.618  1.00  0.00    -0.324 N 
HETATM   24  C12 UNL     1     -12.071  -7.871  15.632  1.00  0.00     0.250 C 
HETATM   25  O6  UNL     1     -11.234  -6.927  15.628  1.00  0.00    -0.271 OA
ATOM     26  H3  UNL     1     -13.776  -8.650  16.627  1.00  0.00     0.165 HD
BRANCH  24  27
HETATM   27  C13 UNL     1     -11.937  -8.909  14.602  1.00  0.00     0.284 C 
BRANCH  27  28
HETATM   28  N4  UNL     1     -11.300 -10.060  15.190  1.00  0.00    -0.066 N 
ATOM     29  H43 UNL     1     -10.470 -10.354  14.675  1.00  0.00     0.275 HD
ATOM     30  H42 UNL     1     -10.845  -9.845  16.078  1.00  0.00     0.275 HD
ATOM     31  H41 UNL     1     -11.991 -10.805  15.276  1.00  0.00     0.275 HD
ENDBRANCH  27  28
BRANCH  27  32
HETATM   32  C14 UNL     1     -11.050  -8.428  13.474  1.00  0.00     0.155 C 
BRANCH  32  33
HETATM   33  C15 UNL     1      -9.820  -9.237  13.428  1.00  0.00     0.175 C 
HETATM   34  O7  UNL     1      -8.854  -8.853  14.164  1.00  0.00    -0.648 OA
HETATM   35  O8  UNL     1      -9.631 -10.360  12.666  1.00  0.00    -0.648 OA
ENDBRANCH  32  33
ENDBRANCH  27  32
ENDBRANCH  24  27
ENDBRANCH  18  23
ENDBRANCH  16  18
ENDBRANCH  15  16
ENDBRANCH  14  15
ENDBRANCH  11  14
TORSDOF 11
ENDMDL
MODEL 2
REMARK VINA RESULT: -7.587728864      1.306      1.549
REMARK  11 active torsions:
REMARK  status: ('A' for Active; 'I' for Inactive)
REMARK    1  A    between atoms: C8_11  and  O3_12 
REMARK    2  A    between atoms: C8_11  and  C9_14 
REMARK    3  A    between atoms: C9_14  and  O4_15 
REMARK    4  A    between atoms: O4_15  and  C10_16 
REMARK    5  A    between atoms: C10_16  and  C11_18 
REMARK    6  A    between atoms: C11_18  and  N2_19 
REMARK    7  A    between atoms: C11_18  and  N3_23 
REMARK       I    between atoms: N3_23  and  C12_25 
REMARK    8  A    between atoms: C12_25  and  C13_27 
REMARK    9  A    between atoms: C13_27  and  N4_28 
REMARK   10  A    between atoms: C13_27  and  C14_32 
REMARK   11  A    between atoms: C14_32  and  C15_33 
ROOT
HETATM    1  C1  UNL     1     -17.531  -7.848  14.554  1.00  0.00     0.016 C 
HETATM    2  C2  UNL     1     -17.163  -8.696  15.330  1.00  0.00    -0.058 C 
HETATM    3  C3  UNL     1     -16.726  -9.736  16.250  1.00  0.00     0.274 C 
HETATM    4  C4  UNL     1     -15.363 -10.168  15.957  1.00  0.00     0.118 C 
HETATM    5  N1  UNL     1     -14.297 -10.505  15.711  1.00  0.00    -0.193 NA
HETATM    6  O1  UNL     1     -17.632 -10.816  16.111  1.00  0.00    -0.314 OA
HETATM    7  C5  UNL     1     -18.608 -10.635  17.055  1.00  0.00     0.164 C 
HETATM    8  C6  UNL     1     -19.935 -10.503  16.335  1.00  0.00     0.078 C 
HETATM    9  C7  UNL     1     -18.736 -11.830  18.000  1.00  0.00     0.078 C 
HETATM   10  O2  UNL     1     -18.308  -9.529  17.816  1.00  0.00    -0.313 OA
HETATM   11  C8  UNL     1     -16.943  -9.396  17.684  1.00  0.00     0.245 C 
ENDROOT
BRANCH  11  12
HETATM   12  O3  UNL     1     -16.359 -10.415  18.454  1.00  0.00    -0.360 OA
ATOM     13  H3  UNL     1     -16.854 -10.482  19.262  1.00  0.00     0.213 HD
ENDBRANCH  11  12
BRANCH  11  14
HETATM   14  C9  UNL     1     -16.383  -8.110  18.135  1.00  0.00     0.253 C 
BRANCH  14  15
HETATM   15  O4  UNL     1     -14.978  -8.088  18.255  1.00  0.00    -0.313 OA
BRANCH  15  16
HETATM   16  C10 UNL     1     -14.282  -6.895  18.228  1.00  0.00     0.309 C 
HETATM   17  O5  UNL     1     -14.784  -5.915  18.825  1.00  0.00    -0.261 OA
BRANCH  16  18
HETATM   18  C11 UNL     1     -12.969  -6.753  17.514  1.00  0.00     0.384 C 
BRANCH  18  19
HETATM   19  N2  UNL     1     -11.937  -7.004  18.532  1.00  0.00    -0.049 N 
ATOM     20  H23 UNL     1     -11.667  -6.172  19.057  1.00  0.00     0.277 HD
ATOM     21  H22 UNL     1     -12.271  -7.547  19.329  1.00  0.00     0.277 HD
ATOM     22  H21 UNL     1     -11.161  -7.442  18.034  1.00  0.00     0.277 HD
ENDBRANCH  18  19
BRANCH  18  23
HETATM   23  N3  UNL     1     -12.832  -7.773  16.498  1.00  0.00    -0.324 N 
HETATM   24  C12 UNL     1     -11.807  -7.680  15.517  1.00  0.00     0.250 C 
HETATM   25  O6  UNL     1     -11.016  -6.697  15.540  1.00  0.00    -0.271 OA
ATOM     26  H3  UNL     1     -13.474  -8.565  16.485  1.00  0.00     0.165 HD
BRANCH  24  27
HETATM   27  C13 UNL     1     -11.620  -8.684  14.462  1.00  0.00     0.284 C 
BRANCH  27  28
HETATM   28  N4  UNL     1     -11.189  -9.917  15.072  1.00  0.00    -0.066 N 
ATOM     29  H43 UNL     1     -10.425  -9.779  15.734  1.00  0.00     0.275 HD
ATOM     30  H42 UNL     1     -11.877 -10.290  15.727  1.00  0.00     0.275 HD
ATOM     31  H41 UNL     1     -10.952 -10.579  14.334  1.00  0.00     0.275 HD
ENDBRANCH  27  28
BRANCH  27  32
HETATM   32  C14 UNL     1     -10.534  -8.251  13.501  1.00  0.00     0.155 C 
BRANCH  32  33
HETATM   33  C15 UNL     1     -10.358  -9.274  12.456  1.00  0.00     0.175 C 
HETATM   34  O7  UNL     1      -9.624 -10.272  12.747  1.00  0.00    -0.648 OA
HETATM   35  O8  UNL     1     -10.916  -9.240  11.204  1.00  0.00    -0.648 OA
ENDBRANCH  32  33
ENDBRANCH  27  32
ENDBRANCH  24  27
ENDBRANCH  18  23
ENDBRANCH  16  18
ENDBRANCH  15  16
ENDBRANCH  14  15
ENDBRANCH  11  14
TORSDOF 11
ENDMDL
MODEL 3
REMARK VINA RESULT: -7.502172000      1.730      2.332
REMARK  11 active torsions:
REMARK  status: ('A' for Active; 'I' for Inactive)
REMARK    1  A    between atoms: C8_11  and  O3_12 
REMARK    2  A    between atoms: C8_11  and  C9_14 
REMARK    3  A    between atoms: C9_14  and  O4_15 
REMARK    4  A    between atoms: O4_15  and  C10_16 
REMARK    5  A    between atoms: C10_16  and  C11_18 
REMARK    6  A    between atoms: C11_18  and  N2_19 
REMARK    7  A    between atoms: C11_18  and  N3_23 
REMARK       I    between atoms: N3_23  and  C12_25 
REMARK    8  A    between atoms: C12_25  and  C13_27 
REMARK    9  A    between atoms: C13_27  and  N4_28 
REMARK   10  A    between atoms: C13_27  and  C14_32 
REMARK   11  A    between atoms: C14_32  and  C15_33 
ROOT
HETATM    1  C1  UNL     1     -18.481  -9.251  14.892  1.00  0.00     0.016 C 
HETATM    2  C2  UNL     1     -18.047  -9.717  15.917  1.00  0.00    -0.058 C 
HETATM    3  C3  UNL     1     -17.545 -10.292  17.157  1.00  0.00     0.274 C 
HETATM    4  C4  UNL     1     -16.919 -11.590  16.927  1.00  0.00     0.118 C 
HETATM    5  N1  UNL     1     -16.440 -12.612  16.734  1.00  0.00    -0.193 NA
HETATM    6  O1  UNL     1     -18.654 -10.421  18.029  1.00  0.00    -0.314 OA
HETATM    7  C5  UNL     1     -18.697  -9.277  18.783  1.00  0.00     0.164 C 
HETATM    8  C6  UNL     1     -20.026  -8.598  18.524  1.00  0.00     0.078 C 
HETATM    9  C7  UNL     1     -18.632  -9.563  20.283  1.00  0.00     0.078 C 
HETATM   10  O2  UNL     1     -17.624  -8.478  18.461  1.00  0.00    -0.313 OA
HETATM   11  C8  UNL     1     -16.696  -9.358  17.949  1.00  0.00     0.245 C 
ENDROOT
BRANCH  11  12
HETATM   12  O3  UNL     1     -16.176 -10.078  19.036  1.00  0.00    -0.360 OA
ATOM     13  H3  UNL     1     -16.621  -9.778  19.818  1.00  0.00     0.213 HD
ENDBRANCH  11  12
BRANCH  11  14
HETATM   14  C9  UNL     1     -15.567  -8.744  17.230  1.00  0.00     0.253 C 
BRANCH  14  15
HETATM   15  O4  UNL     1     -14.489  -8.350  18.050  1.00  0.00    -0.313 OA
BRANCH  15  16
HETATM   16  C10 UNL     1     -14.008  -7.056  18.016  1.00  0.00     0.309 C 
HETATM   17  O5  UNL     1     -14.747  -6.148  18.463  1.00  0.00    -0.261 OA
BRANCH  16  18
HETATM   18  C11 UNL     1     -12.651  -6.723  17.467  1.00  0.00     0.384 C 
BRANCH  18  19
HETATM   19  N2  UNL     1     -11.746  -6.718  18.627  1.00  0.00    -0.049 N 
ATOM     20  H23 UNL     1     -12.220  -6.564  19.516  1.00  0.00     0.277 HD
ATOM     21  H22 UNL     1     -11.364  -7.637  18.851  1.00  0.00     0.277 HD
ATOM     22  H21 UNL     1     -11.034  -6.018  18.416  1.00  0.00     0.277 HD
ENDBRANCH  18  19
BRANCH  18  23
HETATM   23  N3  UNL     1     -12.199  -7.764  16.569  1.00  0.00    -0.324 N 
HETATM   24  C12 UNL     1     -12.432  -7.660  15.171  1.00  0.00     0.250 C 
HETATM   25  O6  UNL     1     -13.037  -6.650  14.718  1.00  0.00    -0.271 OA
ATOM     26  H3  UNL     1     -11.710  -8.577  16.943  1.00  0.00     0.165 HD
BRANCH  24  27
HETATM   27  C13 UNL     1     -11.997  -8.684  14.212  1.00  0.00     0.284 C 
BRANCH  27  28
HETATM   28  N4  UNL     1     -11.490  -9.816  14.947  1.00  0.00    -0.066 N 
ATOM     29  H43 UNL     1     -10.480  -9.919  14.857  1.00  0.00     0.275 HD
ATOM     30  H42 UNL     1     -11.528  -9.675  15.957  1.00  0.00     0.275 HD
ATOM     31  H41 UNL     1     -11.997 -10.649  14.650  1.00  0.00     0.275 HD
ENDBRANCH  27  28
BRANCH  27  32
HETATM   32  C14 UNL     1     -10.868  -8.162  13.350  1.00  0.00     0.155 C 
BRANCH  32  33
HETATM   33  C15 UNL     1     -10.481  -9.185  12.364  1.00  0.00     0.175 C 
HETATM   34  O7  UNL     1      -9.678 -10.090  12.761  1.00  0.00    -0.648 OA
HETATM   35  O8  UNL     1     -10.911  -9.244  11.064  1.00  0.00    -0.648 OA
ENDBRANCH  32  33
ENDBRANCH  27  32
ENDBRANCH  24  27
ENDBRANCH  18  23
ENDBRANCH  16  18
ENDBRANCH  15  16
ENDBRANCH  14  15
ENDBRANCH  11  14
TORSDOF 11
ENDMDL
MODEL 4
REMARK VINA RESULT: -7.472164995      1.467      1.986
REMARK  11 active torsions:
REMARK  status: ('A' for Active; 'I' for Inactive)
REMARK    1  A    between atoms: C8_11  and  O3_12 
REMARK    2  A    between atoms: C8_11  and  C9_14 
REMARK    3  A    between atoms: C9_14  and  O4_15 
REMARK    4  A    between atoms: O4_15  and  C10_16 
REMARK    5  A    between atoms: C10_16  and  C11_18 
REMARK    6  A    between atoms: C11_18  and  N2_19 
REMARK    7  A    between atoms: C11_18  and  N3_23 
REMARK       I    between atoms: N3_23  and  C12_25 
REMARK    8  A    between atoms: C12_25  and  C13_27 
REMARK    9  A    between atoms: C13_27  and  N4_28 
REMARK   10  A    between atoms: C13_27  and  C14_32 
REMARK   11  A    between atoms: C14_32  and  C15_33 
ROOT
HETATM    1  C1  UNL     1     -15.808  -7.325  14.592  1.00  0.00     0.016 C 
HETATM    2  C2  UNL     1     -15.871  -8.416  15.104  1.00  0.00    -0.058 C 
HETATM    3  C3  UNL     1     -15.950  -9.741  15.700  1.00  0.00     0.274 C 
HETATM    4  C4  UNL     1     -14.653 -10.410  15.688  1.00  0.00     0.118 C 
HETATM    5  N1  UNL     1     -13.632 -10.926  15.663  1.00  0.00    -0.193 NA
HETATM    6  O1  UNL     1     -16.896 -10.476  14.944  1.00  0.00    -0.314 OA
HETATM    7  C5  UNL     1     -18.107 -10.316  15.566  1.00  0.00     0.164 C 
HETATM    8  C6  UNL     1     -19.054  -9.662  14.581  1.00  0.00     0.078 C 
HETATM    9  C7  UNL     1     -18.739 -11.649  15.966  1.00  0.00     0.078 C 
HETATM   10  O2  UNL     1     -17.938  -9.572  16.710  1.00  0.00    -0.313 OA
HETATM   11  C8  UNL     1     -16.612  -9.759  17.035  1.00  0.00     0.245 C 
ENDROOT
BRANCH  11  12
HETATM   12  O3  UNL     1     -16.499 -11.062  17.546  1.00  0.00    -0.360 OA
ATOM     13  H3  UNL     1     -15.653 -11.130  17.971  1.00  0.00     0.213 HD
ENDBRANCH  11  12
BRANCH  11  14
HETATM   14  C9  UNL     1     -16.066  -8.830  18.039  1.00  0.00     0.253 C 
BRANCH  14  15
HETATM   15  O4  UNL     1     -14.679  -8.593  17.931  1.00  0.00    -0.313 OA
BRANCH  15  16
HETATM   16  C10 UNL     1     -14.166  -7.317  18.054  1.00  0.00     0.309 C 
HETATM   17  O5  UNL     1     -14.835  -6.480  18.703  1.00  0.00    -0.261 OA
BRANCH  16  18
HETATM   18  C11 UNL     1     -12.854  -6.921  17.439  1.00  0.00     0.384 C 
BRANCH  18  19
HETATM   19  N2  UNL     1     -11.917  -6.782  18.564  1.00  0.00    -0.049 N 
ATOM     20  H23 UNL     1     -11.180  -7.488  18.574  1.00  0.00     0.277 HD
ATOM     21  H22 UNL     1     -11.304  -5.970  18.489  1.00  0.00     0.277 HD
ATOM     22  H21 UNL     1     -12.495  -6.783  19.405  1.00  0.00     0.277 HD
ENDBRANCH  18  19
BRANCH  18  23
HETATM   23  N3  UNL     1     -12.355  -7.979  16.588  1.00  0.00    -0.324 N 
HETATM   24  C12 UNL     1     -12.123  -7.743  15.206  1.00  0.00     0.250 C 
HETATM   25  O6  UNL     1     -12.358  -6.600  14.726  1.00  0.00    -0.271 OA
ATOM     26  H3  UNL     1     -12.167  -8.901  16.983  1.00  0.00     0.165 HD
BRANCH  24  27
HETATM   27  C13 UNL     1     -11.618  -8.777  14.294  1.00  0.00     0.284 C 
BRANCH  27  28
HETATM   28  N4  UNL     1     -10.638  -9.568  14.994  1.00  0.00    -0.066 N 
ATOM     29  H43 UNL     1      -9.814  -9.027  15.256  1.00  0.00     0.275 HD
ATOM     30  H42 UNL     1     -10.942  -9.825  15.934  1.00  0.00     0.275 HD
ATOM     31  H41 UNL     1     -10.407 -10.380  14.423  1.00  0.00     0.275 HD
ENDBRANCH  27  28
BRANCH  27  32
HETATM   32  C14 UNL     1     -10.926  -8.147  13.105  1.00  0.00     0.155 C 
BRANCH  32  33
HETATM   33  C15 UNL     1     -10.509  -9.196  12.159  1.00  0.00     0.175 C 
HETATM   34  O7  UNL     1     -10.947  -9.101  10.967  1.00  0.00    -0.648 OA
HETATM   35  O8  UNL     1      -9.694 -10.258  12.453  1.00  0.00    -0.648 OA
ENDBRANCH  32  33
ENDBRANCH  27  32
ENDBRANCH  24  27
ENDBRANCH  18  23
ENDBRANCH  16  18
ENDBRANCH  15  16
ENDBRANCH  14  15
ENDBRANCH  11  14
TORSDOF 11
ENDMDL
MODEL 5
REMARK VINA RESULT: -7.410131904      2.436      3.385
REMARK  11 active torsions:
REMARK  status: ('A' for Active; 'I' for Inactive)
REMARK    1  A    between atoms: C8_11  and  O3_12 
REMARK    2  A    between atoms: C8_11  and  C9_14 
REMARK    3  A    between atoms: C9_14  and  O4_15 
REMARK    4  A    between atoms: O4_15  and  C10_16 
REMARK    5  A    between atoms: C10_16  and  C11_18 
REMARK    6  A    between atoms: C11_18  and  N2_19 
REMARK    7  A    between atoms: C11_18  and  N3_23 
REMARK       I    between atoms: N3_23  and  C12_25 
REMARK    8  A    between atoms: C12_25  and  C13_27 
REMARK    9  A    between atoms: C13_27  and  N4_28 
REMARK   10  A    between atoms: C13_27  and  C14_32 
REMARK   11  A    between atoms: C14_32  and  C15_33 
ROOT
HETATM    1  C1  UNL     1     -20.481 -11.207  16.970  1.00  0.00     0.016 C 
HETATM    2  C2  UNL     1     -19.660 -11.742  16.267  1.00  0.00    -0.058 C 
HETATM    3  C3  UNL     1     -18.687 -12.403  15.410  1.00  0.00     0.274 C 
HETATM    4  C4  UNL     1     -18.743 -11.891  14.045  1.00  0.00     0.118 C 
HETATM    5  N1  UNL     1     -18.805 -11.488  12.975  1.00  0.00    -0.193 NA
HETATM    6  O1  UNL     1     -18.989 -13.787  15.436  1.00  0.00    -0.314 OA
HETATM    7  C5  UNL     1     -18.226 -14.338  16.431  1.00  0.00     0.164 C 
HETATM    8  C6  UNL     1     -19.163 -14.953  17.451  1.00  0.00     0.078 C 
HETATM    9  C7  UNL     1     -17.327 -15.465  15.923  1.00  0.00     0.078 C 
HETATM   10  O2  UNL     1     -17.416 -13.368  16.976  1.00  0.00    -0.313 OA
HETATM   11  C8  UNL     1     -17.309 -12.426  15.976  1.00  0.00     0.245 C 
ENDROOT
BRANCH  11  12
HETATM   12  O3  UNL     1     -16.458 -12.966  14.998  1.00  0.00    -0.360 OA
ATOM     13  H3  UNL     1     -15.674 -12.432  14.975  1.00  0.00     0.213 HD
ENDBRANCH  11  12
BRANCH  11  14
HETATM   14  C9  UNL     1     -16.758 -11.124  16.387  1.00  0.00     0.253 C 
BRANCH  14  15
HETATM   15  O4  UNL     1     -15.935 -10.501  15.425  1.00  0.00    -0.313 OA
BRANCH  15  16
HETATM   16  C10 UNL     1     -14.587 -10.310  15.661  1.00  0.00     0.309 C 
HETATM   17  O5  UNL     1     -13.817 -11.276  15.450  1.00  0.00    -0.261 OA
BRANCH  16  18
HETATM   18  C11 UNL     1     -14.040  -9.002  16.153  1.00  0.00     0.384 C 
BRANCH  18  19
HETATM   19  N2  UNL     1     -13.970  -9.128  17.617  1.00  0.00    -0.049 N 
ATOM     20  H23 UNL     1     -13.689 -10.056  17.935  1.00  0.00     0.277 HD
ATOM     21  H22 UNL     1     -13.192  -8.617  18.035  1.00  0.00     0.277 HD
ATOM     22  H21 UNL     1     -14.885  -8.837  17.961  1.00  0.00     0.277 HD
ENDBRANCH  18  19
BRANCH  18  23
HETATM   23  N3  UNL     1     -12.691  -8.804  15.670  1.00  0.00    -0.324 N 
HETATM   24  C12 UNL     1     -12.381  -7.701  14.829  1.00  0.00     0.250 C 
HETATM   25  O6  UNL     1     -13.295  -6.894  14.505  1.00  0.00    -0.271 OA
ATOM     26  H3  UNL     1     -11.956  -9.460  15.936  1.00  0.00     0.165 HD
BRANCH  24  27
HETATM   27  C13 UNL     1     -11.031  -7.449  14.309  1.00  0.00     0.284 C 
BRANCH  27  28
HETATM   28  N4  UNL     1     -10.656  -6.097  14.637  1.00  0.00    -0.066 N 
ATOM     29  H43 UNL     1      -9.888  -5.754  14.062  1.00  0.00     0.275 HD
ATOM     30  H42 UNL     1     -11.360  -5.416  14.352  1.00  0.00     0.275 HD
ATOM     31  H41 UNL     1     -10.449  -6.050  15.635  1.00  0.00     0.275 HD
ENDBRANCH  27  28
BRANCH  27  32
HETATM   32  C14 UNL     1     -11.009  -7.572  12.801  1.00  0.00     0.155 C 
BRANCH  32  33
HETATM   33  C15 UNL     1     -10.569  -8.924  12.418  1.00  0.00     0.175 C 
HETATM   34  O7  UNL     1     -10.887  -9.322  11.251  1.00  0.00    -0.648 OA
HETATM   35  O8  UNL     1      -9.851  -9.783  13.208  1.00  0.00    -0.648 OA
ENDBRANCH  32  33
ENDBRANCH  27  32
ENDBRANCH  24  27
ENDBRANCH  18  23
ENDBRANCH  16  18
ENDBRANCH  15  16
ENDBRANCH  14  15
ENDBRANCH  11  14
TORSDOF 11
ENDMDL
