MODEL 1
REMARK VINA RESULT: -7.524089880      0.000      0.000
REMARK  11 active torsions:
REMARK  status: ('A' for Active; 'I' for Inactive)
REMARK    1  A    between atoms: O1_2  and  C2_3 
REMARK    2  A    between atoms: C2_3  and  C3_5 
REMARK    3  A    between atoms: C3_5  and  O3_6 
REMARK    4  A    between atoms: O3_6  and  N1_7 
REMARK    5  A    between atoms: N1_7  and  C4_9 
REMARK    6  A    between atoms: C4_9  and  C5_10 
REMARK    7  A    between atoms: C4_9  and  C10_24 
REMARK    8  A    between atoms: C5_10  and  O4_11 
REMARK    9  A    between atoms: O4_11  and  C6_12 
REMARK   10  A    between atoms: C6_12  and  C7_14 
REMARK   11  A    between atoms: C8_15  and  O6_16 
ROOT
HETATM    1  C4  UNL     1     -19.283 -12.498  17.189  1.00  0.00     0.073 C 
ENDROOT
BRANCH   1   2
HETATM    2  N1  UNL     1     -19.630 -12.561  16.000  1.00  0.00    -0.267 N 
ATOM      3  H1  UNL     1     -20.032 -11.664  15.729  1.00  0.00     0.194 HD
BRANCH   2   4
HETATM    4  O3  UNL     1     -19.666 -13.368  14.967  1.00  0.00    -0.270 OA
BRANCH   4   5
HETATM    5  C3  UNL     1     -19.691 -12.889  13.650  1.00  0.00     0.312 C 
BRANCH   5   6
HETATM    6  C2  UNL     1     -18.726 -11.745  13.477  1.00  0.00     0.284 C 
HETATM    7  O2  UNL     1     -17.543 -11.945  13.102  1.00  0.00    -0.263 OA
BRANCH   6   8
HETATM    8  O1  UNL     1     -19.106 -10.438  13.723  1.00  0.00    -0.325 OA
HETATM    9  C1  UNL     1     -18.314  -9.517  14.449  1.00  0.00     0.213 C 
ENDBRANCH   6   8
ENDBRANCH   5   6
ENDBRANCH   4   5
ENDBRANCH   2   4
ENDBRANCH   1   2
BRANCH   1  10
HETATM   10  C5  UNL     1     -19.959 -13.479  18.118  1.00  0.00     0.239 C 
BRANCH  10  11
HETATM   11  O4  UNL     1     -19.154 -14.560  18.461  1.00  0.00    -0.311 OA
BRANCH  11  12
HETATM   12  C6  UNL     1     -19.362 -15.864  18.075  1.00  0.00     0.303 C 
HETATM   13  O5  UNL     1     -20.472 -16.391  18.282  1.00  0.00    -0.259 OA
BRANCH  12  14
HETATM   14  C7  UNL     1     -18.286 -16.614  17.431  1.00  0.00     0.160 A 
HETATM   15  C8  UNL     1     -17.433 -16.201  16.440  1.00  0.00     0.177 A 
HETATM   16  N2  UNL     1     -16.581 -17.197  16.123  1.00  0.00    -0.276 N 
HETATM   17  N3  UNL     1     -16.886 -18.229  16.900  1.00  0.00    -0.264 N 
ATOM     18  H2  UNL     1     -15.843 -17.163  15.419  1.00  0.00     0.189 HD
HETATM   19  C9  UNL     1     -17.922 -17.910  17.713  1.00  0.00     0.280 A 
ATOM     20  H3  UNL     1     -16.409 -19.130  16.888  1.00  0.00     0.190 HD
HETATM   21  O7  UNL     1     -18.455 -18.678  18.575  1.00  0.00    -0.266 OA
BRANCH  15  22
HETATM   22  O6  UNL     1     -17.447 -14.960  15.859  1.00  0.00    -0.344 OA
ATOM     23  H6  UNL     1     -16.855 -14.673  15.174  1.00  0.00     0.219 HD
ENDBRANCH  15  22
ENDBRANCH  12  14
ENDBRANCH  11  12
ENDBRANCH  10  11
ENDBRANCH   1  10
BRANCH   1  24
HETATM   24  C10 UNL     1     -18.317 -11.534  17.689  1.00  0.00     0.074 A 
HETATM   25  C11 UNL     1     -18.662 -10.636  18.696  1.00  0.00     0.112 A 
HETATM   26  N4  UNL     1     -17.725  -9.783  19.129  1.00  0.00    -0.318 N 
HETATM   27  C12 UNL     1     -16.473  -9.745  18.649  1.00  0.00     0.327 A 
ATOM     28  H4  UNL     1     -17.978  -9.125  19.866  1.00  0.00     0.170 HD
HETATM   29  O8  UNL     1     -15.649  -8.909  19.112  1.00  0.00    -0.247 OA
HETATM   30  N5  UNL     1     -16.114 -10.590  17.686  1.00  0.00    -0.275 N 
HETATM   31  C13 UNL     1     -17.029 -11.481  17.208  1.00  0.00     0.263 A 
ATOM     32  H5  UNL     1     -15.166 -10.572  17.310  1.00  0.00     0.173 HD
HETATM   33  O9  UNL     1     -16.602 -12.250  16.288  1.00  0.00    -0.267 OA
ENDBRANCH   1  24
TORSDOF 11
ENDMDL
MODEL 2
REMARK VINA RESULT: -7.429308443      5.382      9.162
REMARK  11 active torsions:
REMARK  status: ('A' for Active; 'I' for Inactive)
REMARK    1  A    between atoms: O1_2  and  C2_3 
REMARK    2  A    between atoms: C2_3  and  C3_5 
REMARK    3  A    between atoms: C3_5  and  O3_6 
REMARK    4  A    between atoms: O3_6  and  N1_7 
REMARK    5  A    between atoms: N1_7  and  C4_9 
REMARK    6  A    between atoms: C4_9  and  C5_10 
REMARK    7  A    between atoms: C4_9  and  C10_24 
REMARK    8  A    between atoms: C5_10  and  O4_11 
REMARK    9  A    between atoms: O4_11  and  C6_12 
REMARK   10  A    between atoms: C6_12  and  C7_14 
REMARK   11  A    between atoms: C8_15  and  O6_16 
ROOT
HETATM    1  C4  UNL     1     -13.505  -8.042  15.669  1.00  0.00     0.073 C 
ENDROOT
BRANCH   1   2
HETATM    2  N1  UNL     1     -12.837  -7.745  16.671  1.00  0.00    -0.267 N 
ATOM      3  H1  UNL     1     -11.906  -8.150  16.575  1.00  0.00     0.194 HD
BRANCH   2   4
HETATM    4  O3  UNL     1     -12.899  -7.097  17.809  1.00  0.00    -0.270 OA
BRANCH   4   5
HETATM    5  C3  UNL     1     -13.992  -6.287  18.144  1.00  0.00     0.312 C 
BRANCH   5   6
HETATM    6  C2  UNL     1     -15.067  -7.091  18.828  1.00  0.00     0.284 C 
HETATM    7  O2  UNL     1     -14.947  -8.333  18.985  1.00  0.00    -0.263 OA
BRANCH   6   8
HETATM    8  O1  UNL     1     -16.218  -6.495  19.308  1.00  0.00    -0.325 OA
HETATM    9  C1  UNL     1     -16.262  -5.718  20.491  1.00  0.00     0.213 C 
ENDBRANCH   6   8
ENDBRANCH   5   6
ENDBRANCH   4   5
ENDBRANCH   2   4
ENDBRANCH   1   2
BRANCH   1  10
HETATM   10  C5  UNL     1     -13.415  -7.069  14.515  1.00  0.00     0.239 C 
BRANCH  10  11
HETATM   11  O4  UNL     1     -12.147  -6.519  14.355  1.00  0.00    -0.311 OA
BRANCH  11  12
HETATM   12  C6  UNL     1     -11.257  -6.845  13.359  1.00  0.00     0.303 C 
HETATM   13  O5  UNL     1     -10.844  -5.952  12.593  1.00  0.00    -0.259 OA
BRANCH  12  14
HETATM   14  C7  UNL     1     -10.806  -8.227  13.208  1.00  0.00     0.160 A 
HETATM   15  C8  UNL     1     -10.363  -9.090  14.177  1.00  0.00     0.177 A 
HETATM   16  N2  UNL     1     -10.042 -10.276  13.623  1.00  0.00    -0.276 N 
HETATM   17  N3  UNL     1     -10.277 -10.172  12.321  1.00  0.00    -0.264 N 
ATOM     18  H2  UNL     1      -9.686 -11.098  14.113  1.00  0.00     0.189 HD
HETATM   19  C9  UNL     1     -10.745  -8.934  12.030  1.00  0.00     0.280 A 
ATOM     20  H3  UNL     1     -10.127 -10.915  11.639  1.00  0.00     0.190 HD
HETATM   21  O7  UNL     1     -11.065  -8.512  10.874  1.00  0.00    -0.266 OA
BRANCH  15  22
HETATM   22  O6  UNL     1     -10.262  -8.788  15.510  1.00  0.00    -0.344 OA
ATOM     23  H6  UNL     1     -10.898  -9.032  16.172  1.00  0.00     0.219 HD
ENDBRANCH  15  22
ENDBRANCH  12  14
ENDBRANCH  11  12
ENDBRANCH  10  11
ENDBRANCH   1  10
BRANCH   1  24
HETATM   24  C10 UNL     1     -14.351  -9.220  15.592  1.00  0.00     0.074 A 
HETATM   25  C11 UNL     1     -15.736  -9.099  15.510  1.00  0.00     0.112 A 
HETATM   26  N4  UNL     1     -16.463 -10.221  15.424  1.00  0.00    -0.318 N 
HETATM   27  C12 UNL     1     -15.934 -11.453  15.412  1.00  0.00     0.327 A 
ATOM     28  H4  UNL     1     -17.478 -10.132  15.364  1.00  0.00     0.170 HD
HETATM   29  O8  UNL     1     -16.690 -12.460  15.329  1.00  0.00    -0.247 OA
HETATM   30  N5  UNL     1     -14.614 -11.600  15.491  1.00  0.00    -0.275 N 
HETATM   31  C13 UNL     1     -13.825 -10.492  15.580  1.00  0.00     0.263 A 
ATOM     32  H5  UNL     1     -14.197 -12.531  15.485  1.00  0.00     0.173 HD
HETATM   33  O9  UNL     1     -12.576 -10.724  15.652  1.00  0.00    -0.267 OA
ENDBRANCH   1  24
TORSDOF 11
ENDMDL
MODEL 3
REMARK VINA RESULT: -7.379015904      4.240      7.931
REMARK  11 active torsions:
REMARK  status: ('A' for Active; 'I' for Inactive)
REMARK    1  A    between atoms: O1_2  and  C2_3 
REMARK    2  A    between atoms: C2_3  and  C3_5 
REMARK    3  A    between atoms: C3_5  and  O3_6 
REMARK    4  A    between atoms: O3_6  and  N1_7 
REMARK    5  A    between atoms: N1_7  and  C4_9 
REMARK    6  A    between atoms: C4_9  and  C5_10 
REMARK    7  A    between atoms: C4_9  and  C10_24 
REMARK    8  A    between atoms: C5_10  and  O4_11 
REMARK    9  A    between atoms: O4_11  and  C6_12 
REMARK   10  A    between atoms: C6_12  and  C7_14 
REMARK   11  A    between atoms: C8_15  and  O6_16 
ROOT
HETATM    1  C4  UNL     1     -15.869  -9.688  15.781  1.00  0.00     0.073 C 
ENDROOT
BRANCH   1   2
HETATM    2  N1  UNL     1     -15.576  -9.975  16.951  1.00  0.00    -0.267 N 
ATOM      3  H1  UNL     1     -14.580 -10.189  16.995  1.00  0.00     0.194 HD
BRANCH   2   4
HETATM    4  O3  UNL     1     -16.087 -10.103  18.152  1.00  0.00    -0.270 OA
BRANCH   4   5
HETATM    5  C3  UNL     1     -16.910  -9.119  18.717  1.00  0.00     0.312 C 
BRANCH   5   6
HETATM    6  C2  UNL     1     -16.120  -7.875  19.031  1.00  0.00     0.284 C 
HETATM    7  O2  UNL     1     -14.863  -7.877  18.992  1.00  0.00    -0.263 OA
BRANCH   6   8
HETATM    8  O1  UNL     1     -16.747  -6.690  19.370  1.00  0.00    -0.325 OA
HETATM    9  C1  UNL     1     -16.194  -5.740  20.261  1.00  0.00     0.213 C 
ENDBRANCH   6   8
ENDBRANCH   5   6
ENDBRANCH   4   5
ENDBRANCH   2   4
ENDBRANCH   1   2
BRANCH   1  10
HETATM   10  C5  UNL     1     -15.203  -8.449  15.228  1.00  0.00     0.239 C 
BRANCH  10  11
HETATM   11  O4  UNL     1     -13.887  -8.294  15.653  1.00  0.00    -0.311 OA
BRANCH  11  12
HETATM   12  C6  UNL     1     -12.807  -8.061  14.834  1.00  0.00     0.303 C 
HETATM   13  O5  UNL     1     -12.616  -6.912  14.389  1.00  0.00    -0.259 OA
BRANCH  12  14
HETATM   14  C7  UNL     1     -11.900  -9.155  14.494  1.00  0.00     0.160 A 
HETATM   15  C8  UNL     1     -11.886 -10.434  14.985  1.00  0.00     0.177 A 
HETATM   16  N2  UNL     1     -10.887 -11.136  14.412  1.00  0.00    -0.276 N 
HETATM   17  N3  UNL     1     -10.274 -10.316  13.568  1.00  0.00    -0.264 N 
ATOM     18  H2  UNL     1     -10.649 -12.111  14.593  1.00  0.00     0.189 HD
HETATM   19  C9  UNL     1     -10.865  -9.096  13.590  1.00  0.00     0.280 A 
ATOM     20  H3  UNL     1      -9.474 -10.566  12.987  1.00  0.00     0.190 HD
HETATM   21  O7  UNL     1     -10.517  -8.088  12.899  1.00  0.00    -0.266 OA
BRANCH  15  22
HETATM   22  O6  UNL     1     -12.759 -10.926  15.920  1.00  0.00    -0.344 OA
ATOM     23  H6  UNL     1     -13.222 -11.753  15.851  1.00  0.00     0.219 HD
ENDBRANCH  15  22
ENDBRANCH  12  14
ENDBRANCH  11  12
ENDBRANCH  10  11
ENDBRANCH   1  10
BRANCH   1  24
HETATM   24  C10 UNL     1     -16.812 -10.452  14.983  1.00  0.00     0.074 A 
HETATM   25  C11 UNL     1     -18.085  -9.954  14.712  1.00  0.00     0.112 A 
HETATM   26  N4  UNL     1     -18.904 -10.696  13.955  1.00  0.00    -0.318 N 
HETATM   27  C12 UNL     1     -18.570 -11.890  13.444  1.00  0.00     0.327 A 
ATOM     28  H4  UNL     1     -19.837 -10.332  13.757  1.00  0.00     0.170 HD
HETATM   29  O8  UNL     1     -19.402 -12.526  12.740  1.00  0.00    -0.247 OA
HETATM   30  N5  UNL     1     -17.361 -12.392  13.686  1.00  0.00    -0.275 N 
HETATM   31  C13 UNL     1     -16.486 -11.678  14.450  1.00  0.00     0.263 A 
ATOM     32  H5  UNL     1     -17.093 -13.299  13.305  1.00  0.00     0.173 HD
HETATM   33  O9  UNL     1     -15.355 -12.232  14.633  1.00  0.00    -0.267 OA
ENDBRANCH   1  24
TORSDOF 11
ENDMDL
MODEL 4
REMARK VINA RESULT: -7.370071623      4.131      7.839
REMARK  11 active torsions:
REMARK  status: ('A' for Active; 'I' for Inactive)
REMARK    1  A    between atoms: O1_2  and  C2_3 
REMARK    2  A    between atoms: C2_3  and  C3_5 
REMARK    3  A    between atoms: C3_5  and  O3_6 
REMARK    4  A    between atoms: O3_6  and  N1_7 
REMARK    5  A    between atoms: N1_7  and  C4_9 
REMARK    6  A    between atoms: C4_9  and  C5_10 
REMARK    7  A    between atoms: C4_9  and  C10_24 
REMARK    8  A    between atoms: C5_10  and  O4_11 
REMARK    9  A    between atoms: O4_11  and  C6_12 
REMARK   10  A    between atoms: C6_12  and  C7_14 
REMARK   11  A    between atoms: C8_15  and  O6_16 
ROOT
HETATM    1  C4  UNL     1     -15.493  -9.135  15.673  1.00  0.00     0.073 C 
ENDROOT
BRANCH   1   2
HETATM    2  N1  UNL     1     -14.976  -9.409  16.766  1.00  0.00    -0.267 N 
ATOM      3  H1  UNL     1     -14.429 -10.264  16.664  1.00  0.00     0.194 HD
BRANCH   2   4
HETATM    4  O3  UNL     1     -14.880  -8.993  18.006  1.00  0.00    -0.270 OA
BRANCH   4   5
HETATM    5  C3  UNL     1     -15.937  -8.342  18.656  1.00  0.00     0.312 C 
BRANCH   5   6
HETATM    6  C2  UNL     1     -17.028  -9.318  19.014  1.00  0.00     0.284 C 
HETATM    7  O2  UNL     1     -17.862  -9.056  19.918  1.00  0.00    -0.263 OA
BRANCH   6   8
HETATM    8  O1  UNL     1     -17.151 -10.532  18.363  1.00  0.00    -0.325 OA
HETATM    9  C1  UNL     1     -18.396 -11.114  18.023  1.00  0.00     0.213 C 
ENDBRANCH   6   8
ENDBRANCH   5   6
ENDBRANCH   4   5
ENDBRANCH   2   4
ENDBRANCH   1   2
BRANCH   1  10
HETATM   10  C5  UNL     1     -15.098  -7.802  15.081  1.00  0.00     0.239 C 
BRANCH  10  11
HETATM   11  O4  UNL     1     -13.822  -7.800  14.526  1.00  0.00    -0.311 OA
BRANCH  11  12
HETATM   12  C6  UNL     1     -12.663  -8.126  15.191  1.00  0.00     0.303 C 
HETATM   13  O5  UNL     1     -12.370  -7.517  16.239  1.00  0.00    -0.259 OA
BRANCH  12  14
HETATM   14  C7  UNL     1     -11.791  -9.173  14.665  1.00  0.00     0.160 A 
HETATM   15  C8  UNL     1     -11.735 -10.495  15.023  1.00  0.00     0.177 A 
HETATM   16  N2  UNL     1     -10.791 -11.128  14.297  1.00  0.00    -0.276 N 
HETATM   17  N3  UNL     1     -10.254 -10.223  13.488  1.00  0.00    -0.264 N 
ATOM     18  H2  UNL     1     -10.539 -12.115  14.358  1.00  0.00     0.189 HD
HETATM   19  C9  UNL     1     -10.839  -9.016  13.684  1.00  0.00     0.280 A 
ATOM     20  H3  UNL     1      -9.509 -10.408  12.817  1.00  0.00     0.190 HD
HETATM   21  O7  UNL     1     -10.553  -7.942  13.069  1.00  0.00    -0.266 OA
BRANCH  15  22
HETATM   22  O6  UNL     1     -12.522 -11.084  15.978  1.00  0.00    -0.344 OA
ATOM     23  H6  UNL     1     -13.390 -11.439  15.824  1.00  0.00     0.219 HD
ENDBRANCH  15  22
ENDBRANCH  12  14
ENDBRANCH  11  12
ENDBRANCH  10  11
ENDBRANCH   1  10
BRANCH   1  24
HETATM   24  C10 UNL     1     -16.443 -10.003  14.999  1.00  0.00     0.074 A 
HETATM   25  C11 UNL     1     -17.711  -9.542  14.655  1.00  0.00     0.112 A 
HETATM   26  N4  UNL     1     -18.538 -10.382  14.019  1.00  0.00    -0.318 N 
HETATM   27  C12 UNL     1     -18.214 -11.642  13.694  1.00  0.00     0.327 A 
ATOM     28  H4  UNL     1     -19.467 -10.044  13.766  1.00  0.00     0.170 HD
HETATM   29  O8  UNL     1     -19.052 -12.371  13.094  1.00  0.00    -0.247 OA
HETATM   30  N5  UNL     1     -17.010 -12.112  14.010  1.00  0.00    -0.275 N 
HETATM   31  C13 UNL     1     -16.128 -11.299  14.659  1.00  0.00     0.263 A 
ATOM     32  H5  UNL     1     -16.750 -13.069  13.771  1.00  0.00     0.173 HD
HETATM   33  O9  UNL     1     -15.002 -11.829  14.924  1.00  0.00    -0.267 OA
ENDBRANCH   1  24
TORSDOF 11
ENDMDL
MODEL 5
REMARK VINA RESULT: -7.342419325      5.349      9.190
REMARK  11 active torsions:
REMARK  status: ('A' for Active; 'I' for Inactive)
REMARK    1  A    between atoms: O1_2  and  C2_3 
REMARK    2  A    between atoms: C2_3  and  C3_5 
REMARK    3  A    between atoms: C3_5  and  O3_6 
REMARK    4  A    between atoms: O3_6  and  N1_7 
REMARK    5  A    between atoms: N1_7  and  C4_9 
REMARK    6  A    between atoms: C4_9  and  C5_10 
REMARK    7  A    between atoms: C4_9  and  C10_24 
REMARK    8  A    between atoms: C5_10  and  O4_11 
REMARK    9  A    between atoms: O4_11  and  C6_12 
REMARK   10  A    between atoms: C6_12  and  C7_14 
REMARK   11  A    between atoms: C8_15  and  O6_16 
ROOT
HETATM    1  C4  UNL     1     -13.382  -7.968  15.727  1.00  0.00     0.073 C 
ENDROOT
BRANCH   1   2
HETATM    2  N1  UNL     1     -12.815  -7.642  16.780  1.00  0.00    -0.267 N 
ATOM      3  H1  UNL     1     -11.854  -7.983  16.753  1.00  0.00     0.194 HD
BRANCH   2   4
HETATM    4  O3  UNL     1     -13.007  -7.016  17.916  1.00  0.00    -0.270 OA
BRANCH   4   5
HETATM    5  C3  UNL     1     -14.180  -6.294  18.177  1.00  0.00     0.312 C 
BRANCH   5   6
HETATM    6  C2  UNL     1     -15.199  -7.160  18.871  1.00  0.00     0.284 C 
HETATM    7  O2  UNL     1     -16.159  -6.651  19.505  1.00  0.00    -0.263 OA
BRANCH   6   8
HETATM    8  O1  UNL     1     -15.117  -8.540  18.835  1.00  0.00    -0.325 OA
HETATM    9  C1  UNL     1     -16.245  -9.388  18.727  1.00  0.00     0.213 C 
ENDBRANCH   6   8
ENDBRANCH   5   6
ENDBRANCH   4   5
ENDBRANCH   2   4
ENDBRANCH   1   2
BRANCH   1  10
HETATM   10  C5  UNL     1     -13.309  -6.955  14.607  1.00  0.00     0.239 C 
BRANCH  10  11
HETATM   11  O4  UNL     1     -12.026  -6.462  14.392  1.00  0.00    -0.311 OA
BRANCH  11  12
HETATM   12  C6  UNL     1     -11.199  -6.817  13.352  1.00  0.00     0.303 C 
HETATM   13  O5  UNL     1     -10.815  -5.940  12.553  1.00  0.00    -0.259 OA
BRANCH  12  14
HETATM   14  C7  UNL     1     -10.783  -8.208  13.194  1.00  0.00     0.160 A 
HETATM   15  C8  UNL     1     -10.344  -9.082  14.154  1.00  0.00     0.177 A 
HETATM   16  N2  UNL     1     -10.060 -10.275  13.595  1.00  0.00    -0.276 N 
HETATM   17  N3  UNL     1     -10.314 -10.164  12.297  1.00  0.00    -0.264 N 
ATOM     18  H2  UNL     1      -9.715 -11.105  14.078  1.00  0.00     0.189 HD
HETATM   19  C9  UNL     1     -10.758  -8.915  12.014  1.00  0.00     0.280 A 
ATOM     20  H3  UNL     1     -10.192 -10.910  11.612  1.00  0.00     0.190 HD
HETATM   21  O7  UNL     1     -11.087  -8.486  10.864  1.00  0.00    -0.266 OA
BRANCH  15  22
HETATM   22  O6  UNL     1     -10.215  -8.784  15.486  1.00  0.00    -0.344 OA
ATOM     23  H6  UNL     1     -10.122  -9.426  16.180  1.00  0.00     0.219 HD
ENDBRANCH  15  22
ENDBRANCH  12  14
ENDBRANCH  11  12
ENDBRANCH  10  11
ENDBRANCH   1  10
BRANCH   1  24
HETATM   24  C10 UNL     1     -14.104  -9.218  15.562  1.00  0.00     0.074 A 
HETATM   25  C11 UNL     1     -13.446 -10.441  15.666  1.00  0.00     0.112 A 
HETATM   26  N4  UNL     1     -14.167 -11.560  15.522  1.00  0.00    -0.318 N 
HETATM   27  C12 UNL     1     -15.487 -11.571  15.283  1.00  0.00     0.327 A 
ATOM     28  H4  UNL     1     -13.685 -12.456  15.598  1.00  0.00     0.170 HD
HETATM   29  O8  UNL     1     -16.093 -12.670  15.160  1.00  0.00    -0.247 OA
HETATM   30  N5  UNL     1     -16.143 -10.418  15.178  1.00  0.00    -0.275 N 
HETATM   31  C13 UNL     1     -15.458  -9.247  15.317  1.00  0.00     0.263 A 
ATOM     32  H5  UNL     1     -17.147 -10.410  14.996  1.00  0.00     0.173 HD
HETATM   33  O9  UNL     1     -16.162  -8.194  15.200  1.00  0.00    -0.267 OA
ENDBRANCH   1  24
TORSDOF 11
ENDMDL
