MODEL 1
REMARK VINA RESULT: -7.163297115      0.000      0.000
REMARK  9 active torsions:
REMARK  status: ('A' for Active; 'I' for Inactive)
REMARK    1  A    between atoms: N1_1  and  C1_4 
REMARK    2  A    between atoms: C5_13  and  N4_14 
REMARK    3  A    between atoms: C6_17  and  C7_18 
REMARK    4  A    between atoms: C7_18  and  N5_19 
REMARK    5  A    between atoms: N7_27  and  C12_28 
REMARK    6  A    between atoms: C12_28  and  O5_29 
REMARK    7  A    between atoms: O5_29  and  C13_30 
REMARK    8  A    between atoms: C13_30  and  C14_31 
REMARK    9  A    between atoms: C14_31  and  O6_32 
ROOT
HETATM    1  C1  UNL     1     -11.486 -10.492  14.803  1.00  0.00     0.679 A 
HETATM    2  N2  UNL     1     -11.257  -9.205  14.936  1.00  0.00    -0.154 N 
ATOM      3  H2  UNL     1     -10.303  -8.877  14.785  1.00  0.00     0.187 HD
HETATM    4  C2  UNL     1     -12.170  -8.304  15.252  1.00  0.00     0.289 A 
HETATM    5  O1  UNL     1     -11.829  -7.090  15.348  1.00  0.00    -0.265 OA
HETATM    6  C3  UNL     1     -13.460  -8.689  15.478  1.00  0.00     0.140 A 
HETATM    7  C4  UNL     1     -13.731 -10.069  15.354  1.00  0.00     0.117 A 
HETATM    8  N3  UNL     1     -12.749 -10.942  15.015  1.00  0.00    -0.187 N 
ATOM      9  H3  UNL     1     -12.959 -11.935  14.919  1.00  0.00     0.184 HD
HETATM   10  C5  UNL     1     -15.059 -10.238  15.608  1.00  0.00     0.161 A 
HETATM   11  C6  UNL     1     -15.542  -8.969  15.885  1.00  0.00     0.092 A 
HETATM   12  N7  UNL     1     -14.635  -8.052  15.824  1.00  0.00    -0.292 N 
ENDROOT
BRANCH  11  13
HETATM   13  C7  UNL     1     -17.005  -8.841  16.225  1.00  0.00     0.123 C 
BRANCH  13  14
HETATM   14  N5  UNL     1     -17.407  -9.252  17.471  1.00  0.00    -0.358 N 
HETATM   15  C8  UNL     1     -18.685  -9.940  17.478  1.00  0.00     0.147 C 
HETATM   16  C9  UNL     1     -18.884 -10.715  18.770  1.00  0.00     0.143 C 
HETATM   17  N6  UNL     1     -18.990  -9.667  19.806  1.00  0.00    -0.355 N 
HETATM   18  C10 UNL     1     -18.039  -8.622  19.720  1.00  0.00     0.256 C 
ATOM     19  H6  UNL     1     -19.702  -9.694  20.537  1.00  0.00     0.162 HD
HETATM   20  O4  UNL     1     -18.082  -7.641  20.494  1.00  0.00    -0.267 OA
HETATM   21  C11 UNL     1     -16.973  -8.714  18.687  1.00  0.00     0.164 C 
ENDBRANCH  13  14
ENDBRANCH  11  13
BRANCH  10  22
HETATM   22  N4  UNL     1     -15.746 -11.474  15.576  1.00  0.00    -0.111 N 
HETATM   23  O2  UNL     1     -15.907 -12.105  14.491  1.00  0.00    -0.532 OA
HETATM   24  O3  UNL     1     -16.167 -12.147  16.679  1.00  0.00    -0.532 OA
ENDBRANCH  10  22
BRANCH  12  25
HETATM   25  C12 UNL     1     -14.713  -6.643  16.020  1.00  0.00     0.234 C 
BRANCH  25  26
HETATM   26  O5  UNL     1     -14.845  -6.244  17.299  1.00  0.00    -0.344 OA
BRANCH  26  27
HETATM   27  C13 UNL     1     -14.122  -6.771  18.300  1.00  0.00     0.202 C 
BRANCH  27  28
HETATM   28  C14 UNL     1     -12.741  -6.043  18.282  1.00  0.00     0.191 C 
BRANCH  28  29
HETATM   29  O6  UNL     1     -11.690  -6.900  18.405  1.00  0.00    -0.399 OA
ATOM     30  H6  UNL     1     -10.952  -6.515  18.863  1.00  0.00     0.209 HD
ENDBRANCH  28  29
ENDBRANCH  27  28
ENDBRANCH  26  27
ENDBRANCH  25  26
ENDBRANCH  12  25
BRANCH   1  31
HETATM   31  N1  UNL     1     -10.558 -11.332  14.420  1.00  0.00    -0.234 N 
ATOM     32  H12 UNL     1     -10.689 -11.873  13.566  1.00  0.00     0.174 HD
ATOM     33  H11 UNL     1      -9.676 -11.436  14.925  1.00  0.00     0.174 HD
ENDBRANCH   1  31
TORSDOF 9
ENDMDL
MODEL 2
REMARK VINA RESULT: -7.084365896      1.631      2.605
REMARK  9 active torsions:
REMARK  status: ('A' for Active; 'I' for Inactive)
REMARK    1  A    between atoms: N1_1  and  C1_4 
REMARK    2  A    between atoms: C5_13  and  N4_14 
REMARK    3  A    between atoms: C6_17  and  C7_18 
REMARK    4  A    between atoms: C7_18  and  N5_19 
REMARK    5  A    between atoms: N7_27  and  C12_28 
REMARK    6  A    between atoms: C12_28  and  O5_29 
REMARK    7  A    between atoms: O5_29  and  C13_30 
REMARK    8  A    between atoms: C13_30  and  C14_31 
REMARK    9  A    between atoms: C14_31  and  O6_32 
ROOT
HETATM    1  C1  UNL     1     -11.716 -10.424  15.002  1.00  0.00     0.679 A 
HETATM    2  N2  UNL     1     -11.415  -9.154  15.163  1.00  0.00    -0.154 N 
ATOM      3  H2  UNL     1     -10.432  -8.890  15.095  1.00  0.00     0.187 HD
HETATM    4  C2  UNL     1     -12.290  -8.195  15.406  1.00  0.00     0.289 A 
HETATM    5  O1  UNL     1     -11.880  -7.007  15.538  1.00  0.00    -0.265 OA
HETATM    6  C3  UNL     1     -13.618  -8.495  15.519  1.00  0.00     0.140 A 
HETATM    7  C4  UNL     1     -13.967  -9.854  15.364  1.00  0.00     0.117 A 
HETATM    8  N3  UNL     1     -13.018 -10.790  15.104  1.00  0.00    -0.187 N 
ATOM      9  H3  UNL     1     -13.284 -11.767  14.984  1.00  0.00     0.184 HD
HETATM   10  C5  UNL     1     -15.320  -9.936  15.503  1.00  0.00     0.161 A 
HETATM   11  C6  UNL     1     -15.741  -8.639  15.746  1.00  0.00     0.092 A 
HETATM   12  N7  UNL     1     -14.773  -7.783  15.768  1.00  0.00    -0.292 N 
ENDROOT
BRANCH  11  13
HETATM   13  C7  UNL     1     -17.216  -8.415  15.961  1.00  0.00     0.123 C 
BRANCH  13  14
HETATM   14  N5  UNL     1     -17.738  -8.750  17.186  1.00  0.00    -0.358 N 
HETATM   15  C8  UNL     1     -16.833  -8.505  18.294  1.00  0.00     0.147 C 
HETATM   16  C9  UNL     1     -17.578  -8.500  19.619  1.00  0.00     0.143 C 
HETATM   17  N6  UNL     1     -18.037  -9.896  19.780  1.00  0.00    -0.355 N 
HETATM   18  C10 UNL     1     -18.600 -10.492  18.626  1.00  0.00     0.256 C 
ATOM     19  H6  UNL     1     -17.952 -10.398  20.664  1.00  0.00     0.162 HD
HETATM   20  O4  UNL     1     -18.949 -11.692  18.621  1.00  0.00    -0.267 OA
HETATM   21  C11 UNL     1     -18.779  -9.656  17.408  1.00  0.00     0.164 C 
ENDBRANCH  13  14
ENDBRANCH  11  13
BRANCH  10  22
HETATM   22  N4  UNL     1     -16.080 -11.125  15.405  1.00  0.00    -0.111 N 
HETATM   23  O2  UNL     1     -16.532 -11.523  14.292  1.00  0.00    -0.532 OA
HETATM   24  O3  UNL     1     -16.281 -11.994  16.430  1.00  0.00    -0.532 OA
ENDBRANCH  10  22
BRANCH  12  25
HETATM   25  C12 UNL     1     -14.776  -6.372  15.966  1.00  0.00     0.234 C 
BRANCH  25  26
HETATM   26  O5  UNL     1     -15.227  -5.644  14.928  1.00  0.00    -0.344 OA
BRANCH  26  27
HETATM   27  C13 UNL     1     -16.350  -4.911  14.992  1.00  0.00     0.202 C 
BRANCH  27  28
HETATM   28  C14 UNL     1     -17.215  -5.313  13.755  1.00  0.00     0.191 C 
BRANCH  28  29
HETATM   29  O6  UNL     1     -17.110  -4.427  12.727  1.00  0.00    -0.399 OA
ATOM     30  H6  UNL     1     -16.624  -3.645  12.962  1.00  0.00     0.209 HD
ENDBRANCH  28  29
ENDBRANCH  27  28
ENDBRANCH  26  27
ENDBRANCH  25  26
ENDBRANCH  12  25
BRANCH   1  31
HETATM   31  N1  UNL     1     -10.814 -11.322  14.695  1.00  0.00    -0.234 N 
ATOM     32  H12 UNL     1     -10.084 -11.092  14.021  1.00  0.00     0.174 HD
ATOM     33  H11 UNL     1     -10.786 -12.240  15.140  1.00  0.00     0.174 HD
ENDBRANCH   1  31
TORSDOF 9
ENDMDL
MODEL 3
REMARK VINA RESULT: -7.049712858      1.345      2.111
REMARK  9 active torsions:
REMARK  status: ('A' for Active; 'I' for Inactive)
REMARK    1  A    between atoms: N1_1  and  C1_4 
REMARK    2  A    between atoms: C5_13  and  N4_14 
REMARK    3  A    between atoms: C6_17  and  C7_18 
REMARK    4  A    between atoms: C7_18  and  N5_19 
REMARK    5  A    between atoms: N7_27  and  C12_28 
REMARK    6  A    between atoms: C12_28  and  O5_29 
REMARK    7  A    between atoms: O5_29  and  C13_30 
REMARK    8  A    between atoms: C13_30  and  C14_31 
REMARK    9  A    between atoms: C14_31  and  O6_32 
ROOT
HETATM    1  C1  UNL     1     -11.459 -10.446  14.911  1.00  0.00     0.679 A 
HETATM    2  N2  UNL     1     -11.166  -9.182  15.114  1.00  0.00    -0.154 N 
ATOM      3  H2  UNL     1     -10.197  -8.893  14.974  1.00  0.00     0.187 HD
HETATM    4  C2  UNL     1     -12.030  -8.255  15.487  1.00  0.00     0.289 A 
HETATM    5  O1  UNL     1     -11.629  -7.067  15.648  1.00  0.00    -0.265 OA
HETATM    6  C3  UNL     1     -13.338  -8.588  15.701  1.00  0.00     0.140 A 
HETATM    7  C4  UNL     1     -13.677  -9.943  15.503  1.00  0.00     0.117 A 
HETATM    8  N3  UNL     1     -12.742 -10.844  15.107  1.00  0.00    -0.187 N 
ATOM      9  H3  UNL     1     -13.002 -11.819  14.958  1.00  0.00     0.184 HD
HETATM   10  C5  UNL     1     -15.011 -10.061  15.757  1.00  0.00     0.161 A 
HETATM   11  C6  UNL     1     -15.429  -8.787  16.108  1.00  0.00     0.092 A 
HETATM   12  N7  UNL     1     -14.477  -7.914  16.091  1.00  0.00    -0.292 N 
ENDROOT
BRANCH  11  13
HETATM   13  C7  UNL     1     -16.882  -8.606  16.465  1.00  0.00     0.123 C 
BRANCH  13  14
HETATM   14  N5  UNL     1     -17.239  -8.777  17.779  1.00  0.00    -0.358 N 
HETATM   15  C8  UNL     1     -18.521  -9.436  17.956  1.00  0.00     0.147 C 
HETATM   16  C9  UNL     1     -18.677  -9.959  19.375  1.00  0.00     0.143 C 
HETATM   17  N6  UNL     1     -18.737  -8.738  20.205  1.00  0.00    -0.355 N 
HETATM   18  C10 UNL     1     -17.784  -7.739  19.896  1.00  0.00     0.256 C 
ATOM     19  H6  UNL     1     -19.422  -8.623  20.953  1.00  0.00     0.162 HD
HETATM   20  O4  UNL     1     -17.791  -6.633  20.478  1.00  0.00    -0.267 OA
HETATM   21  C11 UNL     1     -16.757  -8.032  18.859  1.00  0.00     0.164 C 
ENDBRANCH  13  14
ENDBRANCH  11  13
BRANCH  10  22
HETATM   22  N4  UNL     1     -15.759 -11.258  15.661  1.00  0.00    -0.111 N 
HETATM   23  O2  UNL     1     -15.789 -11.926  14.586  1.00  0.00    -0.532 OA
HETATM   24  O3  UNL     1     -16.384 -11.857  16.707  1.00  0.00    -0.532 OA
ENDBRANCH  10  22
BRANCH  12  25
HETATM   25  C12 UNL     1     -14.484  -6.516  16.366  1.00  0.00     0.234 C 
BRANCH  25  26
HETATM   26  O5  UNL     1     -14.843  -5.727  15.337  1.00  0.00    -0.344 OA
BRANCH  26  27
HETATM   27  C13 UNL     1     -16.013  -5.068  15.305  1.00  0.00     0.202 C 
BRANCH  27  28
HETATM   28  C14 UNL     1     -16.815  -5.646  14.096  1.00  0.00     0.191 C 
BRANCH  28  29
HETATM   29  O6  UNL     1     -16.835  -4.805  13.026  1.00  0.00    -0.399 OA
ATOM     30  H6  UNL     1     -17.609  -4.254  13.003  1.00  0.00     0.209 HD
ENDBRANCH  28  29
ENDBRANCH  27  28
ENDBRANCH  26  27
ENDBRANCH  25  26
ENDBRANCH  12  25
BRANCH   1  31
HETATM   31  N1  UNL     1     -10.575 -11.308  14.475  1.00  0.00    -0.234 N 
ATOM     32  H12 UNL     1      -9.630 -10.993  14.259  1.00  0.00     0.174 HD
ATOM     33  H11 UNL     1     -10.783 -12.303  14.384  1.00  0.00     0.174 HD
ENDBRANCH   1  31
TORSDOF 9
ENDMDL
MODEL 4
REMARK VINA RESULT: -6.966330713      1.258      1.713
REMARK  9 active torsions:
REMARK  status: ('A' for Active; 'I' for Inactive)
REMARK    1  A    between atoms: N1_1  and  C1_4 
REMARK    2  A    between atoms: C5_13  and  N4_14 
REMARK    3  A    between atoms: C6_17  and  C7_18 
REMARK    4  A    between atoms: C7_18  and  N5_19 
REMARK    5  A    between atoms: N7_27  and  C12_28 
REMARK    6  A    between atoms: C12_28  and  O5_29 
REMARK    7  A    between atoms: O5_29  and  C13_30 
REMARK    8  A    between atoms: C13_30  and  C14_31 
REMARK    9  A    between atoms: C14_31  and  O6_32 
ROOT
HETATM    1  C1  UNL     1     -11.859 -10.430  15.271  1.00  0.00     0.679 A 
HETATM    2  N2  UNL     1     -11.731  -9.123  15.323  1.00  0.00    -0.154 N 
ATOM      3  H2  UNL     1     -10.785  -8.741  15.302  1.00  0.00     0.187 HD
HETATM    4  C2  UNL     1     -12.734  -8.267  15.400  1.00  0.00     0.289 A 
HETATM    5  O1  UNL     1     -12.485  -7.029  15.440  1.00  0.00    -0.265 OA
HETATM    6  C3  UNL     1     -14.020  -8.725  15.443  1.00  0.00     0.140 A 
HETATM    7  C4  UNL     1     -14.186 -10.126  15.403  1.00  0.00     0.117 A 
HETATM    8  N3  UNL     1     -13.112 -10.951  15.311  1.00  0.00    -0.187 N 
ATOM      9  H3  UNL     1     -13.245 -11.961  15.273  1.00  0.00     0.184 HD
HETATM   10  C5  UNL     1     -15.526 -10.369  15.447  1.00  0.00     0.161 A 
HETATM   11  C6  UNL     1     -16.121  -9.121  15.524  1.00  0.00     0.092 A 
HETATM   12  N7  UNL     1     -15.271  -8.149  15.531  1.00  0.00    -0.292 N 
ENDROOT
BRANCH  11  13
HETATM   13  C7  UNL     1     -17.626  -9.071  15.603  1.00  0.00     0.123 C 
BRANCH  13  14
HETATM   14  N5  UNL     1     -18.210  -9.413  16.797  1.00  0.00    -0.358 N 
HETATM   15  C8  UNL     1     -17.474  -8.957  17.962  1.00  0.00     0.147 C 
HETATM   16  C9  UNL     1     -18.342  -8.995  19.209  1.00  0.00     0.143 C 
HETATM   17  N6  UNL     1     -18.589 -10.435  19.432  1.00  0.00    -0.355 N 
HETATM   18  C10 UNL     1     -18.930 -11.183  18.281  1.00  0.00     0.256 C 
ATOM     19  H6  UNL     1     -18.517 -10.862  20.356  1.00  0.00     0.162 HD
HETATM   20  O4  UNL     1     -19.083 -12.423  18.335  1.00  0.00    -0.267 OA
HETATM   21  C11 UNL     1     -19.113 -10.463  16.992  1.00  0.00     0.164 C 
ENDBRANCH  13  14
ENDBRANCH  11  13
BRANCH  10  22
HETATM   22  N4  UNL     1     -16.125 -11.650  15.415  1.00  0.00    -0.111 N 
HETATM   23  O2  UNL     1     -16.539 -12.152  14.329  1.00  0.00    -0.532 OA
HETATM   24  O3  UNL     1     -16.193 -12.493  16.479  1.00  0.00    -0.532 OA
ENDBRANCH  10  22
BRANCH  12  25
HETATM   25  C12 UNL     1     -15.462  -6.737  15.582  1.00  0.00     0.234 C 
BRANCH  25  26
HETATM   26  O5  UNL     1     -15.721  -6.233  16.802  1.00  0.00    -0.344 OA
BRANCH  26  27
HETATM   27  C13 UNL     1     -14.751  -5.924  17.678  1.00  0.00     0.202 C 
BRANCH  27  28
HETATM   28  C14 UNL     1     -14.989  -6.815  18.938  1.00  0.00     0.191 C 
BRANCH  28  29
HETATM   29  O6  UNL     1     -14.174  -7.904  18.977  1.00  0.00    -0.399 OA
ATOM     30  H6  UNL     1     -13.537  -7.913  18.271  1.00  0.00     0.209 HD
ENDBRANCH  28  29
ENDBRANCH  27  28
ENDBRANCH  26  27
ENDBRANCH  25  26
ENDBRANCH  12  25
BRANCH   1  31
HETATM   31  N1  UNL     1     -10.832 -11.228  15.126  1.00  0.00    -0.234 N 
ATOM     32  H12 UNL     1      -9.922 -10.950  15.492  1.00  0.00     0.174 HD
ATOM     33  H11 UNL     1     -10.915 -12.150  14.694  1.00  0.00     0.174 HD
ENDBRANCH   1  31
TORSDOF 9
ENDMDL
MODEL 5
REMARK VINA RESULT: -6.915800503      2.334      4.262
REMARK  9 active torsions:
REMARK  status: ('A' for Active; 'I' for Inactive)
REMARK    1  A    between atoms: N1_1  and  C1_4 
REMARK    2  A    between atoms: C5_13  and  N4_14 
REMARK    3  A    between atoms: C6_17  and  C7_18 
REMARK    4  A    between atoms: C7_18  and  N5_19 
REMARK    5  A    between atoms: N7_27  and  C12_28 
REMARK    6  A    between atoms: C12_28  and  O5_29 
REMARK    7  A    between atoms: O5_29  and  C13_30 
REMARK    8  A    between atoms: C13_30  and  C14_31 
REMARK    9  A    between atoms: C14_31  and  O6_32 
ROOT
HETATM    1  C1  UNL     1     -12.693  -6.357  18.186  1.00  0.00     0.679 A 
HETATM    2  N2  UNL     1     -13.838  -5.794  18.501  1.00  0.00    -0.154 N 
ATOM      3  H2  UNL     1     -13.812  -4.988  19.126  1.00  0.00     0.187 HD
HETATM    4  C2  UNL     1     -15.021  -6.194  18.071  1.00  0.00     0.289 A 
HETATM    5  O1  UNL     1     -16.055  -5.568  18.441  1.00  0.00    -0.265 OA
HETATM    6  C3  UNL     1     -15.116  -7.275  17.242  1.00  0.00     0.140 A 
HETATM    7  C4  UNL     1     -13.902  -7.907  16.898  1.00  0.00     0.117 A 
HETATM    8  N3  UNL     1     -12.717  -7.438  17.367  1.00  0.00    -0.187 N 
ATOM      9  H3  UNL     1     -11.846  -7.898  17.103  1.00  0.00     0.184 HD
HETATM   10  C5  UNL     1     -14.213  -8.944  16.070  1.00  0.00     0.161 A 
HETATM   11  C6  UNL     1     -15.593  -8.912  15.949  1.00  0.00     0.092 A 
HETATM   12  N7  UNL     1     -16.144  -7.959  16.625  1.00  0.00    -0.292 N 
ENDROOT
BRANCH  11  13
HETATM   13  C7  UNL     1     -16.240  -9.969  15.090  1.00  0.00     0.123 C 
BRANCH  13  14
HETATM   14  N5  UNL     1     -16.669 -11.116  15.709  1.00  0.00    -0.358 N 
HETATM   15  C8  UNL     1     -17.408 -12.011  14.837  1.00  0.00     0.147 C 
HETATM   16  C9  UNL     1     -17.500 -13.406  15.434  1.00  0.00     0.143 C 
HETATM   17  N6  UNL     1     -18.345 -13.230  16.633  1.00  0.00    -0.355 N 
HETATM   18  C10 UNL     1     -18.037 -12.109  17.440  1.00  0.00     0.256 C 
ATOM     19  H6  UNL     1     -19.101 -13.875  16.864  1.00  0.00     0.162 HD
HETATM   20  O4  UNL     1     -18.735 -11.815  18.435  1.00  0.00    -0.267 OA
HETATM   21  C11 UNL     1     -16.854 -11.280  17.085  1.00  0.00     0.164 C 
ENDBRANCH  13  14
ENDBRANCH  11  13
BRANCH  10  22
HETATM   22  N4  UNL     1     -13.279  -9.829  15.483  1.00  0.00    -0.111 N 
HETATM   23  O2  UNL     1     -12.261  -9.394  14.870  1.00  0.00    -0.532 OA
HETATM   24  O3  UNL     1     -13.308 -11.180  15.627  1.00  0.00    -0.532 OA
ENDBRANCH  10  22
BRANCH  12  25
HETATM   25  C12 UNL     1     -17.509  -7.573  16.758  1.00  0.00     0.234 C 
BRANCH  25  26
HETATM   26  O5  UNL     1     -18.258  -8.364  17.549  1.00  0.00    -0.344 OA
BRANCH  26  27
HETATM   27  C13 UNL     1     -18.629  -8.005  18.788  1.00  0.00     0.202 C 
BRANCH  27  28
HETATM   28  C14 UNL     1     -17.678  -8.758  19.772  1.00  0.00     0.191 C 
BRANCH  28  29
HETATM   29  O6  UNL     1     -18.310  -9.743  20.467  1.00  0.00    -0.399 OA
ATOM     30  H6  UNL     1     -18.266 -10.587  20.032  1.00  0.00     0.209 HD
ENDBRANCH  28  29
ENDBRANCH  27  28
ENDBRANCH  26  27
ENDBRANCH  25  26
ENDBRANCH  12  25
BRANCH   1  31
HETATM   31  N1  UNL     1     -11.544  -5.876  18.588  1.00  0.00    -0.234 N 
ATOM     32  H12 UNL     1     -10.931  -6.452  19.165  1.00  0.00     0.174 HD
ATOM     33  H11 UNL     1     -11.212  -4.953  18.307  1.00  0.00     0.174 HD
ENDBRANCH   1  31
TORSDOF 9
ENDMDL
