MODEL 1
REMARK VINA RESULT: -7.776613309      0.000      0.000
REMARK  9 active torsions:
REMARK  status: ('A' for Active; 'I' for Inactive)
REMARK    1  A    between atoms: C2_2  and  C3_3 
REMARK    2  A    between atoms: C3_3  and  O1_5 
REMARK    3  A    between atoms: O1_5  and  C5_6 
REMARK    4  A    between atoms: C5_6  and  C6_8 
REMARK    5  A    between atoms: C6_8  and  N1_9 
REMARK    6  A    between atoms: C6_8  and  C11_19 
REMARK       I    between atoms: N1_9  and  C7_11 
REMARK    7  A    between atoms: C7_11  and  C8_13 
REMARK    8  A    between atoms: C11_19  and  C12_21 
REMARK    9  A    between atoms: C13_22  and  O6_23 
ROOT
HETATM    1  C6  UNL     1     -15.549  -9.171  15.186  1.00  0.00     0.260 C 
ENDROOT
BRANCH   1   2
HETATM    2  C5  UNL     1     -16.356  -7.898  15.142  1.00  0.00     0.290 C 
HETATM    3  O2  UNL     1     -16.113  -7.066  14.231  1.00  0.00    -0.262 OA
BRANCH   2   4
HETATM    4  O1  UNL     1     -17.343  -7.590  16.032  1.00  0.00    -0.314 OA
BRANCH   4   5
HETATM    5  C3  UNL     1     -17.195  -6.752  17.151  1.00  0.00     0.127 C 
HETATM    6  C4  UNL     1     -16.029  -5.825  17.099  1.00  0.00     0.040 C 
BRANCH   5   7
HETATM    7  C2  UNL     1     -17.181  -7.499  18.466  1.00  0.00     0.027 C 
HETATM    8  C1  UNL     1     -16.169  -6.798  19.367  1.00  0.00     0.007 C 
ENDBRANCH   5   7
ENDBRANCH   4   5
ENDBRANCH   2   4
ENDBRANCH   1   2
BRANCH   1   9
HETATM    9  N1  UNL     1     -16.352 -10.180  15.890  1.00  0.00    -0.336 N 
HETATM   10  C7  UNL     1     -16.253 -11.555  15.657  1.00  0.00     0.267 C 
HETATM   11  O3  UNL     1     -15.452 -12.066  14.810  1.00  0.00    -0.266 OA
ATOM     12  H1  UNL     1     -17.022  -9.859  16.589  1.00  0.00     0.164 HD
BRANCH  10  13
HETATM   13  C8  UNL     1     -17.089 -12.486  16.399  1.00  0.00     0.101 C 
HETATM   14  N2  UNL     1     -17.850 -12.216  17.401  1.00  0.00    -0.265 N 
HETATM   15  O4  UNL     1     -18.490 -13.328  17.856  1.00  0.00    -0.280 OA
ATOM     16  H2  UNL     1     -17.959 -11.286  17.805  1.00  0.00     0.194 HD
HETATM   17  C9  UNL     1     -18.444 -14.345  16.872  1.00  0.00     0.207 C 
HETATM   18  C10 UNL     1     -17.204 -13.961  16.118  1.00  0.00     0.093 C 
ENDBRANCH  10  13
ENDBRANCH   1   9
BRANCH   1  19
HETATM   19  C11 UNL     1     -14.235  -9.001  15.813  1.00  0.00     0.201 C 
HETATM   20  O5  UNL     1     -14.275  -8.759  17.080  1.00  0.00    -0.289 OA
BRANCH  19  21
HETATM   21  C12 UNL     1     -12.933  -9.065  15.226  1.00  0.00     0.131 A 
HETATM   22  C13 UNL     1     -12.177 -10.228  15.320  1.00  0.00     0.163 A 
HETATM   23  N3  UNL     1     -10.966 -10.360  14.761  1.00  0.00    -0.288 N 
HETATM   24  C14 UNL     1     -10.433  -9.336  14.073  1.00  0.00     0.329 A 
ATOM     25  H3  UNL     1     -10.450 -11.234  14.859  1.00  0.00     0.172 HD
HETATM   26  O7  UNL     1      -9.274  -9.463  13.538  1.00  0.00    -0.247 OA
HETATM   27  N4  UNL     1     -11.119  -8.206  13.956  1.00  0.00    -0.275 N 
HETATM   28  C15 UNL     1     -12.354  -8.049  14.516  1.00  0.00     0.267 A 
ATOM     29  H4  UNL     1     -10.711  -7.432  13.432  1.00  0.00     0.173 HD
HETATM   30  O8  UNL     1     -12.917  -6.959  14.348  1.00  0.00    -0.267 OA
BRANCH  22  31
HETATM   31  O6  UNL     1     -12.713 -11.289  16.027  1.00  0.00    -0.345 OA
ATOM     32  H6  UNL     1     -13.634 -11.482  15.905  1.00  0.00     0.219 HD
ENDBRANCH  22  31
ENDBRANCH  19  21
ENDBRANCH   1  19
TORSDOF 9
ENDMDL
MODEL 2
REMARK VINA RESULT: -7.772435423      1.222      1.898
REMARK  9 active torsions:
REMARK  status: ('A' for Active; 'I' for Inactive)
REMARK    1  A    between atoms: C2_2  and  C3_3 
REMARK    2  A    between atoms: C3_3  and  O1_5 
REMARK    3  A    between atoms: O1_5  and  C5_6 
REMARK    4  A    between atoms: C5_6  and  C6_8 
REMARK    5  A    between atoms: C6_8  and  N1_9 
REMARK    6  A    between atoms: C6_8  and  C11_19 
REMARK       I    between atoms: N1_9  and  C7_11 
REMARK    7  A    between atoms: C7_11  and  C8_13 
REMARK    8  A    between atoms: C11_19  and  C12_21 
REMARK    9  A    between atoms: C13_22  and  O6_23 
ROOT
HETATM    1  C6  UNL     1     -15.502  -8.766  15.794  1.00  0.00     0.260 C 
ENDROOT
BRANCH   1   2
HETATM    2  C5  UNL     1     -16.143  -7.466  16.211  1.00  0.00     0.290 C 
HETATM    3  O2  UNL     1     -17.258  -7.508  16.791  1.00  0.00    -0.262 OA
BRANCH   2   4
HETATM    4  O1  UNL     1     -15.586  -6.239  16.001  1.00  0.00    -0.314 OA
BRANCH   4   5
HETATM    5  C3  UNL     1     -16.100  -5.249  15.145  1.00  0.00     0.127 C 
HETATM    6  C4  UNL     1     -17.041  -4.286  15.784  1.00  0.00     0.040 C 
BRANCH   5   7
HETATM    7  C2  UNL     1     -16.732  -5.806  13.889  1.00  0.00     0.027 C 
HETATM    8  C1  UNL     1     -17.748  -4.776  13.406  1.00  0.00     0.007 C 
ENDBRANCH   5   7
ENDBRANCH   4   5
ENDBRANCH   2   4
ENDBRANCH   1   2
BRANCH   1   9
HETATM    9  N1  UNL     1     -16.276  -9.856  16.402  1.00  0.00    -0.336 N 
HETATM   10  C7  UNL     1     -16.311 -11.160  15.900  1.00  0.00     0.267 C 
HETATM   11  O3  UNL     1     -15.670 -11.529  14.864  1.00  0.00    -0.266 OA
ATOM     12  H1  UNL     1     -16.820  -9.650  17.240  1.00  0.00     0.164 HD
BRANCH  10  13
HETATM   13  C8  UNL     1     -17.106 -12.181  16.565  1.00  0.00     0.101 C 
HETATM   14  N2  UNL     1     -17.945 -12.006  17.525  1.00  0.00    -0.265 N 
HETATM   15  O4  UNL     1     -18.514 -13.181  17.910  1.00  0.00    -0.280 OA
ATOM     16  H2  UNL     1     -18.158 -11.102  17.945  1.00  0.00     0.194 HD
HETATM   17  C9  UNL     1     -18.323 -14.160  16.904  1.00  0.00     0.207 C 
HETATM   18  C10 UNL     1     -17.078 -13.650  16.239  1.00  0.00     0.093 C 
ENDBRANCH  10  13
ENDBRANCH   1   9
BRANCH   1  19
HETATM   19  C11 UNL     1     -14.083  -8.851  16.155  1.00  0.00     0.201 C 
HETATM   20  O5  UNL     1     -13.840  -8.684  17.411  1.00  0.00    -0.289 OA
BRANCH  19  21
HETATM   21  C12 UNL     1     -12.947  -9.091  15.321  1.00  0.00     0.131 A 
HETATM   22  C13 UNL     1     -12.345 -10.344  15.298  1.00  0.00     0.163 A 
HETATM   23  N3  UNL     1     -11.300 -10.639  14.512  1.00  0.00    -0.288 N 
HETATM   24  C14 UNL     1     -10.790  -9.699  13.699  1.00  0.00     0.329 A 
ATOM     25  H3  UNL     1     -10.892 -11.574  14.532  1.00  0.00     0.172 HD
HETATM   26  O7  UNL     1      -9.790  -9.982  12.947  1.00  0.00    -0.247 OA
HETATM   27  N4  UNL     1     -11.333  -8.489  13.686  1.00  0.00    -0.275 N 
HETATM   28  C15 UNL     1     -12.397  -8.165  14.477  1.00  0.00     0.267 A 
ATOM     29  H4  UNL     1     -10.943  -7.779  13.067  1.00  0.00     0.173 HD
HETATM   30  O8  UNL     1     -12.836  -7.011  14.391  1.00  0.00    -0.267 OA
BRANCH  22  31
HETATM   31  O6  UNL     1     -12.859 -11.321  16.131  1.00  0.00    -0.345 OA
ATOM     32  H6  UNL     1     -12.577 -12.216  15.989  1.00  0.00     0.219 HD
ENDBRANCH  22  31
ENDBRANCH  19  21
ENDBRANCH   1  19
TORSDOF 9
ENDMDL
MODEL 3
REMARK VINA RESULT: -7.644488663      1.494      1.760
REMARK  9 active torsions:
REMARK  status: ('A' for Active; 'I' for Inactive)
REMARK    1  A    between atoms: C2_2  and  C3_3 
REMARK    2  A    between atoms: C3_3  and  O1_5 
REMARK    3  A    between atoms: O1_5  and  C5_6 
REMARK    4  A    between atoms: C5_6  and  C6_8 
REMARK    5  A    between atoms: C6_8  and  N1_9 
REMARK    6  A    between atoms: C6_8  and  C11_19 
REMARK       I    between atoms: N1_9  and  C7_11 
REMARK    7  A    between atoms: C7_11  and  C8_13 
REMARK    8  A    between atoms: C11_19  and  C12_21 
REMARK    9  A    between atoms: C13_22  and  O6_23 
ROOT
HETATM    1  C6  UNL     1     -15.223  -8.842  15.870  1.00  0.00     0.260 C 
ENDROOT
BRANCH   1   2
HETATM    2  C5  UNL     1     -16.050  -7.957  16.768  1.00  0.00     0.290 C 
HETATM    3  O2  UNL     1     -16.410  -6.832  16.334  1.00  0.00    -0.262 OA
BRANCH   2   4
HETATM    4  O1  UNL     1     -16.438  -8.301  18.030  1.00  0.00    -0.314 OA
BRANCH   4   5
HETATM    5  C3  UNL     1     -17.765  -8.328  18.493  1.00  0.00     0.127 C 
HETATM    6  C4  UNL     1     -18.106  -7.281  19.497  1.00  0.00     0.040 C 
BRANCH   5   7
HETATM    7  C2  UNL     1     -18.194  -9.680  19.016  1.00  0.00     0.027 C 
HETATM    8  C1  UNL     1     -18.736  -9.463  20.425  1.00  0.00     0.007 C 
ENDBRANCH   5   7
ENDBRANCH   4   5
ENDBRANCH   2   4
ENDBRANCH   1   2
BRANCH   1   9
HETATM    9  N1  UNL     1     -15.677 -10.224  16.072  1.00  0.00    -0.336 N 
HETATM   10  C7  UNL     1     -16.782 -10.783  15.424  1.00  0.00     0.267 C 
HETATM   11  O3  UNL     1     -17.504 -10.144  14.592  1.00  0.00    -0.266 OA
ATOM     12  H1  UNL     1     -15.155 -10.811  16.723  1.00  0.00     0.164 HD
BRANCH  10  13
HETATM   13  C8  UNL     1     -17.164 -12.162  15.684  1.00  0.00     0.101 C 
HETATM   14  N2  UNL     1     -16.680 -13.218  15.129  1.00  0.00    -0.265 N 
HETATM   15  O4  UNL     1     -17.269 -14.348  15.608  1.00  0.00    -0.280 OA
ATOM     16  H2  UNL     1     -15.947 -13.210  14.420  1.00  0.00     0.194 HD
HETATM   17  C9  UNL     1     -17.934 -14.065  16.826  1.00  0.00     0.207 C 
HETATM   18  C10 UNL     1     -18.220 -12.600  16.664  1.00  0.00     0.093 C 
ENDBRANCH  10  13
ENDBRANCH   1   9
BRANCH   1  19
HETATM   19  C11 UNL     1     -13.781  -8.713  16.101  1.00  0.00     0.201 C 
HETATM   20  O5  UNL     1     -13.466  -8.244  17.261  1.00  0.00    -0.289 OA
BRANCH  19  21
HETATM   21  C12 UNL     1     -12.690  -9.031  15.233  1.00  0.00     0.131 A 
HETATM   22  C13 UNL     1     -12.144 -10.309  15.232  1.00  0.00     0.163 A 
HETATM   23  N3  UNL     1     -11.144 -10.677  14.418  1.00  0.00    -0.288 N 
HETATM   24  C14 UNL     1     -10.627  -9.788  13.553  1.00  0.00     0.329 A 
ATOM     25  H3  UNL     1     -10.777 -11.627  14.455  1.00  0.00     0.172 HD
HETATM   26  O7  UNL     1      -9.671 -10.140  12.774  1.00  0.00    -0.247 OA
HETATM   27  N4  UNL     1     -11.118  -8.556  13.517  1.00  0.00    -0.275 N 
HETATM   28  C15 UNL     1     -12.135  -8.159  14.336  1.00  0.00     0.267 A 
ATOM     29  H4  UNL     1     -10.723  -7.885  12.859  1.00  0.00     0.173 HD
HETATM   30  O8  UNL     1     -12.527  -6.990  14.227  1.00  0.00    -0.267 OA
BRANCH  22  31
HETATM   31  O6  UNL     1     -12.666 -11.234  16.118  1.00  0.00    -0.345 OA
ATOM     32  H6  UNL     1     -12.784 -12.124  15.810  1.00  0.00     0.219 HD
ENDBRANCH  22  31
ENDBRANCH  19  21
ENDBRANCH   1  19
TORSDOF 9
ENDMDL
MODEL 4
REMARK VINA RESULT: -7.639062869      0.738      1.195
REMARK  9 active torsions:
REMARK  status: ('A' for Active; 'I' for Inactive)
REMARK    1  A    between atoms: C2_2  and  C3_3 
REMARK    2  A    between atoms: C3_3  and  O1_5 
REMARK    3  A    between atoms: O1_5  and  C5_6 
REMARK    4  A    between atoms: C5_6  and  C6_8 
REMARK    5  A    between atoms: C6_8  and  N1_9 
REMARK    6  A    between atoms: C6_8  and  C11_19 
REMARK       I    between atoms: N1_9  and  C7_11 
REMARK    7  A    between atoms: C7_11  and  C8_13 
REMARK    8  A    between atoms: C11_19  and  C12_21 
REMARK    9  A    between atoms: C13_22  and  O6_23 
ROOT
HETATM    1  C6  UNL     1     -15.501  -8.991  15.292  1.00  0.00     0.260 C 
ENDROOT
BRANCH   1   2
HETATM    2  C5  UNL     1     -16.204  -7.657  15.285  1.00  0.00     0.290 C 
HETATM    3  O2  UNL     1     -16.301  -7.037  14.195  1.00  0.00    -0.262 OA
BRANCH   2   4
HETATM    4  O1  UNL     1     -16.748  -7.076  16.392  1.00  0.00    -0.314 OA
BRANCH   4   5
HETATM    5  C3  UNL     1     -16.400  -5.813  16.902  1.00  0.00     0.127 C 
HETATM    6  C4  UNL     1     -15.782  -5.826  18.258  1.00  0.00     0.040 C 
BRANCH   5   7
HETATM    7  C2  UNL     1     -17.540  -4.820  16.881  1.00  0.00     0.027 C 
HETATM    8  C1  UNL     1     -17.350  -3.947  15.645  1.00  0.00     0.007 C 
ENDBRANCH   5   7
ENDBRANCH   4   5
ENDBRANCH   2   4
ENDBRANCH   1   2
BRANCH   1   9
HETATM    9  N1  UNL     1     -16.356  -9.937  16.021  1.00  0.00    -0.336 N 
HETATM   10  C7  UNL     1     -16.280 -11.325  15.877  1.00  0.00     0.267 C 
HETATM   11  O3  UNL     1     -15.457 -11.905  15.097  1.00  0.00    -0.266 OA
ATOM     12  H1  UNL     1     -17.045  -9.559  16.671  1.00  0.00     0.164 HD
BRANCH  10  13
HETATM   13  C8  UNL     1     -17.167 -12.191  16.638  1.00  0.00     0.101 C 
HETATM   14  N2  UNL     1     -17.989 -11.838  17.563  1.00  0.00    -0.265 N 
HETATM   15  O4  UNL     1     -18.664 -12.908  18.065  1.00  0.00    -0.280 OA
ATOM     16  H2  UNL     1     -18.120 -10.878  17.880  1.00  0.00     0.194 HD
HETATM   17  C9  UNL     1     -18.560 -14.004  17.174  1.00  0.00     0.207 C 
HETATM   18  C10 UNL     1     -17.272 -13.684  16.473  1.00  0.00     0.093 C 
ENDBRANCH  10  13
ENDBRANCH   1   9
BRANCH   1  19
HETATM   19  C11 UNL     1     -14.154  -8.931  15.871  1.00  0.00     0.201 C 
HETATM   20  O5  UNL     1     -14.130  -8.746  17.147  1.00  0.00    -0.289 OA
BRANCH  19  21
HETATM   21  C12 UNL     1     -12.884  -9.048  15.227  1.00  0.00     0.131 A 
HETATM   22  C13 UNL     1     -12.161 -10.232  15.310  1.00  0.00     0.163 A 
HETATM   23  N3  UNL     1     -10.981 -10.414  14.699  1.00  0.00    -0.288 N 
HETATM   24  C14 UNL     1     -10.449  -9.421  13.967  1.00  0.00     0.329 A 
ATOM     25  H3  UNL     1     -10.489 -11.302  14.791  1.00  0.00     0.172 HD
HETATM   26  O7  UNL     1      -9.320  -9.594  13.384  1.00  0.00    -0.247 OA
HETATM   27  N4  UNL     1     -11.103  -8.272  13.859  1.00  0.00    -0.275 N 
HETATM   28  C15 UNL     1     -12.306  -8.064  14.471  1.00  0.00     0.267 A 
ATOM     29  H4  UNL     1     -10.696  -7.521  13.302  1.00  0.00     0.173 HD
HETATM   30  O8  UNL     1     -12.842  -6.960  14.307  1.00  0.00    -0.267 OA
BRANCH  22  31
HETATM   31  O6  UNL     1     -12.697 -11.263  16.061  1.00  0.00    -0.345 OA
ATOM     32  H6  UNL     1     -12.243 -11.512  16.856  1.00  0.00     0.219 HD
ENDBRANCH  22  31
ENDBRANCH  19  21
ENDBRANCH   1  19
TORSDOF 9
ENDMDL
MODEL 5
REMARK VINA RESULT: -7.617428440      1.429      2.172
REMARK  9 active torsions:
REMARK  status: ('A' for Active; 'I' for Inactive)
REMARK    1  A    between atoms: C2_2  and  C3_3 
REMARK    2  A    between atoms: C3_3  and  O1_5 
REMARK    3  A    between atoms: O1_5  and  C5_6 
REMARK    4  A    between atoms: C5_6  and  C6_8 
REMARK    5  A    between atoms: C6_8  and  N1_9 
REMARK    6  A    between atoms: C6_8  and  C11_19 
REMARK       I    between atoms: N1_9  and  C7_11 
REMARK    7  A    between atoms: C7_11  and  C8_13 
REMARK    8  A    between atoms: C11_19  and  C12_21 
REMARK    9  A    between atoms: C13_22  and  O6_23 
ROOT
HETATM    1  C6  UNL     1     -15.588  -9.249  15.033  1.00  0.00     0.260 C 
ENDROOT
BRANCH   1   2
HETATM    2  C5  UNL     1     -16.460  -8.036  14.830  1.00  0.00     0.290 C 
HETATM    3  O2  UNL     1     -15.925  -6.977  14.412  1.00  0.00    -0.262 OA
BRANCH   2   4
HETATM    4  O1  UNL     1     -17.803  -8.014  15.069  1.00  0.00    -0.314 OA
BRANCH   4   5
HETATM    5  C3  UNL     1     -18.803  -8.256  14.110  1.00  0.00     0.127 C 
HETATM    6  C4  UNL     1     -19.747  -7.126  13.882  1.00  0.00     0.040 C 
BRANCH   5   7
HETATM    7  C2  UNL     1     -19.590  -9.521  14.366  1.00  0.00     0.027 C 
HETATM    8  C1  UNL     1     -19.108 -10.558  13.356  1.00  0.00     0.007 C 
ENDBRANCH   5   7
ENDBRANCH   4   5
ENDBRANCH   2   4
ENDBRANCH   1   2
BRANCH   1   9
HETATM    9  N1  UNL     1     -16.372 -10.235  15.789  1.00  0.00    -0.336 N 
HETATM   10  C7  UNL     1     -16.280 -11.616  15.595  1.00  0.00     0.267 C 
HETATM   11  O3  UNL     1     -15.504 -12.154  14.741  1.00  0.00    -0.266 OA
ATOM     12  H1  UNL     1     -17.021  -9.893  16.497  1.00  0.00     0.164 HD
BRANCH  10  13
HETATM   13  C8  UNL     1     -17.095 -12.524  16.387  1.00  0.00     0.101 C 
HETATM   14  N2  UNL     1     -17.860 -12.217  17.376  1.00  0.00    -0.265 N 
HETATM   15  O4  UNL     1     -18.477 -13.316  17.890  1.00  0.00    -0.280 OA
ATOM     16  H2  UNL     1     -17.989 -11.269  17.729  1.00  0.00     0.194 HD
HETATM   17  C9  UNL     1     -18.411 -14.383  16.961  1.00  0.00     0.207 C 
HETATM   18  C10 UNL     1     -17.180 -14.014  16.185  1.00  0.00     0.093 C 
ENDBRANCH  10  13
ENDBRANCH   1   9
BRANCH   1  19
HETATM   19  C11 UNL     1     -14.321  -8.944  15.706  1.00  0.00     0.201 C 
HETATM   20  O5  UNL     1     -14.446  -8.566  16.933  1.00  0.00    -0.289 OA
BRANCH  19  21
HETATM   21  C12 UNL     1     -12.986  -9.006  15.199  1.00  0.00     0.131 A 
HETATM   22  C13 UNL     1     -12.236 -10.168  15.339  1.00  0.00     0.163 A 
HETATM   23  N3  UNL     1     -10.992 -10.298  14.855  1.00  0.00    -0.288 N 
HETATM   24  C14 UNL     1     -10.420  -9.274  14.200  1.00  0.00     0.329 A 
ATOM     25  H3  UNL     1     -10.482 -11.172  14.983  1.00  0.00     0.172 HD
HETATM   26  O7  UNL     1      -9.231  -9.398  13.737  1.00  0.00    -0.247 OA
HETATM   27  N4  UNL     1     -11.099  -8.145  14.042  1.00  0.00    -0.275 N 
HETATM   28  C15 UNL     1     -12.366  -7.989  14.525  1.00  0.00     0.267 A 
ATOM     29  H4  UNL     1     -10.661  -7.370  13.544  1.00  0.00     0.173 HD
HETATM   30  O8  UNL     1     -12.919  -6.900  14.324  1.00  0.00    -0.267 OA
BRANCH  22  31
HETATM   31  O6  UNL     1     -12.812 -11.230  16.011  1.00  0.00    -0.345 OA
ATOM     32  H6  UNL     1     -12.666 -12.103  15.667  1.00  0.00     0.219 HD
ENDBRANCH  22  31
ENDBRANCH  19  21
ENDBRANCH   1  19
TORSDOF 9
ENDMDL
