MODEL 1
REMARK VINA RESULT: -4.314928642      0.000      0.000
REMARK  1 active torsions:
REMARK  status: ('A' for Active; 'I' for Inactive)
REMARK    1  A    between atoms: C3_3  and  C4_4 
ROOT
HETATM    1  C1  UNL     1       3.778  18.935  38.407  1.00  0.00     0.030 C 
HETATM    2  C2  UNL     1       4.481  17.657  38.114  1.00  0.00     0.149 A 
HETATM    3  C3  UNL     1       5.086  16.952  39.333  1.00  0.00     0.193 A 
HETATM    4  N1  UNL     1       6.419  17.074  38.853  1.00  0.00    -0.198 NA
HETATM    5  C5  UNL     1       7.396  17.610  39.750  1.00  0.00     0.130 C 
HETATM    6  S1  UNL     1       6.095  17.939  37.426  1.00  0.00     0.218 S 
HETATM    7  O3  UNL     1       6.531  19.349  37.370  1.00  0.00    -0.211 OA
HETATM    8  O4  UNL     1       6.397  17.103  36.213  1.00  0.00    -0.211 OA
ENDROOT
BRANCH   3   9
HETATM    9  C4  UNL     1       4.675  15.532  39.397  1.00  0.00     0.193 C 
HETATM   10  O1  UNL     1       5.537  14.665  39.647  1.00  0.00    -0.647 OA
HETATM   11  O2  UNL     1       3.369  15.137  39.191  1.00  0.00    -0.647 OA
ENDBRANCH   3   9
TORSDOF 1
ENDMDL
MODEL 2
REMARK VINA RESULT: -3.003660722      1.711      2.648
REMARK  1 active torsions:
REMARK  status: ('A' for Active; 'I' for Inactive)
REMARK    1  A    between atoms: C3_3  and  C4_4 
ROOT
HETATM    1  C1  UNL     1       7.059  17.216  37.017  1.00  0.00     0.030 C 
HETATM    2  C2  UNL     1       6.507  17.180  38.398  1.00  0.00     0.149 A 
HETATM    3  C3  UNL     1       5.127  16.527  38.530  1.00  0.00     0.193 A 
HETATM    4  N1  UNL     1       4.505  17.724  38.981  1.00  0.00    -0.198 NA
HETATM    5  C5  UNL     1       3.302  18.130  38.321  1.00  0.00     0.130 C 
HETATM    6  S1  UNL     1       5.850  18.759  38.884  1.00  0.00     0.218 S 
HETATM    7  O3  UNL     1       5.836  19.798  37.835  1.00  0.00    -0.211 OA
HETATM    8  O4  UNL     1       6.282  19.204  40.254  1.00  0.00    -0.211 OA
ENDROOT
BRANCH   3   9
HETATM    9  C4  UNL     1       5.116  15.493  39.590  1.00  0.00     0.193 C 
HETATM   10  O1  UNL     1       4.808  15.826  40.752  1.00  0.00    -0.647 OA
HETATM   11  O2  UNL     1       5.433  14.175  39.331  1.00  0.00    -0.647 OA
ENDBRANCH   3   9
TORSDOF 1
ENDMDL
MODEL 3
REMARK VINA RESULT: -2.980970967      2.120      3.170
REMARK  1 active torsions:
REMARK  status: ('A' for Active; 'I' for Inactive)
REMARK    1  A    between atoms: C3_3  and  C4_4 
ROOT
HETATM    1  C1  UNL     1       5.676  15.469  39.390  1.00  0.00     0.030 C 
HETATM    2  C2  UNL     1       5.024  16.799  39.522  1.00  0.00     0.149 A 
HETATM    3  C3  UNL     1       4.098  17.188  38.363  1.00  0.00     0.193 A 
HETATM    4  N1  UNL     1       4.892  18.307  37.989  1.00  0.00    -0.198 NA
HETATM    5  C5  UNL     1       5.254  18.425  36.610  1.00  0.00     0.130 C 
HETATM    6  S1  UNL     1       6.143  18.121  39.124  1.00  0.00     0.218 S 
HETATM    7  O3  UNL     1       7.468  17.710  38.617  1.00  0.00    -0.211 OA
HETATM    8  O4  UNL     1       6.135  19.249  40.119  1.00  0.00    -0.211 OA
ENDROOT
BRANCH   3   9
HETATM    9  C4  UNL     1       2.770  17.620  38.853  1.00  0.00     0.193 C 
HETATM   10  O1  UNL     1       1.937  16.752  39.183  1.00  0.00    -0.647 OA
HETATM   11  O2  UNL     1       2.426  18.953  38.957  1.00  0.00    -0.647 OA
ENDBRANCH   3   9
TORSDOF 1
ENDMDL
MODEL 4
REMARK VINA RESULT: -2.903961704      7.409      8.915
REMARK  1 active torsions:
REMARK  status: ('A' for Active; 'I' for Inactive)
REMARK    1  A    between atoms: C3_3  and  C4_4 
ROOT
HETATM    1  C1  UNL     1       8.147  12.966  46.075  1.00  0.00     0.030 C 
HETATM    2  C2  UNL     1       8.095  11.797  45.157  1.00  0.00     0.149 A 
HETATM    3  C3  UNL     1       8.227  12.133  43.668  1.00  0.00     0.193 A 
HETATM    4  N1  UNL     1       6.928  11.648  43.353  1.00  0.00    -0.198 NA
HETATM    5  C5  UNL     1       6.071  12.506  42.593  1.00  0.00     0.130 C 
HETATM    6  S1  UNL     1       6.431  11.221  44.921  1.00  0.00     0.218 S 
HETATM    7  O3  UNL     1       5.373  12.039  45.548  1.00  0.00    -0.211 OA
HETATM    8  O4  UNL     1       6.277   9.730  45.046  1.00  0.00    -0.211 OA
ENDROOT
BRANCH   3   9
HETATM    9  C4  UNL     1       9.271  11.309  43.017  1.00  0.00     0.193 C 
HETATM   10  O1  UNL     1       9.303  11.250  41.771  1.00  0.00    -0.647 OA
HETATM   11  O2  UNL     1      10.210  10.607  43.745  1.00  0.00    -0.647 OA
ENDBRANCH   3   9
TORSDOF 1
ENDMDL
MODEL 5
REMARK VINA RESULT: -2.789710884      8.254      9.137
REMARK  1 active torsions:
REMARK  status: ('A' for Active; 'I' for Inactive)
REMARK    1  A    between atoms: C3_3  and  C4_4 
ROOT
HETATM    1  C1  UNL     1       6.655  11.763  42.820  1.00  0.00     0.030 C 
HETATM    2  C2  UNL     1       6.447  11.014  44.089  1.00  0.00     0.149 A 
HETATM    3  C3  UNL     1       5.190  11.401  44.874  1.00  0.00     0.193 A 
HETATM    4  N1  UNL     1       5.928  11.867  45.997  1.00  0.00    -0.198 NA
HETATM    5  C5  UNL     1       5.604  13.165  46.504  1.00  0.00     0.130 C 
HETATM    6  S1  UNL     1       7.496  11.623  45.388  1.00  0.00     0.218 S 
HETATM    7  O3  UNL     1       8.294  12.821  45.060  1.00  0.00    -0.211 OA
HETATM    8  O4  UNL     1       8.206  10.542  46.156  1.00  0.00    -0.211 OA
ENDROOT
BRANCH   3   9
HETATM    9  C4  UNL     1       4.385  10.210  45.228  1.00  0.00     0.193 C 
HETATM   10  O1  UNL     1       4.592   9.140  44.620  1.00  0.00    -0.647 OA
HETATM   11  O2  UNL     1       3.415  10.246  46.209  1.00  0.00    -0.647 OA
ENDBRANCH   3   9
TORSDOF 1
ENDMDL
