MODEL 1
REMARK VINA RESULT: -5.571782465      0.000      0.000
REMARK  4 active torsions:
REMARK  status: ('A' for Active; 'I' for Inactive)
REMARK    1  A    between atoms: C4_7  and  C5_8 
REMARK    2  A    between atoms: C5_8  and  C6_9 
REMARK    3  A    between atoms: C6_9  and  N2_10 
REMARK    4  A    between atoms: N2_10  and  N3_11 
ROOT
HETATM    1  C1  UNL     1       3.024  13.643  39.995  1.00  0.00     0.051 C 
HETATM    2  C2  UNL     1       3.551  14.837  39.672  1.00  0.00     0.068 A 
HETATM    3  N1  UNL     1       2.976  15.874  39.067  1.00  0.00    -0.317 N 
ATOM      4  H1  UNL     1       2.000  15.830  38.776  1.00  0.00     0.169 HD
HETATM    5  C3  UNL     1       3.684  16.942  38.853  1.00  0.00     0.263 A 
HETATM    6  O1  UNL     1       3.219  17.999  38.272  1.00  0.00    -0.267 OA
HETATM    7  C4  UNL     1       4.991  16.945  39.263  1.00  0.00     0.077 A 
HETATM    8  S1  UNL     1       5.141  15.381  39.952  1.00  0.00    -0.068 SA
ENDROOT
BRANCH   7   9
HETATM    9  C5  UNL     1       5.904  17.904  39.160  1.00  0.00     0.058 C 
BRANCH   9  10
HETATM   10  C6  UNL     1       7.041  17.662  38.290  1.00  0.00     0.210 C 
BRANCH  10  11
HETATM   11  N2  UNL     1       6.828  17.554  37.058  1.00  0.00    -0.346 NA
BRANCH  11  12
HETATM   12  N3  UNL     1       6.501  17.197  35.931  1.00  0.00    -0.281 N 
ATOM     13  H32 UNL     1       5.618  17.703  35.988  1.00  0.00     0.191 HD
ATOM     14  H31 UNL     1       6.442  16.786  34.999  1.00  0.00     0.191 HD
ENDBRANCH  11  12
ENDBRANCH  10  11
ENDBRANCH   9  10
ENDBRANCH   7   9
TORSDOF 4
ENDMDL
MODEL 2
REMARK VINA RESULT: -5.395381758      2.440      4.232
REMARK  4 active torsions:
REMARK  status: ('A' for Active; 'I' for Inactive)
REMARK    1  A    between atoms: C4_7  and  C5_8 
REMARK    2  A    between atoms: C5_8  and  C6_9 
REMARK    3  A    between atoms: C6_9  and  N2_10 
REMARK    4  A    between atoms: N2_10  and  N3_11 
ROOT
HETATM    1  C1  UNL     1       5.941  19.203  37.522  1.00  0.00     0.051 C 
HETATM    2  C2  UNL     1       5.284  18.214  38.153  1.00  0.00     0.068 A 
HETATM    3  N1  UNL     1       3.981  17.941  38.163  1.00  0.00    -0.317 N 
ATOM      4  H1  UNL     1       3.324  18.523  37.642  1.00  0.00     0.169 HD
HETATM    5  C3  UNL     1       3.562  16.922  38.850  1.00  0.00     0.263 A 
HETATM    6  O1  UNL     1       2.319  16.576  38.925  1.00  0.00    -0.267 OA
HETATM    7  C4  UNL     1       4.487  16.177  39.532  1.00  0.00     0.077 A 
HETATM    8  S1  UNL     1       5.944  16.994  39.143  1.00  0.00    -0.068 SA
ENDROOT
BRANCH   7   9
HETATM    9  C5  UNL     1       4.309  15.103  40.293  1.00  0.00     0.058 C 
BRANCH   9  10
HETATM   10  C6  UNL     1       4.770  13.826  39.779  1.00  0.00     0.210 C 
BRANCH  10  11
HETATM   11  N2  UNL     1       5.421  13.080  40.551  1.00  0.00    -0.346 NA
BRANCH  11  12
HETATM   12  N3  UNL     1       6.019  12.569  41.492  1.00  0.00    -0.281 N 
ATOM     13  H32 UNL     1       6.303  13.480  41.852  1.00  0.00     0.191 HD
ATOM     14  H31 UNL     1       6.440  11.939  42.175  1.00  0.00     0.191 HD
ENDBRANCH  11  12
ENDBRANCH  10  11
ENDBRANCH   9  10
ENDBRANCH   7   9
TORSDOF 4
ENDMDL
MODEL 3
REMARK VINA RESULT: -5.393011312      2.411      4.985
REMARK  4 active torsions:
REMARK  status: ('A' for Active; 'I' for Inactive)
REMARK    1  A    between atoms: C4_7  and  C5_8 
REMARK    2  A    between atoms: C5_8  and  C6_9 
REMARK    3  A    between atoms: C6_9  and  N2_10 
REMARK    4  A    between atoms: N2_10  and  N3_11 
ROOT
HETATM    1  C1  UNL     1       5.829  19.101  37.634  1.00  0.00     0.051 C 
HETATM    2  C2  UNL     1       5.320  18.035  38.278  1.00  0.00     0.068 A 
HETATM    3  N1  UNL     1       5.956  17.014  38.849  1.00  0.00    -0.317 N 
ATOM      4  H1  UNL     1       6.975  16.964  38.836  1.00  0.00     0.169 HD
HETATM    5  C3  UNL     1       5.254  16.084  39.421  1.00  0.00     0.263 A 
HETATM    6  O1  UNL     1       5.776  15.053  40.001  1.00  0.00    -0.267 OA
HETATM    7  C4  UNL     1       3.889  16.202  39.407  1.00  0.00     0.077 A 
HETATM    8  S1  UNL     1       3.678  17.675  38.555  1.00  0.00    -0.068 SA
ENDROOT
BRANCH   7   9
HETATM    9  C5  UNL     1       2.968  15.392  39.918  1.00  0.00     0.058 C 
BRANCH   9  10
HETATM   10  C6  UNL     1       1.652  15.396  39.306  1.00  0.00     0.210 C 
BRANCH  10  11
HETATM   11  N2  UNL     1       0.838  14.504  39.653  1.00  0.00    -0.346 NA
BRANCH  11  12
HETATM   12  N3  UNL     1       0.278  13.464  39.981  1.00  0.00    -0.281 N 
ATOM     13  H32 UNL     1       0.550  13.002  39.114  1.00  0.00     0.191 HD
ATOM     14  H31 UNL     1      -0.243  12.724  40.452  1.00  0.00     0.191 HD
ENDBRANCH  11  12
ENDBRANCH  10  11
ENDBRANCH   9  10
ENDBRANCH   7   9
TORSDOF 4
ENDMDL
MODEL 4
REMARK VINA RESULT: -5.357321532      1.932      1.974
REMARK  4 active torsions:
REMARK  status: ('A' for Active; 'I' for Inactive)
REMARK    1  A    between atoms: C4_7  and  C5_8 
REMARK    2  A    between atoms: C5_8  and  C6_9 
REMARK    3  A    between atoms: C6_9  and  N2_10 
REMARK    4  A    between atoms: N2_10  and  N3_11 
ROOT
HETATM    1  C1  UNL     1       1.731  15.448  39.193  1.00  0.00     0.051 C 
HETATM    2  C2  UNL     1       2.936  16.046  39.200  1.00  0.00     0.068 A 
HETATM    3  N1  UNL     1       4.125  15.538  39.516  1.00  0.00    -0.317 N 
ATOM      4  H1  UNL     1       4.214  14.564  39.805  1.00  0.00     0.169 HD
HETATM    5  C3  UNL     1       5.169  16.307  39.449  1.00  0.00     0.263 A 
HETATM    6  O1  UNL     1       6.366  15.910  39.736  1.00  0.00    -0.267 OA
HETATM    7  C4  UNL     1       4.991  17.607  39.056  1.00  0.00     0.077 A 
HETATM    8  S1  UNL     1       3.297  17.661  38.794  1.00  0.00    -0.068 SA
ENDROOT
BRANCH   7   9
HETATM    9  C5  UNL     1       5.890  18.575  38.912  1.00  0.00     0.058 C 
BRANCH   9  10
HETATM   10  C6  UNL     1       6.250  18.967  37.561  1.00  0.00     0.210 C 
BRANCH  10  11
HETATM   11  N2  UNL     1       6.585  18.065  36.755  1.00  0.00    -0.346 NA
BRANCH  11  12
HETATM   12  N3  UNL     1       6.631  17.115  35.980  1.00  0.00    -0.281 N 
ATOM     13  H32 UNL     1       5.748  17.380  35.546  1.00  0.00     0.191 HD
ATOM     14  H31 UNL     1       6.877  16.279  35.451  1.00  0.00     0.191 HD
ENDBRANCH  11  12
ENDBRANCH  10  11
ENDBRANCH   9  10
ENDBRANCH   7   9
TORSDOF 4
ENDMDL
MODEL 5
REMARK VINA RESULT: -5.295568594      2.283      2.614
REMARK  4 active torsions:
REMARK  status: ('A' for Active; 'I' for Inactive)
REMARK    1  A    between atoms: C4_7  and  C5_8 
REMARK    2  A    between atoms: C5_8  and  C6_9 
REMARK    3  A    between atoms: C6_9  and  N2_10 
REMARK    4  A    between atoms: N2_10  and  N3_11 
ROOT
HETATM    1  C1  UNL     1       0.877  14.106  39.904  1.00  0.00     0.051 C 
HETATM    2  C2  UNL     1       2.205  14.325  39.907  1.00  0.00     0.068 A 
HETATM    3  N1  UNL     1       3.194  13.488  40.209  1.00  0.00    -0.317 N 
ATOM      4  H1  UNL     1       2.995  12.527  40.489  1.00  0.00     0.169 HD
HETATM    5  C3  UNL     1       4.418  13.918  40.143  1.00  0.00     0.263 A 
HETATM    6  O1  UNL     1       5.446  13.185  40.417  1.00  0.00    -0.267 OA
HETATM    7  C4  UNL     1       4.627  15.217  39.763  1.00  0.00     0.077 A 
HETATM    8  S1  UNL     1       3.021  15.768  39.515  1.00  0.00    -0.068 SA
ENDROOT
BRANCH   7   9
HETATM    9  C5  UNL     1       5.769  15.881  39.622  1.00  0.00     0.058 C 
BRANCH   9  10
HETATM   10  C6  UNL     1       5.711  17.210  39.041  1.00  0.00     0.210 C 
BRANCH  10  11
HETATM   11  N2  UNL     1       6.313  17.406  37.957  1.00  0.00    -0.346 NA
BRANCH  11  12
HETATM   12  N3  UNL     1       6.634  17.594  36.788  1.00  0.00    -0.281 N 
ATOM     13  H32 UNL     1       6.899  16.618  36.667  1.00  0.00     0.191 HD
ATOM     14  H31 UNL     1       6.832  17.977  35.864  1.00  0.00     0.191 HD
ENDBRANCH  11  12
ENDBRANCH  10  11
ENDBRANCH   9  10
ENDBRANCH   7   9
TORSDOF 4
ENDMDL
