MODEL 1
REMARK VINA RESULT: -3.865564645      0.000      0.000
REMARK  2 active torsions:
REMARK  status: ('A' for Active; 'I' for Inactive)
REMARK    1  A    between atoms: C3_3  and  C4_4 
REMARK       I    between atoms: C4_4  and  N1_6 
REMARK    2  A    between atoms: N1_6  and  N2_8 
ROOT
HETATM    1  C1  UNL     1       2.814  17.962  38.877  1.00  0.00     0.015 C 
HETATM    2  C2  UNL     1       4.245  17.776  39.329  1.00  0.00     0.058 C 
HETATM    3  C3  UNL     1       4.881  16.565  38.686  1.00  0.00     0.289 C 
HETATM    4  N3  UNL     1       6.076  17.306  38.517  1.00  0.00    -0.053 N 
HETATM    5  C5  UNL     1       6.992  17.388  39.609  1.00  0.00     0.274 C 
HETATM    6  C6  UNL     1       6.773  17.005  37.285  1.00  0.00     0.274 C 
HETATM    7  C7  UNL     1       5.264  18.517  38.459  1.00  0.00     0.128 C 
HETATM    8  C8  UNL     1       4.765  18.887  37.098  1.00  0.00     0.047 C 
HETATM    9  C9  UNL     1       5.887  19.706  39.151  1.00  0.00     0.047 C 
ENDROOT
BRANCH   3  10
HETATM   10  C4  UNL     1       4.931  15.352  39.519  1.00  0.00     0.267 C 
HETATM   11  O1  UNL     1       4.674  15.359  40.747  1.00  0.00    -0.269 OA
HETATM   12  N1  UNL     1       5.280  14.119  38.925  1.00  0.00    -0.275 N 
ATOM     13  H1  UNL     1       5.494  14.080  37.929  1.00  0.00     0.189 HD
BRANCH  12  14
HETATM   14  N2  UNL     1       5.335  12.961  39.690  1.00  0.00    -0.343 N 
ATOM     15  H22 UNL     1       5.881  12.966  40.552  1.00  0.00     0.176 HD
ATOM     16  H21 UNL     1       4.836  12.122  39.393  1.00  0.00     0.176 HD
ENDBRANCH  12  14
ENDBRANCH   3  10
TORSDOF 2
ENDMDL
MODEL 2
REMARK VINA RESULT: -3.149420712      2.017      3.218
REMARK  2 active torsions:
REMARK  status: ('A' for Active; 'I' for Inactive)
REMARK    1  A    between atoms: C3_3  and  C4_4 
REMARK       I    between atoms: C4_4  and  N1_6 
REMARK    2  A    between atoms: N1_6  and  N2_8 
ROOT
HETATM    1  C1  UNL     1       5.831  15.066  39.502  1.00  0.00     0.015 C 
HETATM    2  C2  UNL     1       5.358  16.150  38.559  1.00  0.00     0.058 C 
HETATM    3  C3  UNL     1       4.492  17.167  39.267  1.00  0.00     0.289 C 
HETATM    4  N3  UNL     1       5.138  18.195  38.538  1.00  0.00    -0.053 N 
HETATM    5  C5  UNL     1       4.672  18.499  37.223  1.00  0.00     0.274 C 
HETATM    6  C6  UNL     1       5.339  19.407  39.302  1.00  0.00     0.274 C 
HETATM    7  C7  UNL     1       6.318  17.339  38.461  1.00  0.00     0.128 C 
HETATM    8  C8  UNL     1       7.272  17.463  39.605  1.00  0.00     0.047 C 
HETATM    9  C9  UNL     1       7.042  17.413  37.138  1.00  0.00     0.047 C 
ENDROOT
BRANCH   3  10
HETATM   10  C4  UNL     1       3.040  17.002  39.092  1.00  0.00     0.267 C 
HETATM   11  O1  UNL     1       2.264  17.968  38.895  1.00  0.00    -0.269 OA
HETATM   12  N1  UNL     1       2.480  15.707  39.146  1.00  0.00    -0.275 N 
ATOM     13  H1  UNL     1       3.083  14.900  39.304  1.00  0.00     0.189 HD
BRANCH  12  14
HETATM   14  N2  UNL     1       1.112  15.525  38.984  1.00  0.00    -0.343 N 
ATOM     15  H22 UNL     1       0.520  16.345  38.847  1.00  0.00     0.176 HD
ATOM     16  H21 UNL     1       0.710  14.588  39.004  1.00  0.00     0.176 HD
ENDBRANCH  12  14
ENDBRANCH   3  10
TORSDOF 2
ENDMDL
MODEL 3
REMARK VINA RESULT: -2.999535860      6.914      8.492
REMARK  2 active torsions:
REMARK  status: ('A' for Active; 'I' for Inactive)
REMARK    1  A    between atoms: C3_3  and  C4_4 
REMARK       I    between atoms: C4_4  and  N1_6 
REMARK    2  A    between atoms: N1_6  and  N2_8 
ROOT
HETATM    1  C1  UNL     1       5.341  12.460  43.245  1.00  0.00     0.015 C 
HETATM    2  C2  UNL     1       6.179  11.608  44.173  1.00  0.00     0.058 C 
HETATM    3  C3  UNL     1       7.586  12.146  44.304  1.00  0.00     0.289 C 
HETATM    4  N3  UNL     1       7.546  11.858  45.690  1.00  0.00    -0.053 N 
HETATM    5  C5  UNL     1       7.855  10.534  46.125  1.00  0.00     0.274 C 
HETATM    6  C6  UNL     1       8.233  12.839  46.504  1.00  0.00     0.274 C 
HETATM    7  C7  UNL     1       6.099  12.039  45.640  1.00  0.00     0.128 C 
HETATM    8  C8  UNL     1       5.622  13.440  45.851  1.00  0.00     0.047 C 
HETATM    9  C9  UNL     1       5.331  11.068  46.504  1.00  0.00     0.047 C 
ENDROOT
BRANCH   3  10
HETATM   10  C4  UNL     1       8.607  11.470  43.486  1.00  0.00     0.267 C 
HETATM   11  O1  UNL     1       9.665  11.000  43.970  1.00  0.00    -0.269 OA
HETATM   12  N1  UNL     1       8.401  11.335  42.096  1.00  0.00    -0.275 N 
ATOM     13  H1  UNL     1       7.551  11.705  41.671  1.00  0.00     0.189 HD
BRANCH  12  14
HETATM   14  N2  UNL     1       9.350  10.701  41.304  1.00  0.00    -0.343 N 
ATOM     15  H22 UNL     1      10.284  10.547  41.683  1.00  0.00     0.176 HD
ATOM     16  H21 UNL     1       9.113  10.396  40.359  1.00  0.00     0.176 HD
ENDBRANCH  12  14
ENDBRANCH   3  10
TORSDOF 2
ENDMDL
MODEL 4
REMARK VINA RESULT: -2.944464312      2.090      2.689
REMARK  2 active torsions:
REMARK  status: ('A' for Active; 'I' for Inactive)
REMARK    1  A    between atoms: C3_3  and  C4_4 
REMARK       I    between atoms: C4_4  and  N1_6 
REMARK    2  A    between atoms: N1_6  and  N2_8 
ROOT
HETATM    1  C1  UNL     1       4.721  19.226  37.297  1.00  0.00     0.015 C 
HETATM    2  C2  UNL     1       4.756  18.378  38.549  1.00  0.00     0.058 C 
HETATM    3  C3  UNL     1       4.184  16.999  38.306  1.00  0.00     0.289 C 
HETATM    4  N3  UNL     1       5.220  16.451  39.100  1.00  0.00    -0.053 N 
HETATM    5  C5  UNL     1       5.058  16.426  40.518  1.00  0.00     0.274 C 
HETATM    6  C6  UNL     1       5.703  15.174  38.619  1.00  0.00     0.274 C 
HETATM    7  C7  UNL     1       6.055  17.584  38.715  1.00  0.00     0.128 C 
HETATM    8  C8  UNL     1       6.837  17.402  37.454  1.00  0.00     0.047 C 
HETATM    9  C9  UNL     1       6.933  18.104  39.829  1.00  0.00     0.047 C 
ENDROOT
BRANCH   3  10
HETATM   10  C4  UNL     1       2.794  16.798  38.746  1.00  0.00     0.267 C 
HETATM   11  O1  UNL     1       2.038  17.747  39.067  1.00  0.00    -0.269 OA
HETATM   12  N1  UNL     1       2.274  15.488  38.816  1.00  0.00    -0.275 N 
ATOM     13  H1  UNL     1       2.862  14.695  38.561  1.00  0.00     0.189 HD
BRANCH  12  14
HETATM   14  N2  UNL     1       0.965  15.273  39.229  1.00  0.00    -0.343 N 
ATOM     15  H22 UNL     1       0.252  15.959  38.982  1.00  0.00     0.176 HD
ATOM     16  H21 UNL     1       0.725  14.442  39.771  1.00  0.00     0.176 HD
ENDBRANCH  12  14
ENDBRANCH   3  10
TORSDOF 2
ENDMDL
MODEL 5
REMARK VINA RESULT: -2.714740098      1.149      2.498
REMARK  2 active torsions:
REMARK  status: ('A' for Active; 'I' for Inactive)
REMARK    1  A    between atoms: C3_3  and  C4_4 
REMARK       I    between atoms: C4_4  and  N1_6 
REMARK    2  A    between atoms: N1_6  and  N2_8 
ROOT
HETATM    1  C1  UNL     1       7.472  17.278  40.031  1.00  0.00     0.015 C 
HETATM    2  C2  UNL     1       6.413  17.223  38.951  1.00  0.00     0.058 C 
HETATM    3  C3  UNL     1       5.036  16.996  39.532  1.00  0.00     0.289 C 
HETATM    4  N3  UNL     1       4.514  17.935  38.609  1.00  0.00    -0.053 N 
HETATM    5  C5  UNL     1       4.190  17.494  37.290  1.00  0.00     0.274 C 
HETATM    6  C6  UNL     1       3.447  18.749  39.153  1.00  0.00     0.274 C 
HETATM    7  C7  UNL     1       5.818  18.591  38.607  1.00  0.00     0.128 C 
HETATM    8  C8  UNL     1       6.010  19.635  39.660  1.00  0.00     0.047 C 
HETATM    9  C9  UNL     1       6.244  19.102  37.251  1.00  0.00     0.047 C 
ENDROOT
BRANCH   3  10
HETATM   10  C4  UNL     1       4.536  15.613  39.468  1.00  0.00     0.267 C 
HETATM   11  O1  UNL     1       3.317  15.334  39.363  1.00  0.00    -0.269 OA
HETATM   12  N1  UNL     1       5.455  14.542  39.527  1.00  0.00    -0.275 N 
ATOM     13  H1  UNL     1       6.452  14.735  39.613  1.00  0.00     0.189 HD
BRANCH  12  14
HETATM   14  N2  UNL     1       5.007  13.229  39.470  1.00  0.00    -0.343 N 
ATOM     15  H22 UNL     1       4.367  12.959  38.723  1.00  0.00     0.176 HD
ATOM     16  H21 UNL     1       5.315  12.548  40.164  1.00  0.00     0.176 HD
ENDBRANCH  12  14
ENDBRANCH   3  10
TORSDOF 2
ENDMDL
