MODEL 1
REMARK VINA RESULT: -6.047582203      0.000      0.000
REMARK  1 active torsions:
REMARK  status: ('A' for Active; 'I' for Inactive)
REMARK    1  A    between atoms: C4_4  and  C5_5 
ROOT
HETATM    1  C5  UNL     1       4.597  16.318  39.713  1.00  0.00     0.178 C 
HETATM    2  N1  UNL     1       3.299  16.324  39.128  1.00  0.00    -0.337 N 
ATOM      3  H1  UNL     1       2.994  17.060  38.491  1.00  0.00     0.164 HD
HETATM    4  C6  UNL     1       2.479  15.263  39.481  1.00  0.00     0.299 C 
HETATM    5  O1  UNL     1       1.198  15.336  39.482  1.00  0.00    -0.263 OA
HETATM    6  C7  UNL     1       3.164  14.049  39.852  1.00  0.00     0.278 C 
HETATM    7  O2  UNL     1       2.734  12.850  39.879  1.00  0.00    -0.275 OA
HETATM    8  S1  UNL     1       4.819  14.586  40.288  1.00  0.00    -0.053 SA
ENDROOT
BRANCH   1   9
HETATM    9  C4  UNL     1       5.605  16.516  38.639  1.00  0.00     0.011 C 
HETATM   10  C2  UNL     1       6.186  17.648  38.366  1.00  0.00    -0.089 C 
HETATM   11  C1  UNL     1       7.178  17.750  37.277  1.00  0.00     0.042 C 
HETATM   12  C3  UNL     1       5.858  18.861  39.149  1.00  0.00     0.042 C 
ENDBRANCH   1   9
TORSDOF 1
ENDMDL
MODEL 2
REMARK VINA RESULT: -5.324907799      1.392      1.409
REMARK  1 active torsions:
REMARK  status: ('A' for Active; 'I' for Inactive)
REMARK    1  A    between atoms: C4_4  and  C5_5 
ROOT
HETATM    1  C5  UNL     1       3.324  16.914  39.545  1.00  0.00     0.178 C 
HETATM    2  N1  UNL     1       2.061  16.278  39.380  1.00  0.00    -0.337 N 
ATOM      3  H1  UNL     1       1.256  16.763  38.982  1.00  0.00     0.164 HD
HETATM    4  C6  UNL     1       1.998  14.957  39.796  1.00  0.00     0.299 C 
HETATM    5  O1  UNL     1       0.913  14.395  40.189  1.00  0.00    -0.263 OA
HETATM    6  C7  UNL     1       3.248  14.237  39.758  1.00  0.00     0.278 C 
HETATM    7  O2  UNL     1       3.460  12.981  39.729  1.00  0.00    -0.275 OA
HETATM    8  S1  UNL     1       4.502  15.519  39.758  1.00  0.00    -0.053 SA
ENDROOT
BRANCH   1   9
HETATM    9  C4  UNL     1       3.701  17.564  38.262  1.00  0.00     0.011 C 
HETATM   10  C2  UNL     1       4.685  18.404  38.117  1.00  0.00    -0.089 C 
HETATM   11  C1  UNL     1       4.986  19.001  36.801  1.00  0.00     0.042 C 
HETATM   12  C3  UNL     1       5.524  18.776  39.279  1.00  0.00     0.042 C 
ENDBRANCH   1   9
TORSDOF 1
ENDMDL
MODEL 3
REMARK VINA RESULT: -5.102002084      1.614      2.417
REMARK  1 active torsions:
REMARK  status: ('A' for Active; 'I' for Inactive)
REMARK    1  A    between atoms: C4_4  and  C5_5 
ROOT
HETATM    1  C5  UNL     1       4.891  15.695  38.890  1.00  0.00     0.178 C 
HETATM    2  N1  UNL     1       5.571  14.818  39.781  1.00  0.00    -0.337 N 
ATOM      3  H1  UNL     1       6.539  14.975  40.064  1.00  0.00     0.164 HD
HETATM    4  C6  UNL     1       4.832  13.738  40.238  1.00  0.00     0.299 C 
HETATM    5  O1  UNL     1       5.362  12.629  40.607  1.00  0.00    -0.263 OA
HETATM    6  C7  UNL     1       3.404  13.939  40.276  1.00  0.00     0.278 C 
HETATM    7  O2  UNL     1       2.514  13.317  40.944  1.00  0.00    -0.275 OA
HETATM    8  S1  UNL     1       3.114  15.300  39.145  1.00  0.00    -0.053 SA
ENDROOT
BRANCH   1   9
HETATM    9  C4  UNL     1       5.064  17.092  39.371  1.00  0.00     0.011 C 
HETATM   10  C2  UNL     1       5.923  17.942  38.888  1.00  0.00    -0.089 C 
HETATM   11  C1  UNL     1       6.025  19.311  39.430  1.00  0.00     0.042 C 
HETATM   12  C3  UNL     1       6.820  17.545  37.779  1.00  0.00     0.042 C 
ENDBRANCH   1   9
TORSDOF 1
ENDMDL
MODEL 4
REMARK VINA RESULT: -4.848746103      3.503      5.129
REMARK  1 active torsions:
REMARK  status: ('A' for Active; 'I' for Inactive)
REMARK    1  A    between atoms: C4_4  and  C5_5 
ROOT
HETATM    1  C5  UNL     1       5.849  16.582  39.347  1.00  0.00     0.178 C 
HETATM    2  N1  UNL     1       5.972  16.382  37.943  1.00  0.00    -0.337 N 
ATOM      3  H1  UNL     1       5.717  15.501  37.496  1.00  0.00     0.164 HD
HETATM    4  C6  UNL     1       6.461  17.462  37.225  1.00  0.00     0.299 C 
HETATM    5  O1  UNL     1       7.091  17.340  36.114  1.00  0.00    -0.263 OA
HETATM    6  C7  UNL     1       6.213  18.757  37.812  1.00  0.00     0.278 C 
HETATM    7  O2  UNL     1       6.210  19.908  37.265  1.00  0.00    -0.275 OA
HETATM    8  S1  UNL     1       5.896  18.410  39.542  1.00  0.00    -0.053 SA
ENDROOT
BRANCH   1   9
HETATM    9  C4  UNL     1       4.484  16.170  39.769  1.00  0.00     0.011 C 
HETATM   10  C2  UNL     1       4.114  14.941  39.985  1.00  0.00    -0.089 C 
HETATM   11  C1  UNL     1       2.734  14.625  40.403  1.00  0.00     0.042 C 
HETATM   12  C3  UNL     1       5.079  13.832  39.812  1.00  0.00     0.042 C 
ENDBRANCH   1   9
TORSDOF 1
ENDMDL
MODEL 5
REMARK VINA RESULT: -4.642322553      1.526      2.197
REMARK  1 active torsions:
REMARK  status: ('A' for Active; 'I' for Inactive)
REMARK    1  A    between atoms: C4_4  and  C5_5 
ROOT
HETATM    1  C5  UNL     1       4.501  15.251  38.954  1.00  0.00     0.178 C 
HETATM    2  N1  UNL     1       4.374  13.977  39.577  1.00  0.00    -0.337 N 
ATOM      3  H1  UNL     1       5.178  13.375  39.751  1.00  0.00     0.164 HD
HETATM    4  C6  UNL     1       3.084  13.610  39.930  1.00  0.00     0.299 C 
HETATM    5  O1  UNL     1       2.701  12.389  40.023  1.00  0.00    -0.263 OA
HETATM    6  C7  UNL     1       2.181  14.705  40.194  1.00  0.00     0.278 C 
HETATM    7  O2  UNL     1       1.091  14.716  40.854  1.00  0.00    -0.275 OA
HETATM    8  S1  UNL     1       2.931  16.110  39.370  1.00  0.00    -0.053 SA
ENDROOT
BRANCH   1   9
HETATM    9  C4  UNL     1       5.572  16.015  39.647  1.00  0.00     0.011 C 
HETATM   10  C2  UNL     1       6.372  16.862  39.067  1.00  0.00    -0.089 C 
HETATM   11  C1  UNL     1       7.409  17.577  39.837  1.00  0.00     0.042 C 
HETATM   12  C3  UNL     1       6.255  17.123  37.615  1.00  0.00     0.042 C 
ENDBRANCH   1   9
TORSDOF 1
ENDMDL
