MODEL 1
REMARK VINA RESULT: -4.668857490      0.000      0.000
REMARK  4 active torsions:
REMARK  status: ('A' for Active; 'I' for Inactive)
REMARK    1  A    between atoms: C2_2  and  C3_3 
REMARK       I    between atoms: C3_3  and  N1_5 
REMARK    2  A    between atoms: N1_5  and  N2_7 
REMARK    3  A    between atoms: N2_7  and  C4_8 
REMARK    4  A    between atoms: N2_7  and  S1_12 
ROOT
HETATM    1  N2  UNL     1      82.747  71.013  -9.974  1.00  0.00    -0.207 N 
ENDROOT
BRANCH   1   2
HETATM    2  N1  UNL     1      83.520  71.287 -11.047  1.00  0.00    -0.258 N 
HETATM    3  C3  UNL     1      84.598  70.673 -11.677  1.00  0.00     0.236 C 
HETATM    4  O1  UNL     1      85.133  69.606 -11.324  1.00  0.00    -0.272 OA
ATOM      5  H1  UNL     1      83.247  72.155 -11.507  1.00  0.00     0.191 HD
BRANCH   3   6
HETATM    6  C2  UNL     1      85.221  71.323 -12.911  1.00  0.00     0.100 C 
HETATM    7  C1  UNL     1      86.474  72.071 -12.535  1.00  0.00     0.014 C 
ENDBRANCH   3   6
ENDBRANCH   1   2
BRANCH   1   8
HETATM    8  C4  UNL     1      82.964  71.461  -8.684  1.00  0.00     0.054 C 
HETATM    9  C5  UNL     1      84.406  71.864  -8.474  1.00  0.00     0.041 C 
HETATM   10  C6  UNL     1      82.157  72.697  -8.295  1.00  0.00     0.041 C 
HETATM   11  C7  UNL     1      82.626  70.433  -7.594  1.00  0.00     0.041 C 
ENDBRANCH   1   8
BRANCH   1  12
HETATM   12  S1  UNL     1      81.109  70.695 -10.440  1.00  0.00     0.242 S 
HETATM   13  C8  UNL     1      80.946  68.893 -10.447  1.00  0.00     0.188 C 
HETATM   14  O2  UNL     1      80.160  71.199  -9.416  1.00  0.00    -0.205 OA
HETATM   15  O3  UNL     1      80.791  71.102 -11.831  1.00  0.00    -0.205 OA
ENDBRANCH   1  12
TORSDOF 4
ENDMDL
MODEL 2
REMARK VINA RESULT: -4.605408843      2.103      4.461
REMARK  4 active torsions:
REMARK  status: ('A' for Active; 'I' for Inactive)
REMARK    1  A    between atoms: C2_2  and  C3_3 
REMARK       I    between atoms: C3_3  and  N1_5 
REMARK    2  A    between atoms: N1_5  and  N2_7 
REMARK    3  A    between atoms: N2_7  and  C4_8 
REMARK    4  A    between atoms: N2_7  and  S1_12 
ROOT
HETATM    1  N2  UNL     1      84.385  71.818 -10.141  1.00  0.00    -0.207 N 
ENDROOT
BRANCH   1   2
HETATM    2  N1  UNL     1      83.670  72.270  -9.088  1.00  0.00    -0.258 N 
HETATM    3  C3  UNL     1      83.003  71.684  -8.017  1.00  0.00     0.236 C 
HETATM    4  O1  UNL     1      82.926  70.463  -7.790  1.00  0.00    -0.272 OA
ATOM      5  H1  UNL     1      83.602  73.288  -9.076  1.00  0.00     0.191 HD
BRANCH   3   6
HETATM    6  C2  UNL     1      82.285  72.570  -7.000  1.00  0.00     0.100 C 
HETATM    7  C1  UNL     1      80.954  71.967  -6.628  1.00  0.00     0.014 C 
ENDBRANCH   3   6
ENDBRANCH   1   2
BRANCH   1   8
HETATM    8  C4  UNL     1      85.764  71.796 -10.233  1.00  0.00     0.054 C 
HETATM    9  C5  UNL     1      86.410  71.830  -8.866  1.00  0.00     0.041 C 
HETATM   10  C6  UNL     1      86.339  70.549 -10.901  1.00  0.00     0.041 C 
HETATM   11  C7  UNL     1      86.362  72.960 -11.036  1.00  0.00     0.041 C 
ENDBRANCH   1   8
BRANCH   1  12
HETATM   12  S1  UNL     1      83.510  70.616 -11.031  1.00  0.00     0.242 S 
HETATM   13  C8  UNL     1      81.810  71.225 -11.129  1.00  0.00     0.188 C 
HETATM   14  O2  UNL     1      84.007  70.525 -12.426  1.00  0.00    -0.205 OA
HETATM   15  O3  UNL     1      83.398  69.314 -10.328  1.00  0.00    -0.205 OA
ENDBRANCH   1  12
TORSDOF 4
ENDMDL
MODEL 3
REMARK VINA RESULT: -4.574022561      4.243      6.365
REMARK  4 active torsions:
REMARK  status: ('A' for Active; 'I' for Inactive)
REMARK    1  A    between atoms: C2_2  and  C3_3 
REMARK       I    between atoms: C3_3  and  N1_5 
REMARK    2  A    between atoms: N1_5  and  N2_7 
REMARK    3  A    between atoms: N2_7  and  C4_8 
REMARK    4  A    between atoms: N2_7  and  S1_12 
ROOT
HETATM    1  N2  UNL     1      79.261  67.121 -12.082  1.00  0.00    -0.207 N 
ENDROOT
BRANCH   1   2
HETATM    2  N1  UNL     1      79.287  68.377 -11.589  1.00  0.00    -0.258 N 
HETATM    3  C3  UNL     1      80.275  69.246 -11.136  1.00  0.00     0.236 C 
HETATM    4  O1  UNL     1      81.493  68.999 -11.092  1.00  0.00    -0.272 OA
ATOM      5  H1  UNL     1      78.355  68.790 -11.535  1.00  0.00     0.191 HD
BRANCH   3   6
HETATM    6  C2  UNL     1      79.886  70.637 -10.637  1.00  0.00     0.100 C 
HETATM    7  C1  UNL     1      80.683  70.995  -9.409  1.00  0.00     0.014 C 
ENDBRANCH   3   6
ENDBRANCH   1   2
BRANCH   1   8
HETATM    8  C4  UNL     1      79.053  65.967 -11.349  1.00  0.00     0.054 C 
HETATM    9  C5  UNL     1      77.824  66.082 -10.475  1.00  0.00     0.041 C 
HETATM   10  C6  UNL     1      78.816  64.713 -12.187  1.00  0.00     0.041 C 
HETATM   11  C7  UNL     1      80.220  65.587 -10.426  1.00  0.00     0.041 C 
ENDBRANCH   1   8
BRANCH   1  12
HETATM   12  S1  UNL     1      78.773  67.104 -13.745  1.00  0.00     0.242 S 
HETATM   13  C8  UNL     1      78.050  68.732 -14.056  1.00  0.00     0.188 C 
HETATM   14  O2  UNL     1      79.950  66.987 -14.640  1.00  0.00    -0.205 OA
HETATM   15  O3  UNL     1      77.676  66.148 -14.037  1.00  0.00    -0.205 OA
ENDBRANCH   1  12
TORSDOF 4
ENDMDL
MODEL 4
REMARK VINA RESULT: -4.567237973      7.445      8.847
REMARK  4 active torsions:
REMARK  status: ('A' for Active; 'I' for Inactive)
REMARK    1  A    between atoms: C2_2  and  C3_3 
REMARK       I    between atoms: C3_3  and  N1_5 
REMARK    2  A    between atoms: N1_5  and  N2_7 
REMARK    3  A    between atoms: N2_7  and  C4_8 
REMARK    4  A    between atoms: N2_7  and  S1_12 
ROOT
HETATM    1  N2  UNL     1      78.694  63.975  -7.943  1.00  0.00    -0.207 N 
ENDROOT
BRANCH   1   2
HETATM    2  N1  UNL     1      79.985  64.022  -7.551  1.00  0.00    -0.258 N 
HETATM    3  C3  UNL     1      80.973  63.082  -7.274  1.00  0.00     0.236 C 
HETATM    4  O1  UNL     1      80.839  61.847  -7.344  1.00  0.00    -0.272 OA
ATOM      5  H1  UNL     1      80.316  64.979  -7.427  1.00  0.00     0.191 HD
BRANCH   3   6
HETATM    6  C2  UNL     1      82.361  63.552  -6.841  1.00  0.00     0.100 C 
HETATM    7  C1  UNL     1      83.082  64.194  -7.998  1.00  0.00     0.014 C 
ENDBRANCH   3   6
ENDBRANCH   1   2
BRANCH   1   8
HETATM    8  C4  UNL     1      77.605  63.754  -7.121  1.00  0.00     0.054 C 
HETATM    9  C5  UNL     1      76.754  62.610  -7.626  1.00  0.00     0.041 C 
HETATM   10  C6  UNL     1      77.957  63.370  -5.686  1.00  0.00     0.041 C 
HETATM   11  C7  UNL     1      76.674  64.965  -6.967  1.00  0.00     0.041 C 
ENDBRANCH   1   8
BRANCH   1  12
HETATM   12  S1  UNL     1      78.432  64.923  -9.370  1.00  0.00     0.242 S 
HETATM   13  C8  UNL     1      79.992  64.869 -10.283  1.00  0.00     0.188 C 
HETATM   14  O2  UNL     1      77.411  64.293 -10.244  1.00  0.00    -0.205 OA
HETATM   15  O3  UNL     1      78.210  66.365  -9.100  1.00  0.00    -0.205 OA
ENDBRANCH   1  12
TORSDOF 4
ENDMDL
MODEL 5
REMARK VINA RESULT: -4.526161298      2.267      3.297
REMARK  4 active torsions:
REMARK  status: ('A' for Active; 'I' for Inactive)
REMARK    1  A    between atoms: C2_2  and  C3_3 
REMARK       I    between atoms: C3_3  and  N1_5 
REMARK    2  A    between atoms: N1_5  and  N2_7 
REMARK    3  A    between atoms: N2_7  and  C4_8 
REMARK    4  A    between atoms: N2_7  and  S1_12 
ROOT
HETATM    1  N2  UNL     1      82.116  71.706  -9.046  1.00  0.00    -0.207 N 
ENDROOT
BRANCH   1   2
HETATM    2  N1  UNL     1      83.420  72.055  -9.076  1.00  0.00    -0.258 N 
HETATM    3  C3  UNL     1      84.556  71.594  -9.734  1.00  0.00     0.236 C 
HETATM    4  O1  UNL     1      84.596  70.639 -10.532  1.00  0.00    -0.272 OA
ATOM      5  H1  UNL     1      83.621  72.850  -8.469  1.00  0.00     0.191 HD
BRANCH   3   6
HETATM    6  C2  UNL     1      85.899  72.282  -9.493  1.00  0.00     0.100 C 
HETATM    7  C1  UNL     1      86.498  72.736 -10.800  1.00  0.00     0.014 C 
ENDBRANCH   3   6
ENDBRANCH   1   2
BRANCH   1   8
HETATM    8  C4  UNL     1      81.454  70.964 -10.005  1.00  0.00     0.054 C 
HETATM    9  C5  UNL     1      81.734  69.485  -9.850  1.00  0.00     0.041 C 
HETATM   10  C6  UNL     1      79.932  71.076  -9.960  1.00  0.00     0.041 C 
HETATM   11  C7  UNL     1      81.815  71.335 -11.451  1.00  0.00     0.041 C 
ENDBRANCH   1   8
BRANCH   1  12
HETATM   12  S1  UNL     1      81.525  71.610  -7.420  1.00  0.00     0.242 S 
HETATM   13  C8  UNL     1      82.231  73.037  -6.561  1.00  0.00     0.188 C 
HETATM   14  O2  UNL     1      80.052  71.782  -7.381  1.00  0.00    -0.205 OA
HETATM   15  O3  UNL     1      82.031  70.436  -6.667  1.00  0.00    -0.205 OA
ENDBRANCH   1  12
TORSDOF 4
ENDMDL
