MODEL 1
REMARK VINA RESULT: -4.264229442      0.000      0.000
REMARK  4 active torsions:
REMARK  status: ('A' for Active; 'I' for Inactive)
REMARK    1  A    between atoms: C2_2  and  C3_4 
REMARK    2  A    between atoms: C7_10  and  C9_12 
REMARK    3  A    between atoms: C9_12  and  C10_13 
REMARK    4  A    between atoms: C10_13  and  O3_14 
ROOT
HETATM    1  C3  UNL     1      78.693  64.029  -8.200  1.00  0.00     0.080 C 
HETATM    2  C4  UNL     1      77.839  64.011  -6.954  1.00  0.00     0.006 C 
HETATM    3  C5  UNL     1      76.710  64.962  -6.923  1.00  0.00     0.011 C 
HETATM    4  C6  UNL     1      77.455  62.560  -6.743  1.00  0.00     0.114 C 
HETATM    5  S1  UNL     1      79.088  61.826  -6.966  1.00  0.00     0.025 S 
HETATM    6  O2  UNL     1      79.882  61.707  -5.492  1.00  0.00    -0.257 OA
HETATM    7  C7  UNL     1      79.858  63.168  -7.895  1.00  0.00     0.046 C 
HETATM    8  C8  UNL     1      80.543  62.538  -9.079  1.00  0.00     0.030 C 
ENDROOT
BRANCH   7   9
HETATM    9  C9  UNL     1      80.847  63.899  -7.022  1.00  0.00     0.049 C 
BRANCH   9  10
HETATM   10  C10 UNL     1      82.264  63.423  -7.139  1.00  0.00     0.165 C 
BRANCH  10  11
HETATM   11  O3  UNL     1      82.608  62.953  -5.841  1.00  0.00    -0.401 OA
ATOM     12  H3  UNL     1      83.348  63.484  -5.573  1.00  0.00     0.209 HD
ENDBRANCH  10  11
ENDBRANCH   9  10
ENDBRANCH   7   9
BRANCH   1  13
HETATM   13  C2  UNL     1      77.911  63.643  -9.407  1.00  0.00     0.129 C 
HETATM   14  C1  UNL     1      77.848  64.503 -10.630  1.00  0.00     0.091 C 
HETATM   15  O1  UNL     1      77.264  62.613  -9.507  1.00  0.00    -0.298 OA
ENDBRANCH   1  13
TORSDOF 4
ENDMDL
MODEL 2
REMARK VINA RESULT: -4.052936154      2.162      3.415
REMARK  4 active torsions:
REMARK  status: ('A' for Active; 'I' for Inactive)
REMARK    1  A    between atoms: C2_2  and  C3_4 
REMARK    2  A    between atoms: C7_10  and  C9_12 
REMARK    3  A    between atoms: C9_12  and  C10_13 
REMARK    4  A    between atoms: C10_13  and  O3_14 
ROOT
HETATM    1  C3  UNL     1      79.190  64.231  -8.355  1.00  0.00     0.080 C 
HETATM    2  C4  UNL     1      78.046  64.876  -9.101  1.00  0.00     0.006 C 
HETATM    3  C5  UNL     1      78.317  66.202  -9.692  1.00  0.00     0.011 C 
HETATM    4  C6  UNL     1      77.557  63.830 -10.082  1.00  0.00     0.114 C 
HETATM    5  S1  UNL     1      77.478  62.429  -8.947  1.00  0.00     0.025 S 
HETATM    6  O2  UNL     1      75.952  62.322  -8.256  1.00  0.00    -0.257 OA
HETATM    7  C7  UNL     1      78.609  63.046  -7.684  1.00  0.00     0.046 C 
HETATM    8  C8  UNL     1      79.565  61.926  -7.373  1.00  0.00     0.030 C 
ENDROOT
BRANCH   7   9
HETATM    9  C9  UNL     1      77.836  63.456  -6.455  1.00  0.00     0.049 C 
BRANCH   9  10
HETATM   10  C10 UNL     1      77.922  62.494  -5.307  1.00  0.00     0.165 C 
BRANCH  10  11
HETATM   11  O3  UNL     1      77.478  63.229  -4.172  1.00  0.00    -0.401 OA
ATOM     12  H3  UNL     1      77.640  62.659  -3.429  1.00  0.00     0.209 HD
ENDBRANCH  10  11
ENDBRANCH   9  10
ENDBRANCH   7   9
BRANCH   1  13
HETATM   13  C2  UNL     1      80.345  63.955  -9.252  1.00  0.00     0.129 C 
HETATM   14  C1  UNL     1      81.758  64.245  -8.853  1.00  0.00     0.091 C 
HETATM   15  O1  UNL     1      80.248  63.479 -10.372  1.00  0.00    -0.298 OA
ENDBRANCH   1  13
TORSDOF 4
ENDMDL
MODEL 3
REMARK VINA RESULT: -4.026060149      1.963      4.363
REMARK  4 active torsions:
REMARK  status: ('A' for Active; 'I' for Inactive)
REMARK    1  A    between atoms: C2_2  and  C3_4 
REMARK    2  A    between atoms: C7_10  and  C9_12 
REMARK    3  A    between atoms: C9_12  and  C10_13 
REMARK    4  A    between atoms: C10_13  and  O3_14 
ROOT
HETATM    1  C3  UNL     1      79.809  63.916  -8.424  1.00  0.00     0.080 C 
HETATM    2  C4  UNL     1      79.698  63.934  -9.931  1.00  0.00     0.006 C 
HETATM    3  C5  UNL     1      80.807  64.582 -10.659  1.00  0.00     0.011 C 
HETATM    4  C6  UNL     1      79.420  62.501 -10.337  1.00  0.00     0.114 C 
HETATM    5  S1  UNL     1      78.115  62.143  -9.143  1.00  0.00     0.025 S 
HETATM    6  O2  UNL     1      76.610  62.495  -9.798  1.00  0.00    -0.257 OA
HETATM    7  C7  UNL     1      78.499  63.427  -7.935  1.00  0.00     0.046 C 
HETATM    8  C8  UNL     1      78.504  62.764  -6.584  1.00  0.00     0.030 C 
ENDROOT
BRANCH   7   9
HETATM    9  C9  UNL     1      77.465  64.523  -7.999  1.00  0.00     0.049 C 
BRANCH   9  10
HETATM   10  C10 UNL     1      76.739  64.779  -6.711  1.00  0.00     0.165 C 
BRANCH  10  11
HETATM   11  O3  UNL     1      76.206  66.092  -6.839  1.00  0.00    -0.401 OA
ATOM     12  H3  UNL     1      76.956  66.649  -7.013  1.00  0.00     0.209 HD
ENDBRANCH  10  11
ENDBRANCH   9  10
ENDBRANCH   7   9
BRANCH   1  13
HETATM   13  C2  UNL     1      80.993  63.136  -7.971  1.00  0.00     0.129 C 
HETATM   14  C1  UNL     1      82.052  63.725  -7.093  1.00  0.00     0.091 C 
HETATM   15  O1  UNL     1      81.203  61.971  -8.266  1.00  0.00    -0.298 OA
ENDBRANCH   1  13
TORSDOF 4
ENDMDL
MODEL 4
REMARK VINA RESULT: -3.995917711      1.990      4.473
REMARK  4 active torsions:
REMARK  status: ('A' for Active; 'I' for Inactive)
REMARK    1  A    between atoms: C2_2  and  C3_4 
REMARK    2  A    between atoms: C7_10  and  C9_12 
REMARK    3  A    between atoms: C9_12  and  C10_13 
REMARK    4  A    between atoms: C10_13  and  O3_14 
ROOT
HETATM    1  C3  UNL     1      79.307  63.955  -7.693  1.00  0.00     0.080 C 
HETATM    2  C4  UNL     1      80.741  63.684  -8.085  1.00  0.00     0.006 C 
HETATM    3  C5  UNL     1      81.729  63.683  -6.988  1.00  0.00     0.011 C 
HETATM    4  C6  UNL     1      80.705  62.415  -8.912  1.00  0.00     0.114 C 
HETATM    5  S1  UNL     1      79.333  62.853  -9.999  1.00  0.00     0.025 S 
HETATM    6  O2  UNL     1      79.904  63.600 -11.389  1.00  0.00    -0.257 OA
HETATM    7  C7  UNL     1      78.572  64.123  -8.967  1.00  0.00     0.046 C 
HETATM    8  C8  UNL     1      77.098  63.822  -8.925  1.00  0.00     0.030 C 
ENDROOT
BRANCH   7   9
HETATM    9  C9  UNL     1      78.831  65.488  -9.555  1.00  0.00     0.049 C 
BRANCH   9  10
HETATM   10  C10 UNL     1      77.645  66.122 -10.221  1.00  0.00     0.165 C 
BRANCH  10  11
HETATM   11  O3  UNL     1      77.873  65.963 -11.617  1.00  0.00    -0.401 OA
ATOM     12  H3  UNL     1      77.010  65.982 -12.013  1.00  0.00     0.209 HD
ENDBRANCH  10  11
ENDBRANCH   9  10
ENDBRANCH   7   9
BRANCH   1  13
HETATM   13  C2  UNL     1      78.779  62.902  -6.784  1.00  0.00     0.129 C 
HETATM   14  C1  UNL     1      77.926  63.222  -5.597  1.00  0.00     0.091 C 
HETATM   15  O1  UNL     1      78.989  61.708  -6.919  1.00  0.00    -0.298 OA
ENDBRANCH   1  13
TORSDOF 4
ENDMDL
MODEL 5
REMARK VINA RESULT: -3.974694258      2.803      4.722
REMARK  4 active torsions:
REMARK  status: ('A' for Active; 'I' for Inactive)
REMARK    1  A    between atoms: C2_2  and  C3_4 
REMARK    2  A    between atoms: C7_10  and  C9_12 
REMARK    3  A    between atoms: C9_12  and  C10_13 
REMARK    4  A    between atoms: C10_13  and  O3_14 
ROOT
HETATM    1  C3  UNL     1      78.683  64.127  -8.528  1.00  0.00     0.080 C 
HETATM    2  C4  UNL     1      79.088  62.937  -9.366  1.00  0.00     0.006 C 
HETATM    3  C5  UNL     1      79.889  61.901  -8.684  1.00  0.00     0.011 C 
HETATM    4  C6  UNL     1      77.810  62.435 -10.006  1.00  0.00     0.114 C 
HETATM    5  S1  UNL     1      77.171  64.020 -10.585  1.00  0.00     0.025 S 
HETATM    6  O2  UNL     1      77.695  64.325 -12.150  1.00  0.00    -0.257 OA
HETATM    7  C7  UNL     1      78.099  65.101  -9.478  1.00  0.00     0.046 C 
HETATM    8  C8  UNL     1      77.112  66.079  -8.899  1.00  0.00     0.030 C 
ENDROOT
BRANCH   7   9
HETATM    9  C9  UNL     1      79.185  65.815 -10.243  1.00  0.00     0.049 C 
BRANCH   9  10
HETATM   10  C10 UNL     1      78.872  67.238 -10.602  1.00  0.00     0.165 C 
BRANCH  10  11
HETATM   11  O3  UNL     1      78.334  67.181 -11.918  1.00  0.00    -0.401 OA
ATOM     12  H3  UNL     1      78.575  66.323 -12.248  1.00  0.00     0.209 HD
ENDBRANCH  10  11
ENDBRANCH   9  10
ENDBRANCH   7   9
BRANCH   1  13
HETATM   13  C2  UNL     1      77.801  63.728  -7.397  1.00  0.00     0.129 C 
HETATM   14  C1  UNL     1      78.207  63.894  -5.966  1.00  0.00     0.091 C 
HETATM   15  O1  UNL     1      76.691  63.240  -7.530  1.00  0.00    -0.298 OA
ENDBRANCH   1  13
TORSDOF 4
ENDMDL
