MODEL 1
REMARK VINA RESULT: -6.723469305      0.000      0.000
REMARK  4 active torsions:
REMARK  status: ('A' for Active; 'I' for Inactive)
REMARK    1  A    between atoms: C11_13  and  C12_14 
REMARK    2  A    between atoms: C12_14  and  C13_16 
REMARK    3  A    between atoms: C13_16  and  N3_19 
REMARK    4  A    between atoms: N3_19  and  N4_20 
ROOT
HETATM    1  C13 UNL     1      -6.633  26.693  35.108  1.00  0.00     0.260 C 
HETATM    2  C14 UNL     1      -6.731  26.660  36.509  1.00  0.00     0.139 C 
HETATM    3  N2  UNL     1      -6.833  26.626  37.662  1.00  0.00    -0.188 NA
ENDROOT
BRANCH   1   4
HETATM    4  C12 UNL     1      -7.684  26.196  34.165  1.00  0.00     0.238 C 
HETATM    5  O1  UNL     1      -7.074  25.240  33.631  1.00  0.00    -0.283 OA
BRANCH   4   6
HETATM    6  C11 UNL     1      -8.981  26.662  33.918  1.00  0.00     0.051 A 
HETATM    7  C4  UNL     1      -9.239  27.836  33.010  1.00  0.00    -0.010 A 
HETATM    8  C2  UNL     1      -8.532  28.041  31.931  1.00  0.00    -0.076 C 
HETATM    9  C5  UNL     1     -10.544  28.551  33.139  1.00  0.00    -0.028 A 
HETATM   10  C1  UNL     1      -9.111  29.002  30.869  1.00  0.00     0.044 C 
HETATM   11  C3  UNL     1      -7.280  27.520  31.371  1.00  0.00     0.044 C 
HETATM   12  C6  UNL     1     -10.830  29.836  32.510  1.00  0.00     0.051 C 
HETATM   13  C7  UNL     1     -11.436  28.101  34.030  1.00  0.00     0.012 A 
HETATM   14  C8  UNL     1     -12.751  28.798  34.176  1.00  0.00     0.068 C 
HETATM   15  N1  UNL     1     -11.189  27.003  34.846  1.00  0.00    -0.362 N 
HETATM   16  C9  UNL     1      -9.942  26.282  34.778  1.00  0.00     0.020 A 
ATOM     17  H1  UNL     1     -11.904  26.701  35.506  1.00  0.00     0.165 HD
HETATM   18  C10 UNL     1      -9.837  25.051  35.540  1.00  0.00     0.069 C 
ENDBRANCH   4   6
ENDBRANCH   1   4
BRANCH   1  19
HETATM   19  N3  UNL     1      -5.563  27.073  34.613  1.00  0.00    -0.317 NA
BRANCH  19  20
HETATM   20  N4  UNL     1      -4.502  27.454  34.084  1.00  0.00    -0.279 N 
ATOM     21  H42 UNL     1      -5.385  27.308  33.596  1.00  0.00     0.191 HD
ATOM     22  H41 UNL     1      -3.620  27.765  33.676  1.00  0.00     0.191 HD
ENDBRANCH  19  20
ENDBRANCH   1  19
TORSDOF 4
ENDMDL
MODEL 2
REMARK VINA RESULT: -6.191478087      1.602      2.027
REMARK  4 active torsions:
REMARK  status: ('A' for Active; 'I' for Inactive)
REMARK    1  A    between atoms: C11_13  and  C12_14 
REMARK    2  A    between atoms: C12_14  and  C13_16 
REMARK    3  A    between atoms: C13_16  and  N3_19 
REMARK    4  A    between atoms: N3_19  and  N4_20 
ROOT
HETATM    1  C13 UNL     1      -6.334  25.602  33.330  1.00  0.00     0.260 C 
HETATM    2  C14 UNL     1      -6.816  24.387  32.817  1.00  0.00     0.139 C 
HETATM    3  N2  UNL     1      -7.234  23.391  32.400  1.00  0.00    -0.188 NA
ENDROOT
BRANCH   1   4
HETATM    4  C12 UNL     1      -7.193  26.726  33.819  1.00  0.00     0.238 C 
HETATM    5  O1  UNL     1      -6.353  27.383  34.478  1.00  0.00    -0.283 OA
BRANCH   4   6
HETATM    6  C11 UNL     1      -8.556  26.982  33.623  1.00  0.00     0.051 A 
HETATM    7  C4  UNL     1      -9.030  28.020  32.641  1.00  0.00    -0.010 A 
HETATM    8  C2  UNL     1      -8.423  28.222  31.503  1.00  0.00    -0.076 C 
HETATM    9  C5  UNL     1     -10.417  28.556  32.799  1.00  0.00    -0.028 A 
HETATM   10  C1  UNL     1      -9.193  28.992  30.407  1.00  0.00     0.044 C 
HETATM   11  C3  UNL     1      -7.142  27.831  30.903  1.00  0.00     0.044 C 
HETATM   12  C6  UNL     1     -10.920  29.726  32.087  1.00  0.00     0.051 C 
HETATM   13  C7  UNL     1     -11.183  28.071  33.783  1.00  0.00     0.012 A 
HETATM   14  C8  UNL     1     -12.574  28.588  33.960  1.00  0.00     0.068 C 
HETATM   15  N1  UNL     1     -10.734  27.097  34.668  1.00  0.00    -0.362 N 
HETATM   16  C9  UNL     1      -9.403  26.553  34.576  1.00  0.00     0.020 A 
ATOM     17  H1  UNL     1     -11.361  26.760  35.399  1.00  0.00     0.165 HD
HETATM   18  C10 UNL     1      -9.078  25.423  35.427  1.00  0.00     0.069 C 
ENDBRANCH   4   6
ENDBRANCH   1   4
BRANCH   1  19
HETATM   19  N3  UNL     1      -5.111  25.802  33.291  1.00  0.00    -0.317 NA
BRANCH  19  20
HETATM   20  N4  UNL     1      -3.880  25.986  33.280  1.00  0.00    -0.279 N 
ATOM     21  H42 UNL     1      -4.436  25.759  34.105  1.00  0.00     0.191 HD
ATOM     22  H41 UNL     1      -2.872  26.141  33.245  1.00  0.00     0.191 HD
ENDBRANCH  19  20
ENDBRANCH   1  19
TORSDOF 4
ENDMDL
MODEL 3
REMARK VINA RESULT: -6.155195449      2.199      3.963
REMARK  4 active torsions:
REMARK  status: ('A' for Active; 'I' for Inactive)
REMARK    1  A    between atoms: C11_13  and  C12_14 
REMARK    2  A    between atoms: C12_14  and  C13_16 
REMARK    3  A    between atoms: C13_16  and  N3_19 
REMARK    4  A    between atoms: N3_19  and  N4_20 
ROOT
HETATM    1  C13 UNL     1      -6.766  25.815  31.661  1.00  0.00     0.260 C 
HETATM    2  C14 UNL     1      -7.571  24.863  31.015  1.00  0.00     0.139 C 
HETATM    3  N2  UNL     1      -8.253  24.091  30.486  1.00  0.00    -0.188 NA
ENDROOT
BRANCH   1   4
HETATM    4  C12 UNL     1      -7.237  27.153  32.137  1.00  0.00     0.238 C 
HETATM    5  O1  UNL     1      -6.288  27.876  31.756  1.00  0.00    -0.283 OA
BRANCH   4   6
HETATM    6  C11 UNL     1      -8.398  27.516  32.831  1.00  0.00     0.051 A 
HETATM    7  C4  UNL     1      -8.748  26.902  34.160  1.00  0.00    -0.010 A 
HETATM    8  C2  UNL     1      -7.835  26.605  35.045  1.00  0.00    -0.076 C 
HETATM    9  C5  UNL     1     -10.169  26.980  34.618  1.00  0.00    -0.028 A 
HETATM   10  C1  UNL     1      -8.299  26.369  36.500  1.00  0.00     0.044 C 
HETATM   11  C3  UNL     1      -6.372  26.495  35.059  1.00  0.00     0.044 C 
HETATM   12  C6  UNL     1     -10.698  26.225  35.749  1.00  0.00     0.051 C 
HETATM   13  C7  UNL     1     -11.057  27.617  33.847  1.00  0.00     0.012 A 
HETATM   14  C8  UNL     1     -12.483  27.712  34.285  1.00  0.00     0.068 C 
HETATM   15  N1  UNL     1     -10.711  28.197  32.632  1.00  0.00    -0.362 N 
HETATM   16  C9  UNL     1      -9.361  28.141  32.129  1.00  0.00     0.020 A 
ATOM     17  H1  UNL     1     -11.427  28.673  32.084  1.00  0.00     0.165 HD
HETATM   18  C10 UNL     1      -9.053  28.917  30.942  1.00  0.00     0.069 C 
ENDBRANCH   4   6
ENDBRANCH   1   4
BRANCH   1  19
HETATM   19  N3  UNL     1      -5.554  25.573  31.763  1.00  0.00    -0.317 NA
BRANCH  19  20
HETATM   20  N4  UNL     1      -4.336  25.352  31.891  1.00  0.00    -0.279 N 
ATOM     21  H42 UNL     1      -4.840  26.138  32.302  1.00  0.00     0.191 HD
ATOM     22  H41 UNL     1      -3.341  25.148  31.981  1.00  0.00     0.191 HD
ENDBRANCH  19  20
ENDBRANCH   1  19
TORSDOF 4
ENDMDL
MODEL 4
REMARK VINA RESULT: -6.128841971      1.726      2.279
REMARK  4 active torsions:
REMARK  status: ('A' for Active; 'I' for Inactive)
REMARK    1  A    between atoms: C11_13  and  C12_14 
REMARK    2  A    between atoms: C12_14  and  C13_16 
REMARK    3  A    between atoms: C13_16  and  N3_19 
REMARK    4  A    between atoms: N3_19  and  N4_20 
ROOT
HETATM    1  C13 UNL     1      -6.415  25.535  33.269  1.00  0.00     0.260 C 
HETATM    2  C14 UNL     1      -5.014  25.565  33.173  1.00  0.00     0.139 C 
HETATM    3  N2  UNL     1      -3.859  25.611  33.101  1.00  0.00    -0.188 NA
ENDROOT
BRANCH   1   4
HETATM    4  C12 UNL     1      -7.258  26.634  33.836  1.00  0.00     0.238 C 
HETATM    5  O1  UNL     1      -6.422  27.198  34.581  1.00  0.00    -0.283 OA
BRANCH   4   6
HETATM    6  C11 UNL     1      -8.605  26.951  33.624  1.00  0.00     0.051 A 
HETATM    7  C4  UNL     1      -9.021  28.002  32.629  1.00  0.00    -0.010 A 
HETATM    8  C2  UNL     1      -8.393  28.167  31.496  1.00  0.00    -0.076 C 
HETATM    9  C5  UNL     1     -10.383  28.602  32.769  1.00  0.00    -0.028 A 
HETATM   10  C1  UNL     1      -9.116  28.962  30.386  1.00  0.00     0.044 C 
HETATM   11  C3  UNL     1      -7.125  27.712  30.913  1.00  0.00     0.044 C 
HETATM   12  C6  UNL     1     -10.824  29.788  32.042  1.00  0.00     0.051 C 
HETATM   13  C7  UNL     1     -11.181  28.160  33.747  1.00  0.00     0.012 A 
HETATM   14  C8  UNL     1     -12.549  28.742  33.906  1.00  0.00     0.068 C 
HETATM   15  N1  UNL     1     -10.787  27.174  34.645  1.00  0.00    -0.362 N 
HETATM   16  C9  UNL     1      -9.481  26.568  34.571  1.00  0.00     0.020 A 
ATOM     17  H1  UNL     1     -11.436  26.872  35.371  1.00  0.00     0.165 HD
HETATM   18  C10 UNL     1      -9.217  25.432  35.434  1.00  0.00     0.069 C 
ENDBRANCH   4   6
ENDBRANCH   1   4
BRANCH   1  19
HETATM   19  N3  UNL     1      -6.994  24.487  32.949  1.00  0.00    -0.317 NA
BRANCH  19  20
HETATM   20  N4  UNL     1      -7.601  23.443  32.646  1.00  0.00    -0.279 N 
ATOM     21  H42 UNL     1      -6.776  23.806  32.168  1.00  0.00     0.191 HD
ATOM     22  H41 UNL     1      -8.117  22.593  32.419  1.00  0.00     0.191 HD
ENDBRANCH  19  20
ENDBRANCH   1  19
TORSDOF 4
ENDMDL
MODEL 5
REMARK VINA RESULT: -5.951990188      3.595      5.200
REMARK  4 active torsions:
REMARK  status: ('A' for Active; 'I' for Inactive)
REMARK    1  A    between atoms: C11_13  and  C12_14 
REMARK    2  A    between atoms: C12_14  and  C13_16 
REMARK    3  A    between atoms: C13_16  and  N3_19 
REMARK    4  A    between atoms: N3_19  and  N4_20 
ROOT
HETATM    1  C13 UNL     1      -5.408  26.878  33.722  1.00  0.00     0.260 C 
HETATM    2  C14 UNL     1      -6.178  26.739  34.888  1.00  0.00     0.139 C 
HETATM    3  N2  UNL     1      -6.828  26.615  35.838  1.00  0.00    -0.188 NA
ENDROOT
BRANCH   1   4
HETATM    4  C12 UNL     1      -5.752  26.281  32.393  1.00  0.00     0.238 C 
HETATM    5  O1  UNL     1      -5.018  26.964  31.641  1.00  0.00    -0.283 OA
BRANCH   4   6
HETATM    6  C11 UNL     1      -6.651  25.261  32.058  1.00  0.00     0.051 A 
HETATM    7  C4  UNL     1      -6.187  23.847  31.822  1.00  0.00    -0.010 A 
HETATM    8  C2  UNL     1      -5.223  23.311  32.521  1.00  0.00    -0.076 C 
HETATM    9  C5  UNL     1      -7.082  22.934  31.049  1.00  0.00    -0.028 A 
HETATM   10  C1  UNL     1      -5.093  21.772  32.499  1.00  0.00     0.044 C 
HETATM   11  C3  UNL     1      -4.194  23.795  33.449  1.00  0.00     0.044 C 
HETATM   12  C6  UNL     1      -6.665  21.633  30.536  1.00  0.00     0.051 C 
HETATM   13  C7  UNL     1      -8.264  23.400  30.628  1.00  0.00     0.012 A 
HETATM   14  C8  UNL     1      -9.178  22.505  29.854  1.00  0.00     0.068 C 
HETATM   15  N1  UNL     1      -8.684  24.702  30.873  1.00  0.00    -0.362 N 
HETATM   16  C9  UNL     1      -7.859  25.634  31.599  1.00  0.00     0.020 A 
ATOM     17  H1  UNL     1      -9.596  25.005  30.531  1.00  0.00     0.165 HD
HETATM   18  C10 UNL     1      -8.444  26.913  31.957  1.00  0.00     0.069 C 
ENDBRANCH   4   6
ENDBRANCH   1   4
BRANCH   1  19
HETATM   19  N3  UNL     1      -4.316  27.456  33.815  1.00  0.00    -0.317 NA
BRANCH  19  20
HETATM   20  N4  UNL     1      -3.217  28.039  33.876  1.00  0.00    -0.279 N 
ATOM     21  H42 UNL     1      -3.348  27.028  33.838  1.00  0.00     0.191 HD
ATOM     22  H41 UNL     1      -2.331  28.541  33.926  1.00  0.00     0.191 HD
ENDBRANCH  19  20
ENDBRANCH   1  19
TORSDOF 4
ENDMDL
