MODEL 1
REMARK VINA RESULT: -5.314401749      0.000      0.000
REMARK  3 active torsions:
REMARK  status: ('A' for Active; 'I' for Inactive)
REMARK    1  A    between atoms: C2_2  and  C3_3 
REMARK       I    between atoms: C3_3  and  N1_5 
REMARK    2  A    between atoms: N1_5  and  C4_7 
REMARK    3  A    between atoms: C6_11  and  C7_12 
ROOT
HETATM    1  C4  UNL     1      57.580  23.954 101.391  1.00  0.00     0.210 C 
HETATM    2  C5  UNL     1      57.719  22.601 102.025  1.00  0.00     0.247 C 
HETATM    3  O2  UNL     1      58.612  21.742 102.135  1.00  0.00    -0.271 OA
HETATM    4  N2  UNL     1      56.388  22.743 102.435  1.00  0.00    -0.325 N 
HETATM    5  C6  UNL     1      55.256  22.627 103.255  1.00  0.00     0.121 C 
HETATM    6  C9  UNL     1      54.062  23.290 102.696  1.00  0.00     0.105 C 
HETATM    7  S1  UNL     1      54.816  24.530 101.600  1.00  0.00    -0.139 SA
HETATM    8  C10 UNL     1      56.206  23.445 101.175  1.00  0.00     0.182 C 
ENDROOT
BRANCH   1   9
HETATM    9  N1  UNL     1      57.736  25.049 102.312  1.00  0.00    -0.342 N 
HETATM   10  C3  UNL     1      58.532  26.145 101.941  1.00  0.00     0.241 C 
HETATM   11  O1  UNL     1      59.093  26.162 100.829  1.00  0.00    -0.269 OA
ATOM     12  H1  UNL     1      57.275  25.029 103.222  1.00  0.00     0.163 HD
BRANCH  10  13
HETATM   13  C2  UNL     1      58.723  27.277 102.833  1.00  0.00     0.064 C 
HETATM   14  C1  UNL     1      59.624  27.289 103.798  1.00  0.00     0.017 C 
ENDBRANCH  10  13
ENDBRANCH   1   9
BRANCH   5  15
HETATM   15  C7  UNL     1      55.016  21.156 103.515  1.00  0.00     0.006 C 
HETATM   16  C8  UNL     1      56.005  20.361 103.895  1.00  0.00     0.054 C 
HETATM   17 BR1  UNL     1      55.779  18.509 104.239  1.00  0.00    -0.064 Br
ENDBRANCH   5  15
TORSDOF 3
ENDMDL
MODEL 2
REMARK VINA RESULT: -5.063525195      5.985      7.519
REMARK  3 active torsions:
REMARK  status: ('A' for Active; 'I' for Inactive)
REMARK    1  A    between atoms: C2_2  and  C3_3 
REMARK       I    between atoms: C3_3  and  N1_5 
REMARK    2  A    between atoms: N1_5  and  C4_7 
REMARK    3  A    between atoms: C6_11  and  C7_12 
ROOT
HETATM    1  C4  UNL     1      59.656  26.991 103.792  1.00  0.00     0.210 C 
HETATM    2  C5  UNL     1      60.869  26.819 104.659  1.00  0.00     0.247 C 
HETATM    3  O2  UNL     1      61.649  25.894 104.948  1.00  0.00    -0.271 OA
HETATM    4  N2  UNL     1      60.724  28.170 104.996  1.00  0.00    -0.325 N 
HETATM    5  C6  UNL     1      61.100  29.480 105.329  1.00  0.00     0.121 C 
HETATM    6  C9  UNL     1      59.952  30.394 105.482  1.00  0.00     0.105 C 
HETATM    7  S1  UNL     1      58.691  29.567 104.464  1.00  0.00    -0.139 SA
HETATM    8  C10 UNL     1      59.297  27.912 104.895  1.00  0.00     0.182 C 
ENDROOT
BRANCH   1   9
HETATM    9  N1  UNL     1      59.935  27.583 102.510  1.00  0.00    -0.342 N 
HETATM   10  C3  UNL     1      59.097  27.282 101.423  1.00  0.00     0.241 C 
HETATM   11  O1  UNL     1      58.129  26.513 101.575  1.00  0.00    -0.269 OA
ATOM     12  H1  UNL     1      60.729  28.212 102.392  1.00  0.00     0.163 HD
BRANCH  10  13
HETATM   13  C2  UNL     1      59.332  27.851 100.107  1.00  0.00     0.064 C 
HETATM   14  C1  UNL     1      59.468  29.148  99.897  1.00  0.00     0.017 C 
ENDBRANCH  10  13
ENDBRANCH   1   9
BRANCH   5  15
HETATM   15  C7  UNL     1      61.945  29.418 106.583  1.00  0.00     0.006 C 
HETATM   16  C8  UNL     1      61.415  29.650 107.774  1.00  0.00     0.054 C 
HETATM   17 BR1  UNL     1      62.412  29.590 109.387  1.00  0.00    -0.064 Br
ENDBRANCH   5  15
TORSDOF 3
ENDMDL
MODEL 3
REMARK VINA RESULT: -4.876349298      5.008      7.634
REMARK  3 active torsions:
REMARK  status: ('A' for Active; 'I' for Inactive)
REMARK    1  A    between atoms: C2_2  and  C3_3 
REMARK       I    between atoms: C3_3  and  N1_5 
REMARK    2  A    between atoms: N1_5  and  C4_7 
REMARK    3  A    between atoms: C6_11  and  C7_12 
ROOT
HETATM    1  C4  UNL     1      59.789  27.806 103.161  1.00  0.00     0.210 C 
HETATM    2  C5  UNL     1      59.353  28.987 103.977  1.00  0.00     0.247 C 
HETATM    3  O2  UNL     1      58.747  30.054 103.771  1.00  0.00    -0.271 OA
HETATM    4  N2  UNL     1      59.940  28.346 105.075  1.00  0.00    -0.325 N 
HETATM    5  C6  UNL     1      60.116  27.933 106.404  1.00  0.00     0.121 C 
HETATM    6  C9  UNL     1      61.271  27.034 106.586  1.00  0.00     0.105 C 
HETATM    7  S1  UNL     1      61.452  26.333 104.916  1.00  0.00    -0.139 SA
HETATM    8  C10 UNL     1      60.921  27.870 104.114  1.00  0.00     0.182 C 
ENDROOT
BRANCH   1   9
HETATM    9  N1  UNL     1      58.911  26.669 103.264  1.00  0.00    -0.342 N 
HETATM   10  C3  UNL     1      58.452  26.053 102.088  1.00  0.00     0.241 C 
HETATM   11  O1  UNL     1      58.804  26.488 100.976  1.00  0.00    -0.269 OA
ATOM     12  H1  UNL     1      58.626  26.317 104.178  1.00  0.00     0.163 HD
BRANCH  10  13
HETATM   13  C2  UNL     1      57.564  24.903 102.135  1.00  0.00     0.064 C 
HETATM   14  C1  UNL     1      57.711  23.848 101.355  1.00  0.00     0.017 C 
ENDBRANCH  10  13
ENDBRANCH   1   9
BRANCH   5  15
HETATM   15  C7  UNL     1      60.220  29.170 107.268  1.00  0.00     0.006 C 
HETATM   16  C8  UNL     1      61.316  29.914 107.263  1.00  0.00     0.054 C 
HETATM   17 BR1  UNL     1      61.517  31.478 108.318  1.00  0.00    -0.064 Br
ENDBRANCH   5  15
TORSDOF 3
ENDMDL
MODEL 4
REMARK VINA RESULT: -4.830517305      6.156      7.997
REMARK  3 active torsions:
REMARK  status: ('A' for Active; 'I' for Inactive)
REMARK    1  A    between atoms: C2_2  and  C3_3 
REMARK       I    between atoms: C3_3  and  N1_5 
REMARK    2  A    between atoms: N1_5  and  C4_7 
REMARK    3  A    between atoms: C6_11  and  C7_12 
ROOT
HETATM    1  C4  UNL     1      59.630  27.234 103.779  1.00  0.00     0.210 C 
HETATM    2  C5  UNL     1      60.931  27.102 104.516  1.00  0.00     0.247 C 
HETATM    3  O2  UNL     1      61.702  26.177 104.829  1.00  0.00    -0.271 OA
HETATM    4  N2  UNL     1      60.882  28.489 104.694  1.00  0.00    -0.325 N 
HETATM    5  C6  UNL     1      61.348  29.807 104.813  1.00  0.00     0.121 C 
HETATM    6  C9  UNL     1      60.265  30.795 104.980  1.00  0.00     0.105 C 
HETATM    7  S1  UNL     1      58.858  29.922 104.225  1.00  0.00    -0.139 SA
HETATM    8  C10 UNL     1      59.443  28.300 104.790  1.00  0.00     0.182 C 
ENDROOT
BRANCH   1   9
HETATM    9  N1  UNL     1      59.776  27.650 102.408  1.00  0.00    -0.342 N 
HETATM   10  C3  UNL     1      59.013  27.012 101.417  1.00  0.00     0.241 C 
HETATM   11  O1  UNL     1      58.224  26.099 101.726  1.00  0.00    -0.269 OA
ATOM     12  H1  UNL     1      60.424  28.398 102.161  1.00  0.00     0.163 HD
BRANCH  10  13
HETATM   13  C2  UNL     1      59.121  27.392 100.018  1.00  0.00     0.064 C 
HETATM   14  C1  UNL     1      59.326  28.635  99.624  1.00  0.00     0.017 C 
ENDBRANCH  10  13
ENDBRANCH   1   9
BRANCH   5  15
HETATM   15  C7  UNL     1      62.334  29.851 105.960  1.00  0.00     0.006 C 
HETATM   16  C8  UNL     1      63.355  30.695 105.948  1.00  0.00     0.054 C 
HETATM   17 BR1  UNL     1      64.630  30.806 107.350  1.00  0.00    -0.064 Br
ENDBRANCH   5  15
TORSDOF 3
ENDMDL
MODEL 5
REMARK VINA RESULT: -4.637867380      5.876      7.125
REMARK  3 active torsions:
REMARK  status: ('A' for Active; 'I' for Inactive)
REMARK    1  A    between atoms: C2_2  and  C3_3 
REMARK       I    between atoms: C3_3  and  N1_5 
REMARK    2  A    between atoms: N1_5  and  C4_7 
REMARK    3  A    between atoms: C6_11  and  C7_12 
ROOT
HETATM    1  C4  UNL     1      58.848  28.586 102.315  1.00  0.00     0.210 C 
HETATM    2  C5  UNL     1      59.163  27.352 103.109  1.00  0.00     0.247 C 
HETATM    3  O2  UNL     1      58.794  26.164 103.116  1.00  0.00    -0.271 OA
HETATM    4  N2  UNL     1      60.056  28.144 103.839  1.00  0.00    -0.325 N 
HETATM    5  C6  UNL     1      61.210  28.483 104.563  1.00  0.00     0.121 C 
HETATM    6  C9  UNL     1      61.248  29.901 104.967  1.00  0.00     0.105 C 
HETATM    7  S1  UNL     1      60.160  30.663 103.723  1.00  0.00    -0.139 SA
HETATM    8  C10 UNL     1      59.083  29.206 103.640  1.00  0.00     0.182 C 
ENDROOT
BRANCH   1   9
HETATM    9  N1  UNL     1      59.805  28.873 101.279  1.00  0.00    -0.342 N 
HETATM   10  C3  UNL     1      59.365  28.962  99.948  1.00  0.00     0.241 C 
HETATM   11  O1  UNL     1      58.161  28.793  99.676  1.00  0.00    -0.269 OA
ATOM     12  H1  UNL     1      60.790  29.010 101.508  1.00  0.00     0.163 HD
BRANCH  10  13
HETATM   13  C2  UNL     1      60.289  29.250  98.864  1.00  0.00     0.064 C 
HETATM   14  C1  UNL     1      61.099  30.292  98.865  1.00  0.00     0.017 C 
ENDBRANCH  10  13
ENDBRANCH   1   9
BRANCH   5  15
HETATM   15  C7  UNL     1      61.304  27.553 105.752  1.00  0.00     0.006 C 
HETATM   16  C8  UNL     1      61.542  28.023 106.967  1.00  0.00     0.054 C 
HETATM   17 BR1  UNL     1      61.673  26.917 108.504  1.00  0.00    -0.064 Br
ENDBRANCH   5  15
TORSDOF 3
ENDMDL
