MODEL 1
REMARK VINA RESULT: -6.976122095      0.000      0.000
REMARK  4 active torsions:
REMARK  status: ('A' for Active; 'I' for Inactive)
REMARK    1  A    between atoms: C1_2  and  C2_3 
REMARK       I    between atoms: C1_2  and  N1_14 
REMARK    2  A    between atoms: C2_3  and  S1_4 
REMARK    3  A    between atoms: S1_4  and  C3_7 
REMARK    4  A    between atoms: N1_14  and  C9_16 
ROOT
HETATM    1  O1  UNL     1      58.301  23.509 101.328  1.00  0.00    -0.272 OA
HETATM    2  C1  UNL     1      57.290  24.212 101.669  1.00  0.00     0.236 C 
HETATM    3  N1  UNL     1      57.512  25.242 102.579  1.00  0.00    -0.326 N 
ATOM      4  H1  UNL     1      56.905  25.231 103.399  1.00  0.00     0.169 HD
ENDROOT
BRANCH   2   5
HETATM    5  C2  UNL     1      55.988  23.853 101.061  1.00  0.00     0.248 C 
BRANCH   5   6
HETATM    6  S1  UNL     1      54.938  23.226 102.358  1.00  0.00     0.183 S 
HETATM    7  O2  UNL     1      55.311  21.839 102.716  1.00  0.00    -0.222 OA
HETATM    8  O3  UNL     1      55.205  24.136 103.555  1.00  0.00    -0.222 OA
BRANCH   6   9
HETATM    9  C3  UNL     1      53.259  23.332 101.942  1.00  0.00     0.059 A 
HETATM   10  C4  UNL     1      52.305  22.458 102.391  1.00  0.00     0.026 A 
HETATM   11  C5  UNL     1      50.991  22.616 102.016  1.00  0.00     0.044 A 
HETATM   12  C6  UNL     1      50.595  23.663 101.178  1.00  0.00     0.116 A 
HETATM   13  F1  UNL     1      49.315  23.858 100.781  1.00  0.00    -0.206 F 
HETATM   14  C7  UNL     1      51.544  24.559 100.715  1.00  0.00     0.044 A 
HETATM   15  C8  UNL     1      52.851  24.362 101.114  1.00  0.00     0.026 A 
ENDBRANCH   6   9
ENDBRANCH   5   6
ENDBRANCH   2   5
BRANCH   3  16
HETATM   16  C9  UNL     1      58.357  26.196 102.546  1.00  0.00     0.037 A 
HETATM   17  C10 UNL     1      59.255  26.499 103.539  1.00  0.00     0.046 A 
HETATM   18  C11 UNL     1      60.092  27.581 103.375  1.00  0.00     0.090 A 
HETATM   19  N2  UNL     1      60.084  28.376 102.280  1.00  0.00    -0.375 N 
HETATM   20  C12 UNL     1      59.214  28.097 101.295  1.00  0.00     0.090 A 
ATOM     21  H2  UNL     1      60.723  29.167 102.204  1.00  0.00     0.164 HD
HETATM   22  C13 UNL     1      58.370  27.026 101.432  1.00  0.00     0.046 A 
ENDBRANCH   3  16
TORSDOF 4
ENDMDL
MODEL 2
REMARK VINA RESULT: -6.826117719      0.117      1.070
REMARK  4 active torsions:
REMARK  status: ('A' for Active; 'I' for Inactive)
REMARK    1  A    between atoms: C1_2  and  C2_3 
REMARK       I    between atoms: C1_2  and  N1_14 
REMARK    2  A    between atoms: C2_3  and  S1_4 
REMARK    3  A    between atoms: S1_4  and  C3_7 
REMARK    4  A    between atoms: N1_14  and  C9_16 
ROOT
HETATM    1  O1  UNL     1      58.326  23.466 101.419  1.00  0.00    -0.272 OA
HETATM    2  C1  UNL     1      57.310  24.194 101.684  1.00  0.00     0.236 C 
HETATM    3  N1  UNL     1      57.501  25.246 102.576  1.00  0.00    -0.326 N 
ATOM      4  H1  UNL     1      56.849  25.268 103.362  1.00  0.00     0.169 HD
ENDROOT
BRANCH   2   5
HETATM    5  C2  UNL     1      56.037  23.839 101.015  1.00  0.00     0.248 C 
BRANCH   5   6
HETATM    6  S1  UNL     1      54.900  23.285 102.272  1.00  0.00     0.183 S 
HETATM    7  O2  UNL     1      55.170  21.878 102.646  1.00  0.00    -0.222 OA
HETATM    8  O3  UNL     1      55.178  24.181 103.477  1.00  0.00    -0.222 OA
BRANCH   6   9
HETATM    9  C3  UNL     1      53.249  23.496 101.792  1.00  0.00     0.059 A 
HETATM   10  C4  UNL     1      52.820  24.483 100.944  1.00  0.00     0.026 A 
HETATM   11  C5  UNL     1      51.490  24.577 100.609  1.00  0.00     0.044 A 
HETATM   12  C6  UNL     1      50.546  23.678 101.117  1.00  0.00     0.116 A 
HETATM   13  F1  UNL     1      49.227  23.733 100.817  1.00  0.00    -0.206 F 
HETATM   14  C7  UNL     1      50.960  22.672 101.973  1.00  0.00     0.044 A 
HETATM   15  C8  UNL     1      52.303  22.615 102.285  1.00  0.00     0.026 A 
ENDBRANCH   6   9
ENDBRANCH   5   6
ENDBRANCH   2   5
BRANCH   3  16
HETATM   16  C9  UNL     1      58.363  26.185 102.564  1.00  0.00     0.037 A 
HETATM   17  C10 UNL     1      59.273  26.444 103.558  1.00  0.00     0.046 A 
HETATM   18  C11 UNL     1      60.129  27.514 103.418  1.00  0.00     0.090 A 
HETATM   19  N2  UNL     1      60.129  28.339 102.345  1.00  0.00    -0.375 N 
HETATM   20  C12 UNL     1      59.246  28.104 101.360  1.00  0.00     0.090 A 
ATOM     21  H2  UNL     1      60.781  29.120 102.287  1.00  0.00     0.164 HD
HETATM   22  C13 UNL     1      58.384  27.045 101.474  1.00  0.00     0.046 A 
ENDBRANCH   3  16
TORSDOF 4
ENDMDL
MODEL 3
REMARK VINA RESULT: -5.875523009      6.409      8.269
REMARK  4 active torsions:
REMARK  status: ('A' for Active; 'I' for Inactive)
REMARK    1  A    between atoms: C1_2  and  C2_3 
REMARK       I    between atoms: C1_2  and  N1_14 
REMARK    2  A    between atoms: C2_3  and  S1_4 
REMARK    3  A    between atoms: S1_4  and  C3_7 
REMARK    4  A    between atoms: N1_14  and  C9_16 
ROOT
HETATM    1  O1  UNL     1      62.187  29.919 103.802  1.00  0.00    -0.272 OA
HETATM    2  C1  UNL     1      61.169  29.932 104.574  1.00  0.00     0.236 C 
HETATM    3  N1  UNL     1      59.925  29.725 103.984  1.00  0.00    -0.326 N 
ATOM      4  H1  UNL     1      59.224  30.436 104.195  1.00  0.00     0.169 HD
ENDROOT
BRANCH   2   5
HETATM    5  C2  UNL     1      61.422  30.169 106.014  1.00  0.00     0.248 C 
BRANCH   5   6
HETATM    6  S1  UNL     1      61.179  28.624 106.869  1.00  0.00     0.183 S 
HETATM    7  O2  UNL     1      61.360  27.477 105.949  1.00  0.00    -0.222 OA
HETATM    8  O3  UNL     1      62.274  28.586 107.932  1.00  0.00    -0.222 OA
BRANCH   6   9
HETATM    9  C3  UNL     1      59.637  28.553 107.656  1.00  0.00     0.059 A 
HETATM   10  C4  UNL     1      58.529  27.959 107.113  1.00  0.00     0.026 A 
HETATM   11  C5  UNL     1      57.342  27.943 107.808  1.00  0.00     0.044 A 
HETATM   12  C6  UNL     1      57.234  28.524 109.075  1.00  0.00     0.116 A 
HETATM   13  F1  UNL     1      56.087  28.534 109.795  1.00  0.00    -0.206 F 
HETATM   14  C7  UNL     1      58.342  29.128 109.643  1.00  0.00     0.044 A 
HETATM   15  C8  UNL     1      59.513  29.123 108.911  1.00  0.00     0.026 A 
ENDBRANCH   6   9
ENDBRANCH   5   6
ENDBRANCH   2   5
BRANCH   3  16
HETATM   16  C9  UNL     1      59.525  28.784 103.221  1.00  0.00     0.037 A 
HETATM   17  C10 UNL     1      59.230  27.505 103.622  1.00  0.00     0.046 A 
HETATM   18  C11 UNL     1      58.833  26.585 102.677  1.00  0.00     0.090 A 
HETATM   19  N2  UNL     1      58.716  26.866 101.358  1.00  0.00    -0.375 N 
HETATM   20  C12 UNL     1      59.000  28.112 100.944  1.00  0.00     0.090 A 
ATOM     21  H2  UNL     1      58.420  26.150 100.696  1.00  0.00     0.164 HD
HETATM   22  C13 UNL     1      59.396  29.048 101.864  1.00  0.00     0.046 A 
ENDBRANCH   3  16
TORSDOF 4
ENDMDL
MODEL 4
REMARK VINA RESULT: -5.649550409      4.073      8.026
REMARK  4 active torsions:
REMARK  status: ('A' for Active; 'I' for Inactive)
REMARK    1  A    between atoms: C1_2  and  C2_3 
REMARK       I    between atoms: C1_2  and  N1_14 
REMARK    2  A    between atoms: C2_3  and  S1_4 
REMARK    3  A    between atoms: S1_4  and  C3_7 
REMARK    4  A    between atoms: N1_14  and  C9_16 
ROOT
HETATM    1  O1  UNL     1      57.136  23.925 100.639  1.00  0.00    -0.272 OA
HETATM    2  C1  UNL     1      56.892  24.612 101.689  1.00  0.00     0.236 C 
HETATM    3  N1  UNL     1      55.557  24.891 101.967  1.00  0.00    -0.326 N 
ATOM      4  H1  UNL     1      55.345  25.878 102.116  1.00  0.00     0.169 HD
ENDROOT
BRANCH   2   5
HETATM    5  C2  UNL     1      58.059  25.041 102.495  1.00  0.00     0.248 C 
BRANCH   5   6
HETATM    6  S1  UNL     1      58.688  26.548 101.780  1.00  0.00     0.183 S 
HETATM    7  O2  UNL     1      59.463  26.266 100.550  1.00  0.00    -0.222 OA
HETATM    8  O3  UNL     1      57.447  27.356 101.410  1.00  0.00    -0.222 OA
BRANCH   6   9
HETATM    9  C3  UNL     1      59.628  27.460 102.913  1.00  0.00     0.059 A 
HETATM   10  C4  UNL     1      59.755  28.824 102.878  1.00  0.00     0.026 A 
HETATM   11  C5  UNL     1      60.519  29.472 103.820  1.00  0.00     0.044 A 
HETATM   12  C6  UNL     1      61.179  28.767 104.832  1.00  0.00     0.116 A 
HETATM   13  F1  UNL     1      61.942  29.361 105.779  1.00  0.00    -0.206 F 
HETATM   14  C7  UNL     1      61.061  27.389 104.887  1.00  0.00     0.044 A 
HETATM   15  C8  UNL     1      60.287  26.778 103.921  1.00  0.00     0.026 A 
ENDBRANCH   6   9
ENDBRANCH   5   6
ENDBRANCH   2   5
BRANCH   3  16
HETATM   16  C9  UNL     1      54.558  24.105 102.065  1.00  0.00     0.037 A 
HETATM   17  C10 UNL     1      53.284  24.379 101.635  1.00  0.00     0.046 A 
HETATM   18  C11 UNL     1      52.296  23.439 101.832  1.00  0.00     0.090 A 
HETATM   19  N2  UNL     1      52.507  22.245 102.434  1.00  0.00    -0.375 N 
HETATM   20  C12 UNL     1      53.746  21.956 102.862  1.00  0.00     0.090 A 
ATOM     21  H2  UNL     1      51.743  21.581 102.559  1.00  0.00     0.164 HD
HETATM   22  C13 UNL     1      54.749  22.873 102.677  1.00  0.00     0.046 A 
ENDBRANCH   3  16
TORSDOF 4
ENDMDL
MODEL 5
REMARK VINA RESULT: -5.634402276      3.635      6.545
REMARK  4 active torsions:
REMARK  status: ('A' for Active; 'I' for Inactive)
REMARK    1  A    between atoms: C1_2  and  C2_3 
REMARK       I    between atoms: C1_2  and  N1_14 
REMARK    2  A    between atoms: C2_3  and  S1_4 
REMARK    3  A    between atoms: S1_4  and  C3_7 
REMARK    4  A    between atoms: N1_14  and  C9_16 
ROOT
HETATM    1  O1  UNL     1      55.312  23.868 100.435  1.00  0.00    -0.272 OA
HETATM    2  C1  UNL     1      54.911  24.649 101.363  1.00  0.00     0.236 C 
HETATM    3  N1  UNL     1      53.568  25.018 101.343  1.00  0.00    -0.326 N 
ATOM      4  H1  UNL     1      53.398  26.024 101.378  1.00  0.00     0.169 HD
ENDROOT
BRANCH   2   5
HETATM    5  C2  UNL     1      55.918  25.080 102.360  1.00  0.00     0.248 C 
BRANCH   5   6
HETATM    6  S1  UNL     1      57.289  23.944 102.272  1.00  0.00     0.183 S 
HETATM    7  O2  UNL     1      57.759  23.791 100.876  1.00  0.00    -0.222 OA
HETATM    8  O3  UNL     1      58.395  24.595 103.099  1.00  0.00    -0.222 OA
BRANCH   6   9
HETATM    9  C3  UNL     1      56.903  22.406 102.971  1.00  0.00     0.059 A 
HETATM   10  C4  UNL     1      57.834  21.555 103.505  1.00  0.00     0.026 A 
HETATM   11  C5  UNL     1      57.441  20.352 104.045  1.00  0.00     0.044 A 
HETATM   12  C6  UNL     1      56.096  19.969 104.068  1.00  0.00     0.116 A 
HETATM   13  F1  UNL     1      55.664  18.796 104.587  1.00  0.00    -0.206 F 
HETATM   14  C7  UNL     1      55.140  20.816 103.535  1.00  0.00     0.044 A 
HETATM   15  C8  UNL     1      55.577  22.012 103.001  1.00  0.00     0.026 A 
ENDBRANCH   6   9
ENDBRANCH   5   6
ENDBRANCH   2   5
BRANCH   3  16
HETATM   16  C9  UNL     1      52.520  24.295 101.289  1.00  0.00     0.037 A 
HETATM   17  C10 UNL     1      51.511  24.424 100.368  1.00  0.00     0.046 A 
HETATM   18  C11 UNL     1      50.422  23.584 100.448  1.00  0.00     0.090 A 
HETATM   19  N2  UNL     1      50.282  22.626 101.394  1.00  0.00    -0.375 N 
HETATM   20  C12 UNL     1      51.258  22.482 102.305  1.00  0.00     0.090 A 
ATOM     21  H2  UNL     1      49.456  22.028 101.414  1.00  0.00     0.164 HD
HETATM   22  C13 UNL     1      52.354  23.304 102.247  1.00  0.00     0.046 A 
ENDBRANCH   3  16
TORSDOF 4
ENDMDL
