MODEL 1
REMARK VINA RESULT: -4.799410200      0.000      0.000
REMARK  6 active torsions:
REMARK  status: ('A' for Active; 'I' for Inactive)
REMARK    1  A    between atoms: C2_2  and  N1_4 
REMARK    2  A    between atoms: N1_4  and  N2_6 
REMARK    3  A    between atoms: C7_13  and  C8_14 
REMARK    4  A    between atoms: C7_13  and  N5_20 
REMARK    5  A    between atoms: C8_14  and  N3_16 
REMARK    6  A    between atoms: N3_16  and  N4_17 
ROOT
HETATM    1  N2  UNL     1      59.104  29.268 109.300  1.00  0.00    -0.305 N 
ATOM      2  H2  UNL     1      59.769  29.907 109.735  1.00  0.00     0.186 HD
HETATM    3  C3  UNL     1      59.470  28.626 108.248  1.00  0.00     0.057 C 
HETATM    4  C4  UNL     1      58.577  27.667 107.536  1.00  0.00     0.065 C 
HETATM    5  C5  UNL     1      58.758  28.128 106.099  1.00  0.00     0.088 C 
HETATM    6  C6  UNL     1      60.210  28.455 106.079  1.00  0.00     0.178 C 
HETATM    7  O1  UNL     1      60.863  28.568 105.073  1.00  0.00    -0.294 OA
HETATM    8  C7  UNL     1      60.722  28.619 107.493  1.00  0.00     0.297 C 
ENDROOT
BRANCH   8   9
HETATM    9  C8  UNL     1      61.506  27.411 107.836  1.00  0.00     0.133 C 
HETATM   10  C9  UNL     1      62.044  26.516 106.781  1.00  0.00     0.086 C 
BRANCH   9  11
HETATM   11  N3  UNL     1      61.757  27.088 109.024  1.00  0.00    -0.339 NA
BRANCH  11  12
HETATM   12  N4  UNL     1      62.309  26.824 110.114  1.00  0.00    -0.280 N 
ATOM     13  H42 UNL     1      62.498  25.858 109.846  1.00  0.00     0.191 HD
ATOM     14  H41 UNL     1      62.703  26.860 111.054  1.00  0.00     0.191 HD
ENDBRANCH  11  12
ENDBRANCH   9  11
ENDBRANCH   8   9
BRANCH   8  15
HETATM   15  N5  UNL     1      61.515  29.797 107.632  1.00  0.00     0.035 N 
HETATM   16  C10 UNL     1      61.573  30.277 109.005  1.00  0.00     0.297 C 
HETATM   17  C11 UNL     1      60.903  30.863 106.856  1.00  0.00     0.297 C 
HETATM   18 CL1  UNL     1      63.148  29.623 107.085  1.00  0.00     0.119 Cl
ENDBRANCH   8  15
BRANCH   1  19
HETATM   19  N1  UNL     1      57.838  29.131 109.877  1.00  0.00    -0.294 N 
ATOM     20  H1  UNL     1      57.669  28.326 110.481  1.00  0.00     0.187 HD
BRANCH  19  21
HETATM   21  C2  UNL     1      56.783  30.037 109.675  1.00  0.00     0.088 C 
HETATM   22  C1  UNL     1      56.930  31.449 110.082  1.00  0.00     0.083 C 
HETATM   23  S1  UNL     1      55.400  29.542 108.993  1.00  0.00    -0.064 SA
ENDBRANCH  19  21
ENDBRANCH   1  19
TORSDOF 6
ENDMDL
MODEL 2
REMARK VINA RESULT: -4.689857526      1.190      1.491
REMARK  6 active torsions:
REMARK  status: ('A' for Active; 'I' for Inactive)
REMARK    1  A    between atoms: C2_2  and  N1_4 
REMARK    2  A    between atoms: N1_4  and  N2_6 
REMARK    3  A    between atoms: C7_13  and  C8_14 
REMARK    4  A    between atoms: C7_13  and  N5_20 
REMARK    5  A    between atoms: C8_14  and  N3_16 
REMARK    6  A    between atoms: N3_16  and  N4_17 
ROOT
HETATM    1  N2  UNL     1      59.151  29.328 109.137  1.00  0.00    -0.305 N 
ATOM      2  H2  UNL     1      59.765  29.987 109.618  1.00  0.00     0.186 HD
HETATM    3  C3  UNL     1      59.629  28.650 108.156  1.00  0.00     0.057 C 
HETATM    4  C4  UNL     1      58.819  27.662 107.387  1.00  0.00     0.065 C 
HETATM    5  C5  UNL     1      59.155  28.070 105.962  1.00  0.00     0.088 C 
HETATM    6  C6  UNL     1      60.600  28.403 106.088  1.00  0.00     0.178 C 
HETATM    7  O1  UNL     1      61.359  28.482 105.155  1.00  0.00    -0.294 OA
HETATM    8  C7  UNL     1      60.955  28.621 107.541  1.00  0.00     0.297 C 
ENDROOT
BRANCH   8   9
HETATM    9  C8  UNL     1      61.699  27.431 108.012  1.00  0.00     0.133 C 
HETATM   10  C9  UNL     1      61.806  27.110 109.458  1.00  0.00     0.086 C 
BRANCH   9  11
HETATM   11  N3  UNL     1      62.268  26.638 107.221  1.00  0.00    -0.339 NA
BRANCH  11  12
HETATM   12  N4  UNL     1      62.532  25.782 106.349  1.00  0.00    -0.280 N 
ATOM     13  H42 UNL     1      62.264  25.005 106.954  1.00  0.00     0.191 HD
ATOM     14  H41 UNL     1      62.812  25.296 105.497  1.00  0.00     0.191 HD
ENDBRANCH  11  12
ENDBRANCH   9  11
ENDBRANCH   8   9
BRANCH   8  15
HETATM   15  N5  UNL     1      61.729  29.807 107.722  1.00  0.00     0.035 N 
HETATM   16  C10 UNL     1      61.834  30.202 109.119  1.00  0.00     0.297 C 
HETATM   17  C11 UNL     1      61.062  30.904 107.040  1.00  0.00     0.297 C 
HETATM   18 CL1  UNL     1      63.341  29.707 107.099  1.00  0.00     0.119 Cl
ENDBRANCH   8  15
BRANCH   1  19
HETATM   19  N1  UNL     1      57.830  29.207 109.578  1.00  0.00    -0.294 N 
ATOM     20  H1  UNL     1      57.622  28.500 110.283  1.00  0.00     0.187 HD
BRANCH  19  21
HETATM   21  C2  UNL     1      56.771  30.002 109.107  1.00  0.00     0.088 C 
HETATM   22  C1  UNL     1      55.400  29.456 109.057  1.00  0.00     0.083 C 
HETATM   23  S1  UNL     1      57.044  31.521 108.616  1.00  0.00    -0.064 SA
ENDBRANCH  19  21
ENDBRANCH   1  19
TORSDOF 6
ENDMDL
MODEL 3
REMARK VINA RESULT: -4.605743145      1.647      1.937
REMARK  6 active torsions:
REMARK  status: ('A' for Active; 'I' for Inactive)
REMARK    1  A    between atoms: C2_2  and  N1_4 
REMARK    2  A    between atoms: N1_4  and  N2_6 
REMARK    3  A    between atoms: C7_13  and  C8_14 
REMARK    4  A    between atoms: C7_13  and  N5_20 
REMARK    5  A    between atoms: C8_14  and  N3_16 
REMARK    6  A    between atoms: N3_16  and  N4_17 
ROOT
HETATM    1  N2  UNL     1      58.687  29.772 107.665  1.00  0.00    -0.305 N 
ATOM      2  H2  UNL     1      59.239  30.344 108.304  1.00  0.00     0.186 HD
HETATM    3  C3  UNL     1      59.305  29.046 106.804  1.00  0.00     0.057 C 
HETATM    4  C4  UNL     1      58.596  28.173 105.825  1.00  0.00     0.065 C 
HETATM    5  C5  UNL     1      59.319  28.545 104.541  1.00  0.00     0.088 C 
HETATM    6  C6  UNL     1      60.718  28.691 105.026  1.00  0.00     0.178 C 
HETATM    7  O1  UNL     1      61.686  28.680 104.309  1.00  0.00    -0.294 OA
HETATM    8  C7  UNL     1      60.729  28.853 106.530  1.00  0.00     0.297 C 
ENDROOT
BRANCH   8   9
HETATM    9  C8  UNL     1      61.184  27.574 107.122  1.00  0.00     0.133 C 
HETATM   10  C9  UNL     1      60.859  27.215 108.525  1.00  0.00     0.086 C 
BRANCH   9  11
HETATM   11  N3  UNL     1      61.857  26.735 106.473  1.00  0.00    -0.339 NA
BRANCH  11  12
HETATM   12  N4  UNL     1      62.500  25.731 106.099  1.00  0.00    -0.280 N 
ATOM     13  H42 UNL     1      62.549  25.344 107.042  1.00  0.00     0.191 HD
ATOM     14  H41 UNL     1      63.002  25.026 105.559  1.00  0.00     0.191 HD
ENDBRANCH  11  12
ENDBRANCH   9  11
ENDBRANCH   8   9
BRANCH   8  15
HETATM   15  N5  UNL     1      61.572  29.930 106.937  1.00  0.00     0.035 N 
HETATM   16  C10 UNL     1      61.271  30.402 108.281  1.00  0.00     0.297 C 
HETATM   17  C11 UNL     1      61.343  31.059 106.051  1.00  0.00     0.297 C 
HETATM   18 CL1  UNL     1      63.263  29.564 106.894  1.00  0.00     0.119 Cl
ENDBRANCH   8  15
BRANCH   1  19
HETATM   19  N1  UNL     1      57.293  29.817 107.766  1.00  0.00    -0.294 N 
ATOM     20  H1  UNL     1      56.778  30.355 107.070  1.00  0.00     0.187 HD
BRANCH  19  21
HETATM   21  C2  UNL     1      56.560  29.164 108.772  1.00  0.00     0.088 C 
HETATM   22  C1  UNL     1      56.390  27.698 108.731  1.00  0.00     0.083 C 
HETATM   23  S1  UNL     1      55.897  30.012 109.982  1.00  0.00    -0.064 SA
ENDBRANCH  19  21
ENDBRANCH   1  19
TORSDOF 6
ENDMDL
MODEL 4
REMARK VINA RESULT: -4.594112816      3.079      4.544
REMARK  6 active torsions:
REMARK  status: ('A' for Active; 'I' for Inactive)
REMARK    1  A    between atoms: C2_2  and  N1_4 
REMARK    2  A    between atoms: N1_4  and  N2_6 
REMARK    3  A    between atoms: C7_13  and  C8_14 
REMARK    4  A    between atoms: C7_13  and  N5_20 
REMARK    5  A    between atoms: C8_14  and  N3_16 
REMARK    6  A    between atoms: N3_16  and  N4_17 
ROOT
HETATM    1  N2  UNL     1      59.855  28.715 105.133  1.00  0.00    -0.305 N 
ATOM      2  H2  UNL     1      58.957  28.336 105.435  1.00  0.00     0.186 HD
HETATM    3  C3  UNL     1      60.745  28.967 106.026  1.00  0.00     0.057 C 
HETATM    4  C4  UNL     1      62.088  29.521 105.693  1.00  0.00     0.065 C 
HETATM    5  C5  UNL     1      62.190  30.645 106.711  1.00  0.00     0.088 C 
HETATM    6  C6  UNL     1      61.556  30.017 107.902  1.00  0.00     0.178 C 
HETATM    7  O1  UNL     1      61.686  30.423 109.029  1.00  0.00    -0.294 OA
HETATM    8  C7  UNL     1      60.740  28.816 107.480  1.00  0.00     0.297 C 
ENDROOT
BRANCH   8   9
HETATM    9  C8  UNL     1      61.494  27.599 107.858  1.00  0.00     0.133 C 
HETATM   10  C9  UNL     1      61.869  26.578 106.848  1.00  0.00     0.086 C 
BRANCH   9  11
HETATM   11  N3  UNL     1      61.854  27.371 109.040  1.00  0.00    -0.339 NA
BRANCH  11  12
HETATM   12  N4  UNL     1      62.244  26.846 110.105  1.00  0.00    -0.280 N 
ATOM     13  H42 UNL     1      62.302  27.742 110.589  1.00  0.00     0.191 HD
ATOM     14  H41 UNL     1      62.541  26.197 110.834  1.00  0.00     0.191 HD
ENDBRANCH  11  12
ENDBRANCH   9  11
ENDBRANCH   8   9
BRANCH   8  15
HETATM   15  N5  UNL     1      59.447  28.820 108.082  1.00  0.00     0.035 N 
HETATM   16  C10 UNL     1      58.670  27.634 107.754  1.00  0.00     0.297 C 
HETATM   17  C11 UNL     1      58.697  29.951 107.562  1.00  0.00     0.297 C 
HETATM   18 CL1  UNL     1      59.466  28.954 109.808  1.00  0.00     0.119 Cl
ENDBRANCH   8  15
BRANCH   1  19
HETATM   19  N1  UNL     1      60.059  28.935 103.767  1.00  0.00    -0.294 N 
ATOM     20  H1  UNL     1      60.666  29.707 103.491  1.00  0.00     0.187 HD
BRANCH  19  21
HETATM   21  C2  UNL     1      59.478  28.156 102.753  1.00  0.00     0.088 C 
HETATM   22  C1  UNL     1      59.080  26.761 103.027  1.00  0.00     0.083 C 
HETATM   23  S1  UNL     1      59.238  28.781 101.278  1.00  0.00    -0.064 SA
ENDBRANCH  19  21
ENDBRANCH   1  19
TORSDOF 6
ENDMDL
MODEL 5
REMARK VINA RESULT: -4.558086135      3.418      4.807
REMARK  6 active torsions:
REMARK  status: ('A' for Active; 'I' for Inactive)
REMARK    1  A    between atoms: C2_2  and  N1_4 
REMARK    2  A    between atoms: N1_4  and  N2_6 
REMARK    3  A    between atoms: C7_13  and  C8_14 
REMARK    4  A    between atoms: C7_13  and  N5_20 
REMARK    5  A    between atoms: C8_14  and  N3_16 
REMARK    6  A    between atoms: N3_16  and  N4_17 
ROOT
HETATM    1  N2  UNL     1      59.311  28.891 104.725  1.00  0.00    -0.305 N 
ATOM      2  H2  UNL     1      58.465  28.572 105.198  1.00  0.00     0.186 HD
HETATM    3  C3  UNL     1      60.396  28.986 105.406  1.00  0.00     0.057 C 
HETATM    4  C4  UNL     1      61.686  29.440 104.812  1.00  0.00     0.065 C 
HETATM    5  C5  UNL     1      62.128  30.462 105.846  1.00  0.00     0.088 C 
HETATM    6  C6  UNL     1      61.707  29.799 107.110  1.00  0.00     0.178 C 
HETATM    7  O1  UNL     1      62.124  30.096 108.200  1.00  0.00    -0.294 OA
HETATM    8  C7  UNL     1      60.694  28.716 106.812  1.00  0.00     0.297 C 
ENDROOT
BRANCH   8   9
HETATM    9  C8  UNL     1      61.377  27.408 106.936  1.00  0.00     0.133 C 
HETATM   10  C9  UNL     1      62.029  26.995 108.204  1.00  0.00     0.086 C 
BRANCH   9  11
HETATM   11  N3  UNL     1      61.436  26.588 105.986  1.00  0.00    -0.339 NA
BRANCH  11  12
HETATM   12  N4  UNL     1      61.796  25.736 105.145  1.00  0.00    -0.280 N 
ATOM     13  H42 UNL     1      62.787  25.899 105.324  1.00  0.00     0.191 HD
ATOM     14  H41 UNL     1      61.831  25.012 104.427  1.00  0.00     0.191 HD
ENDBRANCH  11  12
ENDBRANCH   9  11
ENDBRANCH   8   9
BRANCH   8  15
HETATM   15  N5  UNL     1      59.572  28.788 107.691  1.00  0.00     0.035 N 
HETATM   16  C10 UNL     1      58.594  27.740 107.440  1.00  0.00     0.297 C 
HETATM   17  C11 UNL     1      58.884  30.048 107.461  1.00  0.00     0.297 C 
HETATM   18 CL1  UNL     1      59.979  28.713 109.371  1.00  0.00     0.119 Cl
ENDBRANCH   8  15
BRANCH   1  19
HETATM   19  N1  UNL     1      59.233  29.204 103.364  1.00  0.00    -0.294 N 
ATOM     20  H1  UNL     1      59.238  30.189 103.097  1.00  0.00     0.187 HD
BRANCH  19  21
HETATM   21  C2  UNL     1      59.148  28.243 102.343  1.00  0.00     0.088 C 
HETATM   22  C1  UNL     1      59.058  26.808 102.681  1.00  0.00     0.083 C 
HETATM   23  S1  UNL     1      59.146  28.699 100.789  1.00  0.00    -0.064 SA
ENDBRANCH  19  21
ENDBRANCH   1  19
TORSDOF 6
ENDMDL
