MODEL 1
REMARK VINA RESULT: -5.163179016      0.000      0.000
REMARK  5 active torsions:
REMARK  status: ('A' for Active; 'I' for Inactive)
REMARK    1  A    between atoms: C2_2  and  O1_4 
REMARK    2  A    between atoms: O1_4  and  C4_5 
REMARK    3  A    between atoms: C4_5  and  C5_6 
REMARK    4  A    between atoms: C4_5  and  S1_14 
REMARK    5  A    between atoms: C5_6  and  C6_7 
ROOT
HETATM    1  C5  UNL     1      30.413  -0.717  36.323  1.00  0.00     0.050 C 
ENDROOT
BRANCH   1   2
HETATM    2  C4  UNL     1      31.879  -0.884  36.569  1.00  0.00     0.217 C 
BRANCH   2   3
HETATM    3  O1  UNL     1      32.418   0.406  36.408  1.00  0.00    -0.369 OA
BRANCH   3   4
HETATM    4  C2  UNL     1      33.794   0.369  36.230  1.00  0.00     0.115 C 
HETATM    5  C1  UNL     1      34.115   1.459  35.229  1.00  0.00     0.039 C 
HETATM    6  C3  UNL     1      34.554   0.685  37.488  1.00  0.00     0.039 C 
ENDBRANCH   3   4
ENDBRANCH   2   3
BRANCH   2   7
HETATM    7  S1  UNL     1      32.570  -2.019  35.341  1.00  0.00     0.073 SA
HETATM    8  F1  UNL     1      31.964  -3.583  35.645  1.00  0.00    -0.162 F 
ENDBRANCH   2   7
ENDBRANCH   1   2
BRANCH   1   9
HETATM    9  C6  UNL     1      29.928  -1.053  34.938  1.00  0.00    -0.011 C 
HETATM   10  C7  UNL     1      28.820  -2.049  34.927  1.00  0.00     0.005 C 
HETATM   11  C8  UNL     1      27.445  -1.459  34.939  1.00  0.00     0.004 C 
HETATM   12  C9  UNL     1      27.218  -0.433  33.865  1.00  0.00    -0.019 C 
HETATM   13  C10 UNL     1      26.339  -1.041  32.797  1.00  0.00     0.010 C 
HETATM   14  C11 UNL     1      28.539   0.015  33.241  1.00  0.00     0.004 C 
HETATM   15  C12 UNL     1      29.459   0.309  34.383  1.00  0.00     0.005 C 
ENDBRANCH   1   9
TORSDOF 5
ENDMDL
MODEL 2
REMARK VINA RESULT: -5.081805732      1.122      1.122
REMARK  5 active torsions:
REMARK  status: ('A' for Active; 'I' for Inactive)
REMARK    1  A    between atoms: C2_2  and  O1_4 
REMARK    2  A    between atoms: O1_4  and  C4_5 
REMARK    3  A    between atoms: C4_5  and  C5_6 
REMARK    4  A    between atoms: C4_5  and  S1_14 
REMARK    5  A    between atoms: C5_6  and  C6_7 
ROOT
HETATM    1  C5  UNL     1      30.709  -0.724  36.226  1.00  0.00     0.050 C 
ENDROOT
BRANCH   1   2
HETATM    2  C4  UNL     1      32.178  -0.971  36.357  1.00  0.00     0.217 C 
BRANCH   2   3
HETATM    3  O1  UNL     1      32.734   0.298  36.604  1.00  0.00    -0.369 OA
BRANCH   3   4
HETATM    4  C2  UNL     1      34.120   0.273  36.531  1.00  0.00     0.115 C 
HETATM    5  C1  UNL     1      34.552   1.709  36.318  1.00  0.00     0.039 C 
HETATM    6  C3  UNL     1      34.763  -0.199  37.804  1.00  0.00     0.039 C 
ENDBRANCH   3   4
ENDBRANCH   2   3
BRANCH   2   7
HETATM    7  S1  UNL     1      32.814  -1.653  34.806  1.00  0.00     0.073 SA
HETATM    8  F1  UNL     1      32.983  -0.382  33.683  1.00  0.00    -0.162 F 
ENDBRANCH   2   7
ENDBRANCH   1   2
BRANCH   1   9
HETATM    9  C6  UNL     1      30.098  -1.033  34.886  1.00  0.00    -0.011 C 
HETATM   10  C7  UNL     1      29.006  -2.044  34.954  1.00  0.00     0.005 C 
HETATM   11  C8  UNL     1      27.631  -1.474  35.111  1.00  0.00     0.004 C 
HETATM   12  C9  UNL     1      27.291  -0.425  34.090  1.00  0.00    -0.019 C 
HETATM   13  C10 UNL     1      26.321  -1.020  33.095  1.00  0.00     0.010 C 
HETATM   14  C11 UNL     1      28.542   0.055  33.355  1.00  0.00     0.004 C 
HETATM   15  C12 UNL     1      29.563   0.335  34.412  1.00  0.00     0.005 C 
ENDBRANCH   1   9
TORSDOF 5
ENDMDL
MODEL 3
REMARK VINA RESULT: -4.900451111      2.135      2.675
REMARK  5 active torsions:
REMARK  status: ('A' for Active; 'I' for Inactive)
REMARK    1  A    between atoms: C2_2  and  O1_4 
REMARK    2  A    between atoms: O1_4  and  C4_5 
REMARK    3  A    between atoms: C4_5  and  C5_6 
REMARK    4  A    between atoms: C4_5  and  S1_14 
REMARK    5  A    between atoms: C5_6  and  C6_7 
ROOT
HETATM    1  C5  UNL     1      31.907  -0.632  34.320  1.00  0.00     0.050 C 
ENDROOT
BRANCH   1   2
HETATM    2  C4  UNL     1      33.113  -0.355  35.160  1.00  0.00     0.217 C 
BRANCH   2   3
HETATM    3  O1  UNL     1      32.601   0.200  36.348  1.00  0.00    -0.369 OA
BRANCH   3   4
HETATM    4  C2  UNL     1      33.311  -0.227  37.461  1.00  0.00     0.115 C 
HETATM    5  C1  UNL     1      33.685  -1.669  37.191  1.00  0.00     0.039 C 
HETATM    6  C3  UNL     1      34.593   0.532  37.661  1.00  0.00     0.039 C 
ENDBRANCH   3   4
ENDBRANCH   2   3
BRANCH   2   7
HETATM    7  S1  UNL     1      34.179   0.835  34.311  1.00  0.00     0.073 SA
HETATM    8  F1  UNL     1      33.806   2.399  34.877  1.00  0.00    -0.162 F 
ENDBRANCH   2   7
ENDBRANCH   1   2
BRANCH   1   9
HETATM    9  C6  UNL     1      30.572  -0.379  34.967  1.00  0.00    -0.011 C 
HETATM   10  C7  UNL     1      29.707   0.554  34.191  1.00  0.00     0.005 C 
HETATM   11  C8  UNL     1      28.775  -0.109  33.227  1.00  0.00     0.004 C 
HETATM   12  C9  UNL     1      27.932  -1.189  33.845  1.00  0.00    -0.019 C 
HETATM   13  C10 UNL     1      26.519  -0.673  33.988  1.00  0.00     0.010 C 
HETATM   14  C11 UNL     1      28.469  -1.588  35.220  1.00  0.00     0.004 C 
HETATM   15  C12 UNL     1      29.941  -1.786  35.049  1.00  0.00     0.005 C 
ENDBRANCH   1   9
TORSDOF 5
ENDMDL
MODEL 4
REMARK VINA RESULT: -4.791674257      1.691      5.879
REMARK  5 active torsions:
REMARK  status: ('A' for Active; 'I' for Inactive)
REMARK    1  A    between atoms: C2_2  and  O1_4 
REMARK    2  A    between atoms: O1_4  and  C4_5 
REMARK    3  A    between atoms: C4_5  and  C5_6 
REMARK    4  A    between atoms: C4_5  and  S1_14 
REMARK    5  A    between atoms: C5_6  and  C6_7 
ROOT
HETATM    1  C5  UNL     1      30.671  -0.092  34.811  1.00  0.00     0.050 C 
ENDROOT
BRANCH   1   2
HETATM    2  C4  UNL     1      29.627  -0.959  34.184  1.00  0.00     0.217 C 
BRANCH   2   3
HETATM    3  O1  UNL     1      28.627  -1.084  35.167  1.00  0.00    -0.369 OA
BRANCH   3   4
HETATM    4  C2  UNL     1      27.450  -1.595  34.640  1.00  0.00     0.115 C 
HETATM    5  C1  UNL     1      26.507  -1.765  35.812  1.00  0.00     0.039 C 
HETATM    6  C3  UNL     1      26.788  -0.656  33.671  1.00  0.00     0.039 C 
ENDBRANCH   3   4
ENDBRANCH   2   3
BRANCH   2   7
HETATM    7  S1  UNL     1      30.340  -2.576  33.795  1.00  0.00     0.073 SA
HETATM    8  F1  UNL     1      30.067  -3.622  35.113  1.00  0.00    -0.162 F 
ENDBRANCH   2   7
ENDBRANCH   1   2
BRANCH   1   9
HETATM    9  C6  UNL     1      31.839  -0.805  35.438  1.00  0.00    -0.011 C 
HETATM   10  C7  UNL     1      33.160  -0.291  34.978  1.00  0.00     0.005 C 
HETATM   11  C8  UNL     1      33.747   0.787  35.834  1.00  0.00     0.004 C 
HETATM   12  C9  UNL     1      33.819   0.431  37.292  1.00  0.00    -0.019 C 
HETATM   13  C10 UNL     1      35.260   0.143  37.646  1.00  0.00     0.010 C 
HETATM   14  C11 UNL     1      32.964  -0.798  37.602  1.00  0.00     0.004 C 
HETATM   15  C12 UNL     1      31.641  -0.559  36.949  1.00  0.00     0.005 C 
ENDBRANCH   1   9
TORSDOF 5
ENDMDL
MODEL 5
REMARK VINA RESULT: -4.766557102      2.638      6.237
REMARK  5 active torsions:
REMARK  status: ('A' for Active; 'I' for Inactive)
REMARK    1  A    between atoms: C2_2  and  O1_4 
REMARK    2  A    between atoms: O1_4  and  C4_5 
REMARK    3  A    between atoms: C4_5  and  C5_6 
REMARK    4  A    between atoms: C4_5  and  S1_14 
REMARK    5  A    between atoms: C5_6  and  C6_7 
ROOT
HETATM    1  C5  UNL     1      33.715   0.502  37.143  1.00  0.00     0.050 C 
ENDROOT
BRANCH   1   2
HETATM    2  C4  UNL     1      33.428  -0.865  36.608  1.00  0.00     0.217 C 
BRANCH   2   3
HETATM    3  O1  UNL     1      32.079  -1.101  36.933  1.00  0.00    -0.369 OA
BRANCH   3   4
HETATM    4  C2  UNL     1      31.272  -1.102  35.805  1.00  0.00     0.115 C 
HETATM    5  C1  UNL     1      31.219  -2.539  35.330  1.00  0.00     0.039 C 
HETATM    6  C3  UNL     1      29.860  -0.680  36.096  1.00  0.00     0.039 C 
ENDBRANCH   3   4
ENDBRANCH   2   3
BRANCH   2   7
HETATM    7  S1  UNL     1      34.500  -2.070  37.429  1.00  0.00     0.073 SA
HETATM    8  F1  UNL     1      35.686  -1.226  38.317  1.00  0.00    -0.162 F 
ENDBRANCH   2   7
ENDBRANCH   1   2
BRANCH   1   9
HETATM    9  C6  UNL     1      34.406   1.452  36.202  1.00  0.00    -0.011 C 
HETATM   10  C7  UNL     1      35.871   1.567  36.450  1.00  0.00     0.005 C 
HETATM   11  C8  UNL     1      36.719   0.631  35.648  1.00  0.00     0.004 C 
HETATM   12  C9  UNL     1      36.448   0.684  34.171  1.00  0.00    -0.019 C 
HETATM   13  C10 UNL     1      37.593   1.405  33.497  1.00  0.00     0.010 C 
HETATM   14  C11 UNL     1      35.141   1.420  33.876  1.00  0.00     0.004 C 
HETATM   15  C12 UNL     1      34.123   0.848  34.810  1.00  0.00     0.005 C 
ENDBRANCH   1   9
TORSDOF 5
ENDMDL
