MODEL 1
REMARK VINA RESULT: -4.711099994      0.000      0.000
REMARK  7 active torsions:
REMARK  status: ('A' for Active; 'I' for Inactive)
REMARK    1  A    between atoms: C2_2  and  C3_3 
REMARK    2  A    between atoms: C3_3  and  C4_4 
REMARK    3  A    between atoms: C4_4  and  C6_6 
REMARK    4  A    between atoms: C6_6  and  C7_7 
REMARK    5  A    between atoms: C7_7  and  O1_9 
REMARK    6  A    between atoms: O1_9  and  C8_10 
REMARK    7  A    between atoms: C8_10  and  C10_13 
ROOT
HETATM    1  C7  UNL     1      34.024  -2.188  36.299  1.00  0.00     0.117 C 
HETATM    2  S1  UNL     1      34.925  -2.860  35.146  1.00  0.00    -0.058 SA
ENDROOT
BRANCH   1   3
HETATM    3  C6  UNL     1      34.625  -1.876  37.606  1.00  0.00     0.081 C 
BRANCH   3   4
HETATM    4  C4  UNL     1      35.786  -0.916  37.520  1.00  0.00    -0.012 C 
HETATM    5  C5  UNL     1      36.798  -1.310  38.575  1.00  0.00     0.010 C 
BRANCH   4   6
HETATM    6  C3  UNL     1      35.292   0.467  37.845  1.00  0.00     0.004 C 
BRANCH   6   7
HETATM    7  C2  UNL     1      35.695   1.469  36.800  1.00  0.00    -0.004 C 
HETATM    8  C1  UNL     1      36.365   0.709  35.664  1.00  0.00     0.005 C 
ENDBRANCH   6   7
ENDBRANCH   4   6
ENDBRANCH   3   4
ENDBRANCH   1   3
BRANCH   1   9
HETATM    9  O1  UNL     1      32.720  -1.905  36.076  1.00  0.00    -0.299 OA
BRANCH   9  10
HETATM   10  C8  UNL     1      32.111  -0.660  35.989  1.00  0.00     0.242 C 
HETATM   11  C9  UNL     1      32.760   0.222  34.935  1.00  0.00     0.088 C 
HETATM   12  F1  UNL     1      32.083   0.029  37.185  1.00  0.00    -0.208 F 
BRANCH  10  13
HETATM   13  C10 UNL     1      30.666  -0.920  35.545  1.00  0.00     0.157 C 
HETATM   14  C11 UNL     1      30.229  -0.004  34.457  1.00  0.00     0.057 C 
HETATM   15  C12 UNL     1      30.570  -2.379  35.168  1.00  0.00     0.057 C 
HETATM   16  F2  UNL     1      29.848  -0.718  36.647  1.00  0.00    -0.238 F 
ENDBRANCH  10  13
ENDBRANCH   9  10
ENDBRANCH   1   9
TORSDOF 7
ENDMDL
MODEL 2
REMARK VINA RESULT: -4.670515089      1.753      2.518
REMARK  7 active torsions:
REMARK  status: ('A' for Active; 'I' for Inactive)
REMARK    1  A    between atoms: C2_2  and  C3_3 
REMARK    2  A    between atoms: C3_3  and  C4_4 
REMARK    3  A    between atoms: C4_4  and  C6_6 
REMARK    4  A    between atoms: C6_6  and  C7_7 
REMARK    5  A    between atoms: C7_7  and  O1_9 
REMARK    6  A    between atoms: O1_9  and  C8_10 
REMARK    7  A    between atoms: C8_10  and  C10_13 
ROOT
HETATM    1  C7  UNL     1      33.622   0.306  36.479  1.00  0.00     0.117 C 
HETATM    2  S1  UNL     1      34.520   1.189  35.476  1.00  0.00    -0.058 SA
ENDROOT
BRANCH   1   3
HETATM    3  C6  UNL     1      34.220  -0.241  37.707  1.00  0.00     0.081 C 
BRANCH   3   4
HETATM    4  C4  UNL     1      35.422  -1.117  37.450  1.00  0.00    -0.012 C 
HETATM    5  C5  UNL     1      35.017  -2.554  37.707  1.00  0.00     0.010 C 
BRANCH   4   6
HETATM    6  C3  UNL     1      36.499  -0.757  38.435  1.00  0.00     0.004 C 
BRANCH   6   7
HETATM    7  C2  UNL     1      37.323  -1.950  38.832  1.00  0.00    -0.004 C 
HETATM    8  C1  UNL     1      38.583  -1.436  39.513  1.00  0.00     0.005 C 
ENDBRANCH   6   7
ENDBRANCH   4   6
ENDBRANCH   3   4
ENDBRANCH   1   3
BRANCH   1   9
HETATM    9  O1  UNL     1      32.319   0.064  36.203  1.00  0.00    -0.299 OA
BRANCH   9  10
HETATM   10  C8  UNL     1      31.785  -0.727  35.194  1.00  0.00     0.242 C 
HETATM   11  C9  UNL     1      32.169  -2.190  35.349  1.00  0.00     0.088 C 
HETATM   12  F1  UNL     1      32.130  -0.313  33.923  1.00  0.00    -0.208 F 
BRANCH  10  13
HETATM   13  C10 UNL     1      30.261  -0.634  35.338  1.00  0.00     0.157 C 
HETATM   14  C11 UNL     1      29.667   0.412  34.462  1.00  0.00     0.057 C 
HETATM   15  C12 UNL     1      29.702  -2.013  35.081  1.00  0.00     0.057 C 
HETATM   16  F2  UNL     1      29.986  -0.311  36.659  1.00  0.00    -0.238 F 
ENDBRANCH  10  13
ENDBRANCH   9  10
ENDBRANCH   1   9
TORSDOF 7
ENDMDL
MODEL 3
REMARK VINA RESULT: -4.463643740      2.595      6.361
REMARK  7 active torsions:
REMARK  status: ('A' for Active; 'I' for Inactive)
REMARK    1  A    between atoms: C2_2  and  C3_3 
REMARK    2  A    between atoms: C3_3  and  C4_4 
REMARK    3  A    between atoms: C4_4  and  C6_6 
REMARK    4  A    between atoms: C6_6  and  C7_7 
REMARK    5  A    between atoms: C7_7  and  O1_9 
REMARK    6  A    between atoms: O1_9  and  C8_10 
REMARK    7  A    between atoms: C8_10  and  C10_13 
ROOT
HETATM    1  C7  UNL     1      30.446  -0.586  34.886  1.00  0.00     0.117 C 
HETATM    2  S1  UNL     1      30.302  -2.177  35.086  1.00  0.00    -0.058 SA
ENDROOT
BRANCH   1   3
HETATM    3  C6  UNL     1      29.493   0.131  34.024  1.00  0.00     0.081 C 
BRANCH   3   4
HETATM    4  C4  UNL     1      28.371  -0.740  33.513  1.00  0.00    -0.012 C 
HETATM    5  C5  UNL     1      28.114  -0.371  32.067  1.00  0.00     0.010 C 
BRANCH   4   6
HETATM    6  C3  UNL     1      27.127  -0.433  34.299  1.00  0.00     0.004 C 
BRANCH   6   7
HETATM    7  C2  UNL     1      26.301  -1.663  34.551  1.00  0.00    -0.004 C 
HETATM    8  C1  UNL     1      26.256  -1.891  36.055  1.00  0.00     0.005 C 
ENDBRANCH   6   7
ENDBRANCH   4   6
ENDBRANCH   3   4
ENDBRANCH   1   3
BRANCH   1   9
HETATM    9  O1  UNL     1      31.436   0.097  35.505  1.00  0.00    -0.299 OA
BRANCH   9  10
HETATM   10  C8  UNL     1      32.804  -0.143  35.467  1.00  0.00     0.242 C 
HETATM   11  C9  UNL     1      33.580   1.049  34.931  1.00  0.00     0.088 C 
HETATM   12  F1  UNL     1      33.150  -1.260  34.734  1.00  0.00    -0.208 F 
BRANCH  10  13
HETATM   13  C10 UNL     1      33.241  -0.361  36.921  1.00  0.00     0.157 C 
HETATM   14  C11 UNL     1      33.840  -1.704  37.142  1.00  0.00     0.057 C 
HETATM   15  C12 UNL     1      34.170   0.773  37.282  1.00  0.00     0.057 C 
HETATM   16  F2  UNL     1      32.111  -0.245  37.717  1.00  0.00    -0.238 F 
ENDBRANCH  10  13
ENDBRANCH   9  10
ENDBRANCH   1   9
TORSDOF 7
ENDMDL
MODEL 4
REMARK VINA RESULT: -4.434962431      1.811      2.536
REMARK  7 active torsions:
REMARK  status: ('A' for Active; 'I' for Inactive)
REMARK    1  A    between atoms: C2_2  and  C3_3 
REMARK    2  A    between atoms: C3_3  and  C4_4 
REMARK    3  A    between atoms: C4_4  and  C6_6 
REMARK    4  A    between atoms: C6_6  and  C7_7 
REMARK    5  A    between atoms: C7_7  and  O1_9 
REMARK    6  A    between atoms: O1_9  and  C8_10 
REMARK    7  A    between atoms: C8_10  and  C10_13 
ROOT
HETATM    1  C7  UNL     1      33.409   0.416  35.219  1.00  0.00     0.117 C 
HETATM    2  S1  UNL     1      34.322   0.080  33.936  1.00  0.00    -0.058 SA
ENDROOT
BRANCH   1   3
HETATM    3  C6  UNL     1      34.047   0.697  36.516  1.00  0.00     0.081 C 
BRANCH   3   4
HETATM    4  C4  UNL     1      34.865  -0.455  37.046  1.00  0.00    -0.012 C 
HETATM    5  C5  UNL     1      33.919  -1.431  37.714  1.00  0.00     0.010 C 
BRANCH   4   6
HETATM    6  C3  UNL     1      35.809   0.066  38.093  1.00  0.00     0.004 C 
BRANCH   6   7
HETATM    7  C2  UNL     1      36.775  -0.988  38.556  1.00  0.00    -0.004 C 
HETATM    8  C1  UNL     1      37.594  -1.427  37.350  1.00  0.00     0.005 C 
ENDBRANCH   6   7
ENDBRANCH   4   6
ENDBRANCH   3   4
ENDBRANCH   1   3
BRANCH   1   9
HETATM    9  O1  UNL     1      32.061   0.443  35.116  1.00  0.00    -0.299 OA
BRANCH   9  10
HETATM   10  C8  UNL     1      31.161  -0.600  35.296  1.00  0.00     0.242 C 
HETATM   11  C9  UNL     1      30.484  -0.543  36.656  1.00  0.00     0.088 C 
HETATM   12  F1  UNL     1      31.723  -1.850  35.136  1.00  0.00    -0.208 F 
BRANCH  10  13
HETATM   13  C10 UNL     1      30.072  -0.416  34.232  1.00  0.00     0.157 C 
HETATM   14  C11 UNL     1      30.413  -1.081  32.946  1.00  0.00     0.057 C 
HETATM   15  C12 UNL     1      28.775  -0.905  34.830  1.00  0.00     0.057 C 
HETATM   16  F2  UNL     1      29.940   0.946  34.003  1.00  0.00    -0.238 F 
ENDBRANCH  10  13
ENDBRANCH   9  10
ENDBRANCH   1   9
TORSDOF 7
ENDMDL
MODEL 5
REMARK VINA RESULT: -4.422622708      1.534      2.007
REMARK  7 active torsions:
REMARK  status: ('A' for Active; 'I' for Inactive)
REMARK    1  A    between atoms: C2_2  and  C3_3 
REMARK    2  A    between atoms: C3_3  and  C4_4 
REMARK    3  A    between atoms: C4_4  and  C6_6 
REMARK    4  A    between atoms: C6_6  and  C7_7 
REMARK    5  A    between atoms: C7_7  and  O1_9 
REMARK    6  A    between atoms: O1_9  and  C8_10 
REMARK    7  A    between atoms: C8_10  and  C10_13 
ROOT
HETATM    1  C7  UNL     1      33.025  -1.500  36.595  1.00  0.00     0.117 C 
HETATM    2  S1  UNL     1      34.096  -2.624  36.171  1.00  0.00    -0.058 SA
ENDROOT
BRANCH   1   3
HETATM    3  C6  UNL     1      33.468  -0.312  37.343  1.00  0.00     0.081 C 
BRANCH   3   4
HETATM    4  C4  UNL     1      34.769   0.264  36.839  1.00  0.00    -0.012 C 
HETATM    5  C5  UNL     1      35.715   0.382  38.015  1.00  0.00     0.010 C 
BRANCH   4   6
HETATM    6  C3  UNL     1      34.511   1.647  36.310  1.00  0.00     0.004 C 
BRANCH   6   7
HETATM    7  C2  UNL     1      33.964   1.623  34.910  1.00  0.00    -0.004 C 
HETATM    8  C1  UNL     1      34.905   0.780  34.060  1.00  0.00     0.005 C 
ENDBRANCH   6   7
ENDBRANCH   4   6
ENDBRANCH   3   4
ENDBRANCH   1   3
BRANCH   1   9
HETATM    9  O1  UNL     1      31.719  -1.636  36.267  1.00  0.00    -0.299 OA
BRANCH   9  10
HETATM   10  C8  UNL     1      31.128  -1.517  35.016  1.00  0.00     0.242 C 
HETATM   11  C9  UNL     1      30.657  -2.858  34.476  1.00  0.00     0.088 C 
HETATM   12  F1  UNL     1      31.941  -0.923  34.073  1.00  0.00    -0.208 F 
BRANCH  10  13
HETATM   13  C10 UNL     1      29.886  -0.639  35.211  1.00  0.00     0.157 C 
HETATM   14  C11 UNL     1      29.855   0.521  34.280  1.00  0.00     0.057 C 
HETATM   15  C12 UNL     1      28.679  -1.536  35.084  1.00  0.00     0.057 C 
HETATM   16  F2  UNL     1      29.915  -0.159  36.512  1.00  0.00    -0.238 F 
ENDBRANCH  10  13
ENDBRANCH   9  10
ENDBRANCH   1   9
TORSDOF 7
ENDMDL
