MODEL 1
REMARK VINA RESULT: -5.179586065      0.000      0.000
REMARK  5 active torsions:
REMARK  status: ('A' for Active; 'I' for Inactive)
REMARK    1  A    between atoms: C2_2  and  C3_3 
REMARK    2  A    between atoms: C3_3  and  C4_4 
REMARK    3  A    between atoms: C4_4  and  C5_5 
REMARK    4  A    between atoms: C7_7  and  C8_8 
REMARK    5  A    between atoms: C8_8  and  C10_10 
ROOT
HETATM    1  C5  UNL     1      33.077  -0.522  36.369  1.00  0.00     0.142 C 
HETATM    2  C6  UNL     1      34.383  -1.258  36.246  1.00  0.00     0.071 C 
HETATM    3  C7  UNL     1      35.226  -0.800  37.447  1.00  0.00    -0.026 C 
HETATM    4  C12 UNL     1      35.307   0.500  37.566  1.00  0.00     0.182 C 
HETATM    5  F1  UNL     1      36.007   1.025  38.570  1.00  0.00    -0.196 F 
HETATM    6  S1  UNL     1      34.478   1.559  36.362  1.00  0.00     0.060 SA
HETATM    7  O1  UNL     1      33.225   0.656  35.628  1.00  0.00    -0.308 OA
ENDROOT
BRANCH   1   8
HETATM    8  C4  UNL     1      31.881  -1.307  35.972  1.00  0.00     0.033 C 
BRANCH   8   9
HETATM    9  C3  UNL     1      30.614  -0.656  36.447  1.00  0.00     0.002 C 
BRANCH   9  10
HETATM   10  C2  UNL     1      29.510  -0.782  35.412  1.00  0.00    -0.004 C 
HETATM   11  C1  UNL     1      29.634   0.330  34.400  1.00  0.00     0.005 C 
ENDBRANCH   9  10
ENDBRANCH   8   9
ENDBRANCH   1   8
BRANCH   3  12
HETATM   12  C8  UNL     1      35.790  -1.871  38.202  1.00  0.00     0.014 C 
HETATM   13  C9  UNL     1      35.030  -3.146  37.746  1.00  0.00     0.015 C 
BRANCH  12  14
HETATM   14  C10 UNL     1      37.190  -2.248  38.255  1.00  0.00     0.004 C 
HETATM   15  C11 UNL     1      38.101  -1.504  39.176  1.00  0.00     0.006 C 
ENDBRANCH  12  14
ENDBRANCH   3  12
TORSDOF 5
ENDMDL
MODEL 2
REMARK VINA RESULT: -5.144913653      1.016      1.062
REMARK  5 active torsions:
REMARK  status: ('A' for Active; 'I' for Inactive)
REMARK    1  A    between atoms: C2_2  and  C3_3 
REMARK    2  A    between atoms: C3_3  and  C4_4 
REMARK    3  A    between atoms: C4_4  and  C5_5 
REMARK    4  A    between atoms: C7_7  and  C8_8 
REMARK    5  A    between atoms: C8_8  and  C10_10 
ROOT
HETATM    1  C5  UNL     1      32.536  -0.078  36.342  1.00  0.00     0.142 C 
HETATM    2  C6  UNL     1      33.711  -1.016  36.371  1.00  0.00     0.071 C 
HETATM    3  C7  UNL     1      34.859  -0.215  37.006  1.00  0.00    -0.026 C 
HETATM    4  C12 UNL     1      35.064   0.947  36.441  1.00  0.00     0.182 C 
HETATM    5  F1  UNL     1      36.029   1.740  36.902  1.00  0.00    -0.196 F 
HETATM    6  S1  UNL     1      34.041   1.450  35.041  1.00  0.00     0.060 SA
HETATM    7  O1  UNL     1      32.580   0.562  35.098  1.00  0.00    -0.308 OA
ENDROOT
BRANCH   1   8
HETATM    8  C4  UNL     1      31.223  -0.717  36.615  1.00  0.00     0.033 C 
BRANCH   8   9
HETATM    9  C3  UNL     1      30.613  -1.275  35.361  1.00  0.00     0.002 C 
BRANCH   9  10
HETATM   10  C2  UNL     1      29.208  -0.739  35.149  1.00  0.00    -0.004 C 
HETATM   11  C1  UNL     1      29.215   0.279  34.036  1.00  0.00     0.005 C 
ENDBRANCH   9  10
ENDBRANCH   8   9
ENDBRANCH   1   8
BRANCH   3  12
HETATM   12  C8  UNL     1      35.513  -0.889  38.081  1.00  0.00     0.014 C 
HETATM   13  C9  UNL     1      35.287  -2.402  37.819  1.00  0.00     0.015 C 
BRANCH  12  14
HETATM   14  C10 UNL     1      36.907  -0.761  38.460  1.00  0.00     0.004 C 
HETATM   15  C11 UNL     1      37.655  -1.985  38.875  1.00  0.00     0.006 C 
ENDBRANCH  12  14
ENDBRANCH   3  12
TORSDOF 5
ENDMDL
MODEL 3
REMARK VINA RESULT: -4.950507292      2.358      5.513
REMARK  5 active torsions:
REMARK  status: ('A' for Active; 'I' for Inactive)
REMARK    1  A    between atoms: C2_2  and  C3_3 
REMARK    2  A    between atoms: C3_3  and  C4_4 
REMARK    3  A    between atoms: C4_4  and  C5_5 
REMARK    4  A    between atoms: C7_7  and  C8_8 
REMARK    5  A    between atoms: C8_8  and  C10_10 
ROOT
HETATM    1  C5  UNL     1      35.016   0.597  35.608  1.00  0.00     0.142 C 
HETATM    2  C6  UNL     1      33.528   0.792  35.503  1.00  0.00     0.071 C 
HETATM    3  C7  UNL     1      32.959  -0.591  35.147  1.00  0.00    -0.026 C 
HETATM    4  C12 UNL     1      33.540  -1.149  34.116  1.00  0.00     0.182 C 
HETATM    5  F1  UNL     1      33.141  -2.352  33.708  1.00  0.00    -0.196 F 
HETATM    6  S1  UNL     1      34.867  -0.275  33.260  1.00  0.00     0.060 SA
HETATM    7  O1  UNL     1      35.534   0.875  34.337  1.00  0.00    -0.308 OA
ENDROOT
BRANCH   1   8
HETATM    8  C4  UNL     1      35.672   1.385  36.683  1.00  0.00     0.033 C 
BRANCH   8   9
HETATM    9  C3  UNL     1      35.650   0.650  37.993  1.00  0.00     0.002 C 
BRANCH   9  10
HETATM   10  C2  UNL     1      35.953  -0.825  37.799  1.00  0.00    -0.004 C 
HETATM   11  C1  UNL     1      37.073  -1.239  38.722  1.00  0.00     0.005 C 
ENDBRANCH   9  10
ENDBRANCH   8   9
ENDBRANCH   1   8
BRANCH   3  12
HETATM   12  C8  UNL     1      31.882  -1.009  35.985  1.00  0.00     0.014 C 
HETATM   13  C9  UNL     1      32.231  -0.481  37.402  1.00  0.00     0.015 C 
BRANCH  12  14
HETATM   14  C10 UNL     1      30.474  -0.717  35.794  1.00  0.00     0.004 C 
HETATM   15  C11 UNL     1      30.049  -0.011  34.548  1.00  0.00     0.006 C 
ENDBRANCH  12  14
ENDBRANCH   3  12
TORSDOF 5
ENDMDL
MODEL 4
REMARK VINA RESULT: -4.890361826      2.522      3.655
REMARK  5 active torsions:
REMARK  status: ('A' for Active; 'I' for Inactive)
REMARK    1  A    between atoms: C2_2  and  C3_3 
REMARK    2  A    between atoms: C3_3  and  C4_4 
REMARK    3  A    between atoms: C4_4  and  C5_5 
REMARK    4  A    between atoms: C7_7  and  C8_8 
REMARK    5  A    between atoms: C8_8  and  C10_10 
ROOT
HETATM    1  C5  UNL     1      31.082  -1.007  35.657  1.00  0.00     0.142 C 
HETATM    2  C6  UNL     1      31.813  -0.735  36.943  1.00  0.00     0.071 C 
HETATM    3  C7  UNL     1      33.300  -0.661  36.560  1.00  0.00    -0.026 C 
HETATM    4  C12 UNL     1      33.716  -1.690  35.868  1.00  0.00     0.182 C 
HETATM    5  F1  UNL     1      34.986  -1.745  35.471  1.00  0.00    -0.196 F 
HETATM    6  S1  UNL     1      32.564  -3.022  35.471  1.00  0.00     0.060 SA
HETATM    7  O1  UNL     1      30.974  -2.399  35.559  1.00  0.00    -0.308 OA
ENDROOT
BRANCH   1   8
HETATM    8  C4  UNL     1      29.774  -0.316  35.528  1.00  0.00     0.033 C 
BRANCH   8   9
HETATM    9  C3  UNL     1      29.687   0.461  34.246  1.00  0.00     0.002 C 
BRANCH   9  10
HETATM   10  C2  UNL     1      28.566  -0.059  33.364  1.00  0.00    -0.004 C 
HETATM   11  C1  UNL     1      27.423  -0.538  34.225  1.00  0.00     0.005 C 
ENDBRANCH   9  10
ENDBRANCH   8   9
ENDBRANCH   1   8
BRANCH   3  12
HETATM   12  C8  UNL     1      33.969   0.501  37.049  1.00  0.00     0.014 C 
HETATM   13  C9  UNL     1      35.152  -0.028  37.902  1.00  0.00     0.015 C 
BRANCH  12  14
HETATM   14  C10 UNL     1      34.515   1.583  36.251  1.00  0.00     0.004 C 
HETATM   15  C11 UNL     1      34.062   1.732  34.835  1.00  0.00     0.006 C 
ENDBRANCH  12  14
ENDBRANCH   3  12
TORSDOF 5
ENDMDL
MODEL 5
REMARK VINA RESULT: -4.874425495      4.975      8.738
REMARK  5 active torsions:
REMARK  status: ('A' for Active; 'I' for Inactive)
REMARK    1  A    between atoms: C2_2  and  C3_3 
REMARK    2  A    between atoms: C3_3  and  C4_4 
REMARK    3  A    between atoms: C4_4  and  C5_5 
REMARK    4  A    between atoms: C7_7  and  C8_8 
REMARK    5  A    between atoms: C8_8  and  C10_10 
ROOT
HETATM    1  C5  UNL     1      28.998  -0.660  33.851  1.00  0.00     0.142 C 
HETATM    2  C6  UNL     1      27.509  -0.475  33.734  1.00  0.00     0.071 C 
HETATM    3  C7  UNL     1      26.952  -1.860  33.370  1.00  0.00    -0.026 C 
HETATM    4  C12 UNL     1      27.546  -2.412  32.343  1.00  0.00     0.182 C 
HETATM    5  F1  UNL     1      27.158  -3.617  31.930  1.00  0.00    -0.196 F 
HETATM    6  S1  UNL     1      28.875  -1.528  31.500  1.00  0.00     0.060 SA
HETATM    7  O1  UNL     1      29.525  -0.377  32.586  1.00  0.00    -0.308 OA
ENDROOT
BRANCH   1   8
HETATM    8  C4  UNL     1      29.639   0.130  34.933  1.00  0.00     0.033 C 
BRANCH   8   9
HETATM    9  C3  UNL     1      30.030  -0.743  36.091  1.00  0.00     0.002 C 
BRANCH   9  10
HETATM   10  C2  UNL     1      31.517  -1.045  36.072  1.00  0.00    -0.004 C 
HETATM   11  C1  UNL     1      32.160  -0.517  37.331  1.00  0.00     0.005 C 
ENDBRANCH   9  10
ENDBRANCH   8   9
ENDBRANCH   1   8
BRANCH   3  12
HETATM   12  C8  UNL     1      25.871  -2.287  34.198  1.00  0.00     0.014 C 
HETATM   13  C9  UNL     1      26.274  -1.889  35.643  1.00  0.00     0.015 C 
BRANCH  12  14
HETATM   14  C10 UNL     1      24.477  -1.909  34.062  1.00  0.00     0.004 C 
HETATM   15  C11 UNL     1      23.599  -2.711  33.158  1.00  0.00     0.006 C 
ENDBRANCH  12  14
ENDBRANCH   3  12
TORSDOF 5
ENDMDL
