MODEL 1
REMARK VINA RESULT: -7.421965166      0.000      0.000
REMARK  4 active torsions:
REMARK  status: ('A' for Active; 'I' for Inactive)
REMARK    1  A    between atoms: N2_10  and  C8_12 
REMARK    2  A    between atoms: C8_12  and  C9_13 
REMARK    3  A    between atoms: C9_13  and  C10_14 
REMARK    4  A    between atoms: C10_14  and  N3_15 
ROOT
HETATM    1  C1  UNL     1      48.126  31.889  17.702  1.00  0.00     0.018 C 
HETATM    2  C2  UNL     1      47.508  31.876  18.748  1.00  0.00    -0.074 C 
HETATM    3  C3  UNL     1      46.789  31.840  19.999  1.00  0.00     0.060 A 
HETATM    4  C4  UNL     1      47.205  30.974  20.994  1.00  0.00     0.026 A 
HETATM    5  C5  UNL     1      46.510  30.956  22.169  1.00  0.00     0.019 A 
HETATM    6  C6  UNL     1      45.424  31.776  22.366  1.00  0.00     0.090 A 
HETATM    7  N1  UNL     1      45.063  32.598  21.365  1.00  0.00    -0.351 N 
ATOM      8  H1  UNL     1      44.256  33.203  21.517  1.00  0.00     0.166 HD
HETATM    9  C7  UNL     1      45.689  32.680  20.179  1.00  0.00     0.119 A 
HETATM   10  N2  UNL     1      45.378  33.439  19.220  1.00  0.00    -0.375 N 
ATOM     11  H2  UNL     1      45.969  33.364  18.392  1.00  0.00     0.161 HD
ENDROOT
BRANCH  10  12
HETATM   12  C8  UNL     1      44.322  34.380  19.132  1.00  0.00     0.123 C 
BRANCH  12  13
HETATM   13  C9  UNL     1      44.321  35.176  17.848  1.00  0.00     0.039 C 
BRANCH  13  14
HETATM   14  C10 UNL     1      45.773  35.540  17.523  1.00  0.00     0.123 C 
BRANCH  14  15
HETATM   15  N3  UNL     1      46.184  34.939  16.279  1.00  0.00    -0.367 N 
HETATM   16  C11 UNL     1      47.425  34.816  16.017  1.00  0.00     0.196 C 
HETATM   17  N4  UNL     1      47.923  34.236  14.816  1.00  0.00    -0.067 NA
HETATM   18  N5  UNL     1      48.406  35.268  16.943  1.00  0.00    -0.067 NA
ATOM     19  H3  UNL     1      45.485  34.614  15.611  1.00  0.00     0.161 HD
ENDBRANCH  14  15
ENDBRANCH  13  14
ENDBRANCH  12  13
ENDBRANCH  10  12
TORSDOF 4
ENDMDL
MODEL 2
REMARK VINA RESULT: -7.273867637      2.161      4.487
REMARK  4 active torsions:
REMARK  status: ('A' for Active; 'I' for Inactive)
REMARK    1  A    between atoms: N2_10  and  C8_12 
REMARK    2  A    between atoms: C8_12  and  C9_13 
REMARK    3  A    between atoms: C9_13  and  C10_14 
REMARK    4  A    between atoms: C10_14  and  N3_15 
ROOT
HETATM    1  C1  UNL     1      47.650  31.180  19.693  1.00  0.00     0.018 C 
HETATM    2  C2  UNL     1      47.638  32.158  18.972  1.00  0.00    -0.074 C 
HETATM    3  C3  UNL     1      47.632  33.305  18.097  1.00  0.00     0.060 A 
HETATM    4  C4  UNL     1      47.877  33.126  16.747  1.00  0.00     0.026 A 
HETATM    5  C5  UNL     1      47.867  34.225  15.936  1.00  0.00     0.019 A 
HETATM    6  C6  UNL     1      47.619  35.480  16.442  1.00  0.00     0.090 A 
HETATM    7  N1  UNL     1      47.387  35.595  17.761  1.00  0.00    -0.351 N 
ATOM      8  H1  UNL     1      47.205  36.529  18.129  1.00  0.00     0.166 HD
HETATM    9  C7  UNL     1      47.378  34.569  18.629  1.00  0.00     0.119 A 
HETATM   10  N2  UNL     1      47.164  34.642  19.871  1.00  0.00    -0.375 N 
ATOM     11  H2  UNL     1      47.198  33.756  20.374  1.00  0.00     0.161 HD
ENDROOT
BRANCH  10  12
HETATM   12  C8  UNL     1      46.884  35.783  20.663  1.00  0.00     0.123 C 
BRANCH  12  13
HETATM   13  C9  UNL     1      45.445  35.872  21.113  1.00  0.00     0.039 C 
BRANCH  13  14
HETATM   14  C10 UNL     1      44.629  34.892  20.265  1.00  0.00     0.123 C 
BRANCH  14  15
HETATM   15  N3  UNL     1      43.456  35.535  19.728  1.00  0.00    -0.367 N 
HETATM   16  C11 UNL     1      43.242  35.512  18.473  1.00  0.00     0.196 C 
HETATM   17  N4  UNL     1      42.112  36.119  17.854  1.00  0.00    -0.067 NA
HETATM   18  N5  UNL     1      44.153  34.857  17.598  1.00  0.00    -0.067 NA
ATOM     19  H3  UNL     1      42.800  36.007  20.350  1.00  0.00     0.161 HD
ENDBRANCH  14  15
ENDBRANCH  13  14
ENDBRANCH  12  13
ENDBRANCH  10  12
TORSDOF 4
ENDMDL
MODEL 3
REMARK VINA RESULT: -7.268659028      2.130      3.553
REMARK  4 active torsions:
REMARK  status: ('A' for Active; 'I' for Inactive)
REMARK    1  A    between atoms: N2_10  and  C8_12 
REMARK    2  A    between atoms: C8_12  and  C9_13 
REMARK    3  A    between atoms: C9_13  and  C10_14 
REMARK    4  A    between atoms: C10_14  and  N3_15 
ROOT
HETATM    1  C1  UNL     1      43.928  34.344  19.485  1.00  0.00     0.018 C 
HETATM    2  C2  UNL     1      44.870  33.591  19.632  1.00  0.00    -0.074 C 
HETATM    3  C3  UNL     1      45.979  32.689  19.830  1.00  0.00     0.060 A 
HETATM    4  C4  UNL     1      45.982  31.853  20.932  1.00  0.00     0.026 A 
HETATM    5  C5  UNL     1      47.041  31.007  21.100  1.00  0.00     0.019 A 
HETATM    6  C6  UNL     1      48.081  30.982  20.200  1.00  0.00     0.090 A 
HETATM    7  N1  UNL     1      48.026  31.816  19.147  1.00  0.00    -0.351 N 
ATOM      8  H1  UNL     1      48.801  31.793  18.484  1.00  0.00     0.166 HD
HETATM    9  C7  UNL     1      47.024  32.678  18.906  1.00  0.00     0.119 A 
HETATM   10  N2  UNL     1      46.941  33.473  17.929  1.00  0.00    -0.375 N 
ATOM     11  H2  UNL     1      46.104  34.057  17.909  1.00  0.00     0.161 HD
ENDROOT
BRANCH  10  12
HETATM   12  C8  UNL     1      47.846  33.669  16.857  1.00  0.00     0.123 C 
BRANCH  12  13
HETATM   13  C9  UNL     1      48.074  35.122  16.510  1.00  0.00     0.039 C 
BRANCH  13  14
HETATM   14  C10 UNL     1      47.628  35.963  17.710  1.00  0.00     0.123 C 
BRANCH  14  15
HETATM   15  N3  UNL     1      48.764  36.363  18.503  1.00  0.00    -0.367 N 
HETATM   16  C11 UNL     1      48.714  36.261  19.772  1.00  0.00     0.196 C 
HETATM   17  N4  UNL     1      49.785  36.630  20.635  1.00  0.00    -0.067 NA
HETATM   18  N5  UNL     1      47.547  35.758  20.411  1.00  0.00    -0.067 NA
ATOM     19  H3  UNL     1      49.603  36.725  18.051  1.00  0.00     0.161 HD
ENDBRANCH  14  15
ENDBRANCH  13  14
ENDBRANCH  12  13
ENDBRANCH  10  12
TORSDOF 4
ENDMDL
MODEL 4
REMARK VINA RESULT: -7.067105154      2.140      4.985
REMARK  4 active torsions:
REMARK  status: ('A' for Active; 'I' for Inactive)
REMARK    1  A    between atoms: N2_10  and  C8_12 
REMARK    2  A    between atoms: C8_12  and  C9_13 
REMARK    3  A    between atoms: C9_13  and  C10_14 
REMARK    4  A    between atoms: C10_14  and  N3_15 
ROOT
HETATM    1  C1  UNL     1      48.439  36.572  20.826  1.00  0.00     0.018 C 
HETATM    2  C2  UNL     1      48.228  35.962  19.797  1.00  0.00    -0.074 C 
HETATM    3  C3  UNL     1      47.979  35.260  18.561  1.00  0.00     0.060 A 
HETATM    4  C4  UNL     1      48.028  35.955  17.366  1.00  0.00     0.026 A 
HETATM    5  C5  UNL     1      47.789  35.271  16.209  1.00  0.00     0.019 A 
HETATM    6  C6  UNL     1      47.506  33.925  16.223  1.00  0.00     0.090 A 
HETATM    7  N1  UNL     1      47.471  33.299  17.412  1.00  0.00    -0.351 N 
ATOM      8  H1  UNL     1      47.261  32.302  17.415  1.00  0.00     0.166 HD
HETATM    9  C7  UNL     1      47.694  33.894  18.596  1.00  0.00     0.119 A 
HETATM   10  N2  UNL     1      47.669  33.337  19.729  1.00  0.00    -0.375 N 
ATOM     11  H2  UNL     1      47.863  33.948  20.522  1.00  0.00     0.161 HD
ENDROOT
BRANCH  10  12
HETATM   12  C8  UNL     1      47.410  31.982  20.052  1.00  0.00     0.123 C 
BRANCH  12  13
HETATM   13  C9  UNL     1      45.943  31.622  20.035  1.00  0.00     0.039 C 
BRANCH  13  14
HETATM   14  C10 UNL     1      45.157  32.843  20.524  1.00  0.00     0.123 C 
BRANCH  14  15
HETATM   15  N3  UNL     1      44.155  33.224  19.560  1.00  0.00    -0.367 N 
HETATM   16  C11 UNL     1      43.927  34.458  19.341  1.00  0.00     0.196 C 
HETATM   17  N4  UNL     1      42.958  34.927  18.409  1.00  0.00    -0.067 NA
HETATM   18  N5  UNL     1      44.653  35.462  20.041  1.00  0.00    -0.067 NA
ATOM     19  H3  UNL     1      43.631  32.510  19.056  1.00  0.00     0.161 HD
ENDBRANCH  14  15
ENDBRANCH  13  14
ENDBRANCH  12  13
ENDBRANCH  10  12
TORSDOF 4
ENDMDL
MODEL 5
REMARK VINA RESULT: -7.023864091      5.074      7.040
REMARK  4 active torsions:
REMARK  status: ('A' for Active; 'I' for Inactive)
REMARK    1  A    between atoms: N2_10  and  C8_12 
REMARK    2  A    between atoms: C8_12  and  C9_13 
REMARK    3  A    between atoms: C9_13  and  C10_14 
REMARK    4  A    between atoms: C10_14  and  N3_15 
ROOT
HETATM    1  C1  UNL     1      46.734  38.763  23.612  1.00  0.00     0.018 C 
HETATM    2  C2  UNL     1      47.697  38.873  22.879  1.00  0.00    -0.074 C 
HETATM    3  C3  UNL     1      48.843  39.029  22.016  1.00  0.00     0.060 A 
HETATM    4  C4  UNL     1      49.579  40.199  22.074  1.00  0.00     0.026 A 
HETATM    5  C5  UNL     1      50.660  40.326  21.249  1.00  0.00     0.019 A 
HETATM    6  C6  UNL     1      51.013  39.320  20.380  1.00  0.00     0.090 A 
HETATM    7  N1  UNL     1      50.263  38.204  20.366  1.00  0.00    -0.351 N 
ATOM      8  H1  UNL     1      50.530  37.463  19.719  1.00  0.00     0.166 HD
HETATM    9  C7  UNL     1      49.186  37.997  21.142  1.00  0.00     0.119 A 
HETATM   10  N2  UNL     1      48.460  36.964  21.154  1.00  0.00    -0.375 N 
ATOM     11  H2  UNL     1      47.681  36.983  21.811  1.00  0.00     0.161 HD
ENDROOT
BRANCH  10  12
HETATM   12  C8  UNL     1      48.577  35.782  20.381  1.00  0.00     0.123 C 
BRANCH  12  13
HETATM   13  C9  UNL     1      47.373  35.500  19.514  1.00  0.00     0.039 C 
BRANCH  13  14
HETATM   14  C10 UNL     1      46.148  35.413  20.430  1.00  0.00     0.123 C 
BRANCH  14  15
HETATM   15  N3  UNL     1      45.755  34.040  20.628  1.00  0.00    -0.367 N 
HETATM   16  C11 UNL     1      44.626  33.638  20.196  1.00  0.00     0.196 C 
HETATM   17  N4  UNL     1      44.156  32.303  20.345  1.00  0.00    -0.067 NA
HETATM   18  N5  UNL     1      43.751  34.534  19.522  1.00  0.00    -0.067 NA
ATOM     19  H3  UNL     1      46.378  33.394  21.111  1.00  0.00     0.161 HD
ENDBRANCH  14  15
ENDBRANCH  13  14
ENDBRANCH  12  13
ENDBRANCH  10  12
TORSDOF 4
ENDMDL
