MODEL 1
REMARK VINA RESULT: -7.059310384      0.000      0.000
REMARK  6 active torsions:
REMARK  status: ('A' for Active; 'I' for Inactive)
REMARK    1  A    between atoms: O1_1  and  C1_3 
REMARK    2  A    between atoms: C1_3  and  C2_4 
REMARK    3  A    between atoms: C3_7  and  N2_8 
REMARK    4  A    between atoms: N2_8  and  C4_10 
REMARK    5  A    between atoms: C4_10  and  C5_11 
REMARK    6  A    between atoms: C5_11  and  N3_12 
ROOT
HETATM    1  C2  UNL     1      47.085  35.015  16.369  1.00  0.00     0.136 A 
HETATM    2  N1  UNL     1      46.951  35.419  17.647  1.00  0.00    -0.176 N 
ATOM      3  H1  UNL     1      47.718  35.675  18.269  1.00  0.00     0.185 HD
HETATM    4  C3  UNL     1      45.656  35.432  17.972  1.00  0.00     0.694 A 
HETATM    5  N4  UNL     1      45.000  35.030  16.872  1.00  0.00    -0.131 N 
ATOM      6  H4  UNL     1      43.987  34.934  16.802  1.00  0.00     0.205 HD
HETATM    7  N5  UNL     1      45.844  34.777  15.902  1.00  0.00    -0.272 N 
ATOM      8  H5  UNL     1      45.604  34.458  14.964  1.00  0.00     0.189 HD
ENDROOT
BRANCH   4   9
HETATM    9  N2  UNL     1      45.063  35.744  19.070  1.00  0.00    -0.223 N 
ATOM     10  H2  UNL     1      44.536  36.617  19.105  1.00  0.00     0.177 HD
BRANCH   9  11
HETATM   11  C4  UNL     1      45.107  34.920  20.258  1.00  0.00     0.158 C 
BRANCH  11  12
HETATM   12  C5  UNL     1      44.772  33.485  19.979  1.00  0.00     0.147 C 
BRANCH  12  13
HETATM   13  N3  UNL     1      45.821  32.560  20.194  1.00  0.00    -0.365 N 
HETATM   14  C6  UNL     1      45.935  31.873  21.340  1.00  0.00     0.090 A 
HETATM   15  C7  UNL     1      46.971  30.975  21.522  1.00  0.00     0.017 A 
HETATM   16  C8  UNL     1      47.897  30.781  20.514  1.00  0.00     0.003 A 
HETATM   17  C9  UNL     1      47.783  31.484  19.332  1.00  0.00     0.017 A 
HETATM   18  C10 UNL     1      46.725  32.367  19.215  1.00  0.00     0.090 A 
ENDBRANCH  12  13
ENDBRANCH  11  12
ENDBRANCH   9  11
ENDBRANCH   4   9
BRANCH   1  19
HETATM   19  C1  UNL     1      48.366  34.858  15.596  1.00  0.00     0.242 C 
BRANCH  19  20
HETATM   20  O1  UNL     1      48.108  34.120  14.455  1.00  0.00    -0.393 OA
ATOM     21  H1  UNL     1      47.826  34.712  13.767  1.00  0.00     0.209 HD
ENDBRANCH  19  20
ENDBRANCH   1  19
TORSDOF 6
ENDMDL
MODEL 2
REMARK VINA RESULT: -6.956763911      2.755      5.144
REMARK  6 active torsions:
REMARK  status: ('A' for Active; 'I' for Inactive)
REMARK    1  A    between atoms: O1_1  and  C1_3 
REMARK    2  A    between atoms: C1_3  and  C2_4 
REMARK    3  A    between atoms: C3_7  and  N2_8 
REMARK    4  A    between atoms: N2_8  and  C4_10 
REMARK    5  A    between atoms: C4_10  and  C5_11 
REMARK    6  A    between atoms: C5_11  and  N3_12 
ROOT
HETATM    1  C2  UNL     1      47.240  31.484  20.180  1.00  0.00     0.136 A 
HETATM    2  N1  UNL     1      46.702  32.151  19.140  1.00  0.00    -0.176 N 
ATOM      3  H1  UNL     1      45.757  32.531  19.108  1.00  0.00     0.185 HD
HETATM    4  C3  UNL     1      47.602  32.237  18.158  1.00  0.00     0.694 A 
HETATM    5  N4  UNL     1      48.700  31.611  18.613  1.00  0.00    -0.131 N 
ATOM      6  H4  UNL     1      49.568  31.506  18.089  1.00  0.00     0.205 HD
HETATM    7  N5  UNL     1      48.498  31.156  19.824  1.00  0.00    -0.272 N 
ATOM      8  H5  UNL     1      49.171  30.644  20.395  1.00  0.00     0.189 HD
ENDROOT
BRANCH   4   9
HETATM    9  N2  UNL     1      47.533  32.777  16.993  1.00  0.00    -0.223 N 
ATOM     10  H2  UNL     1      47.184  32.214  16.217  1.00  0.00     0.177 HD
BRANCH   9  11
HETATM   11  C4  UNL     1      47.926  34.143  16.727  1.00  0.00     0.158 C 
BRANCH  11  12
HETATM   12  C5  UNL     1      46.787  35.110  16.860  1.00  0.00     0.147 C 
BRANCH  12  13
HETATM   13  N3  UNL     1      46.297  35.300  18.174  1.00  0.00    -0.365 N 
HETATM   14  C6  UNL     1      44.988  35.230  18.459  1.00  0.00     0.090 A 
HETATM   15  C7  UNL     1      44.539  35.421  19.751  1.00  0.00     0.017 A 
HETATM   16  C8  UNL     1      45.445  35.684  20.763  1.00  0.00     0.003 A 
HETATM   17  C9  UNL     1      46.793  35.755  20.475  1.00  0.00     0.017 A 
HETATM   18  C10 UNL     1      47.176  35.556  19.161  1.00  0.00     0.090 A 
ENDBRANCH  12  13
ENDBRANCH  11  12
ENDBRANCH   9  11
ENDBRANCH   4   9
BRANCH   1  19
HETATM   19  C1  UNL     1      46.578  31.162  21.491  1.00  0.00     0.242 C 
BRANCH  19  20
HETATM   20  O1  UNL     1      47.428  30.361  22.232  1.00  0.00    -0.393 OA
ATOM     21  H1  UNL     1      47.632  29.583  21.726  1.00  0.00     0.209 HD
ENDBRANCH  19  20
ENDBRANCH   1  19
TORSDOF 6
ENDMDL
MODEL 3
REMARK VINA RESULT: -6.943077793      2.760      5.164
REMARK  6 active torsions:
REMARK  status: ('A' for Active; 'I' for Inactive)
REMARK    1  A    between atoms: O1_1  and  C1_3 
REMARK    2  A    between atoms: C1_3  and  C2_4 
REMARK    3  A    between atoms: C3_7  and  N2_8 
REMARK    4  A    between atoms: N2_8  and  C4_10 
REMARK    5  A    between atoms: C4_10  and  C5_11 
REMARK    6  A    between atoms: C5_11  and  N3_12 
ROOT
HETATM    1  C2  UNL     1      47.254  31.481  20.206  1.00  0.00     0.136 A 
HETATM    2  N1  UNL     1      46.707  32.144  19.168  1.00  0.00    -0.176 N 
ATOM      3  H1  UNL     1      45.760  32.523  19.143  1.00  0.00     0.185 HD
HETATM    4  C3  UNL     1      47.599  32.227  18.178  1.00  0.00     0.694 A 
HETATM    5  N4  UNL     1      48.700  31.605  18.626  1.00  0.00    -0.131 N 
ATOM      6  H4  UNL     1      49.565  31.498  18.095  1.00  0.00     0.205 HD
HETATM    7  N5  UNL     1      48.509  31.153  19.841  1.00  0.00    -0.272 N 
ATOM      8  H5  UNL     1      49.188  30.645  20.408  1.00  0.00     0.189 HD
ENDROOT
BRANCH   4   9
HETATM    9  N2  UNL     1      47.519  32.763  17.012  1.00  0.00    -0.223 N 
ATOM     10  H2  UNL     1      47.137  32.206  16.248  1.00  0.00     0.177 HD
BRANCH   9  11
HETATM   11  C4  UNL     1      47.944  34.116  16.729  1.00  0.00     0.158 C 
BRANCH  11  12
HETATM   12  C5  UNL     1      46.838  35.116  16.890  1.00  0.00     0.147 C 
BRANCH  12  13
HETATM   13  N3  UNL     1      46.380  35.313  18.215  1.00  0.00    -0.365 N 
HETATM   14  C6  UNL     1      47.224  35.569  19.225  1.00  0.00     0.090 A 
HETATM   15  C7  UNL     1      46.748  35.757  20.509  1.00  0.00     0.017 A 
HETATM   16  C8  UNL     1      45.389  35.683  20.756  1.00  0.00     0.003 A 
HETATM   17  C9  UNL     1      44.516  35.421  19.720  1.00  0.00     0.017 A 
HETATM   18  C10 UNL     1      45.058  35.241  18.460  1.00  0.00     0.090 A 
ENDBRANCH  12  13
ENDBRANCH  11  12
ENDBRANCH   9  11
ENDBRANCH   4   9
BRANCH   1  19
HETATM   19  C1  UNL     1      46.604  31.163  21.524  1.00  0.00     0.242 C 
BRANCH  19  20
HETATM   20  O1  UNL     1      47.461  30.366  22.261  1.00  0.00    -0.393 OA
ATOM     21  H1  UNL     1      47.061  30.186  23.104  1.00  0.00     0.209 HD
ENDBRANCH  19  20
ENDBRANCH   1  19
TORSDOF 6
ENDMDL
MODEL 4
REMARK VINA RESULT: -6.891357165      1.902      3.561
REMARK  6 active torsions:
REMARK  status: ('A' for Active; 'I' for Inactive)
REMARK    1  A    between atoms: O1_1  and  C1_3 
REMARK    2  A    between atoms: C1_3  and  C2_4 
REMARK    3  A    between atoms: C3_7  and  N2_8 
REMARK    4  A    between atoms: N2_8  and  C4_10 
REMARK    5  A    between atoms: C4_10  and  C5_11 
REMARK    6  A    between atoms: C5_11  and  N3_12 
ROOT
HETATM    1  C2  UNL     1      47.600  34.107  16.819  1.00  0.00     0.136 A 
HETATM    2  N1  UNL     1      47.631  33.755  18.119  1.00  0.00    -0.176 N 
ATOM      3  H1  UNL     1      47.495  34.390  18.906  1.00  0.00     0.185 HD
HETATM    4  C3  UNL     1      47.868  32.445  18.216  1.00  0.00     0.694 A 
HETATM    5  N4  UNL     1      47.982  32.000  16.955  1.00  0.00    -0.131 N 
ATOM      6  H4  UNL     1      48.167  31.032  16.694  1.00  0.00     0.205 HD
HETATM    7  N5  UNL     1      47.823  32.985  16.106  1.00  0.00    -0.272 N 
ATOM      8  H5  UNL     1      47.861  32.916  15.089  1.00  0.00     0.189 HD
ENDROOT
BRANCH   4   9
HETATM    9  N2  UNL     1      47.983  31.681  19.244  1.00  0.00    -0.223 N 
ATOM     10  H2  UNL     1      48.918  31.482  19.600  1.00  0.00     0.177 HD
BRANCH   9  11
HETATM   11  C4  UNL     1      46.851  31.088  19.923  1.00  0.00     0.158 C 
BRANCH  11  12
HETATM   12  C5  UNL     1      46.304  31.965  21.010  1.00  0.00     0.147 C 
BRANCH  12  13
HETATM   13  N3  UNL     1      45.593  33.108  20.575  1.00  0.00    -0.365 N 
HETATM   14  C6  UNL     1      44.519  33.012  19.777  1.00  0.00     0.090 A 
HETATM   15  C7  UNL     1      43.844  34.146  19.367  1.00  0.00     0.017 A 
HETATM   16  C8  UNL     1      44.277  35.392  19.784  1.00  0.00     0.003 A 
HETATM   17  C9  UNL     1      45.380  35.496  20.606  1.00  0.00     0.017 A 
HETATM   18  C10 UNL     1      46.010  34.322  20.978  1.00  0.00     0.090 A 
ENDBRANCH  12  13
ENDBRANCH  11  12
ENDBRANCH   9  11
ENDBRANCH   4   9
BRANCH   1  19
HETATM   19  C1  UNL     1      47.363  35.481  16.256  1.00  0.00     0.242 C 
BRANCH  19  20
HETATM   20  O1  UNL     1      46.102  35.904  16.636  1.00  0.00    -0.393 OA
ATOM     21  H1  UNL     1      45.790  35.342  17.336  1.00  0.00     0.209 HD
ENDBRANCH  19  20
ENDBRANCH   1  19
TORSDOF 6
ENDMDL
MODEL 5
REMARK VINA RESULT: -6.605313486      4.228      5.750
REMARK  6 active torsions:
REMARK  status: ('A' for Active; 'I' for Inactive)
REMARK    1  A    between atoms: O1_1  and  C1_3 
REMARK    2  A    between atoms: C1_3  and  C2_4 
REMARK    3  A    between atoms: C3_7  and  N2_8 
REMARK    4  A    between atoms: N2_8  and  C4_10 
REMARK    5  A    between atoms: C4_10  and  C5_11 
REMARK    6  A    between atoms: C5_11  and  N3_12 
ROOT
HETATM    1  C2  UNL     1      44.135  35.312  18.278  1.00  0.00     0.136 A 
HETATM    2  N1  UNL     1      45.291  35.400  18.964  1.00  0.00    -0.176 N 
ATOM      3  H1  UNL     1      45.376  35.661  19.946  1.00  0.00     0.185 HD
HETATM    4  C3  UNL     1      46.308  35.093  18.156  1.00  0.00     0.694 A 
HETATM    5  N4  UNL     1      45.757  34.815  16.964  1.00  0.00    -0.131 N 
ATOM      6  H4  UNL     1      46.279  34.544  16.131  1.00  0.00     0.205 HD
HETATM    7  N5  UNL     1      44.454  34.941  17.022  1.00  0.00    -0.272 N 
ATOM      8  H5  UNL     1      43.800  34.786  16.255  1.00  0.00     0.189 HD
ENDROOT
BRANCH   4   9
HETATM    9  N2  UNL     1      47.575  35.045  18.373  1.00  0.00    -0.223 N 
ATOM     10  H2  UNL     1      48.056  34.154  18.244  1.00  0.00     0.177 HD
BRANCH   9  11
HETATM   11  C4  UNL     1      48.353  36.190  18.792  1.00  0.00     0.158 C 
BRANCH  11  12
HETATM   12  C5  UNL     1      48.671  36.169  20.258  1.00  0.00     0.147 C 
BRANCH  12  13
HETATM   13  N3  UNL     1      48.986  37.423  20.833  1.00  0.00    -0.365 N 
HETATM   14  C6  UNL     1      49.889  38.248  20.282  1.00  0.00     0.090 A 
HETATM   15  C7  UNL     1      50.176  39.467  20.866  1.00  0.00     0.017 A 
HETATM   16  C8  UNL     1      49.527  39.843  22.029  1.00  0.00     0.003 A 
HETATM   17  C9  UNL     1      48.597  38.998  22.599  1.00  0.00     0.017 A 
HETATM   18  C10 UNL     1      48.357  37.792  21.964  1.00  0.00     0.090 A 
ENDBRANCH  12  13
ENDBRANCH  11  12
ENDBRANCH   9  11
ENDBRANCH   4   9
BRANCH   1  19
HETATM   19  C1  UNL     1      42.749  35.572  18.798  1.00  0.00     0.242 C 
BRANCH  19  20
HETATM   20  O1  UNL     1      41.976  36.079  17.769  1.00  0.00    -0.393 OA
ATOM     21  H1  UNL     1      41.295  36.628  18.141  1.00  0.00     0.209 HD
ENDBRANCH  19  20
ENDBRANCH   1  19
TORSDOF 6
ENDMDL
