MODEL 1
REMARK VINA RESULT: -7.417333097      0.000      0.000
REMARK  5 active torsions:
REMARK  status: ('A' for Active; 'I' for Inactive)
REMARK    1  A    between atoms: C3_3  and  C4_4 
REMARK    2  A    between atoms: C4_4  and  C5_5 
REMARK    3  A    between atoms: C5_5  and  C6_6 
REMARK    4  A    between atoms: C6_6  and  C7_7 
REMARK    5  A    between atoms: C10_13  and  N2_14 
ROOT
HETATM    1  C1  UNL     1      46.503  38.863  23.463  1.00  0.00     0.012 C 
HETATM    2  C2  UNL     1      47.474  38.884  22.748  1.00  0.00    -0.117 C 
HETATM    3  C3  UNL     1      48.676  38.928  21.881  1.00  0.00     0.093 C 
ENDROOT
BRANCH   3   4
HETATM    4  C4  UNL     1      49.146  37.520  21.742  1.00  0.00     0.012 C 
BRANCH   4   5
HETATM    5  C5  UNL     1      49.138  37.016  20.304  1.00  0.00     0.006 C 
BRANCH   5   6
HETATM    6  C6  UNL     1      48.568  35.644  20.306  1.00  0.00     0.040 C 
BRANCH   6   7
HETATM    7  C7  UNL     1      47.102  35.589  20.134  1.00  0.00    -0.038 A 
HETATM    8  C8  UNL     1      46.157  35.590  19.241  1.00  0.00     0.066 A 
HETATM    9  C9  UNL     1      45.796  35.635  17.923  1.00  0.00     0.272 A 
HETATM   10  C11 UNL     1      45.161  35.501  20.176  1.00  0.00     0.066 A 
HETATM   11  O1  UNL     1      46.684  35.715  17.053  1.00  0.00    -0.267 OA
HETATM   12  N1  UNL     1      44.479  35.594  17.573  1.00  0.00    -0.156 N 
HETATM   13  C10 UNL     1      43.497  35.508  18.482  1.00  0.00     0.679 A 
ATOM     14  H1  UNL     1      44.231  35.629  16.584  1.00  0.00     0.187 HD
HETATM   15  N3  UNL     1      43.856  35.463  19.774  1.00  0.00    -0.191 N 
ATOM     16  H3  UNL     1      43.126  35.397  20.484  1.00  0.00     0.184 HD
HETATM   17  C12 UNL     1      46.047  35.495  21.122  1.00  0.00     0.039 A 
BRANCH  13  18
HETATM   18  N2  UNL     1      42.242  35.467  18.162  1.00  0.00    -0.234 N 
ATOM     19  H22 UNL     1      41.951  35.735  17.222  1.00  0.00     0.174 HD
ATOM     20  H21 UNL     1      41.513  35.177  18.813  1.00  0.00     0.174 HD
ENDBRANCH  13  18
ENDBRANCH   6   7
ENDBRANCH   5   6
ENDBRANCH   4   5
ENDBRANCH   3   4
TORSDOF 5
ENDMDL
MODEL 2
REMARK VINA RESULT: -7.338839423      3.318      5.017
REMARK  5 active torsions:
REMARK  status: ('A' for Active; 'I' for Inactive)
REMARK    1  A    between atoms: C3_3  and  C4_4 
REMARK    2  A    between atoms: C4_4  and  C5_5 
REMARK    3  A    between atoms: C5_5  and  C6_6 
REMARK    4  A    between atoms: C6_6  and  C7_7 
REMARK    5  A    between atoms: C10_13  and  N2_14 
ROOT
HETATM    1  C1  UNL     1      47.510  31.650  19.133  1.00  0.00     0.012 C 
HETATM    2  C2  UNL     1      46.809  31.877  20.088  1.00  0.00    -0.117 C 
HETATM    3  C3  UNL     1      45.966  32.157  21.276  1.00  0.00     0.093 C 
ENDROOT
BRANCH   3   4
HETATM    4  C4  UNL     1      45.021  33.239  20.875  1.00  0.00     0.012 C 
BRANCH   4   5
HETATM    5  C5  UNL     1      45.444  34.623  21.352  1.00  0.00     0.006 C 
BRANCH   5   6
HETATM    6  C6  UNL     1      44.964  35.613  20.355  1.00  0.00     0.040 C 
BRANCH   6   7
HETATM    7  C7  UNL     1      45.369  35.329  18.963  1.00  0.00    -0.038 A 
HETATM    8  C8  UNL     1      46.402  35.181  18.188  1.00  0.00     0.066 A 
HETATM    9  C9  UNL     1      47.762  35.167  18.046  1.00  0.00     0.272 A 
HETATM   10  C11 UNL     1      45.638  34.940  17.079  1.00  0.00     0.066 A 
HETATM   11  O1  UNL     1      48.479  35.383  19.040  1.00  0.00    -0.267 OA
HETATM   12  N1  UNL     1      48.319  34.919  16.825  1.00  0.00    -0.156 N 
HETATM   13  C10 UNL     1      47.578  34.683  15.733  1.00  0.00     0.679 A 
ATOM     14  H1  UNL     1      49.335  34.914  16.741  1.00  0.00     0.187 HD
HETATM   15  N3  UNL     1      46.244  34.697  15.878  1.00  0.00    -0.191 N 
ATOM     16  H3  UNL     1      45.660  34.520  15.061  1.00  0.00     0.184 HD
HETATM   17  C12 UNL     1      44.562  35.074  17.788  1.00  0.00     0.039 A 
BRANCH  13  18
HETATM   18  N2  UNL     1      48.095  34.446  14.569  1.00  0.00    -0.234 N 
ATOM     19  H22 UNL     1      47.816  33.612  14.052  1.00  0.00     0.174 HD
ATOM     20  H21 UNL     1      48.781  35.060  14.131  1.00  0.00     0.174 HD
ENDBRANCH  13  18
ENDBRANCH   6   7
ENDBRANCH   5   6
ENDBRANCH   4   5
ENDBRANCH   3   4
TORSDOF 5
ENDMDL
MODEL 3
REMARK VINA RESULT: -7.248109816      1.512      2.114
REMARK  5 active torsions:
REMARK  status: ('A' for Active; 'I' for Inactive)
REMARK    1  A    between atoms: C3_3  and  C4_4 
REMARK    2  A    between atoms: C4_4  and  C5_5 
REMARK    3  A    between atoms: C5_5  and  C6_6 
REMARK    4  A    between atoms: C6_6  and  C7_7 
REMARK    5  A    between atoms: C10_13  and  N2_14 
ROOT
HETATM    1  C1  UNL     1      46.164  38.598  23.391  1.00  0.00     0.012 C 
HETATM    2  C2  UNL     1      47.322  38.706  23.072  1.00  0.00    -0.117 C 
HETATM    3  C3  UNL     1      48.752  38.825  22.698  1.00  0.00     0.093 C 
ENDROOT
BRANCH   3   4
HETATM    4  C4  UNL     1      48.815  38.647  21.219  1.00  0.00     0.012 C 
BRANCH   4   5
HETATM    5  C5  UNL     1      49.851  37.621  20.774  1.00  0.00     0.006 C 
BRANCH   5   6
HETATM    6  C6  UNL     1      49.232  36.275  20.881  1.00  0.00     0.040 C 
BRANCH   6   7
HETATM    7  C7  UNL     1      48.205  35.989  19.858  1.00  0.00    -0.038 A 
HETATM    8  C8  UNL     1      46.950  35.687  19.697  1.00  0.00     0.066 A 
HETATM    9  C9  UNL     1      45.731  35.426  20.259  1.00  0.00     0.272 A 
HETATM   10  C11 UNL     1      47.049  35.652  18.333  1.00  0.00     0.066 A 
HETATM   11  O1  UNL     1      45.615  35.452  21.498  1.00  0.00    -0.267 OA
HETATM   12  N1  UNL     1      44.660  35.140  19.464  1.00  0.00    -0.156 N 
HETATM   13  C10 UNL     1      44.748  35.102  18.127  1.00  0.00     0.679 A 
ATOM     14  H1  UNL     1      43.760  34.948  19.903  1.00  0.00     0.187 HD
HETATM   15  N3  UNL     1      45.946  35.360  17.581  1.00  0.00    -0.191 N 
ATOM     16  H3  UNL     1      46.038  35.338  16.565  1.00  0.00     0.184 HD
HETATM   17  C12 UNL     1      48.308  35.951  18.414  1.00  0.00     0.039 A 
BRANCH  13  18
HETATM   18  N2  UNL     1      43.738  34.833  17.361  1.00  0.00    -0.234 N 
ATOM     19  H22 UNL     1      43.350  35.561  16.761  1.00  0.00     0.174 HD
ATOM     20  H21 UNL     1      43.299  33.913  17.325  1.00  0.00     0.174 HD
ENDBRANCH  13  18
ENDBRANCH   6   7
ENDBRANCH   5   6
ENDBRANCH   4   5
ENDBRANCH   3   4
TORSDOF 5
ENDMDL
MODEL 4
REMARK VINA RESULT: -7.145236909      1.630      2.417
REMARK  5 active torsions:
REMARK  status: ('A' for Active; 'I' for Inactive)
REMARK    1  A    between atoms: C3_3  and  C4_4 
REMARK    2  A    between atoms: C4_4  and  C5_5 
REMARK    3  A    between atoms: C5_5  and  C6_6 
REMARK    4  A    between atoms: C6_6  and  C7_7 
REMARK    5  A    between atoms: C10_13  and  N2_14 
ROOT
HETATM    1  C1  UNL     1      49.551  40.865  20.154  1.00  0.00     0.012 C 
HETATM    2  C2  UNL     1      49.389  40.145  21.108  1.00  0.00    -0.117 C 
HETATM    3  C3  UNL     1      49.180  39.277  22.294  1.00  0.00     0.093 C 
ENDROOT
BRANCH   3   4
HETATM    4  C4  UNL     1      48.645  37.985  21.779  1.00  0.00     0.012 C 
BRANCH   4   5
HETATM    5  C5  UNL     1      49.558  37.310  20.763  1.00  0.00     0.006 C 
BRANCH   5   6
HETATM    6  C6  UNL     1      49.069  35.922  20.563  1.00  0.00     0.040 C 
BRANCH   6   7
HETATM    7  C7  UNL     1      47.930  35.801  19.630  1.00  0.00    -0.038 A 
HETATM    8  C8  UNL     1      46.636  35.681  19.574  1.00  0.00     0.066 A 
HETATM    9  C9  UNL     1      45.443  35.584  20.236  1.00  0.00     0.272 A 
HETATM   10  C11 UNL     1      46.615  35.658  18.206  1.00  0.00     0.066 A 
HETATM   11  O1  UNL     1      45.436  35.603  21.481  1.00  0.00    -0.267 OA
HETATM   12  N1  UNL     1      44.280  35.465  19.533  1.00  0.00    -0.156 N 
HETATM   13  C10 UNL     1      44.250  35.440  18.193  1.00  0.00     0.679 A 
ATOM     14  H1  UNL     1      43.402  35.393  20.046  1.00  0.00     0.187 HD
HETATM   15  N3  UNL     1      45.423  35.537  17.549  1.00  0.00    -0.191 N 
ATOM     16  H3  UNL     1      45.426  35.521  16.529  1.00  0.00     0.184 HD
HETATM   17  C12 UNL     1      47.906  35.776  18.182  1.00  0.00     0.039 A 
BRANCH  13  18
HETATM   18  N2  UNL     1      43.152  35.329  17.515  1.00  0.00    -0.234 N 
ATOM     19  H22 UNL     1      42.267  35.609  17.936  1.00  0.00     0.174 HD
ATOM     20  H21 UNL     1      43.123  34.968  16.561  1.00  0.00     0.174 HD
ENDBRANCH  13  18
ENDBRANCH   6   7
ENDBRANCH   5   6
ENDBRANCH   4   5
ENDBRANCH   3   4
TORSDOF 5
ENDMDL
MODEL 5
REMARK VINA RESULT: -7.107958940      3.653      5.113
REMARK  5 active torsions:
REMARK  status: ('A' for Active; 'I' for Inactive)
REMARK    1  A    between atoms: C3_3  and  C4_4 
REMARK    2  A    between atoms: C4_4  and  C5_5 
REMARK    3  A    between atoms: C5_5  and  C6_6 
REMARK    4  A    between atoms: C6_6  and  C7_7 
REMARK    5  A    between atoms: C10_13  and  N2_14 
ROOT
HETATM    1  C1  UNL     1      48.352  35.914  19.491  1.00  0.00     0.012 C 
HETATM    2  C2  UNL     1      48.013  35.936  18.334  1.00  0.00    -0.117 C 
HETATM    3  C3  UNL     1      47.617  35.955  16.904  1.00  0.00     0.093 C 
ENDROOT
BRANCH   3   4
HETATM    4  C4  UNL     1      46.253  35.359  16.838  1.00  0.00     0.012 C 
BRANCH   4   5
HETATM    5  C5  UNL     1      45.381  35.702  18.040  1.00  0.00     0.006 C 
BRANCH   5   6
HETATM    6  C6  UNL     1      44.606  34.488  18.401  1.00  0.00     0.040 C 
BRANCH   6   7
HETATM    7  C7  UNL     1      45.308  33.561  19.314  1.00  0.00    -0.038 A 
HETATM    8  C8  UNL     1      46.346  32.785  19.415  1.00  0.00     0.066 A 
HETATM    9  C9  UNL     1      47.475  32.266  18.844  1.00  0.00     0.272 A 
HETATM   10  C11 UNL     1      46.036  32.398  20.690  1.00  0.00     0.066 A 
HETATM   11  O1  UNL     1      47.780  32.602  17.684  1.00  0.00    -0.267 OA
HETATM   12  N1  UNL     1      48.253  31.389  19.542  1.00  0.00    -0.156 N 
HETATM   13  C10 UNL     1      47.956  31.004  20.792  1.00  0.00     0.679 A 
ATOM     14  H1  UNL     1      49.090  31.013  19.098  1.00  0.00     0.187 HD
HETATM   15  N3  UNL     1      46.847  31.517  21.347  1.00  0.00    -0.191 N 
ATOM     16  H3  UNL     1      46.601  31.239  22.297  1.00  0.00     0.184 HD
HETATM   17  C12 UNL     1      44.980  33.151  20.663  1.00  0.00     0.039 A 
BRANCH  13  18
HETATM   18  N2  UNL     1      48.686  30.173  21.465  1.00  0.00    -0.234 N 
ATOM     19  H22 UNL     1      49.073  29.350  21.003  1.00  0.00     0.174 HD
ATOM     20  H21 UNL     1      48.900  30.298  22.455  1.00  0.00     0.174 HD
ENDBRANCH  13  18
ENDBRANCH   6   7
ENDBRANCH   5   6
ENDBRANCH   4   5
ENDBRANCH   3   4
TORSDOF 5
ENDMDL
