MODEL 1
REMARK VINA RESULT: -6.092226475      0.000      0.000
REMARK  7 active torsions:
REMARK  status: ('A' for Active; 'I' for Inactive)
REMARK    1  A    between atoms: C2_2  and  C3_3 
REMARK    2  A    between atoms: C3_3  and  C4_4 
REMARK    3  A    between atoms: C5_5  and  C6_6 
REMARK    4  A    between atoms: C6_6  and  N1_7 
REMARK    5  A    between atoms: N1_7  and  C7_10 
REMARK    6  A    between atoms: C7_10  and  C8_11 
REMARK    7  A    between atoms: C8_11  and  C9_12 
ROOT
HETATM    1  N1  UNL     1       2.219   1.116  22.170  1.00  0.00    -0.072 N 
ATOM      2  H11 UNL     1       1.545   1.876  22.265  1.00  0.00     0.277 HD
ATOM      3  H12 UNL     1       1.872   0.755  21.282  1.00  0.00     0.277 HD
ENDROOT
BRANCH   1   4
HETATM    4  C6  UNL     1       2.161   0.138  23.267  1.00  0.00     0.259 C 
BRANCH   4   5
HETATM    5  C5  UNL     1       1.608  -1.155  22.865  1.00  0.00    -0.004 C 
HETATM    6  C4  UNL     1       1.128  -2.022  23.700  1.00  0.00    -0.029 C 
BRANCH   6   7
HETATM    7  C3  UNL     1       1.069  -1.835  25.148  1.00  0.00     0.026 C 
BRANCH   7   8
HETATM    8  C2  UNL     1      -0.298  -2.180  25.751  1.00  0.00    -0.001 C 
HETATM    9  C1  UNL     1       0.018  -2.818  27.110  1.00  0.00     0.005 C 
ENDBRANCH   7   8
ENDBRANCH   6   7
ENDBRANCH   4   5
ENDBRANCH   1   4
BRANCH   1  10
HETATM   10  C7  UNL     1       3.585   1.562  22.115  1.00  0.00     0.233 C 
BRANCH  10  11
HETATM   11  C8  UNL     1       3.726   3.048  22.490  1.00  0.00     0.032 C 
BRANCH  11  12
HETATM   12  C9  UNL     1       2.358   3.633  22.139  1.00  0.00    -0.013 A 
HETATM   13  C10 UNL     1       2.287   5.104  22.555  1.00  0.00     0.005 A 
HETATM   14  C11 UNL     1       2.182   4.648  21.105  1.00  0.00     0.005 A 
ENDBRANCH  11  12
ENDBRANCH  10  11
ENDBRANCH   1  10
TORSDOF 7
ENDMDL
MODEL 2
REMARK VINA RESULT: -6.072202852      0.953      1.388
REMARK  7 active torsions:
REMARK  status: ('A' for Active; 'I' for Inactive)
REMARK    1  A    between atoms: C2_2  and  C3_3 
REMARK    2  A    between atoms: C3_3  and  C4_4 
REMARK    3  A    between atoms: C5_5  and  C6_6 
REMARK    4  A    between atoms: C6_6  and  N1_7 
REMARK    5  A    between atoms: N1_7  and  C7_10 
REMARK    6  A    between atoms: C7_10  and  C8_11 
REMARK    7  A    between atoms: C8_11  and  C9_12 
ROOT
HETATM    1  N1  UNL     1       3.999   1.047  21.393  1.00  0.00    -0.072 N 
ATOM      2  H11 UNL     1       3.683   1.481  20.525  1.00  0.00     0.277 HD
ATOM      3  H12 UNL     1       4.930   0.789  21.070  1.00  0.00     0.277 HD
ENDROOT
BRANCH   1   4
HETATM    4  C6  UNL     1       3.180  -0.102  21.808  1.00  0.00     0.259 C 
BRANCH   4   5
HETATM    5  C5  UNL     1       1.829   0.267  22.230  1.00  0.00    -0.004 C 
HETATM    6  C4  UNL     1       1.089  -0.471  22.996  1.00  0.00    -0.029 C 
BRANCH   6   7
HETATM    7  C3  UNL     1       1.492  -1.763  23.547  1.00  0.00     0.026 C 
BRANCH   7   8
HETATM    8  C2  UNL     1       1.373  -1.838  25.073  1.00  0.00    -0.001 C 
HETATM    9  C1  UNL     1      -0.079  -2.258  25.336  1.00  0.00     0.005 C 
ENDBRANCH   7   8
ENDBRANCH   6   7
ENDBRANCH   4   5
ENDBRANCH   1   4
BRANCH   1  10
HETATM   10  C7  UNL     1       4.007   1.946  22.516  1.00  0.00     0.233 C 
BRANCH  10  11
HETATM   11  C8  UNL     1       4.049   3.420  22.078  1.00  0.00     0.032 C 
BRANCH  11  12
HETATM   12  C9  UNL     1       2.576   3.828  22.064  1.00  0.00    -0.013 A 
HETATM   13  C10 UNL     1       2.401   5.206  22.707  1.00  0.00     0.005 A 
HETATM   14  C11 UNL     1       2.076   4.928  21.245  1.00  0.00     0.005 A 
ENDBRANCH  11  12
ENDBRANCH  10  11
ENDBRANCH   1  10
TORSDOF 7
ENDMDL
MODEL 3
REMARK VINA RESULT: -5.929479451      0.894      6.453
REMARK  7 active torsions:
REMARK  status: ('A' for Active; 'I' for Inactive)
REMARK    1  A    between atoms: C2_2  and  C3_3 
REMARK    2  A    between atoms: C3_3  and  C4_4 
REMARK    3  A    between atoms: C5_5  and  C6_6 
REMARK    4  A    between atoms: C6_6  and  N1_7 
REMARK    5  A    between atoms: N1_7  and  C7_10 
REMARK    6  A    between atoms: C7_10  and  C8_11 
REMARK    7  A    between atoms: C8_11  and  C9_12 
ROOT
HETATM    1  N1  UNL     1       1.299   0.050  22.550  1.00  0.00    -0.072 N 
ATOM      2  H11 UNL     1       0.743   0.140  21.699  1.00  0.00     0.277 HD
ATOM      3  H12 UNL     1       0.715   0.640  23.142  1.00  0.00     0.277 HD
ENDROOT
BRANCH   1   4
HETATM    4  C6  UNL     1       2.678   0.541  22.406  1.00  0.00     0.259 C 
BRANCH   4   5
HETATM    5  C5  UNL     1       2.970   1.708  23.239  1.00  0.00    -0.004 C 
HETATM    6  C4  UNL     1       2.928   2.928  22.806  1.00  0.00    -0.029 C 
BRANCH   6   7
HETATM    7  C3  UNL     1       2.583   3.313  21.439  1.00  0.00     0.026 C 
BRANCH   7   8
HETATM    8  C2  UNL     1       2.166   4.783  21.307  1.00  0.00    -0.001 C 
HETATM    9  C1  UNL     1       2.293   5.358  22.724  1.00  0.00     0.005 C 
ENDBRANCH   7   8
ENDBRANCH   6   7
ENDBRANCH   4   5
ENDBRANCH   1   4
BRANCH   1  10
HETATM   10  C7  UNL     1       1.414  -1.304  23.021  1.00  0.00     0.233 C 
BRANCH  10  11
HETATM   11  C8  UNL     1       1.512  -1.378  24.554  1.00  0.00     0.032 C 
BRANCH  11  12
HETATM   12  C9  UNL     1       0.451  -2.413  24.929  1.00  0.00    -0.013 A 
HETATM   13  C10 UNL     1       0.701  -2.941  26.343  1.00  0.00     0.005 A 
HETATM   14  C11 UNL     1      -0.554  -2.168  25.958  1.00  0.00     0.005 A 
ENDBRANCH  11  12
ENDBRANCH  10  11
ENDBRANCH   1  10
TORSDOF 7
ENDMDL
MODEL 4
REMARK VINA RESULT: -5.852512281      1.256      6.495
REMARK  7 active torsions:
REMARK  status: ('A' for Active; 'I' for Inactive)
REMARK    1  A    between atoms: C2_2  and  C3_3 
REMARK    2  A    between atoms: C3_3  and  C4_4 
REMARK    3  A    between atoms: C5_5  and  C6_6 
REMARK    4  A    between atoms: C6_6  and  N1_7 
REMARK    5  A    between atoms: N1_7  and  C7_10 
REMARK    6  A    between atoms: C7_10  and  C8_11 
REMARK    7  A    between atoms: C8_11  and  C9_12 
ROOT
HETATM    1  N1  UNL     1       1.960  -1.641  22.572  1.00  0.00    -0.072 N 
ATOM      2  H11 UNL     1       2.874  -1.901  22.200  1.00  0.00     0.277 HD
ATOM      3  H12 UNL     1       1.443  -1.726  21.698  1.00  0.00     0.277 HD
ENDROOT
BRANCH   1   4
HETATM    4  C6  UNL     1       1.922  -0.289  23.149  1.00  0.00     0.259 C 
BRANCH   4   5
HETATM    5  C5  UNL     1       1.383   0.719  22.236  1.00  0.00    -0.004 C 
HETATM    6  C4  UNL     1       1.855   1.922  22.133  1.00  0.00    -0.029 C 
BRANCH   6   7
HETATM    7  C3  UNL     1       2.983   2.440  22.904  1.00  0.00     0.026 C 
BRANCH   7   8
HETATM    8  C2  UNL     1       3.569   3.735  22.329  1.00  0.00    -0.001 C 
HETATM    9  C1  UNL     1       2.428   4.757  22.414  1.00  0.00     0.005 C 
ENDBRANCH   7   8
ENDBRANCH   6   7
ENDBRANCH   4   5
ENDBRANCH   1   4
BRANCH   1  10
HETATM   10  C7  UNL     1       1.490  -2.521  23.608  1.00  0.00     0.233 C 
BRANCH  10  11
HETATM   11  C8  UNL     1       0.865  -1.751  24.784  1.00  0.00     0.032 C 
BRANCH  11  12
HETATM   12  C9  UNL     1       1.116  -2.668  25.982  1.00  0.00    -0.013 A 
HETATM   13  C10 UNL     1      -0.040  -2.566  26.979  1.00  0.00     0.005 A 
HETATM   14  C11 UNL     1       0.308  -3.854  26.243  1.00  0.00     0.005 A 
ENDBRANCH  11  12
ENDBRANCH  10  11
ENDBRANCH   1  10
TORSDOF 7
ENDMDL
MODEL 5
REMARK VINA RESULT: -5.773043426      1.196      1.874
REMARK  7 active torsions:
REMARK  status: ('A' for Active; 'I' for Inactive)
REMARK    1  A    between atoms: C2_2  and  C3_3 
REMARK    2  A    between atoms: C3_3  and  C4_4 
REMARK    3  A    between atoms: C5_5  and  C6_6 
REMARK    4  A    between atoms: C6_6  and  N1_7 
REMARK    5  A    between atoms: N1_7  and  C7_10 
REMARK    6  A    between atoms: C7_10  and  C8_11 
REMARK    7  A    between atoms: C8_11  and  C9_12 
ROOT
HETATM    1  N1  UNL     1       4.143   1.096  21.260  1.00  0.00    -0.072 N 
ATOM      2  H11 UNL     1       3.582   1.427  20.475  1.00  0.00     0.277 HD
ATOM      3  H12 UNL     1       5.054   1.209  20.816  1.00  0.00     0.277 HD
ENDROOT
BRANCH   1   4
HETATM    4  C6  UNL     1       3.847  -0.290  21.653  1.00  0.00     0.259 C 
BRANCH   4   5
HETATM    5  C5  UNL     1       2.601  -0.802  21.084  1.00  0.00    -0.004 C 
HETATM    6  C4  UNL     1       1.536  -1.040  21.783  1.00  0.00    -0.029 C 
BRANCH   6   7
HETATM    7  C3  UNL     1       1.425  -0.831  23.225  1.00  0.00     0.026 C 
BRANCH   7   8
HETATM    8  C2  UNL     1       1.406  -2.135  24.030  1.00  0.00    -0.001 C 
HETATM    9  C1  UNL     1       0.259  -1.962  25.035  1.00  0.00     0.005 C 
ENDBRANCH   7   8
ENDBRANCH   6   7
ENDBRANCH   4   5
ENDBRANCH   1   4
BRANCH   1  10
HETATM   10  C7  UNL     1       3.984   1.883  22.454  1.00  0.00     0.233 C 
BRANCH  10  11
HETATM   11  C8  UNL     1       2.650   2.650  22.468  1.00  0.00     0.032 C 
BRANCH  11  12
HETATM   12  C9  UNL     1       3.069   4.096  22.206  1.00  0.00    -0.013 A 
HETATM   13  C10 UNL     1       2.123   4.749  21.196  1.00  0.00     0.005 A 
HETATM   14  C11 UNL     1       2.263   5.235  22.633  1.00  0.00     0.005 A 
ENDBRANCH  11  12
ENDBRANCH  10  11
ENDBRANCH   1  10
TORSDOF 7
ENDMDL
