MODEL 1
REMARK VINA RESULT: -6.286017954      0.000      0.000
REMARK  8 active torsions:
REMARK  status: ('A' for Active; 'I' for Inactive)
REMARK    1  A    between atoms: C2_2  and  C3_3 
REMARK    2  A    between atoms: C3_3  and  C4_4 
REMARK    3  A    between atoms: C4_4  and  C5_5 
REMARK    4  A    between atoms: C5_5  and  C6_6 
REMARK    5  A    between atoms: C6_6  and  C7_7 
REMARK    6  A    between atoms: C7_7  and  N1_8 
REMARK    7  A    between atoms: N1_8  and  C8_10 
REMARK    8  A    between atoms: C10_12  and  C11_13 
ROOT
HETATM    1  C7  UNL     1       2.829  -0.463  21.960  1.00  0.00     0.114 C 
ENDROOT
BRANCH   1   2
HETATM    2  C6  UNL     1       1.345  -0.466  22.298  1.00  0.00     0.019 C 
BRANCH   2   3
HETATM    3  C5  UNL     1       1.066  -0.946  23.679  1.00  0.00     0.002 C 
BRANCH   3   4
HETATM    4  C4  UNL     1       1.320  -2.431  23.739  1.00  0.00     0.004 C 
BRANCH   4   5
HETATM    5  C3  UNL     1       0.476  -3.172  24.716  1.00  0.00     0.026 C 
BRANCH   5   6
HETATM    6  C2  UNL     1      -0.104  -2.276  25.740  1.00  0.00    -0.037 C 
HETATM    7  C1  UNL     1      -0.007  -2.585  27.015  1.00  0.00     0.007 C 
ENDBRANCH   5   6
ENDBRANCH   4   5
ENDBRANCH   3   4
ENDBRANCH   2   3
ENDBRANCH   1   2
BRANCH   1   8
HETATM    8  N1  UNL     1       3.148   0.839  21.517  1.00  0.00    -0.416 N 
ATOM      9  H1  UNL     1       3.752   0.975  20.707  1.00  0.00     0.153 HD
BRANCH   8  10
HETATM   10  C8  UNL     1       2.623   1.943  22.204  1.00  0.00     0.084 A 
HETATM   11  C9  UNL     1       3.217   2.261  23.548  1.00  0.00     0.036 A 
HETATM   12  C10 UNL     1       3.330   3.222  22.385  1.00  0.00     0.032 A 
BRANCH  12  13
HETATM   13  C11 UNL     1       2.510   4.461  22.541  1.00  0.00    -0.030 C 
HETATM   14  C12 UNL     1       2.149   5.210  21.520  1.00  0.00     0.007 C 
ENDBRANCH  12  13
ENDBRANCH   8  10
ENDBRANCH   1   8
TORSDOF 8
ENDMDL
MODEL 2
REMARK VINA RESULT: -6.122492974      1.071      6.519
REMARK  8 active torsions:
REMARK  status: ('A' for Active; 'I' for Inactive)
REMARK    1  A    between atoms: C2_2  and  C3_3 
REMARK    2  A    between atoms: C3_3  and  C4_4 
REMARK    3  A    between atoms: C4_4  and  C5_5 
REMARK    4  A    between atoms: C5_5  and  C6_6 
REMARK    5  A    between atoms: C6_6  and  C7_7 
REMARK    6  A    between atoms: C7_7  and  N1_8 
REMARK    7  A    between atoms: N1_8  and  C8_10 
REMARK    8  A    between atoms: C10_12  and  C11_13 
ROOT
HETATM    1  C7  UNL     1       1.636  -0.126  22.171  1.00  0.00     0.114 C 
ENDROOT
BRANCH   1   2
HETATM    2  C6  UNL     1       1.880   1.376  22.207  1.00  0.00     0.019 C 
BRANCH   2   3
HETATM    3  C5  UNL     1       3.015   1.758  23.091  1.00  0.00     0.002 C 
BRANCH   3   4
HETATM    4  C4  UNL     1       3.705   2.963  22.504  1.00  0.00     0.004 C 
BRANCH   4   5
HETATM    5  C3  UNL     1       3.154   3.427  21.201  1.00  0.00     0.026 C 
BRANCH   5   6
HETATM    6  C2  UNL     1       2.570   4.783  21.297  1.00  0.00    -0.037 C 
HETATM    7  C1  UNL     1       2.243   5.275  22.472  1.00  0.00     0.007 C 
ENDBRANCH   5   6
ENDBRANCH   4   5
ENDBRANCH   3   4
ENDBRANCH   2   3
ENDBRANCH   1   2
BRANCH   1   8
HETATM    8  N1  UNL     1       1.868  -0.613  23.476  1.00  0.00    -0.416 N 
ATOM      9  H1  UNL     1       2.707  -0.341  23.987  1.00  0.00     0.153 HD
BRANCH   8  10
HETATM   10  C8  UNL     1       0.928  -1.474  24.061  1.00  0.00     0.084 A 
HETATM   11  C9  UNL     1       1.273  -2.937  24.106  1.00  0.00     0.036 A 
HETATM   12  C10 UNL     1       1.100  -2.125  25.371  1.00  0.00     0.032 A 
BRANCH  12  13
HETATM   13  C11 UNL     1      -0.127  -2.469  26.150  1.00  0.00    -0.030 C 
HETATM   14  C12 UNL     1      -0.087  -2.871  27.404  1.00  0.00     0.007 C 
ENDBRANCH  12  13
ENDBRANCH   8  10
ENDBRANCH   1   8
TORSDOF 8
ENDMDL
MODEL 3
REMARK VINA RESULT: -6.105859075      1.124      1.503
REMARK  8 active torsions:
REMARK  status: ('A' for Active; 'I' for Inactive)
REMARK    1  A    between atoms: C2_2  and  C3_3 
REMARK    2  A    between atoms: C3_3  and  C4_4 
REMARK    3  A    between atoms: C4_4  and  C5_5 
REMARK    4  A    between atoms: C5_5  and  C6_6 
REMARK    5  A    between atoms: C6_6  and  C7_7 
REMARK    6  A    between atoms: C7_7  and  N1_8 
REMARK    7  A    between atoms: N1_8  and  C8_10 
REMARK    8  A    between atoms: C10_12  and  C11_13 
ROOT
HETATM    1  C7  UNL     1       3.058   0.682  21.628  1.00  0.00     0.114 C 
ENDROOT
BRANCH   1   2
HETATM    2  C6  UNL     1       2.283   0.514  22.928  1.00  0.00     0.019 C 
BRANCH   2   3
HETATM    3  C5  UNL     1       1.485  -0.742  22.969  1.00  0.00     0.002 C 
BRANCH   3   4
HETATM    4  C4  UNL     1       1.488  -1.275  24.379  1.00  0.00     0.004 C 
BRANCH   4   5
HETATM    5  C3  UNL     1       0.491  -2.348  24.646  1.00  0.00     0.026 C 
BRANCH   5   6
HETATM    6  C2  UNL     1      -0.300  -2.080  25.866  1.00  0.00    -0.037 C 
HETATM    7  C1  UNL     1      -0.004  -2.695  26.990  1.00  0.00     0.007 C 
ENDBRANCH   5   6
ENDBRANCH   4   5
ENDBRANCH   3   4
ENDBRANCH   2   3
ENDBRANCH   1   2
BRANCH   1   8
HETATM    8  N1  UNL     1       4.090   1.611  21.881  1.00  0.00    -0.416 N 
ATOM      9  H1  UNL     1       4.995   1.295  22.231  1.00  0.00     0.153 HD
BRANCH   8  10
HETATM   10  C8  UNL     1       3.857   2.973  21.645  1.00  0.00     0.084 A 
HETATM   11  C9  UNL     1       3.765   3.415  20.211  1.00  0.00     0.036 A 
HETATM   12  C10 UNL     1       2.584   3.525  21.150  1.00  0.00     0.032 A 
BRANCH  12  13
HETATM   13  C11 UNL     1       2.235   4.928  21.525  1.00  0.00    -0.030 C 
HETATM   14  C12 UNL     1       2.186   5.342  22.774  1.00  0.00     0.007 C 
ENDBRANCH  12  13
ENDBRANCH   8  10
ENDBRANCH   1   8
TORSDOF 8
ENDMDL
MODEL 4
REMARK VINA RESULT: -5.690426585      3.591      5.735
REMARK  8 active torsions:
REMARK  status: ('A' for Active; 'I' for Inactive)
REMARK    1  A    between atoms: C2_2  and  C3_3 
REMARK    2  A    between atoms: C3_3  and  C4_4 
REMARK    3  A    between atoms: C4_4  and  C5_5 
REMARK    4  A    between atoms: C5_5  and  C6_6 
REMARK    5  A    between atoms: C6_6  and  C7_7 
REMARK    6  A    between atoms: C7_7  and  N1_8 
REMARK    7  A    between atoms: N1_8  and  C8_10 
REMARK    8  A    between atoms: C10_12  and  C11_13 
ROOT
HETATM    1  C7  UNL     1       4.618  -0.256  21.236  1.00  0.00     0.114 C 
ENDROOT
BRANCH   1   2
HETATM    2  C6  UNL     1       4.241  -0.117  19.768  1.00  0.00     0.019 C 
BRANCH   2   3
HETATM    3  C5  UNL     1       5.289  -0.638  18.848  1.00  0.00     0.002 C 
BRANCH   3   4
HETATM    4  C4  UNL     1       5.787  -1.960  19.376  1.00  0.00     0.004 C 
BRANCH   4   5
HETATM    5  C3  UNL     1       7.256  -2.169  19.255  1.00  0.00     0.026 C 
BRANCH   5   6
HETATM    6  C2  UNL     1       8.026  -1.090  19.911  1.00  0.00    -0.037 C 
HETATM    7  C1  UNL     1       9.136  -0.648  19.361  1.00  0.00     0.007 C 
ENDBRANCH   5   6
ENDBRANCH   4   5
ENDBRANCH   3   4
ENDBRANCH   2   3
ENDBRANCH   1   2
BRANCH   1   8
HETATM    8  N1  UNL     1       4.694   1.049  21.768  1.00  0.00    -0.416 N 
ATOM      9  H1  UNL     1       5.600   1.478  21.956  1.00  0.00     0.153 HD
BRANCH   8  10
HETATM   10  C8  UNL     1       3.508   1.750  22.033  1.00  0.00     0.084 A 
HETATM   11  C9  UNL     1       3.187   2.035  23.474  1.00  0.00     0.036 A 
HETATM   12  C10 UNL     1       3.454   3.150  22.486  1.00  0.00     0.032 A 
BRANCH  12  13
HETATM   13  C11 UNL     1       2.244   3.954  22.137  1.00  0.00    -0.030 C 
HETATM   14  C12 UNL     1       2.259   5.268  22.058  1.00  0.00     0.007 C 
ENDBRANCH  12  13
ENDBRANCH   8  10
ENDBRANCH   1   8
TORSDOF 8
ENDMDL
MODEL 5
REMARK VINA RESULT: -5.678301032      2.415      4.197
REMARK  8 active torsions:
REMARK  status: ('A' for Active; 'I' for Inactive)
REMARK    1  A    between atoms: C2_2  and  C3_3 
REMARK    2  A    between atoms: C3_3  and  C4_4 
REMARK    3  A    between atoms: C4_4  and  C5_5 
REMARK    4  A    between atoms: C5_5  and  C6_6 
REMARK    5  A    between atoms: C6_6  and  C7_7 
REMARK    6  A    between atoms: C7_7  and  N1_8 
REMARK    7  A    between atoms: N1_8  and  C8_10 
REMARK    8  A    between atoms: C10_12  and  C11_13 
ROOT
HETATM    1  C7  UNL     1       3.151   1.431  21.470  1.00  0.00     0.114 C 
ENDROOT
BRANCH   1   2
HETATM    2  C6  UNL     1       2.489   0.966  22.759  1.00  0.00     0.019 C 
BRANCH   2   3
HETATM    3  C5  UNL     1       1.250   0.177  22.523  1.00  0.00     0.002 C 
BRANCH   3   4
HETATM    4  C4  UNL     1       1.474  -1.236  22.999  1.00  0.00     0.004 C 
BRANCH   4   5
HETATM    5  C3  UNL     1       1.388  -1.422  24.473  1.00  0.00     0.026 C 
BRANCH   5   6
HETATM    6  C2  UNL     1       0.375  -2.433  24.847  1.00  0.00    -0.037 C 
HETATM    7  C1  UNL     1      -0.422  -2.217  25.871  1.00  0.00     0.007 C 
ENDBRANCH   5   6
ENDBRANCH   4   5
ENDBRANCH   3   4
ENDBRANCH   2   3
ENDBRANCH   1   2
BRANCH   1   8
HETATM    8  N1  UNL     1       4.397   0.773  21.385  1.00  0.00    -0.416 N 
ATOM      9  H1  UNL     1       5.224   1.174  21.828  1.00  0.00     0.153 HD
BRANCH   8  10
HETATM   10  C8  UNL     1       4.484  -0.440  20.686  1.00  0.00     0.084 A 
HETATM   11  C9  UNL     1       3.544  -0.633  19.529  1.00  0.00     0.036 A 
HETATM   12  C10 UNL     1       5.043  -0.579  19.331  1.00  0.00     0.032 A 
BRANCH  12  13
HETATM   13  C11 UNL     1       5.653  -1.890  18.955  1.00  0.00    -0.030 C 
HETATM   14  C12 UNL     1       6.917  -2.179  19.181  1.00  0.00     0.007 C 
ENDBRANCH  12  13
ENDBRANCH   8  10
ENDBRANCH   1   8
TORSDOF 8
ENDMDL
