MODEL 1
REMARK VINA RESULT: -5.937780950      0.000      0.000
REMARK  8 active torsions:
REMARK  status: ('A' for Active; 'I' for Inactive)
REMARK    1  A    between atoms: C2_2  and  C3_3 
REMARK    2  A    between atoms: C2_2  and  C6_10 
REMARK    3  A    between atoms: C3_3  and  C4_4 
REMARK    4  A    between atoms: C4_4  and  C5_5 
REMARK    5  A    between atoms: C5_5  and  N1_6 
REMARK    6  A    between atoms: C6_10  and  C7_11 
REMARK    7  A    between atoms: C7_11  and  C8_12 
REMARK    8  A    between atoms: C8_12  and  C9_13 
ROOT
HETATM    1  C1  UNL     1       1.822  -1.205  21.425  1.00  0.00     0.010 C 
HETATM    2  C2  UNL     1       1.296  -0.408  22.550  1.00  0.00    -0.019 C 
ENDROOT
BRANCH   2   3
HETATM    3  C3  UNL     1       1.583  -0.865  23.936  1.00  0.00     0.006 C 
BRANCH   3   4
HETATM    4  C4  UNL     1       0.995  -2.113  24.423  1.00  0.00     0.027 C 
BRANCH   4   5
HETATM    5  C5  UNL     1      -0.059  -2.101  25.453  1.00  0.00     0.229 C 
BRANCH   5   6
HETATM    6  N1  UNL     1      -0.443  -3.424  25.938  1.00  0.00    -0.079 N 
ATOM      7  H13 UNL     1       0.386  -3.997  26.101  1.00  0.00     0.274 HD
ATOM      8  H12 UNL     1      -0.803  -3.363  26.890  1.00  0.00     0.274 HD
ATOM      9  H11 UNL     1      -1.103  -3.916  25.338  1.00  0.00     0.274 HD
ENDBRANCH   5   6
ENDBRANCH   4   5
ENDBRANCH   3   4
ENDBRANCH   2   3
BRANCH   2  10
HETATM   10  C6  UNL     1       1.714   1.038  22.432  1.00  0.00     0.004 C 
BRANCH  10  11
HETATM   11  C7  UNL     1       2.821   1.479  23.301  1.00  0.00     0.001 C 
BRANCH  11  12
HETATM   12  C8  UNL     1       3.322   2.831  22.761  1.00  0.00     0.005 C 
BRANCH  12  13
HETATM   13  C9  UNL     1       2.225   3.595  22.096  1.00  0.00    -0.014 A 
HETATM   14  C10 UNL     1       2.456   4.567  21.021  1.00  0.00     0.005 A 
HETATM   15  C11 UNL     1       2.185   5.103  22.369  1.00  0.00     0.005 A 
ENDBRANCH  12  13
ENDBRANCH  11  12
ENDBRANCH  10  11
ENDBRANCH   2  10
TORSDOF 8
ENDMDL
MODEL 2
REMARK VINA RESULT: -5.733363012      0.926      1.205
REMARK  8 active torsions:
REMARK  status: ('A' for Active; 'I' for Inactive)
REMARK    1  A    between atoms: C2_2  and  C3_3 
REMARK    2  A    between atoms: C2_2  and  C6_10 
REMARK    3  A    between atoms: C3_3  and  C4_4 
REMARK    4  A    between atoms: C4_4  and  C5_5 
REMARK    5  A    between atoms: C5_5  and  N1_6 
REMARK    6  A    between atoms: C6_10  and  C7_11 
REMARK    7  A    between atoms: C7_11  and  C8_12 
REMARK    8  A    between atoms: C8_12  and  C9_13 
ROOT
HETATM    1  C1  UNL     1       2.729  -1.529  22.133  1.00  0.00     0.010 C 
HETATM    2  C2  UNL     1       1.526  -1.068  22.851  1.00  0.00    -0.019 C 
ENDROOT
BRANCH   2   3
HETATM    3  C3  UNL     1       1.506  -1.165  24.335  1.00  0.00     0.006 C 
BRANCH   3   4
HETATM    4  C4  UNL     1       0.533  -2.041  24.990  1.00  0.00     0.027 C 
BRANCH   4   5
HETATM    5  C5  UNL     1       0.888  -2.783  26.213  1.00  0.00     0.229 C 
BRANCH   5   6
HETATM    6  N1  UNL     1      -0.002  -2.539  27.345  1.00  0.00    -0.079 N 
ATOM      7  H13 UNL     1      -0.165  -3.403  27.862  1.00  0.00     0.274 HD
ATOM      8  H12 UNL     1       0.476  -1.994  28.062  1.00  0.00     0.274 HD
ATOM      9  H11 UNL     1      -0.888  -2.101  27.096  1.00  0.00     0.274 HD
ENDBRANCH   5   6
ENDBRANCH   4   5
ENDBRANCH   3   4
ENDBRANCH   2   3
BRANCH   2  10
HETATM   10  C6  UNL     1       1.173   0.349  22.465  1.00  0.00     0.004 C 
BRANCH  10  11
HETATM   11  C7  UNL     1       2.271   1.333  22.486  1.00  0.00     0.001 C 
BRANCH  11  12
HETATM   12  C8  UNL     1       1.698   2.676  21.998  1.00  0.00     0.005 C 
BRANCH  12  13
HETATM   13  C9  UNL     1       2.654   3.798  22.238  1.00  0.00    -0.014 A 
HETATM   14  C10 UNL     1       2.227   5.169  22.537  1.00  0.00     0.005 A 
HETATM   15  C11 UNL     1       2.698   4.893  21.166  1.00  0.00     0.005 A 
ENDBRANCH  12  13
ENDBRANCH  11  12
ENDBRANCH  10  11
ENDBRANCH   2  10
TORSDOF 8
ENDMDL
MODEL 3
REMARK VINA RESULT: -5.699394908      3.091      6.215
REMARK  8 active torsions:
REMARK  status: ('A' for Active; 'I' for Inactive)
REMARK    1  A    between atoms: C2_2  and  C3_3 
REMARK    2  A    between atoms: C2_2  and  C6_10 
REMARK    3  A    between atoms: C3_3  and  C4_4 
REMARK    4  A    between atoms: C4_4  and  C5_5 
REMARK    5  A    between atoms: C5_5  and  N1_6 
REMARK    6  A    between atoms: C6_10  and  C7_11 
REMARK    7  A    between atoms: C7_11  and  C8_12 
REMARK    8  A    between atoms: C8_12  and  C9_13 
ROOT
HETATM    1  C1  UNL     1       3.840   0.704  21.515  1.00  0.00     0.010 C 
HETATM    2  C2  UNL     1       2.922   1.142  22.584  1.00  0.00    -0.019 C 
ENDROOT
BRANCH   2   3
HETATM    3  C3  UNL     1       2.770   2.601  22.832  1.00  0.00     0.006 C 
BRANCH   3   4
HETATM    4  C4  UNL     1       1.943   3.407  21.933  1.00  0.00     0.027 C 
BRANCH   4   5
HETATM    5  C5  UNL     1       2.532   4.503  21.143  1.00  0.00     0.229 C 
BRANCH   5   6
HETATM    6  N1  UNL     1       3.204   4.070  19.921  1.00  0.00    -0.079 N 
ATOM      7  H13 UNL     1       2.539   3.628  19.286  1.00  0.00     0.274 HD
ATOM      8  H12 UNL     1       3.473   4.877  19.358  1.00  0.00     0.274 HD
ATOM      9  H11 UNL     1       4.007   3.460  20.076  1.00  0.00     0.274 HD
ENDBRANCH   5   6
ENDBRANCH   4   5
ENDBRANCH   3   4
ENDBRANCH   2   3
BRANCH   2  10
HETATM   10  C6  UNL     1       1.546   0.549  22.395  1.00  0.00     0.004 C 
BRANCH  10  11
HETATM   11  C7  UNL     1       1.393  -0.882  22.717  1.00  0.00     0.001 C 
BRANCH  11  12
HETATM   12  C8  UNL     1       1.423  -1.016  24.251  1.00  0.00     0.005 C 
BRANCH  12  13
HETATM   13  C9  UNL     1       0.608  -2.179  24.713  1.00  0.00    -0.014 A 
HETATM   14  C10 UNL     1      -0.348  -2.102  25.824  1.00  0.00     0.005 A 
HETATM   15  C11 UNL     1       0.954  -2.743  26.096  1.00  0.00     0.005 A 
ENDBRANCH  12  13
ENDBRANCH  11  12
ENDBRANCH  10  11
ENDBRANCH   2  10
TORSDOF 8
ENDMDL
MODEL 4
REMARK VINA RESULT: -5.691867412      2.631      3.560
REMARK  8 active torsions:
REMARK  status: ('A' for Active; 'I' for Inactive)
REMARK    1  A    between atoms: C2_2  and  C3_3 
REMARK    2  A    between atoms: C2_2  and  C6_10 
REMARK    3  A    between atoms: C3_3  and  C4_4 
REMARK    4  A    between atoms: C4_4  and  C5_5 
REMARK    5  A    between atoms: C5_5  and  N1_6 
REMARK    6  A    between atoms: C6_10  and  C7_11 
REMARK    7  A    between atoms: C7_11  and  C8_12 
REMARK    8  A    between atoms: C8_12  and  C9_13 
ROOT
HETATM    1  C1  UNL     1       1.082  -1.019  23.605  1.00  0.00     0.010 C 
HETATM    2  C2  UNL     1       2.146  -0.483  22.735  1.00  0.00    -0.019 C 
ENDROOT
BRANCH   2   3
HETATM    3  C3  UNL     1       2.255  -1.006  21.347  1.00  0.00     0.006 C 
BRANCH   3   4
HETATM    4  C4  UNL     1       3.357  -0.564  20.491  1.00  0.00     0.027 C 
BRANCH   4   5
HETATM    5  C5  UNL     1       4.738  -1.006  20.749  1.00  0.00     0.229 C 
BRANCH   5   6
HETATM    6  N1  UNL     1       5.579  -0.006  21.401  1.00  0.00    -0.079 N 
ATOM      7  H13 UNL     1       5.561   0.870  20.878  1.00  0.00     0.274 HD
ATOM      8  H12 UNL     1       5.152   0.303  22.275  1.00  0.00     0.274 HD
ATOM      9  H11 UNL     1       6.540  -0.305  21.562  1.00  0.00     0.274 HD
ENDBRANCH   5   6
ENDBRANCH   4   5
ENDBRANCH   3   4
ENDBRANCH   2   3
BRANCH   2  10
HETATM   10  C6  UNL     1       2.087   1.024  22.671  1.00  0.00     0.004 C 
BRANCH  10  11
HETATM   11  C7  UNL     1       3.090   1.760  23.462  1.00  0.00     0.001 C 
BRANCH  11  12
HETATM   12  C8  UNL     1       3.509   2.995  22.643  1.00  0.00     0.005 C 
BRANCH  12  13
HETATM   13  C9  UNL     1       2.322   3.713  22.092  1.00  0.00    -0.014 A 
HETATM   14  C10 UNL     1       2.414   4.734  21.042  1.00  0.00     0.005 A 
HETATM   15  C11 UNL     1       2.215   5.205  22.426  1.00  0.00     0.005 A 
ENDBRANCH  12  13
ENDBRANCH  11  12
ENDBRANCH  10  11
ENDBRANCH   2  10
TORSDOF 8
ENDMDL
MODEL 5
REMARK VINA RESULT: -5.632826187      3.053      6.357
REMARK  8 active torsions:
REMARK  status: ('A' for Active; 'I' for Inactive)
REMARK    1  A    between atoms: C2_2  and  C3_3 
REMARK    2  A    between atoms: C2_2  and  C6_10 
REMARK    3  A    between atoms: C3_3  and  C4_4 
REMARK    4  A    between atoms: C4_4  and  C5_5 
REMARK    5  A    between atoms: C5_5  and  N1_6 
REMARK    6  A    between atoms: C6_10  and  C7_11 
REMARK    7  A    between atoms: C7_11  and  C8_12 
REMARK    8  A    between atoms: C8_12  and  C9_13 
ROOT
HETATM    1  C1  UNL     1       3.237  -0.370  21.423  1.00  0.00     0.010 C 
HETATM    2  C2  UNL     1       2.479   0.343  22.469  1.00  0.00    -0.019 C 
ENDROOT
BRANCH   2   3
HETATM    3  C3  UNL     1       2.123   1.769  22.238  1.00  0.00     0.006 C 
BRANCH   3   4
HETATM    4  C4  UNL     1       2.950   2.826  22.821  1.00  0.00     0.027 C 
BRANCH   4   5
HETATM    5  C5  UNL     1       4.092   3.388  22.079  1.00  0.00     0.229 C 
BRANCH   5   6
HETATM    6  N1  UNL     1       4.063   3.128  20.642  1.00  0.00    -0.079 N 
ATOM      7  H13 UNL     1       3.114   3.226  20.281  1.00  0.00     0.274 HD
ATOM      8  H12 UNL     1       4.522   3.885  20.134  1.00  0.00     0.274 HD
ATOM      9  H11 UNL     1       4.456   2.228  20.370  1.00  0.00     0.274 HD
ENDBRANCH   5   6
ENDBRANCH   4   5
ENDBRANCH   3   4
ENDBRANCH   2   3
BRANCH   2  10
HETATM   10  C6  UNL     1       1.220  -0.406  22.834  1.00  0.00     0.004 C 
BRANCH  10  11
HETATM   11  C7  UNL     1       1.394  -1.682  23.552  1.00  0.00     0.001 C 
BRANCH  11  12
HETATM   12  C8  UNL     1       0.412  -1.683  24.738  1.00  0.00     0.005 C 
BRANCH  12  13
HETATM   13  C9  UNL     1       0.936  -2.490  25.881  1.00  0.00    -0.014 A 
HETATM   14  C10 UNL     1       0.412  -3.813  26.239  1.00  0.00     0.005 A 
HETATM   15  C11 UNL     1      -0.009  -2.670  27.074  1.00  0.00     0.005 A 
ENDBRANCH  12  13
ENDBRANCH  11  12
ENDBRANCH  10  11
ENDBRANCH   2  10
TORSDOF 8
ENDMDL
