MODEL 1
REMARK VINA RESULT: -8.042368184      0.000      0.000
REMARK  6 active torsions:
REMARK  status: ('A' for Active; 'I' for Inactive)
REMARK    1  A    between atoms: C2_3  and  N2_4 
REMARK       I    between atoms: N2_4  and  C3_6 
REMARK    2  A    between atoms: C3_6  and  C4_8 
REMARK    3  A    between atoms: C4_8  and  S1_9 
REMARK    4  A    between atoms: S1_9  and  C5_10 
REMARK    5  A    between atoms: C7_15  and  C8_16 
REMARK       I    between atoms: C8_16  and  N5_18 
REMARK    6  A    between atoms: N5_18  and  C9_20 
ROOT
HETATM    1  N1  UNL     1      34.276   6.906  10.435  1.00  0.00    -0.193 NA
HETATM    2  C1  UNL     1      33.800   5.882  10.160  1.00  0.00     0.115 C 
HETATM    3  C2  UNL     1      33.219   4.570   9.814  1.00  0.00     0.207 C 
HETATM    4  C13 UNL     1      33.131   4.436   8.306  1.00  0.00     0.149 C 
HETATM    5  S4  UNL     1      34.757   4.211   7.572  1.00  0.00    -0.122 SA
HETATM    6  C14 UNL     1      35.885   3.639   8.838  1.00  0.00     0.027 A 
HETATM    7  C15 UNL     1      37.228   3.461   8.559  1.00  0.00     0.021 A 
HETATM    8  C16 UNL     1      38.121   3.016   9.498  1.00  0.00     0.002 A 
HETATM    9  C17 UNL     1      37.609   2.749  10.756  1.00  0.00     0.002 A 
HETATM   10  C18 UNL     1      36.290   2.914  11.064  1.00  0.00     0.030 A 
HETATM   11  C19 UNL     1      35.406   3.370  10.084  1.00  0.00     0.047 A 
HETATM   12  N9  UNL     1      34.028   3.549  10.399  1.00  0.00    -0.350 N 
ATOM     13  H9  UNL     1      33.598   2.916  11.074  1.00  0.00     0.163 HD
ENDROOT
BRANCH   3  14
HETATM   14  N2  UNL     1      31.888   4.545  10.352  1.00  0.00    -0.321 N 
HETATM   15  C3  UNL     1      31.059   3.376  10.264  1.00  0.00     0.230 C 
HETATM   16  O1  UNL     1      31.578   2.377   9.685  1.00  0.00    -0.273 OA
ATOM     17  H2  UNL     1      31.522   5.381  10.808  1.00  0.00     0.166 HD
BRANCH  15  18
HETATM   18  C4  UNL     1      29.695   3.329  10.811  1.00  0.00     0.184 C 
BRANCH  18  19
HETATM   19  S1  UNL     1      28.487   4.227   9.819  1.00  0.00    -0.096 SA
BRANCH  19  20
HETATM   20  C5  UNL     1      28.848   3.885   8.077  1.00  0.00     0.114 A 
HETATM   21  N3  UNL     1      29.043   2.710   7.501  1.00  0.00    -0.332 N 
HETATM   22  C6  UNL     1      29.283   2.640   6.232  1.00  0.00     0.140 A 
ATOM     23  H3  UNL     1      29.004   1.858   8.059  1.00  0.00     0.168 HD
HETATM   24  N4  UNL     1      29.508   1.370   5.560  1.00  0.00    -0.081 NA
HETATM   25  C7  UNL     1      29.323   3.822   5.534  1.00  0.00     0.117 A 
HETATM   26  S3  UNL     1      29.012   4.964   6.758  1.00  0.00    -0.056 SA
BRANCH  25  27
HETATM   27  C8  UNL     1      29.580   3.995   4.087  1.00  0.00     0.280 C 
HETATM   28  O2  UNL     1      28.725   4.569   3.369  1.00  0.00    -0.266 OA
HETATM   29  N5  UNL     1      30.782   3.522   3.489  1.00  0.00    -0.153 N 
ATOM     30  H5  UNL     1      30.834   2.569   3.130  1.00  0.00     0.187 HD
BRANCH  29  31
HETATM   31  C9  UNL     1      31.826   4.322   3.402  1.00  0.00     0.704 A 
HETATM   32  N6  UNL     1      32.740   4.439   4.371  1.00  0.00    -0.130 N 
HETATM   33  N7  UNL     1      33.633   5.335   3.918  1.00  0.00    -0.265 N 
ATOM     34  H6  UNL     1      32.756   3.951   5.266  1.00  0.00     0.205 HD
HETATM   35  C10 UNL     1      33.258   5.743   2.706  1.00  0.00     0.177 A 
ATOM     36  H7  UNL     1      34.463   5.652   4.420  1.00  0.00     0.189 HD
HETATM   37  N8  UNL     1      32.130   5.130   2.346  1.00  0.00    -0.158 N 
HETATM   38  S2  UNL     1      33.693   6.832   1.362  1.00  0.00    -0.090 SA
HETATM   39  C11 UNL     1      31.606   5.444   1.066  1.00  0.00     0.160 C 
HETATM   40  C12 UNL     1      31.978   6.851   0.654  1.00  0.00     0.103 C 
ENDBRANCH  29  31
ENDBRANCH  25  27
ENDBRANCH  19  20
ENDBRANCH  18  19
ENDBRANCH  15  18
ENDBRANCH   3  14
TORSDOF 6
ENDMDL
MODEL 2
REMARK VINA RESULT: -7.981191103      1.050      1.309
REMARK  6 active torsions:
REMARK  status: ('A' for Active; 'I' for Inactive)
REMARK    1  A    between atoms: C2_3  and  N2_4 
REMARK       I    between atoms: N2_4  and  C3_6 
REMARK    2  A    between atoms: C3_6  and  C4_8 
REMARK    3  A    between atoms: C4_8  and  S1_9 
REMARK    4  A    between atoms: S1_9  and  C5_10 
REMARK    5  A    between atoms: C7_15  and  C8_16 
REMARK       I    between atoms: C8_16  and  N5_18 
REMARK    6  A    between atoms: N5_18  and  C9_20 
ROOT
HETATM    1  N1  UNL     1      33.862   6.815  10.426  1.00  0.00    -0.193 NA
HETATM    2  C1  UNL     1      33.445   5.784  10.088  1.00  0.00     0.115 C 
HETATM    3  C2  UNL     1      32.939   4.464   9.662  1.00  0.00     0.207 C 
HETATM    4  C13 UNL     1      32.932   4.389   8.148  1.00  0.00     0.149 C 
HETATM    5  S4  UNL     1      34.600   4.261   7.489  1.00  0.00    -0.122 SA
HETATM    6  C14 UNL     1      35.688   3.686   8.787  1.00  0.00     0.027 A 
HETATM    7  C15 UNL     1      37.050   3.576   8.569  1.00  0.00     0.021 A 
HETATM    8  C16 UNL     1      37.914   3.130   9.534  1.00  0.00     0.002 A 
HETATM    9  C17 UNL     1      37.354   2.791  10.753  1.00  0.00     0.002 A 
HETATM   10  C18 UNL     1      36.016   2.888  11.001  1.00  0.00     0.030 A 
HETATM   11  C19 UNL     1      35.162   3.346   9.996  1.00  0.00     0.047 A 
HETATM   12  N9  UNL     1      33.763   3.455  10.247  1.00  0.00    -0.350 N 
ATOM     13  H9  UNL     1      33.328   2.777  10.875  1.00  0.00     0.163 HD
ENDROOT
BRANCH   3  14
HETATM   14  N2  UNL     1      31.586   4.362  10.131  1.00  0.00    -0.321 N 
HETATM   15  C3  UNL     1      30.821   3.157   9.974  1.00  0.00     0.230 C 
HETATM   16  O1  UNL     1      31.417   2.199   9.399  1.00  0.00    -0.273 OA
ATOM     17  H2  UNL     1      31.157   5.167  10.587  1.00  0.00     0.166 HD
BRANCH  15  18
HETATM   18  C4  UNL     1      29.435   3.031  10.449  1.00  0.00     0.184 C 
BRANCH  18  19
HETATM   19  S1  UNL     1      28.294   4.183   9.663  1.00  0.00    -0.096 SA
BRANCH  19  20
HETATM   20  C5  UNL     1      28.791   4.346   7.929  1.00  0.00     0.114 A 
HETATM   21  N3  UNL     1      29.481   5.325   7.368  1.00  0.00    -0.332 N 
HETATM   22  C6  UNL     1      29.762   5.283   6.106  1.00  0.00     0.140 A 
ATOM     23  H3  UNL     1      29.792   6.116   7.932  1.00  0.00     0.168 HD
HETATM   24  N4  UNL     1      30.514   6.341   5.449  1.00  0.00    -0.081 NA
HETATM   25  C7  UNL     1      29.317   4.193   5.399  1.00  0.00     0.117 A 
HETATM   26  S3  UNL     1      28.516   3.295   6.604  1.00  0.00    -0.056 SA
BRANCH  25  27
HETATM   27  C8  UNL     1      29.512   3.925   3.957  1.00  0.00     0.280 C 
HETATM   28  O2  UNL     1      28.651   4.314   3.132  1.00  0.00    -0.266 OA
HETATM   29  N5  UNL     1      30.662   3.233   3.485  1.00  0.00    -0.153 N 
ATOM     30  H5  UNL     1      30.655   2.215   3.418  1.00  0.00     0.187 HD
BRANCH  29  31
HETATM   31  C9  UNL     1      31.736   3.912   3.135  1.00  0.00     0.704 A 
HETATM   32  N6  UNL     1      32.619   4.389   4.017  1.00  0.00    -0.130 N 
HETATM   33  N7  UNL     1      33.558   5.015   3.287  1.00  0.00    -0.265 N 
ATOM     34  H6  UNL     1      32.588   4.299   5.033  1.00  0.00     0.205 HD
HETATM   35  C10 UNL     1      33.240   4.912   1.997  1.00  0.00     0.177 A 
ATOM     36  H7  UNL     1      34.380   5.490   3.659  1.00  0.00     0.189 HD
HETATM   37  N8  UNL     1      32.104   4.227   1.859  1.00  0.00    -0.158 N 
HETATM   38  S2  UNL     1      33.758   5.368   0.352  1.00  0.00    -0.090 SA
HETATM   39  C11 UNL     1      31.636   4.015   0.538  1.00  0.00     0.160 C 
HETATM   40  C12 UNL     1      32.070   5.134  -0.382  1.00  0.00     0.103 C 
ENDBRANCH  29  31
ENDBRANCH  25  27
ENDBRANCH  19  20
ENDBRANCH  18  19
ENDBRANCH  15  18
ENDBRANCH   3  14
TORSDOF 6
ENDMDL
MODEL 3
REMARK VINA RESULT: -7.967216941      1.052      1.085
REMARK  6 active torsions:
REMARK  status: ('A' for Active; 'I' for Inactive)
REMARK    1  A    between atoms: C2_3  and  N2_4 
REMARK       I    between atoms: N2_4  and  C3_6 
REMARK    2  A    between atoms: C3_6  and  C4_8 
REMARK    3  A    between atoms: C4_8  and  S1_9 
REMARK    4  A    between atoms: S1_9  and  C5_10 
REMARK    5  A    between atoms: C7_15  and  C8_16 
REMARK       I    between atoms: C8_16  and  N5_18 
REMARK    6  A    between atoms: N5_18  and  C9_20 
ROOT
HETATM    1  N1  UNL     1      34.765   7.016  10.454  1.00  0.00    -0.193 NA
HETATM    2  C1  UNL     1      34.238   6.005  10.228  1.00  0.00     0.115 C 
HETATM    3  C2  UNL     1      33.592   4.709   9.944  1.00  0.00     0.207 C 
HETATM    4  C13 UNL     1      33.439   4.537   8.445  1.00  0.00     0.149 C 
HETATM    5  S4  UNL     1      35.023   4.225   7.655  1.00  0.00    -0.122 SA
HETATM    6  C14 UNL     1      36.178   3.644   8.891  1.00  0.00     0.027 A 
HETATM    7  C15 UNL     1      37.501   3.404   8.565  1.00  0.00     0.021 A 
HETATM    8  C16 UNL     1      38.413   2.950   9.481  1.00  0.00     0.002 A 
HETATM    9  C17 UNL     1      37.942   2.738  10.765  1.00  0.00     0.002 A 
HETATM   10  C18 UNL     1      36.644   2.965  11.120  1.00  0.00     0.030 A 
HETATM   11  C19 UNL     1      35.740   3.429  10.163  1.00  0.00     0.047 A 
HETATM   12  N9  UNL     1      34.383   3.672  10.526  1.00  0.00    -0.350 N 
ATOM     13  H9  UNL     1      33.957   3.076  11.236  1.00  0.00     0.163 HD
ENDROOT
BRANCH   3  14
HETATM   14  N2  UNL     1      32.284   4.752  10.534  1.00  0.00    -0.321 N 
HETATM   15  C3  UNL     1      31.416   3.609  10.534  1.00  0.00     0.230 C 
HETATM   16  O1  UNL     1      31.880   2.568   9.982  1.00  0.00    -0.273 OA
ATOM     17  H2  UNL     1      31.963   5.619  10.965  1.00  0.00     0.166 HD
BRANCH  15  18
HETATM   18  C4  UNL     1      30.075   3.632  11.136  1.00  0.00     0.184 C 
BRANCH  18  19
HETATM   19  S1  UNL     1      28.809   2.862  10.110  1.00  0.00    -0.096 SA
BRANCH  19  20
HETATM   20  C5  UNL     1      29.001   3.506   8.428  1.00  0.00     0.114 A 
HETATM   21  N3  UNL     1      29.115   2.823   7.302  1.00  0.00    -0.332 N 
HETATM   22  C6  UNL     1      29.237   3.444   6.174  1.00  0.00     0.140 A 
ATOM     23  H3  UNL     1      29.107   1.804   7.323  1.00  0.00     0.168 HD
HETATM   24  N4  UNL     1      29.370   2.731   4.913  1.00  0.00    -0.081 NA
HETATM   25  C7  UNL     1      29.240   4.817   6.209  1.00  0.00     0.117 A 
HETATM   26  S3  UNL     1      29.068   5.126   7.875  1.00  0.00    -0.056 SA
BRANCH  25  27
HETATM   27  C8  UNL     1      29.368   5.739   5.059  1.00  0.00     0.280 C 
HETATM   28  O2  UNL     1      29.023   6.939   5.184  1.00  0.00    -0.266 OA
HETATM   29  N5  UNL     1      29.876   5.291   3.808  1.00  0.00    -0.153 N 
ATOM     30  H5  UNL     1      29.244   4.904   3.107  1.00  0.00     0.187 HD
BRANCH  29  31
HETATM   31  C9  UNL     1      31.168   5.378   3.558  1.00  0.00     0.704 A 
HETATM   32  N6  UNL     1      32.077   4.576   4.120  1.00  0.00    -0.130 N 
HETATM   33  N7  UNL     1      33.263   4.970   3.624  1.00  0.00    -0.265 N 
ATOM     34  H6  UNL     1      31.907   3.822   4.786  1.00  0.00     0.205 HD
HETATM   35  C10 UNL     1      33.062   5.986   2.786  1.00  0.00     0.177 A 
ATOM     36  H7  UNL     1      34.168   4.559   3.853  1.00  0.00     0.189 HD
HETATM   37  N8  UNL     1      31.762   6.272   2.716  1.00  0.00    -0.158 N 
HETATM   38  S2  UNL     1      33.893   7.145   1.714  1.00  0.00    -0.090 SA
HETATM   39  C11 UNL     1      31.379   7.326   1.848  1.00  0.00     0.160 C 
HETATM   40  C12 UNL     1      32.484   8.351   1.713  1.00  0.00     0.103 C 
ENDBRANCH  29  31
ENDBRANCH  25  27
ENDBRANCH  19  20
ENDBRANCH  18  19
ENDBRANCH  15  18
ENDBRANCH   3  14
TORSDOF 6
ENDMDL
MODEL 4
REMARK VINA RESULT: -7.910243934      3.155      3.437
REMARK  6 active torsions:
REMARK  status: ('A' for Active; 'I' for Inactive)
REMARK    1  A    between atoms: C2_3  and  N2_4 
REMARK       I    between atoms: N2_4  and  C3_6 
REMARK    2  A    between atoms: C3_6  and  C4_8 
REMARK    3  A    between atoms: C4_8  and  S1_9 
REMARK    4  A    between atoms: S1_9  and  C5_10 
REMARK    5  A    between atoms: C7_15  and  C8_16 
REMARK       I    between atoms: C8_16  and  N5_18 
REMARK    6  A    between atoms: N5_18  and  C9_20 
ROOT
HETATM    1  N1  UNL     1      34.482   6.981  10.483  1.00  0.00    -0.193 NA
HETATM    2  C1  UNL     1      33.994   5.963  10.207  1.00  0.00     0.115 C 
HETATM    3  C2  UNL     1      33.399   4.657   9.861  1.00  0.00     0.207 C 
HETATM    4  C13 UNL     1      33.386   4.490   8.354  1.00  0.00     0.149 C 
HETATM    5  S4  UNL     1      35.041   4.207   7.711  1.00  0.00    -0.122 SA
HETATM    6  C14 UNL     1      36.087   3.639   9.047  1.00  0.00     0.027 A 
HETATM    7  C15 UNL     1      37.438   3.422   8.843  1.00  0.00     0.021 A 
HETATM    8  C16 UNL     1      38.270   2.978   9.837  1.00  0.00     0.002 A 
HETATM    9  C17 UNL     1      37.687   2.754  11.072  1.00  0.00     0.002 A 
HETATM   10  C18 UNL     1      36.359   2.958  11.307  1.00  0.00     0.030 A 
HETATM   11  C19 UNL     1      35.538   3.412  10.272  1.00  0.00     0.047 A 
HETATM   12  N9  UNL     1      34.150   3.632  10.510  1.00  0.00    -0.350 N 
ATOM     13  H9  UNL     1      33.670   3.026  11.176  1.00  0.00     0.163 HD
ENDROOT
BRANCH   3  14
HETATM   14  N2  UNL     1      32.042   4.678  10.329  1.00  0.00    -0.321 N 
HETATM   15  C3  UNL     1      31.197   3.519  10.249  1.00  0.00     0.230 C 
HETATM   16  O1  UNL     1      31.728   2.487   9.742  1.00  0.00    -0.273 OA
ATOM     17  H2  UNL     1      31.668   5.539  10.728  1.00  0.00     0.166 HD
BRANCH  15  18
HETATM   18  C4  UNL     1      29.806   3.519  10.725  1.00  0.00     0.184 C 
BRANCH  18  19
HETATM   19  S1  UNL     1      28.605   3.103   9.448  1.00  0.00    -0.096 SA
BRANCH  19  20
HETATM   20  C5  UNL     1      28.396   4.564   8.398  1.00  0.00     0.114 A 
HETATM   21  N3  UNL     1      29.182   5.624   8.312  1.00  0.00    -0.332 N 
HETATM   22  C6  UNL     1      28.891   6.585   7.496  1.00  0.00     0.140 A 
ATOM     23  H3  UNL     1      30.020   5.684   8.890  1.00  0.00     0.168 HD
HETATM   24  N4  UNL     1      29.724   7.771   7.374  1.00  0.00    -0.081 NA
HETATM   25  C7  UNL     1      27.750   6.447   6.744  1.00  0.00     0.117 A 
HETATM   26  S3  UNL     1      27.167   4.934   7.264  1.00  0.00    -0.056 SA
BRANCH  25  27
HETATM   27  C8  UNL     1      27.214   7.406   5.752  1.00  0.00     0.280 C 
HETATM   28  O2  UNL     1      26.383   8.273   6.114  1.00  0.00    -0.266 OA
HETATM   29  N5  UNL     1      27.625   7.365   4.391  1.00  0.00    -0.153 N 
ATOM     30  H5  UNL     1      27.124   6.779   3.722  1.00  0.00     0.187 HD
BRANCH  29  31
HETATM   31  C9  UNL     1      28.654   8.089   3.996  1.00  0.00     0.704 A 
HETATM   32  N6  UNL     1      29.924   7.716   4.184  1.00  0.00    -0.130 N 
HETATM   33  N7  UNL     1      30.671   8.700   3.655  1.00  0.00    -0.265 N 
ATOM     34  H6  UNL     1      30.257   6.863   4.635  1.00  0.00     0.205 HD
HETATM   35  C10 UNL     1      29.863   9.638   3.164  1.00  0.00     0.177 A 
ATOM     36  H7  UNL     1      31.691   8.725   3.634  1.00  0.00     0.189 HD
HETATM   37  N8  UNL     1      28.589   9.292   3.357  1.00  0.00    -0.158 N 
HETATM   38  S2  UNL     1      29.837  11.223   2.345  1.00  0.00    -0.090 SA
HETATM   39  C11 UNL     1      27.599  10.183   2.873  1.00  0.00     0.160 C 
HETATM   40  C12 UNL     1      28.101  11.610   2.872  1.00  0.00     0.103 C 
ENDBRANCH  29  31
ENDBRANCH  25  27
ENDBRANCH  19  20
ENDBRANCH  18  19
ENDBRANCH  15  18
ENDBRANCH   3  14
TORSDOF 6
ENDMDL
MODEL 5
REMARK VINA RESULT: -7.882743528      2.206      2.388
REMARK  6 active torsions:
REMARK  status: ('A' for Active; 'I' for Inactive)
REMARK    1  A    between atoms: C2_3  and  N2_4 
REMARK       I    between atoms: N2_4  and  C3_6 
REMARK    2  A    between atoms: C3_6  and  C4_8 
REMARK    3  A    between atoms: C4_8  and  S1_9 
REMARK    4  A    between atoms: S1_9  and  C5_10 
REMARK    5  A    between atoms: C7_15  and  C8_16 
REMARK       I    between atoms: C8_16  and  N5_18 
REMARK    6  A    between atoms: N5_18  and  C9_20 
ROOT
HETATM    1  N1  UNL     1      34.750   6.963  10.609  1.00  0.00    -0.193 NA
HETATM    2  C1  UNL     1      34.227   5.959  10.345  1.00  0.00     0.115 C 
HETATM    3  C2  UNL     1      33.588   4.671  10.011  1.00  0.00     0.207 C 
HETATM    4  C13 UNL     1      33.464   4.542   8.505  1.00  0.00     0.149 C 
HETATM    5  S4  UNL     1      35.064   4.252   7.738  1.00  0.00    -0.122 SA
HETATM    6  C14 UNL     1      36.194   3.636   8.980  1.00  0.00     0.027 A 
HETATM    7  C15 UNL     1      37.523   3.405   8.673  1.00  0.00     0.021 A 
HETATM    8  C16 UNL     1      38.417   2.924   9.593  1.00  0.00     0.002 A 
HETATM    9  C17 UNL     1      37.921   2.677  10.861  1.00  0.00     0.002 A 
HETATM   10  C18 UNL     1      36.617   2.894  11.197  1.00  0.00     0.030 A 
HETATM   11  C19 UNL     1      35.731   3.385  10.236  1.00  0.00     0.047 A 
HETATM   12  N9  UNL     1      34.368   3.618  10.579  1.00  0.00    -0.350 N 
ATOM     13  H9  UNL     1      33.927   3.003  11.263  1.00  0.00     0.163 HD
ENDROOT
BRANCH   3  14
HETATM   14  N2  UNL     1      32.269   4.699  10.576  1.00  0.00    -0.321 N 
HETATM   15  C3  UNL     1      31.403   3.554  10.531  1.00  0.00     0.230 C 
HETATM   16  O1  UNL     1      31.879   2.527   9.963  1.00  0.00    -0.273 OA
ATOM     17  H2  UNL     1      31.937   5.554  11.022  1.00  0.00     0.166 HD
BRANCH  15  18
HETATM   18  C4  UNL     1      30.050   3.561  11.107  1.00  0.00     0.184 C 
BRANCH  18  19
HETATM   19  S1  UNL     1      28.779   2.968   9.974  1.00  0.00    -0.096 SA
BRANCH  19  20
HETATM   20  C5  UNL     1      28.961   3.884   8.422  1.00  0.00     0.114 A 
HETATM   21  N3  UNL     1      28.402   5.034   8.085  1.00  0.00    -0.332 N 
HETATM   22  C6  UNL     1      28.647   5.562   6.930  1.00  0.00     0.140 A 
ATOM     23  H3  UNL     1      27.777   5.506   8.737  1.00  0.00     0.168 HD
HETATM   24  N4  UNL     1      28.049   6.823   6.516  1.00  0.00    -0.081 NA
HETATM   25  C7  UNL     1      29.498   4.880   6.094  1.00  0.00     0.117 A 
HETATM   26  S3  UNL     1      29.891   3.514   7.032  1.00  0.00    -0.056 SA
BRANCH  25  27
HETATM   27  C8  UNL     1      29.924   5.280   4.735  1.00  0.00     0.280 C 
HETATM   28  O2  UNL     1      29.254   4.910   3.741  1.00  0.00    -0.266 OA
HETATM   29  N5  UNL     1      31.082   6.081   4.531  1.00  0.00    -0.153 N 
ATOM     30  H5  UNL     1      31.995   5.641   4.416  1.00  0.00     0.187 HD
BRANCH  29  31
HETATM   31  C9  UNL     1      30.970   7.394   4.490  1.00  0.00     0.704 A 
HETATM   32  N6  UNL     1      30.797   8.147   5.581  1.00  0.00    -0.130 N 
HETATM   33  N7  UNL     1      30.727   9.414   5.138  1.00  0.00    -0.265 N 
ATOM     34  H6  UNL     1      30.732   7.827   6.548  1.00  0.00     0.205 HD
HETATM   35  C10 UNL     1      30.855   9.414   3.812  1.00  0.00     0.177 A 
ATOM     36  H7  UNL     1      30.597  10.240   5.722  1.00  0.00     0.189 HD
HETATM   37  N8  UNL     1      31.010   8.167   3.367  1.00  0.00    -0.158 N 
HETATM   38  S2  UNL     1      30.879  10.470   2.375  1.00  0.00    -0.090 SA
HETATM   39  C11 UNL     1      31.177   7.997   1.969  1.00  0.00     0.160 C 
HETATM   40  C12 UNL     1      30.476   9.094   1.198  1.00  0.00     0.103 C 
ENDBRANCH  29  31
ENDBRANCH  25  27
ENDBRANCH  19  20
ENDBRANCH  18  19
ENDBRANCH  15  18
ENDBRANCH   3  14
TORSDOF 6
ENDMDL
