MODEL 1
REMARK VINA RESULT: -6.377587136      0.000      0.000
REMARK  12 active torsions:
REMARK  status: ('A' for Active; 'I' for Inactive)
REMARK    1  A    between atoms: O1_2  and  C2_3 
REMARK    2  A    between atoms: C7_9  and  O2_10 
REMARK    3  A    between atoms: N1_12  and  N2_13 
REMARK    4  A    between atoms: N3_16  and  C10_17 
REMARK    5  A    between atoms: C10_17  and  S3_19 
REMARK    6  A    between atoms: S3_19  and  S4_20 
REMARK    7  A    between atoms: S4_20  and  C11_21 
REMARK    8  A    between atoms: C11_21  and  C12_23 
REMARK    9  A    between atoms: C12_23  and  C13_24 
REMARK   10  A    between atoms: C13_24  and  N4_25 
REMARK   11  A    between atoms: C13_24  and  C14_29 
REMARK   12  A    between atoms: C17_34  and  O6_35 
ROOT
HETATM    1  N2  UNL     1      32.425   3.971   8.018  1.00  0.00    -0.314 N 
HETATM    2  C8  UNL     1      31.610   5.128   8.227  1.00  0.00     0.163 C 
HETATM    3  C9  UNL     1      30.921   5.616   6.972  1.00  0.00     0.145 C 
HETATM    4  N3  UNL     1      30.555   4.502   6.118  1.00  0.00    -0.363 N 
HETATM    5  C15 UNL     1      30.606   3.176   6.690  1.00  0.00     0.145 C 
HETATM    6  C16 UNL     1      32.041   2.928   7.103  1.00  0.00     0.163 C 
ENDROOT
BRANCH   1   7
HETATM    7  N1  UNL     1      33.657   3.780   8.696  1.00  0.00    -0.212 N 
HETATM    8  C7  UNL     1      33.815   3.460   9.978  1.00  0.00     0.174 A 
HETATM    9  C6  UNL     1      35.165   3.356  10.290  1.00  0.00     0.044 A 
HETATM   10  C2  UNL     1      35.883   3.032  11.544  1.00  0.00     0.160 C 
HETATM   11  C5  UNL     1      35.855   3.632   9.128  1.00  0.00     0.066 A 
HETATM   12  C3  UNL     1      37.053   2.091  11.308  1.00  0.00     0.047 C 
HETATM   13  C4  UNL     1      38.200   2.802  10.623  1.00  0.00     0.082 C 
HETATM   14  S1  UNL     1      37.659   3.608   9.091  1.00  0.00    -0.125 SA
HETATM   15  C17 UNL     1      34.894   3.887   8.173  1.00  0.00     0.181 A 
BRANCH   8  16
HETATM   16  O2  UNL     1      32.734   3.261  10.855  1.00  0.00    -0.344 OA
ATOM     17  H2  UNL     1      31.822   3.155  10.614  1.00  0.00     0.219 HD
ENDBRANCH   8  16
BRANCH  10  18
HETATM   18  O1  UNL     1      36.341   4.129  12.222  1.00  0.00    -0.386 OA
HETATM   19  C1  UNL     1      36.489   3.925  13.587  1.00  0.00     0.202 C 
ENDBRANCH  10  18
BRANCH  15  20
HETATM   20  O6  UNL     1      35.114   4.214   6.838  1.00  0.00    -0.344 OA
ATOM     21  H6  UNL     1      34.932   3.668   6.083  1.00  0.00     0.219 HD
ENDBRANCH  15  20
ENDBRANCH   1   7
BRANCH   4  22
HETATM   22  C10 UNL     1      30.159   4.668   4.775  1.00  0.00     0.147 C 
HETATM   23  S2  UNL     1      31.241   4.325   3.605  1.00  0.00    -0.052 SA
BRANCH  22  24
HETATM   24  S3  UNL     1      28.511   5.239   4.425  1.00  0.00    -0.020 SA
BRANCH  24  25
HETATM   25  S4  UNL     1      27.061   4.209   5.585  1.00  0.00    -0.012 SA
BRANCH  25  26
HETATM   26  C11 UNL     1      27.179   4.649   7.312  1.00  0.00     0.199 C 
HETATM   27  O3  UNL     1      27.218   5.804   7.666  1.00  0.00    -0.285 OA
BRANCH  26  28
HETATM   28  C12 UNL     1      27.227   3.558   8.312  1.00  0.00     0.135 C 
BRANCH  28  29
HETATM   29  C13 UNL     1      28.149   3.963   9.425  1.00  0.00     0.291 C 
BRANCH  29  30
HETATM   30  N4  UNL     1      27.440   4.736  10.404  1.00  0.00    -0.065 N 
ATOM     31  H43 UNL     1      26.843   5.440   9.972  1.00  0.00     0.275 HD
ATOM     32  H42 UNL     1      26.715   4.190  10.869  1.00  0.00     0.275 HD
ATOM     33  H41 UNL     1      28.093   5.148  11.071  1.00  0.00     0.275 HD
ENDBRANCH  29  30
BRANCH  29  34
HETATM   34  C14 UNL     1      28.747   2.786  10.108  1.00  0.00     0.204 C 
HETATM   35  O4  UNL     1      28.007   2.004  10.762  1.00  0.00    -0.646 OA
HETATM   36  O5  UNL     1      30.102   2.488  10.069  1.00  0.00    -0.646 OA
ENDBRANCH  29  34
ENDBRANCH  28  29
ENDBRANCH  26  28
ENDBRANCH  25  26
ENDBRANCH  24  25
ENDBRANCH  22  24
ENDBRANCH   4  22
TORSDOF 12
ENDMDL
MODEL 2
REMARK VINA RESULT: -6.260226069      1.881      4.019
REMARK  12 active torsions:
REMARK  status: ('A' for Active; 'I' for Inactive)
REMARK    1  A    between atoms: O1_2  and  C2_3 
REMARK    2  A    between atoms: C7_9  and  O2_10 
REMARK    3  A    between atoms: N1_12  and  N2_13 
REMARK    4  A    between atoms: N3_16  and  C10_17 
REMARK    5  A    between atoms: C10_17  and  S3_19 
REMARK    6  A    between atoms: S3_19  and  S4_20 
REMARK    7  A    between atoms: S4_20  and  C11_21 
REMARK    8  A    between atoms: C11_21  and  C12_23 
REMARK    9  A    between atoms: C12_23  and  C13_24 
REMARK   10  A    between atoms: C13_24  and  N4_25 
REMARK   11  A    between atoms: C13_24  and  C14_29 
REMARK   12  A    between atoms: C17_34  and  O6_35 
ROOT
HETATM    1  N2  UNL     1      32.666   3.947   8.134  1.00  0.00    -0.314 N 
HETATM    2  C8  UNL     1      32.144   3.017   7.180  1.00  0.00     0.163 C 
HETATM    3  C9  UNL     1      30.639   2.873   7.239  1.00  0.00     0.145 C 
HETATM    4  N3  UNL     1      30.012   4.137   7.575  1.00  0.00    -0.363 N 
HETATM    5  C15 UNL     1      30.825   5.328   7.495  1.00  0.00     0.145 C 
HETATM    6  C16 UNL     1      31.962   5.155   8.478  1.00  0.00     0.163 C 
ENDROOT
BRANCH   1   7
HETATM    7  N1  UNL     1      33.903   3.739   8.796  1.00  0.00    -0.212 N 
HETATM    8  C7  UNL     1      34.074   3.395  10.070  1.00  0.00     0.174 A 
HETATM    9  C6  UNL     1      35.427   3.279  10.365  1.00  0.00     0.044 A 
HETATM   10  C2  UNL     1      36.156   2.930  11.606  1.00  0.00     0.160 C 
HETATM   11  C5  UNL     1      36.105   3.572   9.201  1.00  0.00     0.066 A 
HETATM   12  C3  UNL     1      37.318   1.987  11.341  1.00  0.00     0.047 C 
HETATM   13  C4  UNL     1      38.462   2.705  10.656  1.00  0.00     0.082 C 
HETATM   14  S1  UNL     1      37.909   3.540   9.144  1.00  0.00    -0.125 SA
HETATM   15  C17 UNL     1      35.135   3.849   8.261  1.00  0.00     0.181 A 
BRANCH   8  16
HETATM   16  O2  UNL     1      33.001   3.187  10.955  1.00  0.00    -0.344 OA
ATOM     17  H2  UNL     1      32.116   3.518  10.859  1.00  0.00     0.219 HD
ENDBRANCH   8  16
BRANCH  10  18
HETATM   18  O1  UNL     1      36.626   4.013  12.298  1.00  0.00    -0.386 OA
HETATM   19  C1  UNL     1      36.711   3.810  13.668  1.00  0.00     0.202 C 
ENDBRANCH  10  18
BRANCH  15  20
HETATM   20  O6  UNL     1      35.343   4.198   6.930  1.00  0.00    -0.344 OA
ATOM     21  H6  UNL     1      34.775   4.733   6.388  1.00  0.00     0.219 HD
ENDBRANCH  15  20
ENDBRANCH   1   7
BRANCH   4  22
HETATM   22  C10 UNL     1      28.662   4.237   7.969  1.00  0.00     0.147 C 
HETATM   23  S2  UNL     1      28.314   4.120   9.558  1.00  0.00    -0.052 SA
BRANCH  22  24
HETATM   24  S3  UNL     1      27.415   4.486   6.726  1.00  0.00    -0.020 SA
BRANCH  24  25
HETATM   25  S4  UNL     1      28.177   5.548   5.052  1.00  0.00    -0.012 SA
BRANCH  25  26
HETATM   26  C11 UNL     1      29.377   4.575   4.157  1.00  0.00     0.199 C 
HETATM   27  O3  UNL     1      29.232   3.386   4.000  1.00  0.00    -0.285 OA
BRANCH  26  28
HETATM   28  C12 UNL     1      30.566   5.263   3.604  1.00  0.00     0.135 C 
BRANCH  28  29
HETATM   29  C13 UNL     1      31.793   4.480   3.971  1.00  0.00     0.291 C 
BRANCH  29  30
HETATM   30  N4  UNL     1      32.061   3.477   2.979  1.00  0.00    -0.065 N 
ATOM     31  H43 UNL     1      31.963   2.535   3.355  1.00  0.00     0.275 HD
ATOM     32  H42 UNL     1      31.325   3.435   2.274  1.00  0.00     0.275 HD
ATOM     33  H41 UNL     1      32.980   3.628   2.562  1.00  0.00     0.275 HD
ENDBRANCH  29  30
BRANCH  29  34
HETATM   34  C14 UNL     1      32.993   5.348   4.089  1.00  0.00     0.204 C 
HETATM   35  O4  UNL     1      33.481   5.584   5.226  1.00  0.00    -0.646 OA
HETATM   36  O5  UNL     1      33.625   5.930   2.998  1.00  0.00    -0.646 OA
ENDBRANCH  29  34
ENDBRANCH  28  29
ENDBRANCH  26  28
ENDBRANCH  25  26
ENDBRANCH  24  25
ENDBRANCH  22  24
ENDBRANCH   4  22
TORSDOF 12
ENDMDL
MODEL 3
REMARK VINA RESULT: -6.214420616      2.159      3.594
REMARK  12 active torsions:
REMARK  status: ('A' for Active; 'I' for Inactive)
REMARK    1  A    between atoms: O1_2  and  C2_3 
REMARK    2  A    between atoms: C7_9  and  O2_10 
REMARK    3  A    between atoms: N1_12  and  N2_13 
REMARK    4  A    between atoms: N3_16  and  C10_17 
REMARK    5  A    between atoms: C10_17  and  S3_19 
REMARK    6  A    between atoms: S3_19  and  S4_20 
REMARK    7  A    between atoms: S4_20  and  C11_21 
REMARK    8  A    between atoms: C11_21  and  C12_23 
REMARK    9  A    between atoms: C12_23  and  C13_24 
REMARK   10  A    between atoms: C13_24  and  N4_25 
REMARK   11  A    between atoms: C13_24  and  C14_29 
REMARK   12  A    between atoms: C17_34  and  O6_35 
ROOT
HETATM    1  N2  UNL     1      32.187   3.666   8.291  1.00  0.00    -0.314 N 
HETATM    2  C8  UNL     1      31.109   4.362   8.925  1.00  0.00     0.163 C 
HETATM    3  C9  UNL     1      30.206   5.090   7.953  1.00  0.00     0.145 C 
HETATM    4  N3  UNL     1      30.084   4.352   6.711  1.00  0.00    -0.363 N 
HETATM    5  C15 UNL     1      30.542   2.983   6.698  1.00  0.00     0.145 C 
HETATM    6  C16 UNL     1      32.021   3.009   7.020  1.00  0.00     0.163 C 
ENDROOT
BRANCH   1   7
HETATM    7  N1  UNL     1      33.478   3.580   8.872  1.00  0.00    -0.212 N 
HETATM    8  C7  UNL     1      33.762   3.256  10.131  1.00  0.00     0.174 A 
HETATM    9  C6  UNL     1      35.135   3.274  10.339  1.00  0.00     0.044 A 
HETATM   10  C2  UNL     1      35.973   2.999  11.530  1.00  0.00     0.160 C 
HETATM   11  C5  UNL     1      35.707   3.630   9.136  1.00  0.00     0.066 A 
HETATM   12  C3  UNL     1      37.202   2.173  11.188  1.00  0.00     0.047 C 
HETATM   13  C4  UNL     1      38.224   2.998  10.435  1.00  0.00     0.082 C 
HETATM   14  S1  UNL     1      37.498   3.773   8.965  1.00  0.00    -0.125 SA
HETATM   15  C17 UNL     1      34.657   3.809   8.261  1.00  0.00     0.181 A 
BRANCH   8  16
HETATM   16  O2  UNL     1      32.772   2.946  11.081  1.00  0.00    -0.344 OA
ATOM     17  H2  UNL     1      32.805   2.250  11.726  1.00  0.00     0.219 HD
ENDBRANCH   8  16
BRANCH  10  18
HETATM   18  O1  UNL     1      36.379   4.123  12.196  1.00  0.00    -0.386 OA
HETATM   19  C1  UNL     1      36.569   3.932  13.557  1.00  0.00     0.202 C 
ENDBRANCH  10  18
BRANCH  15  20
HETATM   20  O6  UNL     1      34.745   4.175   6.921  1.00  0.00    -0.344 OA
ATOM     21  H6  UNL     1      34.073   4.066   6.257  1.00  0.00     0.219 HD
ENDBRANCH  15  20
ENDBRANCH   1   7
BRANCH   4  22
HETATM   22  C10 UNL     1      29.540   4.917   5.539  1.00  0.00     0.147 C 
HETATM   23  S2  UNL     1      29.400   3.968   4.221  1.00  0.00    -0.052 SA
BRANCH  22  24
HETATM   24  S3  UNL     1      29.038   6.624   5.554  1.00  0.00    -0.020 SA
BRANCH  24  25
HETATM   25  S4  UNL     1      30.702   7.932   5.369  1.00  0.00    -0.012 SA
BRANCH  25  26
HETATM   26  C11 UNL     1      32.119   7.310   6.259  1.00  0.00     0.199 C 
HETATM   27  O3  UNL     1      32.799   6.416   5.815  1.00  0.00    -0.285 OA
BRANCH  26  28
HETATM   28  C12 UNL     1      32.448   7.921   7.567  1.00  0.00     0.135 C 
BRANCH  28  29
HETATM   29  C13 UNL     1      33.488   7.079   8.247  1.00  0.00     0.291 C 
BRANCH  29  30
HETATM   30  N4  UNL     1      34.793   7.387   7.735  1.00  0.00    -0.065 N 
ATOM     31  H43 UNL     1      35.042   8.363   7.892  1.00  0.00     0.275 HD
ATOM     32  H42 UNL     1      35.531   6.953   8.289  1.00  0.00     0.275 HD
ATOM     33  H41 UNL     1      34.856   7.132   6.749  1.00  0.00     0.275 HD
ENDBRANCH  29  30
BRANCH  29  34
HETATM   34  C14 UNL     1      33.504   7.293   9.717  1.00  0.00     0.204 C 
HETATM   35  O4  UNL     1      32.615   8.008  10.252  1.00  0.00    -0.646 OA
HETATM   36  O5  UNL     1      34.461   6.741  10.559  1.00  0.00    -0.646 OA
ENDBRANCH  29  34
ENDBRANCH  28  29
ENDBRANCH  26  28
ENDBRANCH  25  26
ENDBRANCH  24  25
ENDBRANCH  22  24
ENDBRANCH   4  22
TORSDOF 12
ENDMDL
MODEL 4
REMARK VINA RESULT: -6.175821339      2.215      3.621
REMARK  12 active torsions:
REMARK  status: ('A' for Active; 'I' for Inactive)
REMARK    1  A    between atoms: O1_2  and  C2_3 
REMARK    2  A    between atoms: C7_9  and  O2_10 
REMARK    3  A    between atoms: N1_12  and  N2_13 
REMARK    4  A    between atoms: N3_16  and  C10_17 
REMARK    5  A    between atoms: C10_17  and  S3_19 
REMARK    6  A    between atoms: S3_19  and  S4_20 
REMARK    7  A    between atoms: S4_20  and  C11_21 
REMARK    8  A    between atoms: C11_21  and  C12_23 
REMARK    9  A    between atoms: C12_23  and  C13_24 
REMARK   10  A    between atoms: C13_24  and  N4_25 
REMARK   11  A    between atoms: C13_24  and  C14_29 
REMARK   12  A    between atoms: C17_34  and  O6_35 
ROOT
HETATM    1  N2  UNL     1      32.530   3.863   8.241  1.00  0.00    -0.314 N 
HETATM    2  C8  UNL     1      32.010   2.953   7.266  1.00  0.00     0.163 C 
HETATM    3  C9  UNL     1      30.518   2.732   7.383  1.00  0.00     0.145 C 
HETATM    4  N3  UNL     1      29.848   3.947   7.806  1.00  0.00    -0.363 N 
HETATM    5  C15 UNL     1      30.598   5.179   7.748  1.00  0.00     0.145 C 
HETATM    6  C16 UNL     1      31.786   5.018   8.673  1.00  0.00     0.163 C 
ENDROOT
BRANCH   1   7
HETATM    7  N1  UNL     1      33.804   3.685   8.838  1.00  0.00    -0.212 N 
HETATM    8  C7  UNL     1      34.049   3.333  10.097  1.00  0.00     0.174 A 
HETATM    9  C6  UNL     1      35.417   3.256  10.324  1.00  0.00     0.044 A 
HETATM   10  C2  UNL     1      36.218   2.915  11.523  1.00  0.00     0.160 C 
HETATM   11  C5  UNL     1      36.028   3.583   9.132  1.00  0.00     0.066 A 
HETATM   12  C3  UNL     1      37.394   2.012  11.189  1.00  0.00     0.047 C 
HETATM   13  C4  UNL     1      38.479   2.773  10.458  1.00  0.00     0.082 C 
HETATM   14  S1  UNL     1      37.827   3.608   8.985  1.00  0.00    -0.125 SA
HETATM   15  C17 UNL     1      35.004   3.840   8.244  1.00  0.00     0.181 A 
BRANCH   8  16
HETATM   16  O2  UNL     1      33.028   3.081  11.031  1.00  0.00    -0.344 OA
ATOM     17  H2  UNL     1      32.855   2.259  11.474  1.00  0.00     0.219 HD
ENDBRANCH   8  16
BRANCH  10  18
HETATM   18  O1  UNL     1      36.689   4.004  12.204  1.00  0.00    -0.386 OA
HETATM   19  C1  UNL     1      36.735   3.829  13.581  1.00  0.00     0.202 C 
ENDBRANCH  10  18
BRANCH  15  20
HETATM   20  O6  UNL     1      35.135   4.211   6.909  1.00  0.00    -0.344 OA
ATOM     21  H6  UNL     1      35.234   3.628   6.165  1.00  0.00     0.219 HD
ENDBRANCH  15  20
ENDBRANCH   1   7
BRANCH   4  22
HETATM   22  C10 UNL     1      28.514   3.962   8.262  1.00  0.00     0.147 C 
HETATM   23  S2  UNL     1      28.248   4.179   9.856  1.00  0.00    -0.052 SA
BRANCH  22  24
HETATM   24  S3  UNL     1      27.196   3.748   7.087  1.00  0.00    -0.020 SA
BRANCH  24  25
HETATM   25  S4  UNL     1      27.227   5.255   5.591  1.00  0.00    -0.012 SA
BRANCH  25  26
HETATM   26  C11 UNL     1      26.967   6.875   6.296  1.00  0.00     0.199 C 
HETATM   27  O3  UNL     1      25.872   7.385   6.313  1.00  0.00    -0.285 OA
BRANCH  26  28
HETATM   28  C12 UNL     1      28.133   7.587   6.865  1.00  0.00     0.135 C 
BRANCH  28  29
HETATM   29  C13 UNL     1      29.038   8.008   5.744  1.00  0.00     0.291 C 
BRANCH  29  30
HETATM   30  N4  UNL     1      28.346   8.892   4.849  1.00  0.00    -0.065 N 
ATOM     31  H43 UNL     1      27.739   9.541   5.350  1.00  0.00     0.275 HD
ATOM     32  H42 UNL     1      28.976   9.573   4.425  1.00  0.00     0.275 HD
ATOM     33  H41 UNL     1      27.835   8.357   4.147  1.00  0.00     0.275 HD
ENDBRANCH  29  30
BRANCH  29  34
HETATM   34  C14 UNL     1      30.252   8.706   6.240  1.00  0.00     0.204 C 
HETATM   35  O4  UNL     1      30.994   9.318   5.427  1.00  0.00    -0.646 OA
HETATM   36  O5  UNL     1      30.628   8.727   7.576  1.00  0.00    -0.646 OA
ENDBRANCH  29  34
ENDBRANCH  28  29
ENDBRANCH  26  28
ENDBRANCH  25  26
ENDBRANCH  24  25
ENDBRANCH  22  24
ENDBRANCH   4  22
TORSDOF 12
ENDMDL
MODEL 5
REMARK VINA RESULT: -6.136994462      3.224      4.861
REMARK  12 active torsions:
REMARK  status: ('A' for Active; 'I' for Inactive)
REMARK    1  A    between atoms: O1_2  and  C2_3 
REMARK    2  A    between atoms: C7_9  and  O2_10 
REMARK    3  A    between atoms: N1_12  and  N2_13 
REMARK    4  A    between atoms: N3_16  and  C10_17 
REMARK    5  A    between atoms: C10_17  and  S3_19 
REMARK    6  A    between atoms: S3_19  and  S4_20 
REMARK    7  A    between atoms: S4_20  and  C11_21 
REMARK    8  A    between atoms: C11_21  and  C12_23 
REMARK    9  A    between atoms: C12_23  and  C13_24 
REMARK   10  A    between atoms: C13_24  and  N4_25 
REMARK   11  A    between atoms: C13_24  and  C14_29 
REMARK   12  A    between atoms: C17_34  and  O6_35 
ROOT
HETATM    1  N2  UNL     1      32.509   4.058   8.340  1.00  0.00    -0.314 N 
HETATM    2  C8  UNL     1      31.761   3.024   7.692  1.00  0.00     0.163 C 
HETATM    3  C9  UNL     1      30.268   3.133   7.909  1.00  0.00     0.145 C 
HETATM    4  N3  UNL     1      29.856   4.523   7.973  1.00  0.00    -0.363 N 
HETATM    5  C15 UNL     1      30.802   5.522   7.534  1.00  0.00     0.145 C 
HETATM    6  C16 UNL     1      32.015   5.407   8.432  1.00  0.00     0.163 C 
ENDROOT
BRANCH   1   7
HETATM    7  N1  UNL     1      33.777   3.819   8.929  1.00  0.00    -0.212 N 
HETATM    8  C7  UNL     1      34.015   3.488  10.195  1.00  0.00     0.174 A 
HETATM    9  C6  UNL     1      35.379   3.333  10.410  1.00  0.00     0.044 A 
HETATM   10  C2  UNL     1      36.172   2.978  11.609  1.00  0.00     0.160 C 
HETATM   11  C5  UNL     1      35.994   3.587   9.202  1.00  0.00     0.066 A 
HETATM   12  C3  UNL     1      37.286   1.994  11.289  1.00  0.00     0.047 C 
HETATM   13  C4  UNL     1      38.407   2.665  10.525  1.00  0.00     0.082 C 
HETATM   14  S1  UNL     1      37.789   3.496   9.036  1.00  0.00    -0.125 SA
HETATM   15  C17 UNL     1      34.977   3.882   8.318  1.00  0.00     0.181 A 
BRANCH   8  16
HETATM   16  O2  UNL     1      32.992   3.327  11.147  1.00  0.00    -0.344 OA
ATOM     17  H2  UNL     1      32.787   3.917  11.863  1.00  0.00     0.219 HD
ENDBRANCH   8  16
BRANCH  10  18
HETATM   18  O1  UNL     1      36.718   4.055  12.253  1.00  0.00    -0.386 OA
HETATM   19  C1  UNL     1      36.905   3.859  13.615  1.00  0.00     0.202 C 
ENDBRANCH  10  18
BRANCH  15  20
HETATM   20  O6  UNL     1      35.114   4.205   6.971  1.00  0.00    -0.344 OA
ATOM     21  H6  UNL     1      34.454   4.109   6.295  1.00  0.00     0.219 HD
ENDBRANCH  15  20
ENDBRANCH   1   7
BRANCH   4  22
HETATM   22  C10 UNL     1      28.587   4.921   8.439  1.00  0.00     0.147 C 
HETATM   23  S2  UNL     1      27.878   4.024   9.602  1.00  0.00    -0.052 SA
BRANCH  22  24
HETATM   24  S3  UNL     1      27.825   6.370   7.744  1.00  0.00    -0.020 SA
BRANCH  24  25
HETATM   25  S4  UNL     1      27.661   6.232   5.631  1.00  0.00    -0.012 SA
BRANCH  25  26
HETATM   26  C11 UNL     1      28.435   7.627   4.827  1.00  0.00     0.199 C 
HETATM   27  O3  UNL     1      29.531   7.535   4.328  1.00  0.00    -0.285 OA
BRANCH  26  28
HETATM   28  C12 UNL     1      27.697   8.910   4.785  1.00  0.00     0.135 C 
BRANCH  28  29
HETATM   29  C13 UNL     1      28.000   9.599   3.486  1.00  0.00     0.291 C 
BRANCH  29  30
HETATM   30  N4  UNL     1      27.570   8.792   2.380  1.00  0.00    -0.065 N 
ATOM     31  H43 UNL     1      26.737   8.249   2.607  1.00  0.00     0.275 HD
ATOM     32  H42 UNL     1      27.179   9.357   1.626  1.00  0.00     0.275 HD
ATOM     33  H41 UNL     1      28.334   8.199   2.055  1.00  0.00     0.275 HD
ENDBRANCH  29  30
BRANCH  29  34
HETATM   34  C14 UNL     1      27.327  10.919   3.387  1.00  0.00     0.204 C 
HETATM   35  O4  UNL     1      26.106  11.020   3.682  1.00  0.00    -0.646 OA
HETATM   36  O5  UNL     1      27.974  12.078   2.977  1.00  0.00    -0.646 OA
ENDBRANCH  29  34
ENDBRANCH  28  29
ENDBRANCH  26  28
ENDBRANCH  25  26
ENDBRANCH  24  25
ENDBRANCH  22  24
ENDBRANCH   4  22
TORSDOF 12
ENDMDL
