MODEL 1
REMARK VINA RESULT: -4.906060701      0.000      0.000
REMARK  4 active torsions:
REMARK  status: ('A' for Active; 'I' for Inactive)
REMARK    1  A    between atoms: S1_2  and  C2_3 
REMARK    2  A    between atoms: C3_5  and  C4_6 
REMARK    3  A    between atoms: C7_11  and  O3_12 
REMARK    4  A    between atoms: C8_14  and  O4_15 
ROOT
HETATM    1  C4  UNL     1      79.140  51.782 106.566  1.00  0.00     0.198 A 
HETATM    2  O2  UNL     1      78.273  52.804 106.979  1.00  0.00    -0.357 OA
HETATM    3  C5  UNL     1      77.761  51.814 106.014  1.00  0.00     0.260 A 
HETATM    4  C6  UNL     1      76.722  51.000 106.594  1.00  0.00     0.094 C 
HETATM    5  N1  UNL     1      75.888  50.348 107.044  1.00  0.00    -0.194 NA
ENDROOT
BRANCH   1   6
HETATM    6  C3  UNL     1      80.244  52.133 105.604  1.00  0.00     0.187 C 
HETATM    7  O1  UNL     1      80.657  53.432 105.868  1.00  0.00    -0.362 OA
HETATM    8  C2  UNL     1      81.863  53.358 106.557  1.00  0.00     0.214 C 
HETATM    9  C8  UNL     1      82.585  52.247 105.856  1.00  0.00     0.188 C 
HETATM   10  C7  UNL     1      81.450  51.232 105.709  1.00  0.00     0.181 C 
BRANCH   8  11
HETATM   11  S1  UNL     1      82.677  54.946 106.501  1.00  0.00    -0.139 SA
HETATM   12  C1  UNL     1      82.135  55.911 105.078  1.00  0.00     0.092 C 
ENDBRANCH   8  11
BRANCH   9  13
HETATM   13  O4  UNL     1      83.572  51.655 106.604  1.00  0.00    -0.389 OA
ATOM     14  H4  UNL     1      84.454  51.827 106.294  1.00  0.00     0.210 HD
ENDBRANCH   9  13
BRANCH  10  15
HETATM   15  O3  UNL     1      81.409  50.379 106.789  1.00  0.00    -0.390 OA
ATOM     16  H3  UNL     1      82.266  50.172 107.144  1.00  0.00     0.210 HD
ENDBRANCH  10  15
ENDBRANCH   1   6
TORSDOF 4
ENDMDL
MODEL 2
REMARK VINA RESULT: -4.897798339      4.009      5.028
REMARK  4 active torsions:
REMARK  status: ('A' for Active; 'I' for Inactive)
REMARK    1  A    between atoms: S1_2  and  C2_3 
REMARK    2  A    between atoms: C3_5  and  C4_6 
REMARK    3  A    between atoms: C7_11  and  O3_12 
REMARK    4  A    between atoms: C8_14  and  O4_15 
ROOT
HETATM    1  C4  UNL     1      80.522  53.036 107.707  1.00  0.00     0.198 A 
HETATM    2  O2  UNL     1      79.575  52.929 106.679  1.00  0.00    -0.357 OA
HETATM    3  C5  UNL     1      80.999  52.979 106.301  1.00  0.00     0.260 A 
HETATM    4  C6  UNL     1      81.437  51.730 105.728  1.00  0.00     0.094 C 
HETATM    5  N1  UNL     1      81.796  50.741 105.265  1.00  0.00    -0.194 NA
ENDROOT
BRANCH   1   6
HETATM    6  C3  UNL     1      80.670  54.365 108.400  1.00  0.00     0.187 C 
HETATM    7  O1  UNL     1      79.476  55.062 108.269  1.00  0.00    -0.362 OA
HETATM    8  C2  UNL     1      78.808  54.984 109.487  1.00  0.00     0.214 C 
HETATM    9  C8  UNL     1      79.911  55.154 110.488  1.00  0.00     0.188 C 
HETATM   10  C7  UNL     1      80.982  54.250 109.872  1.00  0.00     0.181 C 
BRANCH   8  11
HETATM   11  S1  UNL     1      77.533  56.233 109.545  1.00  0.00    -0.139 SA
HETATM   12  C1  UNL     1      75.890  55.496 109.481  1.00  0.00     0.092 C 
ENDBRANCH   8  11
BRANCH   9  13
HETATM   13  O4  UNL     1      79.622  54.658 111.735  1.00  0.00    -0.389 OA
ATOM     14  H4  UNL     1      79.720  55.289 112.439  1.00  0.00     0.210 HD
ENDBRANCH   9  13
BRANCH  10  15
HETATM   15  O3  UNL     1      80.883  52.966 110.359  1.00  0.00    -0.390 OA
ATOM     16  H3  UNL     1      81.675  52.454 110.246  1.00  0.00     0.210 HD
ENDBRANCH  10  15
ENDBRANCH   1   6
TORSDOF 4
ENDMDL
MODEL 3
REMARK VINA RESULT: -4.891747993      3.694      6.001
REMARK  4 active torsions:
REMARK  status: ('A' for Active; 'I' for Inactive)
REMARK    1  A    between atoms: S1_2  and  C2_3 
REMARK    2  A    between atoms: C3_5  and  C4_6 
REMARK    3  A    between atoms: C7_11  and  O3_12 
REMARK    4  A    between atoms: C8_14  and  O4_15 
ROOT
HETATM    1  C4  UNL     1      77.998  51.702 105.958  1.00  0.00     0.198 A 
HETATM    2  O2  UNL     1      78.899  52.695 106.369  1.00  0.00    -0.357 OA
HETATM    3  C5  UNL     1      79.363  51.296 106.386  1.00  0.00     0.260 A 
HETATM    4  C6  UNL     1      80.398  51.071 105.409  1.00  0.00     0.094 C 
HETATM    5  N1  UNL     1      81.229  50.881 104.636  1.00  0.00    -0.194 NA
ENDROOT
BRANCH   1   6
HETATM    6  C3  UNL     1      76.877  51.331 106.893  1.00  0.00     0.187 C 
HETATM    7  O1  UNL     1      76.416  52.488 107.504  1.00  0.00    -0.362 OA
HETATM    8  C2  UNL     1      75.218  52.839 106.893  1.00  0.00     0.214 C 
HETATM    9  C8  UNL     1      74.535  51.518 106.706  1.00  0.00     0.188 C 
HETATM   10  C7  UNL     1      75.707  50.672 106.204  1.00  0.00     0.181 C 
BRANCH   8  11
HETATM   11  S1  UNL     1      74.344  54.005 107.924  1.00  0.00    -0.139 SA
HETATM   12  C1  UNL     1      75.470  54.874 109.031  1.00  0.00     0.092 C 
ENDBRANCH   8  11
BRANCH   9  13
HETATM   13  O4  UNL     1      73.574  51.513 105.724  1.00  0.00    -0.389 OA
ATOM     14  H4  UNL     1      73.604  50.754 105.153  1.00  0.00     0.210 HD
ENDBRANCH   9  13
BRANCH  10  15
HETATM   15  O3  UNL     1      75.785  50.704 104.830  1.00  0.00    -0.390 OA
ATOM     16  H3  UNL     1      75.709  49.848 104.424  1.00  0.00     0.210 HD
ENDBRANCH  10  15
ENDBRANCH   1   6
TORSDOF 4
ENDMDL
MODEL 4
REMARK VINA RESULT: -4.778811234      3.896      4.595
REMARK  4 active torsions:
REMARK  status: ('A' for Active; 'I' for Inactive)
REMARK    1  A    between atoms: S1_2  and  C2_3 
REMARK    2  A    between atoms: C3_5  and  C4_6 
REMARK    3  A    between atoms: C7_11  and  O3_12 
REMARK    4  A    between atoms: C8_14  and  O4_15 
ROOT
HETATM    1  C4  UNL     1      80.687  52.965 107.422  1.00  0.00     0.198 A 
HETATM    2  O2  UNL     1      79.557  52.838 106.600  1.00  0.00    -0.357 OA
HETATM    3  C5  UNL     1      80.878  52.909 105.949  1.00  0.00     0.260 A 
HETATM    4  C6  UNL     1      81.215  51.665 105.303  1.00  0.00     0.094 C 
HETATM    5  N1  UNL     1      81.493  50.679 104.780  1.00  0.00    -0.194 NA
ENDROOT
BRANCH   1   6
HETATM    6  C3  UNL     1      80.946  54.300 108.069  1.00  0.00     0.187 C 
HETATM    7  O1  UNL     1      79.756  55.014 108.091  1.00  0.00    -0.362 OA
HETATM    8  C2  UNL     1      79.257  54.963 109.388  1.00  0.00     0.214 C 
HETATM    9  C8  UNL     1      80.488  55.126 110.229  1.00  0.00     0.188 C 
HETATM   10  C7  UNL     1      81.452  54.197 109.488  1.00  0.00     0.181 C 
BRANCH   8  11
HETATM   11  S1  UNL     1      78.020  56.232 109.600  1.00  0.00    -0.139 SA
HETATM   12  C1  UNL     1      78.739  57.879 109.455  1.00  0.00     0.092 C 
ENDBRANCH   8  11
BRANCH   9  13
HETATM   13  O4  UNL     1      80.362  54.649 111.511  1.00  0.00    -0.389 OA
ATOM     14  H4  UNL     1      81.109  54.830 112.070  1.00  0.00     0.210 HD
ENDBRANCH   9  13
BRANCH  10  15
HETATM   15  O3  UNL     1      81.401  52.921 110.001  1.00  0.00    -0.390 OA
ATOM     16  H3  UNL     1      82.151  52.387 109.769  1.00  0.00     0.210 HD
ENDBRANCH  10  15
ENDBRANCH   1   6
TORSDOF 4
ENDMDL
MODEL 5
REMARK VINA RESULT: -4.753935060      3.020      3.512
REMARK  4 active torsions:
REMARK  status: ('A' for Active; 'I' for Inactive)
REMARK    1  A    between atoms: S1_2  and  C2_3 
REMARK    2  A    between atoms: C3_5  and  C4_6 
REMARK    3  A    between atoms: C7_11  and  O3_12 
REMARK    4  A    between atoms: C8_14  and  O4_15 
ROOT
HETATM    1  C4  UNL     1      80.737  53.532 108.623  1.00  0.00     0.198 A 
HETATM    2  O2  UNL     1      81.365  54.776 108.787  1.00  0.00    -0.357 OA
HETATM    3  C5  UNL     1      79.974  54.641 109.254  1.00  0.00     0.260 A 
HETATM    4  C6  UNL     1      79.886  54.743 110.689  1.00  0.00     0.094 C 
HETATM    5  N1  UNL     1      79.803  54.829 111.833  1.00  0.00    -0.194 NA
ENDROOT
BRANCH   1   6
HETATM    6  C3  UNL     1      80.300  53.136 107.237  1.00  0.00     0.187 C 
HETATM    7  O1  UNL     1      81.062  53.845 106.319  1.00  0.00    -0.362 OA
HETATM    8  C2  UNL     1      82.017  52.975 105.803  1.00  0.00     0.214 C 
HETATM    9  C8  UNL     1      81.251  51.698 105.629  1.00  0.00     0.188 C 
HETATM   10  C7  UNL     1      80.471  51.665 106.946  1.00  0.00     0.181 C 
BRANCH   8  11
HETATM   11  S1  UNL     1      82.696  53.662 104.302  1.00  0.00    -0.139 SA
HETATM   12  C1  UNL     1      82.348  55.425 104.171  1.00  0.00     0.092 C 
ENDBRANCH   8  11
BRANCH   9  13
HETATM   13  O4  UNL     1      82.035  50.571 105.588  1.00  0.00    -0.389 OA
ATOM     14  H4  UNL     1      81.920  49.988 106.329  1.00  0.00     0.210 HD
ENDBRANCH   9  13
BRANCH  10  15
HETATM   15  O3  UNL     1      81.172  50.987 107.917  1.00  0.00    -0.390 OA
ATOM     16  H3  UNL     1      80.982  50.056 107.944  1.00  0.00     0.210 HD
ENDBRANCH  10  15
ENDBRANCH   1   6
TORSDOF 4
ENDMDL
