MODEL 1
REMARK VINA RESULT: -6.009457405      0.000      0.000
REMARK  4 active torsions:
REMARK  status: ('A' for Active; 'I' for Inactive)
REMARK    1  A    between atoms: O1_1  and  C1_3 
REMARK    2  A    between atoms: C1_3  and  C2_4 
REMARK    3  A    between atoms: C4_6  and  O2_7 
REMARK    4  A    between atoms: C6_10  and  N1_11 
ROOT
HETATM    1  C2  UNL     1      79.742  57.140 108.643  1.00  0.00     0.150 C 
HETATM    2  C3  UNL     1      80.967  56.976 109.524  1.00  0.00     0.066 C 
HETATM    3  C4  UNL     1      80.427  56.559 110.870  1.00  0.00     0.124 C 
HETATM    4  C5  UNL     1      79.397  55.497 110.810  1.00  0.00     0.085 C 
HETATM    5  C6  UNL     1      78.724  55.271 109.523  1.00  0.00     0.225 C 
HETATM    6  O5  UNL     1      79.278  55.857 108.414  1.00  0.00    -0.359 OA
ENDROOT
BRANCH   5   7
HETATM    7  N1  UNL     1      77.337  55.697 109.603  1.00  0.00    -0.345 N 
HETATM    8  C7  UNL     1      76.361  55.091 109.084  1.00  0.00     0.152 C 
HETATM    9  C8  UNL     1      75.000  55.651 109.253  1.00  0.00     0.089 C 
HETATM   10  O4  UNL     1      76.506  53.925 108.361  1.00  0.00    -0.184 OA
HETATM   11  C9  UNL     1      74.013  54.524 108.979  1.00  0.00     0.037 C 
HETATM   12  C10 UNL     1      74.371  53.986 107.590  1.00  0.00     0.211 C 
HETATM   13  O3  UNL     1      75.550  53.295 107.712  1.00  0.00    -0.234 OA
ATOM     14  H1  UNL     1      77.137  56.553 110.121  1.00  0.00     0.164 HD
ENDBRANCH   5   7
BRANCH   3  15
HETATM   15  O2  UNL     1      79.890  57.732 111.449  1.00  0.00    -0.395 OA
ATOM     16  H2  UNL     1      80.175  57.727 112.355  1.00  0.00     0.210 HD
ENDBRANCH   3  15
BRANCH   1  17
HETATM   17  C1  UNL     1      80.036  57.881 107.389  1.00  0.00     0.196 C 
BRANCH  17  18
HETATM   18  O1  UNL     1      80.503  57.092 106.363  1.00  0.00    -0.398 OA
ATOM     19  H1  UNL     1      81.416  56.843 106.448  1.00  0.00     0.209 HD
ENDBRANCH  17  18
ENDBRANCH   1  17
TORSDOF 4
ENDMDL
MODEL 2
REMARK VINA RESULT: -5.840401242      4.746      6.661
REMARK  4 active torsions:
REMARK  status: ('A' for Active; 'I' for Inactive)
REMARK    1  A    between atoms: O1_1  and  C1_3 
REMARK    2  A    between atoms: C1_3  and  C2_4 
REMARK    3  A    between atoms: C4_6  and  O2_7 
REMARK    4  A    between atoms: C6_10  and  N1_11 
ROOT
HETATM    1  C2  UNL     1      80.705  52.130 106.703  1.00  0.00     0.150 C 
HETATM    2  C3  UNL     1      81.289  51.257 107.799  1.00  0.00     0.066 C 
HETATM    3  C4  UNL     1      82.738  51.667 107.894  1.00  0.00     0.124 C 
HETATM    4  C5  UNL     1      82.957  53.131 107.904  1.00  0.00     0.085 C 
HETATM    5  C6  UNL     1      81.867  53.987 107.414  1.00  0.00     0.225 C 
HETATM    6  O5  UNL     1      80.639  53.402 107.242  1.00  0.00    -0.359 OA
ENDROOT
BRANCH   5   7
HETATM    7  N1  UNL     1      82.246  54.603 106.152  1.00  0.00    -0.345 N 
HETATM    8  C7  UNL     1      81.819  55.711 105.729  1.00  0.00     0.152 C 
HETATM    9  C8  UNL     1      82.299  56.209 104.420  1.00  0.00     0.089 C 
HETATM   10  O4  UNL     1      80.921  56.484 106.437  1.00  0.00    -0.184 OA
HETATM   11  C9  UNL     1      82.038  57.709 104.386  1.00  0.00     0.037 C 
HETATM   12  C10 UNL     1      80.545  57.879 104.686  1.00  0.00     0.211 C 
HETATM   13  O3  UNL     1      80.362  57.598 106.016  1.00  0.00    -0.234 OA
ATOM     14  H1  UNL     1      82.908  54.098 105.563  1.00  0.00     0.164 HD
ENDBRANCH   5   7
BRANCH   3  15
HETATM   15  O2  UNL     1      83.377  51.082 106.776  1.00  0.00    -0.395 OA
ATOM     16  H2  UNL     1      84.293  51.327 106.844  1.00  0.00     0.210 HD
ENDBRANCH   3  15
BRANCH   1  17
HETATM   17  C1  UNL     1      79.389  51.637 106.221  1.00  0.00     0.196 C 
BRANCH  17  18
HETATM   18  O1  UNL     1      79.259  50.267 106.234  1.00  0.00    -0.398 OA
ATOM     19  H1  UNL     1      78.591  49.945 106.828  1.00  0.00     0.209 HD
ENDBRANCH  17  18
ENDBRANCH   1  17
TORSDOF 4
ENDMDL
MODEL 3
REMARK VINA RESULT: -5.839104284      1.491      1.545
REMARK  4 active torsions:
REMARK  status: ('A' for Active; 'I' for Inactive)
REMARK    1  A    between atoms: O1_1  and  C1_3 
REMARK    2  A    between atoms: C1_3  and  C2_4 
REMARK    3  A    between atoms: C4_6  and  O2_7 
REMARK    4  A    between atoms: C6_10  and  N1_11 
ROOT
HETATM    1  C2  UNL     1      79.772  57.857 110.481  1.00  0.00     0.150 C 
HETATM    2  C3  UNL     1      80.908  57.116 111.163  1.00  0.00     0.066 C 
HETATM    3  C4  UNL     1      80.265  55.902 111.786  1.00  0.00     0.124 C 
HETATM    4  C5  UNL     1      79.329  55.182 110.893  1.00  0.00     0.085 C 
HETATM    5  C6  UNL     1      78.812  55.905 109.722  1.00  0.00     0.225 C 
HETATM    6  O5  UNL     1      79.432  57.082 109.387  1.00  0.00    -0.359 OA
ENDROOT
BRANCH   5   7
HETATM    7  N1  UNL     1      77.395  56.184 109.894  1.00  0.00    -0.345 N 
HETATM    8  C7  UNL     1      76.457  55.502 109.400  1.00  0.00     0.152 C 
HETATM    9  C8  UNL     1      75.059  55.912 109.664  1.00  0.00     0.089 C 
HETATM   10  O4  UNL     1      76.678  54.385 108.620  1.00  0.00    -0.184 OA
HETATM   11  C9  UNL     1      74.176  54.701 109.393  1.00  0.00     0.037 C 
HETATM   12  C10 UNL     1      74.507  54.257 107.965  1.00  0.00     0.211 C 
HETATM   13  O3  UNL     1      75.755  53.686 107.994  1.00  0.00    -0.234 OA
ATOM     14  H1  UNL     1      77.141  56.994 110.458  1.00  0.00     0.164 HD
ENDBRANCH   5   7
BRANCH   3  15
HETATM   15  O2  UNL     1      79.585  56.373 112.933  1.00  0.00    -0.395 OA
ATOM     16  H2  UNL     1      78.944  55.705 113.146  1.00  0.00     0.210 HD
ENDBRANCH   3  15
BRANCH   1  17
HETATM   17  C1  UNL     1      80.137  59.249 110.113  1.00  0.00     0.196 C 
BRANCH  17  18
HETATM   18  O1  UNL     1      80.035  59.522 108.768  1.00  0.00    -0.398 OA
ATOM     19  H1  UNL     1      79.391  60.186 108.553  1.00  0.00     0.209 HD
ENDBRANCH  17  18
ENDBRANCH   1  17
TORSDOF 4
ENDMDL
MODEL 4
REMARK VINA RESULT: -5.772018143      4.607      4.892
REMARK  4 active torsions:
REMARK  status: ('A' for Active; 'I' for Inactive)
REMARK    1  A    between atoms: O1_1  and  C1_3 
REMARK    2  A    between atoms: C1_3  and  C2_4 
REMARK    3  A    between atoms: C4_6  and  O2_7 
REMARK    4  A    between atoms: C6_10  and  N1_11 
ROOT
HETATM    1  C2  UNL     1      81.273  53.143 105.459  1.00  0.00     0.150 C 
HETATM    2  C3  UNL     1      82.478  52.344 105.922  1.00  0.00     0.066 C 
HETATM    3  C4  UNL     1      82.051  51.713 107.224  1.00  0.00     0.124 C 
HETATM    4  C5  UNL     1      80.707  51.092 107.189  1.00  0.00     0.085 C 
HETATM    5  C6  UNL     1      79.797  51.498 106.109  1.00  0.00     0.225 C 
HETATM    6  O5  UNL     1      80.337  52.203 105.064  1.00  0.00    -0.359 OA
ENDROOT
BRANCH   5   7
HETATM    7  N1  UNL     1      78.698  52.281 106.650  1.00  0.00    -0.345 N 
HETATM    8  C7  UNL     1      77.474  52.024 106.487  1.00  0.00     0.152 C 
HETATM    9  C8  UNL     1      76.468  52.918 107.103  1.00  0.00     0.089 C 
HETATM   10  O4  UNL     1      77.031  50.941 105.755  1.00  0.00    -0.184 OA
HETATM   11  C9  UNL     1      75.160  52.141 107.174  1.00  0.00     0.037 C 
HETATM   12  C10 UNL     1      74.880  51.666 105.745  1.00  0.00     0.211 C 
HETATM   13  O3  UNL     1      75.778  50.667 105.463  1.00  0.00    -0.234 OA
ATOM     14  H1  UNL     1      78.935  53.103 107.206  1.00  0.00     0.164 HD
ENDBRANCH   5   7
BRANCH   3  15
HETATM   15  O2  UNL     1      82.088  52.750 108.184  1.00  0.00    -0.395 OA
ATOM     16  H2  UNL     1      82.879  52.607 108.690  1.00  0.00     0.210 HD
ENDBRANCH   3  15
BRANCH   1  17
HETATM   17  C1  UNL     1      81.609  54.112 104.384  1.00  0.00     0.196 C 
BRANCH  17  18
HETATM   18  O1  UNL     1      82.570  53.668 103.505  1.00  0.00    -0.398 OA
ATOM     19  H1  UNL     1      83.247  54.307 103.314  1.00  0.00     0.209 HD
ENDBRANCH  17  18
ENDBRANCH   1  17
TORSDOF 4
ENDMDL
MODEL 5
REMARK VINA RESULT: -5.741815666      4.185      5.377
REMARK  4 active torsions:
REMARK  status: ('A' for Active; 'I' for Inactive)
REMARK    1  A    between atoms: O1_1  and  C1_3 
REMARK    2  A    between atoms: C1_3  and  C2_4 
REMARK    3  A    between atoms: C4_6  and  O2_7 
REMARK    4  A    between atoms: C6_10  and  N1_11 
ROOT
HETATM    1  C2  UNL     1      81.930  53.367 105.527  1.00  0.00     0.150 C 
HETATM    2  C3  UNL     1      81.971  51.952 104.979  1.00  0.00     0.066 C 
HETATM    3  C4  UNL     1      81.881  51.061 106.193  1.00  0.00     0.124 C 
HETATM    4  C5  UNL     1      80.838  51.459 107.166  1.00  0.00     0.085 C 
HETATM    5  C6  UNL     1      80.320  52.832 107.085  1.00  0.00     0.225 C 
HETATM    6  O5  UNL     1      80.630  53.555 105.962  1.00  0.00    -0.359 OA
ENDROOT
BRANCH   5   7
HETATM    7  N1  UNL     1      80.758  53.599 108.241  1.00  0.00    -0.345 N 
HETATM    8  C7  UNL     1      80.033  54.390 108.903  1.00  0.00     0.152 C 
HETATM    9  C8  UNL     1      80.624  55.102 110.059  1.00  0.00     0.089 C 
HETATM   10  O4  UNL     1      78.708  54.623 108.595  1.00  0.00    -0.184 OA
HETATM   11  C9  UNL     1      79.470  55.573 110.934  1.00  0.00     0.037 C 
HETATM   12  C10 UNL     1      78.556  56.389 110.014  1.00  0.00     0.211 C 
HETATM   13  O3  UNL     1      77.923  55.503 109.179  1.00  0.00    -0.234 OA
ATOM     14  H1  UNL     1      81.727  53.487 108.539  1.00  0.00     0.164 HD
ENDBRANCH   5   7
BRANCH   3  15
HETATM   15  O2  UNL     1      83.159  51.105 106.798  1.00  0.00    -0.395 OA
ATOM     16  H2  UNL     1      83.124  50.491 107.523  1.00  0.00     0.210 HD
ENDBRANCH   3  15
BRANCH   1  17
HETATM   17  C1  UNL     1      82.357  54.380 104.527  1.00  0.00     0.196 C 
BRANCH  17  18
HETATM   18  O1  UNL     1      82.801  53.847 103.338  1.00  0.00    -0.398 OA
ATOM     19  H1  UNL     1      83.456  54.374 102.896  1.00  0.00     0.209 HD
ENDBRANCH  17  18
ENDBRANCH   1  17
TORSDOF 4
ENDMDL
