MODEL 1
REMARK VINA RESULT: -3.969010967      0.000      0.000
REMARK  0 active torsions:
REMARK  status: ('A' for Active; 'I' for Inactive)
ROOT
HETATM    1  C1  UNL     1      12.127  -5.084  12.297  1.00  0.00     0.017 C 
HETATM    2  C2  UNL     1      12.538  -3.736  12.823  1.00  0.00     0.035 C 
HETATM    3  C3  UNL     1      12.779  -2.871  11.635  1.00  0.00     0.004 C 
HETATM    4  C4  UNL     1      14.062  -2.989  11.332  1.00  0.00     0.131 C 
HETATM    5  O1  UNL     1      14.686  -3.867  12.229  1.00  0.00    -0.358 OA
HETATM    6  C5  UNL     1      13.900  -3.734  13.423  1.00  0.00     0.131 C 
HETATM    7  C6  UNL     1      14.174  -4.827  14.398  1.00  0.00     0.040 C 
ENDROOT
TORSDOF 0
ENDMDL
MODEL 2
REMARK VINA RESULT: -3.870744349      1.210      2.512
REMARK  0 active torsions:
REMARK  status: ('A' for Active; 'I' for Inactive)
ROOT
HETATM    1  C1  UNL     1      12.023  -2.283  11.081  1.00  0.00     0.017 C 
HETATM    2  C2  UNL     1      12.931  -3.483  11.095  1.00  0.00     0.035 C 
HETATM    3  C3  UNL     1      12.264  -4.510  11.943  1.00  0.00     0.004 C 
HETATM    4  C4  UNL     1      12.709  -4.331  13.178  1.00  0.00     0.131 C 
HETATM    5  O1  UNL     1      13.617  -3.265  13.208  1.00  0.00    -0.358 OA
HETATM    6  C5  UNL     1      14.173  -3.265  11.885  1.00  0.00     0.131 C 
HETATM    7  C6  UNL     1      14.910  -2.004  11.587  1.00  0.00     0.040 C 
ENDROOT
TORSDOF 0
ENDMDL
MODEL 3
REMARK VINA RESULT: -3.861605190      0.945      1.016
REMARK  0 active torsions:
REMARK  status: ('A' for Active; 'I' for Inactive)
ROOT
HETATM    1  C1  UNL     1      12.263  -4.258  11.006  1.00  0.00     0.017 C 
HETATM    2  C2  UNL     1      12.571  -3.151  11.978  1.00  0.00     0.035 C 
HETATM    3  C3  UNL     1      13.505  -2.222  11.282  1.00  0.00     0.004 C 
HETATM    4  C4  UNL     1      14.731  -2.629  11.571  1.00  0.00     0.131 C 
HETATM    5  O1  UNL     1      14.677  -3.755  12.404  1.00  0.00    -0.358 OA
HETATM    6  C5  UNL     1      13.436  -3.589  13.106  1.00  0.00     0.131 C 
HETATM    7  C6  UNL     1      13.010  -4.840  13.795  1.00  0.00     0.040 C 
ENDROOT
TORSDOF 0
ENDMDL
MODEL 4
REMARK VINA RESULT: -3.816881693      1.184      1.840
REMARK  0 active torsions:
REMARK  status: ('A' for Active; 'I' for Inactive)
ROOT
HETATM    1  C1  UNL     1      12.048  -2.346  10.974  1.00  0.00     0.017 C 
HETATM    2  C2  UNL     1      12.833  -2.147  12.242  1.00  0.00     0.035 C 
HETATM    3  C3  UNL     1      14.100  -1.466  11.855  1.00  0.00     0.004 C 
HETATM    4  C4  UNL     1      14.988  -2.420  11.619  1.00  0.00     0.131 C 
HETATM    5  O1  UNL     1      14.403  -3.677  11.821  1.00  0.00    -0.358 OA
HETATM    6  C5  UNL     1      13.381  -3.416  12.794  1.00  0.00     0.131 C 
HETATM    7  C6  UNL     1      12.410  -4.540  12.904  1.00  0.00     0.040 C 
ENDROOT
TORSDOF 0
ENDMDL
MODEL 5
REMARK VINA RESULT: -3.691750025      8.214      8.754
REMARK  0 active torsions:
REMARK  status: ('A' for Active; 'I' for Inactive)
ROOT
HETATM    1  C1  UNL     1       7.617   3.361  16.026  1.00  0.00     0.017 C 
HETATM    2  C2  UNL     1       8.865   3.958  15.433  1.00  0.00     0.035 C 
HETATM    3  C3  UNL     1       8.491   4.468  14.084  1.00  0.00     0.004 C 
HETATM    4  C4  UNL     1       8.722   3.484  13.229  1.00  0.00     0.131 C 
HETATM    5  O1  UNL     1       9.218   2.365  13.910  1.00  0.00    -0.358 OA
HETATM    6  C5  UNL     1       9.876   2.936  15.051  1.00  0.00     0.131 C 
HETATM    7  C6  UNL     1      10.181   1.914  16.092  1.00  0.00     0.040 C 
ENDROOT
TORSDOF 0
ENDMDL
