MODEL 1
REMARK VINA RESULT: -3.852164419      0.000      0.000
REMARK  1 active torsions:
REMARK  status: ('A' for Active; 'I' for Inactive)
REMARK    1  A    between atoms: C2_2  and  C4_4 
ROOT
HETATM    1  C4  UNL     1      13.997  -3.195  12.395  1.00  0.00     0.148 A 
HETATM    2  C5  UNL     1      14.902  -2.498  11.407  1.00  0.00     0.048 C 
HETATM    3  C6  UNL     1      14.334  -3.039  13.796  1.00  0.00     0.272 A 
HETATM    4  N1  UNL     1      14.586  -4.266  13.101  1.00  0.00    -0.062 N 
ATOM      5  H11 UNL     1      15.413  -4.845  12.956  1.00  0.00     0.278 HD
ATOM      6  H12 UNL     1      14.330  -5.240  13.261  1.00  0.00     0.278 HD
ENDROOT
BRANCH   1   7
HETATM    7  C2  UNL     1      12.547  -3.269  11.975  1.00  0.00     0.015 C 
HETATM    8  C1  UNL     1      12.258  -4.534  11.182  1.00  0.00     0.012 C 
HETATM    9  C3  UNL     1      12.127  -2.104  11.131  1.00  0.00     0.012 C 
ENDBRANCH   1   7
TORSDOF 1
ENDMDL
MODEL 2
REMARK VINA RESULT: -3.765158336      1.398      1.601
REMARK  1 active torsions:
REMARK  status: ('A' for Active; 'I' for Inactive)
REMARK    1  A    between atoms: C2_2  and  C4_4 
ROOT
HETATM    1  C4  UNL     1      12.965  -3.763  13.004  1.00  0.00     0.148 A 
HETATM    2  C5  UNL     1      14.414  -3.394  13.217  1.00  0.00     0.048 C 
HETATM    3  C6  UNL     1      12.171  -3.968  14.199  1.00  0.00     0.272 A 
HETATM    4  N1  UNL     1      12.612  -5.072  13.400  1.00  0.00    -0.062 N 
ATOM      5  H11 UNL     1      13.138  -5.925  13.591  1.00  0.00     0.278 HD
ATOM      6  H12 UNL     1      12.141  -5.852  12.942  1.00  0.00     0.278 HD
ENDROOT
BRANCH   1   7
HETATM    7  C2  UNL     1      12.331  -3.145  11.779  1.00  0.00     0.015 C 
HETATM    8  C1  UNL     1      12.361  -4.096  10.593  1.00  0.00     0.012 C 
HETATM    9  C3  UNL     1      13.009  -1.877  11.354  1.00  0.00     0.012 C 
ENDBRANCH   1   7
TORSDOF 1
ENDMDL
MODEL 3
REMARK VINA RESULT: -3.684261789      1.231      2.224
REMARK  1 active torsions:
REMARK  status: ('A' for Active; 'I' for Inactive)
REMARK    1  A    between atoms: C2_2  and  C4_4 
ROOT
HETATM    1  C4  UNL     1      12.670  -3.728  12.772  1.00  0.00     0.148 A 
HETATM    2  C5  UNL     1      12.152  -2.668  13.715  1.00  0.00     0.048 C 
HETATM    3  C6  UNL     1      12.149  -5.067  12.962  1.00  0.00     0.272 A 
HETATM    4  N1  UNL     1      13.478  -4.721  13.367  1.00  0.00    -0.062 N 
ATOM      5  H11 UNL     1      13.996  -4.787  14.244  1.00  0.00     0.278 HD
ATOM      6  H12 UNL     1      14.405  -5.099  13.169  1.00  0.00     0.278 HD
ENDROOT
BRANCH   1   7
HETATM    7  C2  UNL     1      12.980  -3.233  11.378  1.00  0.00     0.015 C 
HETATM    8  C1  UNL     1      14.418  -2.752  11.261  1.00  0.00     0.012 C 
HETATM    9  C3  UNL     1      12.093  -2.102  10.954  1.00  0.00     0.012 C 
ENDBRANCH   1   7
TORSDOF 1
ENDMDL
MODEL 4
REMARK VINA RESULT: -3.564825561      1.764      2.501
REMARK  1 active torsions:
REMARK  status: ('A' for Active; 'I' for Inactive)
REMARK    1  A    between atoms: C2_2  and  C4_4 
ROOT
HETATM    1  C4  UNL     1      12.511  -4.022  13.043  1.00  0.00     0.148 A 
HETATM    2  C5  UNL     1      12.084  -4.984  11.959  1.00  0.00     0.048 C 
HETATM    3  C6  UNL     1      13.408  -4.549  14.052  1.00  0.00     0.272 A 
HETATM    4  N1  UNL     1      12.024  -4.315  14.335  1.00  0.00    -0.062 N 
ATOM      5  H11 UNL     1      11.263  -4.892  14.696  1.00  0.00     0.278 HD
ATOM      6  H12 UNL     1      11.522  -3.781  15.045  1.00  0.00     0.278 HD
ENDROOT
BRANCH   1   7
HETATM    7  C2  UNL     1      12.648  -2.587  12.591  1.00  0.00     0.015 C 
HETATM    8  C1  UNL     1      11.854  -1.642  13.480  1.00  0.00     0.012 C 
HETATM    9  C3  UNL     1      12.183  -2.375  11.182  1.00  0.00     0.012 C 
ENDBRANCH   1   7
TORSDOF 1
ENDMDL
MODEL 5
REMARK VINA RESULT: -3.525837360      1.967      2.557
REMARK  1 active torsions:
REMARK  status: ('A' for Active; 'I' for Inactive)
REMARK    1  A    between atoms: C2_2  and  C4_4 
ROOT
HETATM    1  C4  UNL     1      12.984  -2.135  12.125  1.00  0.00     0.148 A 
HETATM    2  C5  UNL     1      11.982  -1.696  13.166  1.00  0.00     0.048 C 
HETATM    3  C6  UNL     1      14.201  -1.352  12.034  1.00  0.00     0.272 A 
HETATM    4  N1  UNL     1      13.166  -1.239  11.049  1.00  0.00    -0.062 N 
ATOM      5  H11 UNL     1      12.625  -0.462  10.669  1.00  0.00     0.278 HD
ATOM      6  H12 UNL     1      13.137  -1.331  10.033  1.00  0.00     0.278 HD
ENDROOT
BRANCH   1   7
HETATM    7  C2  UNL     1      13.032  -3.626  11.887  1.00  0.00     0.015 C 
HETATM    8  C1  UNL     1      12.306  -4.013  10.608  1.00  0.00     0.012 C 
HETATM    9  C3  UNL     1      12.418  -4.412  13.006  1.00  0.00     0.012 C 
ENDBRANCH   1   7
TORSDOF 1
ENDMDL
