MODEL 1
REMARK VINA RESULT: -5.332216617      0.000      0.000
REMARK  8 active torsions:
REMARK  status: ('A' for Active; 'I' for Inactive)
REMARK    1  A    between atoms: C2_2  and  O1_3 
REMARK    2  A    between atoms: O1_3  and  C3_4 
REMARK    3  A    between atoms: C3_4  and  C4_6 
REMARK    4  A    between atoms: C6_11  and  C7_12 
REMARK    5  A    between atoms: C8_13  and  C9_14 
REMARK    6  A    between atoms: N6_23  and  C12_24 
REMARK    7  A    between atoms: C12_24  and  C13_25 
REMARK    8  A    between atoms: C12_24  and  C18_30 
ROOT
HETATM    1  C9  UNL     1     -25.829  -1.808   6.811  1.00  0.00     0.252 C 
HETATM    2  C10 UNL     1     -25.523  -3.035   7.529  1.00  0.00     0.085 C 
HETATM    3  N2  UNL     1     -25.291  -4.022   8.121  1.00  0.00    -0.195 NA
HETATM    4  C11 UNL     1     -24.701  -1.641   5.853  1.00  0.00     0.085 C 
HETATM    5  N3  UNL     1     -23.838  -1.494   5.101  1.00  0.00    -0.195 NA
ENDROOT
BRANCH   1   6
HETATM    6  C8  UNL     1     -25.844  -0.658   7.708  1.00  0.00     0.088 A 
HETATM    7  C7  UNL     1     -26.116   0.708   7.496  1.00  0.00     0.098 A 
HETATM    8  N6  UNL     1     -25.938   1.356   8.640  1.00  0.00    -0.269 N 
HETATM    9  N5  UNL     1     -25.572   0.433   9.537  1.00  0.00    -0.239 N 
HETATM   10  N4  UNL     1     -25.517  -0.732   9.006  1.00  0.00    -0.286 N 
ATOM     11  H5  UNL     1     -25.365   0.631  10.516  1.00  0.00     0.208 HD
ATOM     12  H4  UNL     1     -25.261  -1.588   9.497  1.00  0.00     0.188 HD
BRANCH   7  13
HETATM   13  C6  UNL     1     -26.575   1.184   6.170  1.00  0.00     0.069 A 
HETATM   14  C4  UNL     1     -27.844   1.230   5.626  1.00  0.00     0.076 A 
HETATM   15  C5  UNL     1     -27.933   1.728   4.375  1.00  0.00     0.115 A 
HETATM   16  N1  UNL     1     -26.818   2.130   3.776  1.00  0.00    -0.335 N 
HETATM   17  S1  UNL     1     -25.626   1.842   4.895  1.00  0.00    -0.012 SA
ATOM     18  H1  UNL     1     -26.717   2.525   2.841  1.00  0.00     0.173 HD
BRANCH  14  19
HETATM   19  C3  UNL     1     -29.073   0.904   6.385  1.00  0.00     0.296 C 
HETATM   20  O2  UNL     1     -29.018   0.136   7.349  1.00  0.00    -0.259 OA
BRANCH  19  21
HETATM   21  O1  UNL     1     -30.299   1.433   6.051  1.00  0.00    -0.318 OA
BRANCH  21  22
HETATM   22  C2  UNL     1     -31.394   0.574   5.696  1.00  0.00     0.174 C 
HETATM   23  C1  UNL     1     -31.377   0.279   4.221  1.00  0.00     0.034 C 
ENDBRANCH  21  22
ENDBRANCH  19  21
ENDBRANCH  14  19
ENDBRANCH   7  13
BRANCH   8  24
HETATM   24  C12 UNL     1     -26.084   2.789   8.978  1.00  0.00     0.118 C 
BRANCH  24  25
HETATM   25  C13 UNL     1     -26.913   3.009  10.169  1.00  0.00     0.011 C 
HETATM   26  C14 UNL     1     -28.329   2.478   9.790  1.00  0.00     0.007 C 
HETATM   27  C15 UNL     1     -28.808   3.529   8.815  1.00  0.00     0.000 C 
HETATM   28  C16 UNL     1     -28.044   4.799   9.154  1.00  0.00     0.000 C 
HETATM   29  C17 UNL     1     -27.387   4.431  10.429  1.00  0.00     0.007 C 
ENDBRANCH  24  25
BRANCH  24  30
HETATM   30  C18 UNL     1     -24.786   3.490   8.815  1.00  0.00     0.011 A 
HETATM   31  C19 UNL     1     -24.489   4.897   8.976  1.00  0.00     0.007 A 
HETATM   32  C20 UNL     1     -24.550   4.400   7.586  1.00  0.00     0.007 A 
ENDBRANCH  24  30
ENDBRANCH   8  24
ENDBRANCH   1   6
TORSDOF 8
ENDMDL
MODEL 2
REMARK VINA RESULT: -5.321247321      1.077      2.277
REMARK  8 active torsions:
REMARK  status: ('A' for Active; 'I' for Inactive)
REMARK    1  A    between atoms: C2_2  and  O1_3 
REMARK    2  A    between atoms: O1_3  and  C3_4 
REMARK    3  A    between atoms: C3_4  and  C4_6 
REMARK    4  A    between atoms: C6_11  and  C7_12 
REMARK    5  A    between atoms: C8_13  and  C9_14 
REMARK    6  A    between atoms: N6_23  and  C12_24 
REMARK    7  A    between atoms: C12_24  and  C13_25 
REMARK    8  A    between atoms: C12_24  and  C18_30 
ROOT
HETATM    1  C9  UNL     1     -25.923  -1.765   6.938  1.00  0.00     0.252 C 
HETATM    2  C10 UNL     1     -25.489  -2.869   7.779  1.00  0.00     0.085 C 
HETATM    3  N2  UNL     1     -25.153  -3.757   8.470  1.00  0.00    -0.195 NA
HETATM    4  C11 UNL     1     -24.796  -1.549   5.989  1.00  0.00     0.085 C 
HETATM    5  N3  UNL     1     -23.935  -1.366   5.242  1.00  0.00    -0.195 NA
ENDROOT
BRANCH   1   6
HETATM    6  C8  UNL     1     -26.110  -0.546   7.717  1.00  0.00     0.088 A 
HETATM    7  C7  UNL     1     -26.637   0.719   7.389  1.00  0.00     0.098 A 
HETATM    8  N6  UNL     1     -26.531   1.508   8.450  1.00  0.00    -0.269 N 
HETATM    9  N5  UNL     1     -25.963   0.767   9.409  1.00  0.00    -0.239 N 
HETATM   10  N4  UNL     1     -25.718  -0.420   8.992  1.00  0.00    -0.286 N 
ATOM     11  H5  UNL     1     -25.752   1.104  10.348  1.00  0.00     0.208 HD
ATOM     12  H4  UNL     1     -25.288  -1.159   9.549  1.00  0.00     0.188 HD
BRANCH   7  13
HETATM   13  C6  UNL     1     -27.233   0.958   6.054  1.00  0.00     0.069 A 
HETATM   14  C4  UNL     1     -28.553   0.939   5.647  1.00  0.00     0.076 A 
HETATM   15  C5  UNL     1     -28.774   1.204   4.342  1.00  0.00     0.115 A 
HETATM   16  N1  UNL     1     -27.727   1.462   3.566  1.00  0.00    -0.335 N 
HETATM   17  S1  UNL     1     -26.424   1.350   4.588  1.00  0.00    -0.012 SA
ATOM     18  H1  UNL     1     -27.725   1.679   2.569  1.00  0.00     0.173 HD
BRANCH  14  19
HETATM   19  C3  UNL     1     -29.696   0.787   6.577  1.00  0.00     0.296 C 
HETATM   20  O2  UNL     1     -29.562   0.138   7.618  1.00  0.00    -0.259 OA
BRANCH  19  21
HETATM   21  O1  UNL     1     -30.925   1.351   6.322  1.00  0.00    -0.318 OA
BRANCH  21  22
HETATM   22  C2  UNL     1     -31.178   2.728   6.639  1.00  0.00     0.174 C 
HETATM   23  C1  UNL     1     -32.574   3.116   6.234  1.00  0.00     0.034 C 
ENDBRANCH  21  22
ENDBRANCH  19  21
ENDBRANCH  14  19
ENDBRANCH   7  13
BRANCH   8  24
HETATM   24  C12 UNL     1     -26.922   2.920   8.653  1.00  0.00     0.118 C 
BRANCH  24  25
HETATM   25  C13 UNL     1     -26.356   3.817   7.637  1.00  0.00     0.011 C 
HETATM   26  C14 UNL     1     -24.818   3.572   7.681  1.00  0.00     0.007 C 
HETATM   27  C15 UNL     1     -24.434   4.220   8.991  1.00  0.00     0.000 C 
HETATM   28  C16 UNL     1     -25.501   5.266   9.273  1.00  0.00     0.000 C 
HETATM   29  C17 UNL     1     -26.251   5.290   7.997  1.00  0.00     0.007 C 
ENDBRANCH  24  25
BRANCH  24  30
HETATM   30  C18 UNL     1     -28.354   3.007   9.032  1.00  0.00     0.011 A 
HETATM   31  C19 UNL     1     -29.060   4.102   9.663  1.00  0.00     0.007 A 
HETATM   32  C20 UNL     1     -28.763   2.938  10.523  1.00  0.00     0.007 A 
ENDBRANCH  24  30
ENDBRANCH   8  24
ENDBRANCH   1   6
TORSDOF 8
ENDMDL
MODEL 3
REMARK VINA RESULT: -5.224097206      2.089      2.767
REMARK  8 active torsions:
REMARK  status: ('A' for Active; 'I' for Inactive)
REMARK    1  A    between atoms: C2_2  and  O1_3 
REMARK    2  A    between atoms: O1_3  and  C3_4 
REMARK    3  A    between atoms: C3_4  and  C4_6 
REMARK    4  A    between atoms: C6_11  and  C7_12 
REMARK    5  A    between atoms: C8_13  and  C9_14 
REMARK    6  A    between atoms: N6_23  and  C12_24 
REMARK    7  A    between atoms: C12_24  and  C13_25 
REMARK    8  A    between atoms: C12_24  and  C18_30 
ROOT
HETATM    1  C9  UNL     1     -26.122  -1.713   8.027  1.00  0.00     0.252 C 
HETATM    2  C10 UNL     1     -25.656  -2.666   9.022  1.00  0.00     0.085 C 
HETATM    3  N2  UNL     1     -25.292  -3.427   9.838  1.00  0.00    -0.195 NA
HETATM    4  C11 UNL     1     -25.173  -1.863   6.889  1.00  0.00     0.085 C 
HETATM    5  N3  UNL     1     -24.449  -1.964   5.995  1.00  0.00    -0.195 NA
ENDROOT
BRANCH   1   6
HETATM    6  C8  UNL     1     -26.036  -0.343   8.521  1.00  0.00     0.088 A 
HETATM    7  C7  UNL     1     -26.664   0.852   8.120  1.00  0.00     0.098 A 
HETATM    8  N6  UNL     1     -26.198   1.845   8.865  1.00  0.00    -0.269 N 
HETATM    9  N5  UNL     1     -25.312   1.294   9.705  1.00  0.00    -0.239 N 
HETATM   10  N4  UNL     1     -25.215   0.032   9.512  1.00  0.00    -0.286 N 
ATOM     11  H5  UNL     1     -24.784   1.813  10.407  1.00  0.00     0.208 HD
ATOM     12  H4  UNL     1     -24.603  -0.596  10.034  1.00  0.00     0.188 HD
BRANCH   7  13
HETATM   13  C6  UNL     1     -27.703   0.834   7.063  1.00  0.00     0.069 A 
HETATM   14  C4  UNL     1     -27.585   0.928   5.690  1.00  0.00     0.076 A 
HETATM   15  C5  UNL     1     -28.739   0.877   4.992  1.00  0.00     0.115 A 
HETATM   16  N1  UNL     1     -29.876   0.739   5.664  1.00  0.00    -0.335 N 
HETATM   17  S1  UNL     1     -29.405   0.676   7.255  1.00  0.00    -0.012 SA
ATOM     18  H1  UNL     1     -30.823   0.685   5.289  1.00  0.00     0.173 HD
BRANCH  14  19
HETATM   19  C3  UNL     1     -26.286   0.937   4.978  1.00  0.00     0.296 C 
HETATM   20  O2  UNL     1     -25.377   1.679   5.361  1.00  0.00    -0.259 OA
BRANCH  19  21
HETATM   21  O1  UNL     1     -26.047   0.136   3.885  1.00  0.00    -0.318 OA
BRANCH  21  22
HETATM   22  C2  UNL     1     -25.169   0.572   2.836  1.00  0.00     0.174 C 
HETATM   23  C1  UNL     1     -23.961  -0.321   2.754  1.00  0.00     0.034 C 
ENDBRANCH  21  22
ENDBRANCH  19  21
ENDBRANCH  14  19
ENDBRANCH   7  13
BRANCH   8  24
HETATM   24  C12 UNL     1     -26.511   3.290   8.865  1.00  0.00     0.118 C 
BRANCH  24  25
HETATM   25  C13 UNL     1     -26.923   3.781  10.188  1.00  0.00     0.011 C 
HETATM   26  C14 UNL     1     -28.186   2.949  10.562  1.00  0.00     0.007 C 
HETATM   27  C15 UNL     1     -29.226   3.517   9.624  1.00  0.00     0.000 C 
HETATM   28  C16 UNL     1     -28.763   4.924   9.282  1.00  0.00     0.000 C 
HETATM   29  C17 UNL     1     -27.645   5.118  10.234  1.00  0.00     0.007 C 
ENDBRANCH  24  25
BRANCH  24  30
HETATM   30  C18 UNL     1     -25.514   4.032   8.055  1.00  0.00     0.011 A 
HETATM   31  C19 UNL     1     -25.305   5.462   7.962  1.00  0.00     0.007 A 
HETATM   32  C20 UNL     1     -25.971   4.824   6.807  1.00  0.00     0.007 A 
ENDBRANCH  24  30
ENDBRANCH   8  24
ENDBRANCH   1   6
TORSDOF 8
ENDMDL
MODEL 4
REMARK VINA RESULT: -5.211102159      3.252      5.890
REMARK  8 active torsions:
REMARK  status: ('A' for Active; 'I' for Inactive)
REMARK    1  A    between atoms: C2_2  and  O1_3 
REMARK    2  A    between atoms: O1_3  and  C3_4 
REMARK    3  A    between atoms: C3_4  and  C4_6 
REMARK    4  A    between atoms: C6_11  and  C7_12 
REMARK    5  A    between atoms: C8_13  and  C9_14 
REMARK    6  A    between atoms: N6_23  and  C12_24 
REMARK    7  A    between atoms: C12_24  and  C13_25 
REMARK    8  A    between atoms: C12_24  and  C18_30 
ROOT
HETATM    1  C9  UNL     1     -24.300  -4.101   9.764  1.00  0.00     0.252 C 
HETATM    2  C10 UNL     1     -25.179  -4.991  10.505  1.00  0.00     0.085 C 
HETATM    3  N2  UNL     1     -25.902  -5.710  11.088  1.00  0.00    -0.195 NA
HETATM    4  C11 UNL     1     -23.321  -3.612  10.775  1.00  0.00     0.085 C 
HETATM    5  N3  UNL     1     -22.550  -3.223  11.542  1.00  0.00    -0.195 NA
ENDROOT
BRANCH   1   6
HETATM    6  C8  UNL     1     -25.028  -2.952   9.237  1.00  0.00     0.088 A 
HETATM    7  C7  UNL     1     -25.036  -2.333   7.971  1.00  0.00     0.098 A 
HETATM    8  N6  UNL     1     -25.838  -1.277   8.024  1.00  0.00    -0.269 N 
HETATM    9  N5  UNL     1     -26.318  -1.237   9.272  1.00  0.00    -0.239 N 
HETATM   10  N4  UNL     1     -25.855  -2.201   9.977  1.00  0.00    -0.286 N 
ATOM     11  H5  UNL     1     -26.968  -0.530   9.617  1.00  0.00     0.208 HD
ATOM     12  H4  UNL     1     -26.082  -2.372  10.957  1.00  0.00     0.188 HD
BRANCH   7  13
HETATM   13  C6  UNL     1     -24.270  -2.918   6.846  1.00  0.00     0.069 A 
HETATM   14  C4  UNL     1     -24.155  -4.229   6.428  1.00  0.00     0.076 A 
HETATM   15  C5  UNL     1     -23.370  -4.440   5.351  1.00  0.00     0.115 A 
HETATM   16  N1  UNL     1     -22.784  -3.391   4.784  1.00  0.00    -0.335 N 
HETATM   17  S1  UNL     1     -23.284  -2.100   5.699  1.00  0.00    -0.012 SA
ATOM     18  H1  UNL     1     -22.167  -3.382   3.972  1.00  0.00     0.173 HD
BRANCH  14  19
HETATM   19  C3  UNL     1     -24.941  -5.345   7.004  1.00  0.00     0.296 C 
HETATM   20  O2  UNL     1     -26.172  -5.278   7.040  1.00  0.00    -0.259 OA
BRANCH  19  21
HETATM   21  O1  UNL     1     -24.341  -6.475   7.510  1.00  0.00    -0.318 OA
BRANCH  21  22
HETATM   22  C2  UNL     1     -25.120  -7.642   7.816  1.00  0.00     0.174 C 
HETATM   23  C1  UNL     1     -24.223  -8.800   8.161  1.00  0.00     0.034 C 
ENDBRANCH  21  22
ENDBRANCH  19  21
ENDBRANCH  14  19
ENDBRANCH   7  13
BRANCH   8  24
HETATM   24  C12 UNL     1     -26.205  -0.284   6.991  1.00  0.00     0.118 C 
BRANCH  24  25
HETATM   25  C13 UNL     1     -25.398   0.941   7.070  1.00  0.00     0.011 C 
HETATM   26  C14 UNL     1     -25.627   1.493   8.510  1.00  0.00     0.007 C 
HETATM   27  C15 UNL     1     -27.048   2.000   8.430  1.00  0.00     0.000 C 
HETATM   28  C16 UNL     1     -27.306   2.305   6.963  1.00  0.00     0.000 C 
HETATM   29  C17 UNL     1     -25.950   2.178   6.381  1.00  0.00     0.007 C 
ENDBRANCH  24  25
BRANCH  24  30
HETATM   30  C18 UNL     1     -26.440  -0.957   5.690  1.00  0.00     0.011 A 
HETATM   31  C19 UNL     1     -26.049  -0.528   4.364  1.00  0.00     0.007 A 
HETATM   32  C20 UNL     1     -27.480  -0.382   4.700  1.00  0.00     0.007 A 
ENDBRANCH  24  30
ENDBRANCH   8  24
ENDBRANCH   1   6
TORSDOF 8
ENDMDL
MODEL 5
REMARK VINA RESULT: -5.199614498      2.896      5.419
REMARK  8 active torsions:
REMARK  status: ('A' for Active; 'I' for Inactive)
REMARK    1  A    between atoms: C2_2  and  O1_3 
REMARK    2  A    between atoms: O1_3  and  C3_4 
REMARK    3  A    between atoms: C3_4  and  C4_6 
REMARK    4  A    between atoms: C6_11  and  C7_12 
REMARK    5  A    between atoms: C8_13  and  C9_14 
REMARK    6  A    between atoms: N6_23  and  C12_24 
REMARK    7  A    between atoms: C12_24  and  C13_25 
REMARK    8  A    between atoms: C12_24  and  C18_30 
ROOT
HETATM    1  C9  UNL     1     -26.225  -0.690   7.777  1.00  0.00     0.252 C 
HETATM    2  C10 UNL     1     -25.859   0.441   8.614  1.00  0.00     0.085 C 
HETATM    3  N2  UNL     1     -25.567   1.367   9.274  1.00  0.00    -0.195 NA
HETATM    4  C11 UNL     1     -25.830  -1.888   8.568  1.00  0.00     0.085 C 
HETATM    5  N3  UNL     1     -25.533  -2.830   9.167  1.00  0.00    -0.195 NA
ENDROOT
BRANCH   1   6
HETATM    6  C8  UNL     1     -25.471  -0.694   6.528  1.00  0.00     0.088 A 
HETATM    7  C7  UNL     1     -25.415   0.211   5.450  1.00  0.00     0.098 A 
HETATM    8  N6  UNL     1     -24.607  -0.287   4.523  1.00  0.00    -0.269 N 
HETATM    9  N5  UNL     1     -24.170  -1.458   5.001  1.00  0.00    -0.239 N 
HETATM   10  N4  UNL     1     -24.665  -1.699   6.158  1.00  0.00    -0.286 N 
ATOM     11  H5  UNL     1     -23.528  -2.078   4.508  1.00  0.00     0.208 HD
ATOM     12  H4  UNL     1     -24.474  -2.532   6.716  1.00  0.00     0.188 HD
BRANCH   7  13
HETATM   13  C6  UNL     1     -26.145   1.498   5.514  1.00  0.00     0.069 A 
HETATM   14  C4  UNL     1     -27.468   1.791   5.243  1.00  0.00     0.076 A 
HETATM   15  C5  UNL     1     -27.832   3.081   5.400  1.00  0.00     0.115 A 
HETATM   16  N1  UNL     1     -26.912   3.952   5.797  1.00  0.00    -0.335 N 
HETATM   17  S1  UNL     1     -25.534   3.041   5.966  1.00  0.00    -0.012 SA
ATOM     18  H1  UNL     1     -27.025   4.952   5.961  1.00  0.00     0.173 HD
BRANCH  14  19
HETATM   19  C3  UNL     1     -28.490   0.762   4.942  1.00  0.00     0.296 C 
HETATM   20  O2  UNL     1     -29.418   0.564   5.732  1.00  0.00    -0.259 OA
BRANCH  19  21
HETATM   21  O1  UNL     1     -28.446   0.003   3.795  1.00  0.00    -0.318 OA
BRANCH  21  22
HETATM   22  C2  UNL     1     -29.444   0.160   2.775  1.00  0.00     0.174 C 
HETATM   23  C1  UNL     1     -29.368  -0.969   1.784  1.00  0.00     0.034 C 
ENDBRANCH  21  22
ENDBRANCH  19  21
ENDBRANCH  14  19
ENDBRANCH   7  13
BRANCH   8  24
HETATM   24  C12 UNL     1     -24.197   0.244   3.204  1.00  0.00     0.118 C 
BRANCH  24  25
HETATM   25  C13 UNL     1     -22.740   0.235   3.018  1.00  0.00     0.011 C 
HETATM   26  C14 UNL     1     -22.174   1.148   4.148  1.00  0.00     0.007 C 
HETATM   27  C15 UNL     1     -22.592   2.523   3.681  1.00  0.00     0.000 C 
HETATM   28  C16 UNL     1     -22.753   2.425   2.172  1.00  0.00     0.000 C 
HETATM   29  C17 UNL     1     -22.183   1.088   1.889  1.00  0.00     0.007 C 
ENDBRANCH  24  25
BRANCH  24  30
HETATM   30  C18 UNL     1     -25.102  -0.261   2.143  1.00  0.00     0.011 A 
HETATM   31  C19 UNL     1     -24.980  -0.126   0.707  1.00  0.00     0.007 A 
HETATM   32  C20 UNL     1     -25.996   0.727   1.357  1.00  0.00     0.007 A 
ENDBRANCH  24  30
ENDBRANCH   8  24
ENDBRANCH   1   6
TORSDOF 8
ENDMDL
