MODEL 1
REMARK VINA RESULT: -9.715298498      0.000      0.000
REMARK  7 active torsions:
REMARK  status: ('A' for Active; 'I' for Inactive)
REMARK    1  A    between atoms: C3_3  and  C4_4 
REMARK    2  A    between atoms: C6_6  and  S1_7 
REMARK    3  A    between atoms: S1_7  and  C7_8 
REMARK    4  A    between atoms: C7_8  and  C8_9 
REMARK    5  A    between atoms: C10_14  and  C11_15 
REMARK    6  A    between atoms: C15_22  and  N4_23 
REMARK    7  A    between atoms: C17_27  and  N5_28 
ROOT
HETATM    1  C1  UNL     1     -29.321  -8.407   4.875  1.00  0.00     0.012 C 
HETATM    2  C2  UNL     1     -29.072  -9.258   5.688  1.00  0.00    -0.113 C 
HETATM    3  C3  UNL     1     -28.747 -10.295   6.668  1.00  0.00     0.134 C 
ENDROOT
BRANCH   3   4
HETATM    4  C4  UNL     1     -27.321 -10.213   7.104  1.00  0.00    -0.013 A 
HETATM    5  C5  UNL     1     -26.701  -8.964   7.182  1.00  0.00     0.031 A 
HETATM    6  C6  UNL     1     -25.385  -8.805   7.563  1.00  0.00     0.034 A 
HETATM    7  C15 UNL     1     -24.690  -9.942   7.868  1.00  0.00     0.122 A 
HETATM    8  C16 UNL     1     -25.290 -11.178   7.798  1.00  0.00     0.074 A 
HETATM    9  C17 UNL     1     -26.632 -11.338   7.410  1.00  0.00     0.112 A 
BRANCH   6  10
HETATM   10  S1  UNL     1     -24.722  -7.157   7.589  1.00  0.00    -0.121 SA
BRANCH  10  11
HETATM   11  C7  UNL     1     -25.822  -5.961   8.341  1.00  0.00     0.138 C 
BRANCH  11  12
HETATM   12  C8  UNL     1     -25.217  -5.121   9.406  1.00  0.00     0.038 A 
HETATM   13  C9  UNL     1     -25.710  -4.889  10.659  1.00  0.00     0.144 A 
HETATM   14  N1  UNL     1     -24.872  -4.058  11.357  1.00  0.00    -0.242 N 
HETATM   15  N2  UNL     1     -24.854  -3.543  12.522  1.00  0.00    -0.289 N 
HETATM   16  C14 UNL     1     -23.875  -3.795  10.516  1.00  0.00     0.172 A 
HETATM   17  C10 UNL     1     -23.861  -2.756  12.894  1.00  0.00     0.074 A 
ATOM     18  H2  UNL     1     -25.613  -3.742  13.173  1.00  0.00     0.188 HD
HETATM   19  S2  UNL     1     -22.896  -2.761  11.480  1.00  0.00    -0.037 SA
HETATM   20  N3  UNL     1     -24.050  -4.423   9.321  1.00  0.00    -0.337 N 
ATOM     21  H3  UNL     1     -23.426  -4.379   8.515  1.00  0.00     0.168 HD
BRANCH  17  22
HETATM   22  C11 UNL     1     -23.648  -2.056  14.206  1.00  0.00     0.044 A 
HETATM   23  C12 UNL     1     -22.551  -1.088  14.328  1.00  0.00     0.012 A 
HETATM   24  C13 UNL     1     -22.507  -2.417  15.054  1.00  0.00     0.012 A 
ENDBRANCH  17  22
ENDBRANCH  11  12
ENDBRANCH  10  11
ENDBRANCH   6  10
BRANCH   7  25
HETATM   25  N4  UNL     1     -23.319  -9.901   8.216  1.00  0.00    -0.114 N 
HETATM   26  O1  UNL     1     -22.821  -9.425   9.226  1.00  0.00    -0.532 OA
HETATM   27  O2  UNL     1     -22.388 -10.456   7.315  1.00  0.00    -0.532 OA
ENDBRANCH   7  25
BRANCH   9  28
HETATM   28  N5  UNL     1     -27.174 -12.641   7.388  1.00  0.00    -0.115 N 
HETATM   29  O3  UNL     1     -27.540 -13.246   6.392  1.00  0.00    -0.532 OA
HETATM   30  O4  UNL     1     -27.281 -13.283   8.626  1.00  0.00    -0.532 OA
ENDBRANCH   9  28
ENDBRANCH   3   4
TORSDOF 7
ENDMDL
MODEL 2
REMARK VINA RESULT: -8.970766398      5.291      7.506
REMARK  7 active torsions:
REMARK  status: ('A' for Active; 'I' for Inactive)
REMARK    1  A    between atoms: C3_3  and  C4_4 
REMARK    2  A    between atoms: C6_6  and  S1_7 
REMARK    3  A    between atoms: S1_7  and  C7_8 
REMARK    4  A    between atoms: C7_8  and  C8_9 
REMARK    5  A    between atoms: C10_14  and  C11_15 
REMARK    6  A    between atoms: C15_22  and  N4_23 
REMARK    7  A    between atoms: C17_27  and  N5_28 
ROOT
HETATM    1  C1  UNL     1     -25.080   1.723   9.625  1.00  0.00     0.012 C 
HETATM    2  C2  UNL     1     -25.853   0.926   9.160  1.00  0.00    -0.113 C 
HETATM    3  C3  UNL     1     -26.776  -0.050   8.580  1.00  0.00     0.134 C 
ENDROOT
BRANCH   3   4
HETATM    4  C4  UNL     1     -26.058  -1.269   8.100  1.00  0.00    -0.013 A 
HETATM    5  C5  UNL     1     -25.737  -2.277   9.011  1.00  0.00     0.031 A 
HETATM    6  C6  UNL     1     -25.065  -3.425   8.649  1.00  0.00     0.034 A 
HETATM    7  C15 UNL     1     -24.712  -3.544   7.334  1.00  0.00     0.122 A 
HETATM    8  C16 UNL     1     -25.024  -2.560   6.425  1.00  0.00     0.074 A 
HETATM    9  C17 UNL     1     -25.711  -1.390   6.796  1.00  0.00     0.112 A 
BRANCH   6  10
HETATM   10  S1  UNL     1     -24.700  -4.609   9.922  1.00  0.00    -0.121 SA
BRANCH  10  11
HETATM   11  C7  UNL     1     -25.229  -4.086  11.551  1.00  0.00     0.138 C 
BRANCH  11  12
HETATM   12  C8  UNL     1     -24.311  -3.149  12.248  1.00  0.00     0.038 A 
HETATM   13  C9  UNL     1     -23.344  -2.365  11.685  1.00  0.00     0.144 A 
HETATM   14  N1  UNL     1     -22.699  -1.636  12.651  1.00  0.00    -0.242 N 
HETATM   15  N2  UNL     1     -21.755  -0.781  12.674  1.00  0.00    -0.289 N 
HETATM   16  C14 UNL     1     -23.284  -1.987  13.792  1.00  0.00     0.172 A 
HETATM   17  C10 UNL     1     -21.358  -0.248  13.816  1.00  0.00     0.074 A 
ATOM     18  H2  UNL     1     -21.301  -0.504  11.803  1.00  0.00     0.188 HD
HETATM   19  S2  UNL     1     -22.411  -1.025  14.918  1.00  0.00    -0.037 SA
HETATM   20  N3  UNL     1     -24.269  -2.904  13.587  1.00  0.00    -0.337 N 
ATOM     21  H3  UNL     1     -24.862  -3.328  14.301  1.00  0.00     0.168 HD
BRANCH  17  22
HETATM   22  C11 UNL     1     -20.277   0.766  14.063  1.00  0.00     0.044 A 
HETATM   23  C12 UNL     1     -20.472   1.774  15.112  1.00  0.00     0.012 A 
HETATM   24  C13 UNL     1     -20.469   2.160  13.647  1.00  0.00     0.012 A 
ENDBRANCH  17  22
ENDBRANCH  11  12
ENDBRANCH  10  11
ENDBRANCH   6  10
BRANCH   7  25
HETATM   25  N4  UNL     1     -23.971  -4.654   6.864  1.00  0.00    -0.114 N 
HETATM   26  O1  UNL     1     -24.055  -5.817   7.232  1.00  0.00    -0.532 OA
HETATM   27  O2  UNL     1     -23.008  -4.432   5.859  1.00  0.00    -0.532 OA
ENDBRANCH   7  25
BRANCH   9  28
HETATM   28  N5  UNL     1     -26.011  -0.442   5.795  1.00  0.00    -0.115 N 
HETATM   29  O3  UNL     1     -26.996  -0.454   5.072  1.00  0.00    -0.532 OA
HETATM   30  O4  UNL     1     -25.093   0.603   5.642  1.00  0.00    -0.532 OA
ENDBRANCH   9  28
ENDBRANCH   3   4
TORSDOF 7
ENDMDL
MODEL 3
REMARK VINA RESULT: -8.869520216      5.276      7.416
REMARK  7 active torsions:
REMARK  status: ('A' for Active; 'I' for Inactive)
REMARK    1  A    between atoms: C3_3  and  C4_4 
REMARK    2  A    between atoms: C6_6  and  S1_7 
REMARK    3  A    between atoms: S1_7  and  C7_8 
REMARK    4  A    between atoms: C7_8  and  C8_9 
REMARK    5  A    between atoms: C10_14  and  C11_15 
REMARK    6  A    between atoms: C15_22  and  N4_23 
REMARK    7  A    between atoms: C17_27  and  N5_28 
ROOT
HETATM    1  C1  UNL     1     -25.083   1.713   9.615  1.00  0.00     0.012 C 
HETATM    2  C2  UNL     1     -25.851   0.922   9.131  1.00  0.00    -0.113 C 
HETATM    3  C3  UNL     1     -26.768  -0.046   8.528  1.00  0.00     0.134 C 
ENDROOT
BRANCH   3   4
HETATM    4  C4  UNL     1     -26.053  -1.280   8.087  1.00  0.00    -0.013 A 
HETATM    5  C5  UNL     1     -25.752  -2.269   9.027  1.00  0.00     0.031 A 
HETATM    6  C6  UNL     1     -25.084  -3.430   8.702  1.00  0.00     0.034 A 
HETATM    7  C15 UNL     1     -24.714  -3.584   7.396  1.00  0.00     0.122 A 
HETATM    8  C16 UNL     1     -25.006  -2.619   6.459  1.00  0.00     0.074 A 
HETATM    9  C17 UNL     1     -25.689  -1.436   6.792  1.00  0.00     0.112 A 
BRANCH   6  10
HETATM   10  S1  UNL     1     -24.744  -4.585  10.009  1.00  0.00    -0.121 SA
BRANCH  10  11
HETATM   11  C7  UNL     1     -25.255  -4.001  11.623  1.00  0.00     0.138 C 
BRANCH  11  12
HETATM   12  C8  UNL     1     -24.327  -3.042  12.275  1.00  0.00     0.038 A 
HETATM   13  C9  UNL     1     -24.121  -2.870  13.615  1.00  0.00     0.144 A 
HETATM   14  N1  UNL     1     -23.189  -1.887  13.833  1.00  0.00    -0.242 N 
HETATM   15  N2  UNL     1     -22.647  -1.349  14.852  1.00  0.00    -0.289 N 
HETATM   16  C14 UNL     1     -22.840  -1.473  12.618  1.00  0.00     0.172 A 
HETATM   17  C10 UNL     1     -21.750  -0.390  14.710  1.00  0.00     0.074 A 
ATOM     18  H2  UNL     1     -22.907  -1.663  15.787  1.00  0.00     0.188 HD
HETATM   19  S2  UNL     1     -21.685  -0.260  13.005  1.00  0.00    -0.037 SA
HETATM   20  N3  UNL     1     -23.511  -2.151  11.647  1.00  0.00    -0.337 N 
ATOM     21  H3  UNL     1     -23.418  -2.017  10.640  1.00  0.00     0.168 HD
BRANCH  17  22
HETATM   22  C11 UNL     1     -20.998   0.368  15.767  1.00  0.00     0.044 A 
HETATM   23  C12 UNL     1     -20.929   1.832  15.680  1.00  0.00     0.012 A 
HETATM   24  C13 UNL     1     -19.701   0.976  15.451  1.00  0.00     0.012 A 
ENDBRANCH  17  22
ENDBRANCH  11  12
ENDBRANCH  10  11
ENDBRANCH   6  10
BRANCH   7  25
HETATM   25  N4  UNL     1     -23.975  -4.710   6.963  1.00  0.00    -0.114 N 
HETATM   26  O1  UNL     1     -24.105  -5.871   7.324  1.00  0.00    -0.532 OA
HETATM   27  O2  UNL     1     -22.955  -4.509   6.010  1.00  0.00    -0.532 OA
ENDBRANCH   7  25
BRANCH   9  28
HETATM   28  N5  UNL     1     -25.969  -0.510   5.764  1.00  0.00    -0.115 N 
HETATM   29  O3  UNL     1     -26.952  -0.524   5.039  1.00  0.00    -0.532 OA
HETATM   30  O4  UNL     1     -25.031   0.512   5.585  1.00  0.00    -0.532 OA
ENDBRANCH   9  28
ENDBRANCH   3   4
TORSDOF 7
ENDMDL
MODEL 4
REMARK VINA RESULT: -8.731241606      2.701      3.195
REMARK  7 active torsions:
REMARK  status: ('A' for Active; 'I' for Inactive)
REMARK    1  A    between atoms: C3_3  and  C4_4 
REMARK    2  A    between atoms: C6_6  and  S1_7 
REMARK    3  A    between atoms: S1_7  and  C7_8 
REMARK    4  A    between atoms: C7_8  and  C8_9 
REMARK    5  A    between atoms: C10_14  and  C11_15 
REMARK    6  A    between atoms: C15_22  and  N4_23 
REMARK    7  A    between atoms: C17_27  and  N5_28 
ROOT
HETATM    1  C1  UNL     1     -29.059  -8.104   4.548  1.00  0.00     0.012 C 
HETATM    2  C2  UNL     1     -28.923  -8.782   5.532  1.00  0.00    -0.113 C 
HETATM    3  C3  UNL     1     -28.736  -9.615   6.722  1.00  0.00     0.134 C 
ENDROOT
BRANCH   3   4
HETATM    4  C4  UNL     1     -27.294  -9.723   7.097  1.00  0.00    -0.013 A 
HETATM    5  C5  UNL     1     -26.556  -8.557   7.316  1.00  0.00     0.031 A 
HETATM    6  C6  UNL     1     -25.219  -8.573   7.653  1.00  0.00     0.034 A 
HETATM    7  C15 UNL     1     -24.626  -9.798   7.766  1.00  0.00     0.122 A 
HETATM    8  C16 UNL     1     -25.342 -10.954   7.555  1.00  0.00     0.074 A 
HETATM    9  C17 UNL     1     -26.705 -10.937   7.213  1.00  0.00     0.112 A 
BRANCH   6  10
HETATM   10  S1  UNL     1     -24.402  -7.010   7.874  1.00  0.00    -0.121 SA
BRANCH  10  11
HETATM   11  C7  UNL     1     -25.130  -6.005   9.164  1.00  0.00     0.138 C 
BRANCH  11  12
HETATM   12  C8  UNL     1     -25.304  -4.568   8.830  1.00  0.00     0.038 A 
HETATM   13  C9  UNL     1     -25.373  -3.518   9.701  1.00  0.00     0.144 A 
HETATM   14  N1  UNL     1     -25.539  -2.340   9.018  1.00  0.00    -0.242 N 
HETATM   15  N2  UNL     1     -25.656  -1.110   9.327  1.00  0.00    -0.289 N 
HETATM   16  C14 UNL     1     -25.569  -2.691   7.735  1.00  0.00     0.172 A 
HETATM   17  C10 UNL     1     -25.808  -0.191   8.390  1.00  0.00     0.074 A 
ATOM     18  H2  UNL     1     -25.632  -0.832  10.308  1.00  0.00     0.188 HD
HETATM   19  S2  UNL     1     -25.777  -1.161   6.980  1.00  0.00    -0.037 SA
HETATM   20  N3  UNL     1     -25.429  -4.037   7.582  1.00  0.00    -0.337 N 
ATOM     21  H3  UNL     1     -25.419  -4.549   6.700  1.00  0.00     0.168 HD
BRANCH  17  22
HETATM   22  C11 UNL     1     -25.962   1.296   8.538  1.00  0.00     0.044 A 
HETATM   23  C12 UNL     1     -25.234   1.985   9.609  1.00  0.00     0.012 A 
HETATM   24  C13 UNL     1     -26.741   1.846   9.652  1.00  0.00     0.012 A 
ENDBRANCH  17  22
ENDBRANCH  11  12
ENDBRANCH  10  11
ENDBRANCH   6  10
BRANCH   7  25
HETATM   25  N4  UNL     1     -23.246  -9.929   8.052  1.00  0.00    -0.114 N 
HETATM   26  O1  UNL     1     -22.355 -10.266   7.286  1.00  0.00    -0.532 OA
HETATM   27  O2  UNL     1     -22.811  -9.656   9.365  1.00  0.00    -0.532 OA
ENDBRANCH   7  25
BRANCH   9  28
HETATM   28  N5  UNL     1     -27.369 -12.170   7.038  1.00  0.00    -0.115 N 
HETATM   29  O3  UNL     1     -27.629 -12.973   7.921  1.00  0.00    -0.532 OA
HETATM   30  O4  UNL     1     -27.767 -12.474   5.732  1.00  0.00    -0.532 OA
ENDBRANCH   9  28
ENDBRANCH   3   4
TORSDOF 7
ENDMDL
MODEL 5
REMARK VINA RESULT: -8.502791328      5.230      9.439
REMARK  7 active torsions:
REMARK  status: ('A' for Active; 'I' for Inactive)
REMARK    1  A    between atoms: C3_3  and  C4_4 
REMARK    2  A    between atoms: C6_6  and  S1_7 
REMARK    3  A    between atoms: S1_7  and  C7_8 
REMARK    4  A    between atoms: C7_8  and  C8_9 
REMARK    5  A    between atoms: C10_14  and  C11_15 
REMARK    6  A    between atoms: C15_22  and  N4_23 
REMARK    7  A    between atoms: C17_27  and  N5_28 
ROOT
HETATM    1  C1  UNL     1     -24.454  -0.126   3.351  1.00  0.00     0.012 C 
HETATM    2  C2  UNL     1     -25.393  -0.118   4.103  1.00  0.00    -0.113 C 
HETATM    3  C3  UNL     1     -26.529  -0.129   5.026  1.00  0.00     0.134 C 
ENDROOT
BRANCH   3   4
HETATM    4  C4  UNL     1     -26.182  -0.796   6.316  1.00  0.00    -0.013 A 
HETATM    5  C5  UNL     1     -25.468  -1.996   6.296  1.00  0.00     0.031 A 
HETATM    6  C6  UNL     1     -25.121  -2.678   7.442  1.00  0.00     0.034 A 
HETATM    7  C15 UNL     1     -25.512  -2.127   8.630  1.00  0.00     0.122 A 
HETATM    8  C16 UNL     1     -26.214  -0.945   8.665  1.00  0.00     0.074 A 
HETATM    9  C17 UNL     1     -26.566  -0.249   7.495  1.00  0.00     0.112 A 
BRANCH   6  10
HETATM   10  S1  UNL     1     -24.236  -4.209   7.261  1.00  0.00    -0.121 SA
BRANCH  10  11
HETATM   11  C7  UNL     1     -24.361  -5.274   8.694  1.00  0.00     0.138 C 
BRANCH  11  12
HETATM   12  C8  UNL     1     -24.589  -6.712   8.400  1.00  0.00     0.038 A 
HETATM   13  C9  UNL     1     -25.700  -7.277   7.839  1.00  0.00     0.144 A 
HETATM   14  N1  UNL     1     -25.541  -8.635   7.728  1.00  0.00    -0.242 N 
HETATM   15  N2  UNL     1     -26.241  -9.606   7.291  1.00  0.00    -0.289 N 
HETATM   16  C14 UNL     1     -24.331  -8.879   8.224  1.00  0.00     0.172 A 
HETATM   17  C10 UNL     1     -25.775 -10.841   7.330  1.00  0.00     0.074 A 
ATOM     18  H2  UNL     1     -27.168  -9.427   6.907  1.00  0.00     0.188 HD
HETATM   19  S2  UNL     1     -24.237 -10.585   8.037  1.00  0.00    -0.037 SA
HETATM   20  N3  UNL     1     -23.723  -7.735   8.643  1.00  0.00    -0.337 N 
ATOM     21  H3  UNL     1     -22.794  -7.659   9.059  1.00  0.00     0.168 HD
BRANCH  17  22
HETATM   22  C11 UNL     1     -26.429 -12.114   6.873  1.00  0.00     0.044 A 
HETATM   23  C12 UNL     1     -27.791 -12.061   6.328  1.00  0.00     0.012 A 
HETATM   24  C13 UNL     1     -27.508 -12.712   7.667  1.00  0.00     0.012 A 
ENDBRANCH  17  22
ENDBRANCH  11  12
ENDBRANCH  10  11
ENDBRANCH   6  10
BRANCH   7  25
HETATM   25  N4  UNL     1     -25.258  -2.772   9.864  1.00  0.00    -0.114 N 
HETATM   26  O1  UNL     1     -26.022  -3.476  10.508  1.00  0.00    -0.532 OA
HETATM   27  O2  UNL     1     -23.991  -2.599  10.456  1.00  0.00    -0.532 OA
ENDBRANCH   7  25
BRANCH   9  28
HETATM   28  N5  UNL     1     -27.266   0.970   7.623  1.00  0.00    -0.115 N 
HETATM   29  O3  UNL     1     -28.480   1.094   7.679  1.00  0.00    -0.532 OA
HETATM   30  O4  UNL     1     -26.480   2.124   7.705  1.00  0.00    -0.532 OA
ENDBRANCH   9  28
ENDBRANCH   3   4
TORSDOF 7
ENDMDL
