MODEL 1
REMARK VINA RESULT: -9.319515996      0.000      0.000
REMARK  7 active torsions:
REMARK  status: ('A' for Active; 'I' for Inactive)
REMARK    1  A    between atoms: C2_2  and  C3_3 
REMARK    2  A    between atoms: C5_5  and  N1_6 
REMARK    3  A    between atoms: C9_12  and  N2_13 
REMARK    4  A    between atoms: C10_15  and  C11_16 
REMARK    5  A    between atoms: C12_17  and  N3_18 
REMARK    6  A    between atoms: C14_22  and  N4_23 
REMARK    7  A    between atoms: C16_27  and  N5_28 
ROOT
HETATM    1  C11 UNL     1     -24.979  -4.198   8.453  1.00  0.00     0.045 A 
HETATM    2  C12 UNL     1     -24.626  -3.366   7.417  1.00  0.00     0.119 A 
HETATM    3  C13 UNL     1     -24.847  -1.974   7.481  1.00  0.00     0.073 A 
HETATM    4  C14 UNL     1     -25.418  -1.409   8.576  1.00  0.00     0.107 A 
HETATM    5  C15 UNL     1     -25.766  -2.227   9.605  1.00  0.00     0.073 A 
HETATM    6  C16 UNL     1     -25.564  -3.609   9.578  1.00  0.00     0.119 A 
ENDROOT
BRANCH   1   7
HETATM    7  C10 UNL     1     -24.858  -5.610   8.369  1.00  0.00     0.104 C 
HETATM    8  N2  UNL     1     -25.621  -6.505   7.868  1.00  0.00    -0.364 N 
ATOM      9  H2  UNL     1     -26.494  -6.199   7.437  1.00  0.00     0.165 HD
BRANCH   8  10
HETATM   10  C9  UNL     1     -25.339  -7.886   7.870  1.00  0.00     0.038 A 
HETATM   11  C3  UNL     1     -26.226  -8.810   7.402  1.00  0.00    -0.029 A 
HETATM   12  C4  UNL     1     -25.960 -10.175   7.398  1.00  0.00     0.046 A 
HETATM   13  C5  UNL     1     -24.752 -10.661   7.880  1.00  0.00     0.109 A 
HETATM   14  C6  UNL     1     -23.852  -9.725   8.353  1.00  0.00    -0.027 A 
HETATM   15  C7  UNL     1     -22.545 -10.216   8.875  1.00  0.00     0.050 C 
HETATM   16  C8  UNL     1     -24.117  -8.374   8.357  1.00  0.00     0.039 A 
BRANCH  11  17
HETATM   17  C2  UNL     1     -27.542  -8.358   6.855  1.00  0.00     0.036 C 
HETATM   18  C1  UNL     1     -28.391  -9.607   6.576  1.00  0.00     0.010 C 
ENDBRANCH  11  17
BRANCH  13  19
HETATM   19  N1  UNL     1     -24.482 -12.055   7.869  1.00  0.00    -0.115 N 
HETATM   20  O1  UNL     1     -23.401 -12.578   7.550  1.00  0.00    -0.532 OA
HETATM   21  O2  UNL     1     -25.501 -12.894   8.244  1.00  0.00    -0.532 OA
ENDBRANCH  13  19
ENDBRANCH   8  10
ENDBRANCH   1   7
BRANCH   2  22
HETATM   22  N3  UNL     1     -24.012  -3.779   6.210  1.00  0.00    -0.115 N 
HETATM   23  O3  UNL     1     -23.618  -4.918   5.982  1.00  0.00    -0.532 OA
HETATM   24  O4  UNL     1     -23.744  -2.806   5.247  1.00  0.00    -0.532 OA
ENDBRANCH   2  22
BRANCH   6  25
HETATM   25  N5  UNL     1     -25.981  -4.326  10.724  1.00  0.00    -0.115 N 
HETATM   26  O7  UNL     1     -26.672  -5.327  10.787  1.00  0.00    -0.532 OA
HETATM   27  O8  UNL     1     -25.511  -3.867  11.962  1.00  0.00    -0.532 OA
ENDBRANCH   6  25
BRANCH   4  28
HETATM   28  N4  UNL     1     -25.621   0.002   8.613  1.00  0.00    -0.116 N 
HETATM   29  O5  UNL     1     -26.177   0.556   7.659  1.00  0.00    -0.532 OA
HETATM   30  O6  UNL     1     -25.196   0.713   9.701  1.00  0.00    -0.532 OA
ENDBRANCH   4  28
TORSDOF 7
ENDMDL
MODEL 2
REMARK VINA RESULT: -8.493554609      0.270      2.874
REMARK  7 active torsions:
REMARK  status: ('A' for Active; 'I' for Inactive)
REMARK    1  A    between atoms: C2_2  and  C3_3 
REMARK    2  A    between atoms: C5_5  and  N1_6 
REMARK    3  A    between atoms: C9_12  and  N2_13 
REMARK    4  A    between atoms: C10_15  and  C11_16 
REMARK    5  A    between atoms: C12_17  and  N3_18 
REMARK    6  A    between atoms: C14_22  and  N4_23 
REMARK    7  A    between atoms: C16_27  and  N5_28 
ROOT
HETATM    1  C11 UNL     1     -25.123  -4.285   8.551  1.00  0.00     0.045 A 
HETATM    2  C12 UNL     1     -25.641  -3.679   9.671  1.00  0.00     0.119 A 
HETATM    3  C13 UNL     1     -25.697  -2.275   9.792  1.00  0.00     0.073 A 
HETATM    4  C14 UNL     1     -25.239  -1.472   8.798  1.00  0.00     0.107 A 
HETATM    5  C15 UNL     1     -24.729  -2.065   7.686  1.00  0.00     0.073 A 
HETATM    6  C16 UNL     1     -24.656  -3.451   7.530  1.00  0.00     0.119 A 
ENDROOT
BRANCH   1   7
HETATM    7  C10 UNL     1     -24.965  -5.691   8.451  1.00  0.00     0.104 C 
HETATM    8  N2  UNL     1     -25.673  -6.594   7.884  1.00  0.00    -0.364 N 
ATOM      9  H2  UNL     1     -26.521  -6.299   7.401  1.00  0.00     0.165 HD
BRANCH   8  10
HETATM   10  C9  UNL     1     -25.360  -7.968   7.882  1.00  0.00     0.038 A 
HETATM   11  C3  UNL     1     -26.219  -8.908   7.394  1.00  0.00    -0.029 A 
HETATM   12  C4  UNL     1     -25.922 -10.267   7.385  1.00  0.00     0.046 A 
HETATM   13  C5  UNL     1     -24.712 -10.729   7.883  1.00  0.00     0.109 A 
HETATM   14  C6  UNL     1     -23.841  -9.778   8.376  1.00  0.00    -0.027 A 
HETATM   15  C7  UNL     1     -22.531 -10.243   8.916  1.00  0.00     0.050 C 
HETATM   16  C8  UNL     1     -24.136  -8.432   8.385  1.00  0.00     0.039 A 
BRANCH  11  17
HETATM   17  C2  UNL     1     -27.535  -8.481   6.829  1.00  0.00     0.036 C 
HETATM   18  C1  UNL     1     -28.388  -9.741   6.616  1.00  0.00     0.010 C 
ENDBRANCH  11  17
BRANCH  13  19
HETATM   19  N1  UNL     1     -24.411 -12.117   7.867  1.00  0.00    -0.115 N 
HETATM   20  O1  UNL     1     -23.320 -12.615   7.543  1.00  0.00    -0.532 OA
HETATM   21  O2  UNL     1     -25.410 -12.979   8.243  1.00  0.00    -0.532 OA
ENDBRANCH  13  19
ENDBRANCH   8  10
ENDBRANCH   1   7
BRANCH   2  22
HETATM   22  N3  UNL     1     -26.172  -4.359  10.795  1.00  0.00    -0.115 N 
HETATM   23  O3  UNL     1     -26.227  -3.896  11.929  1.00  0.00    -0.532 OA
HETATM   24  O4  UNL     1     -26.574  -5.685  10.626  1.00  0.00    -0.532 OA
ENDBRANCH   2  22
BRANCH   6  25
HETATM   25  N5  UNL     1     -24.096  -3.917   6.317  1.00  0.00    -0.115 N 
HETATM   26  O7  UNL     1     -23.861  -5.062   5.978  1.00  0.00    -0.532 OA
HETATM   27  O8  UNL     1     -23.807  -2.952   5.344  1.00  0.00    -0.532 OA
ENDBRANCH   6  25
BRANCH   4  28
HETATM   28  N4  UNL     1     -25.317  -0.056   8.948  1.00  0.00    -0.116 N 
HETATM   29  O5  UNL     1     -25.898   0.611   8.085  1.00  0.00    -0.532 OA
HETATM   30  O6  UNL     1     -24.748   0.536  10.041  1.00  0.00    -0.532 OA
ENDBRANCH   4  28
TORSDOF 7
ENDMDL
MODEL 3
REMARK VINA RESULT: -7.811172495      2.623      9.183
REMARK  7 active torsions:
REMARK  status: ('A' for Active; 'I' for Inactive)
REMARK    1  A    between atoms: C2_2  and  C3_3 
REMARK    2  A    between atoms: C5_5  and  N1_6 
REMARK    3  A    between atoms: C9_12  and  N2_13 
REMARK    4  A    between atoms: C10_15  and  C11_16 
REMARK    5  A    between atoms: C12_17  and  N3_18 
REMARK    6  A    between atoms: C14_22  and  N4_23 
REMARK    7  A    between atoms: C16_27  and  N5_28 
ROOT
HETATM    1  C11 UNL     1     -24.745  -4.156   8.158  1.00  0.00     0.045 A 
HETATM    2  C12 UNL     1     -25.272  -4.902   9.186  1.00  0.00     0.119 A 
HETATM    3  C13 UNL     1     -25.155  -6.308   9.212  1.00  0.00     0.073 A 
HETATM    4  C14 UNL     1     -24.514  -6.972   8.215  1.00  0.00     0.107 A 
HETATM    5  C15 UNL     1     -23.988  -6.238   7.198  1.00  0.00     0.073 A 
HETATM    6  C16 UNL     1     -24.084  -4.846   7.138  1.00  0.00     0.119 A 
ENDROOT
BRANCH   1   7
HETATM    7  C10 UNL     1     -24.938  -2.753   8.062  1.00  0.00     0.104 C 
HETATM    8  N2  UNL     1     -25.863  -2.052   7.525  1.00  0.00    -0.364 N 
ATOM      9  H2  UNL     1     -26.629  -2.545   7.067  1.00  0.00     0.165 HD
BRANCH   8  10
HETATM   10  C9  UNL     1     -25.897  -0.643   7.525  1.00  0.00     0.038 A 
HETATM   11  C3  UNL     1     -25.730   0.088   6.386  1.00  0.00    -0.029 A 
HETATM   12  C4  UNL     1     -25.762   1.479   6.371  1.00  0.00     0.046 A 
HETATM   13  C5  UNL     1     -25.970   2.193   7.543  1.00  0.00     0.109 A 
HETATM   14  C6  UNL     1     -26.140   1.453   8.698  1.00  0.00    -0.027 A 
HETATM   15  C7  UNL     1     -26.368   2.192   9.972  1.00  0.00     0.050 C 
HETATM   16  C8  UNL     1     -26.108   0.076   8.711  1.00  0.00     0.039 A 
BRANCH  11  17
HETATM   17  C2  UNL     1     -25.514  -0.615   5.084  1.00  0.00     0.036 C 
HETATM   18  C1  UNL     1     -24.248  -0.033   4.438  1.00  0.00     0.010 C 
ENDBRANCH  11  17
BRANCH  13  19
HETATM   19  N1  UNL     1     -26.006   3.612   7.523  1.00  0.00    -0.115 N 
HETATM   20  O1  UNL     1     -27.025   4.305   7.369  1.00  0.00    -0.532 OA
HETATM   21  O2  UNL     1     -24.815   4.272   7.690  1.00  0.00    -0.532 OA
ENDBRANCH  13  19
ENDBRANCH   8  10
ENDBRANCH   1   7
BRANCH   2  22
HETATM   22  N3  UNL     1     -25.959  -4.378  10.308  1.00  0.00    -0.115 N 
HETATM   23  O3  UNL     1     -25.906  -3.208  10.674  1.00  0.00    -0.532 OA
HETATM   24  O4  UNL     1     -26.668  -5.268  11.114  1.00  0.00    -0.532 OA
ENDBRANCH   2  22
BRANCH   6  25
HETATM   25  N5  UNL     1     -23.489  -4.225   6.014  1.00  0.00    -0.115 N 
HETATM   26  O7  UNL     1     -23.239  -4.704   4.923  1.00  0.00    -0.532 OA
HETATM   27  O8  UNL     1     -23.178  -2.865   6.137  1.00  0.00    -0.532 OA
ENDBRANCH   6  25
BRANCH   4  28
HETATM   28  N4  UNL     1     -24.407  -8.392   8.275  1.00  0.00    -0.116 N 
HETATM   29  O5  UNL     1     -23.560  -8.903   9.014  1.00  0.00    -0.532 OA
HETATM   30  O6  UNL     1     -25.242  -9.161   7.512  1.00  0.00    -0.532 OA
ENDBRANCH   4  28
TORSDOF 7
ENDMDL
MODEL 4
REMARK VINA RESULT: -7.398085526      4.490      9.240
REMARK  7 active torsions:
REMARK  status: ('A' for Active; 'I' for Inactive)
REMARK    1  A    between atoms: C2_2  and  C3_3 
REMARK    2  A    between atoms: C5_5  and  N1_6 
REMARK    3  A    between atoms: C9_12  and  N2_13 
REMARK    4  A    between atoms: C10_15  and  C11_16 
REMARK    5  A    between atoms: C12_17  and  N3_18 
REMARK    6  A    between atoms: C14_22  and  N4_23 
REMARK    7  A    between atoms: C16_27  and  N5_28 
ROOT
HETATM    1  C11 UNL     1     -24.826  -1.945   6.592  1.00  0.00     0.045 A 
HETATM    2  C12 UNL     1     -24.264  -3.153   6.931  1.00  0.00     0.119 A 
HETATM    3  C13 UNL     1     -24.393  -3.689   8.229  1.00  0.00     0.073 A 
HETATM    4  C14 UNL     1     -25.083  -3.023   9.192  1.00  0.00     0.107 A 
HETATM    5  C15 UNL     1     -25.643  -1.829   8.862  1.00  0.00     0.073 A 
HETATM    6  C16 UNL     1     -25.536  -1.267   7.588  1.00  0.00     0.119 A 
ENDROOT
BRANCH   1   7
HETATM    7  C10 UNL     1     -24.624  -1.341   5.324  1.00  0.00     0.104 C 
HETATM    8  N2  UNL     1     -23.747  -0.511   4.901  1.00  0.00    -0.364 N 
ATOM      9  H2  UNL     1     -23.039  -0.190   5.561  1.00  0.00     0.165 HD
BRANCH   8  10
HETATM   10  C9  UNL     1     -23.693  -0.010   3.585  1.00  0.00     0.038 A 
HETATM   11  C3  UNL     1     -22.781   0.929   3.202  1.00  0.00    -0.029 A 
HETATM   12  C4  UNL     1     -22.715   1.432   1.907  1.00  0.00     0.046 A 
HETATM   13  C5  UNL     1     -23.597   0.987   0.931  1.00  0.00     0.109 A 
HETATM   14  C6  UNL     1     -24.521   0.035   1.318  1.00  0.00    -0.027 A 
HETATM   15  C7  UNL     1     -25.479  -0.465   0.292  1.00  0.00     0.050 C 
HETATM   16  C8  UNL     1     -24.584  -0.462   2.601  1.00  0.00     0.039 A 
BRANCH  11  17
HETATM   17  C2  UNL     1     -21.791   1.445   4.197  1.00  0.00     0.036 C 
HETATM   18  C1  UNL     1     -20.672   2.159   3.424  1.00  0.00     0.010 C 
ENDBRANCH  11  17
BRANCH  13  19
HETATM   19  N1  UNL     1     -23.524   1.499  -0.391  1.00  0.00    -0.115 N 
HETATM   20  O1  UNL     1     -24.098   2.522  -0.801  1.00  0.00    -0.532 OA
HETATM   21  O2  UNL     1     -22.754   0.806  -1.290  1.00  0.00    -0.532 OA
ENDBRANCH  13  19
ENDBRANCH   8  10
ENDBRANCH   1   7
BRANCH   2  22
HETATM   22  N3  UNL     1     -23.525  -3.984   6.054  1.00  0.00    -0.115 N 
HETATM   23  O3  UNL     1     -23.173  -3.668   4.923  1.00  0.00    -0.532 OA
HETATM   24  O4  UNL     1     -23.260  -5.292   6.463  1.00  0.00    -0.532 OA
ENDBRANCH   2  22
BRANCH   6  25
HETATM   25  N5  UNL     1     -26.172  -0.017   7.399  1.00  0.00    -0.115 N 
HETATM   26  O7  UNL     1     -25.672   1.056   7.114  1.00  0.00    -0.532 OA
HETATM   27  O8  UNL     1     -27.569   0.003   7.505  1.00  0.00    -0.532 OA
ENDBRANCH   6  25
BRANCH   4  28
HETATM   28  N4  UNL     1     -25.201  -3.595  10.493  1.00  0.00    -0.116 N 
HETATM   29  O5  UNL     1     -26.321  -3.884  10.925  1.00  0.00    -0.532 OA
HETATM   30  O6  UNL     1     -24.074  -3.811  11.236  1.00  0.00    -0.532 OA
ENDBRANCH   4  28
TORSDOF 7
ENDMDL
MODEL 5
REMARK VINA RESULT: -7.364407373      3.911      8.490
REMARK  7 active torsions:
REMARK  status: ('A' for Active; 'I' for Inactive)
REMARK    1  A    between atoms: C2_2  and  C3_3 
REMARK    2  A    between atoms: C5_5  and  N1_6 
REMARK    3  A    between atoms: C9_12  and  N2_13 
REMARK    4  A    between atoms: C10_15  and  C11_16 
REMARK    5  A    between atoms: C12_17  and  N3_18 
REMARK    6  A    between atoms: C14_22  and  N4_23 
REMARK    7  A    between atoms: C16_27  and  N5_28 
ROOT
HETATM    1  C11 UNL     1     -25.010  -2.606   7.459  1.00  0.00     0.045 A 
HETATM    2  C12 UNL     1     -24.490  -3.856   7.699  1.00  0.00     0.119 A 
HETATM    3  C13 UNL     1     -24.610  -4.475   8.961  1.00  0.00     0.073 A 
HETATM    4  C14 UNL     1     -25.247  -3.851   9.984  1.00  0.00     0.107 A 
HETATM    5  C15 UNL     1     -25.766  -2.616   9.752  1.00  0.00     0.073 A 
HETATM    6  C16 UNL     1     -25.667  -1.971   8.517  1.00  0.00     0.119 A 
ENDROOT
BRANCH   1   7
HETATM    7  C10 UNL     1     -24.814  -1.925   6.229  1.00  0.00     0.104 C 
HETATM    8  N2  UNL     1     -24.979  -0.701   5.894  1.00  0.00    -0.364 N 
ATOM      9  H2  UNL     1     -25.314  -0.054   6.606  1.00  0.00     0.165 HD
BRANCH   8  10
HETATM   10  C9  UNL     1     -24.728  -0.187   4.605  1.00  0.00     0.038 A 
HETATM   11  C3  UNL     1     -25.731   0.238   3.785  1.00  0.00    -0.029 A 
HETATM   12  C4  UNL     1     -25.499   0.748   2.512  1.00  0.00     0.046 A 
HETATM   13  C5  UNL     1     -24.206   0.846   2.016  1.00  0.00     0.109 A 
HETATM   14  C6  UNL     1     -23.189   0.415   2.846  1.00  0.00    -0.027 A 
HETATM   15  C7  UNL     1     -21.790   0.510   2.342  1.00  0.00     0.050 C 
HETATM   16  C8  UNL     1     -23.421  -0.090   4.107  1.00  0.00     0.039 A 
BRANCH  11  17
HETATM   17  C2  UNL     1     -27.148   0.176   4.259  1.00  0.00     0.036 C 
HETATM   18  C1  UNL     1     -28.058   0.140   3.022  1.00  0.00     0.010 C 
ENDBRANCH  11  17
BRANCH  13  19
HETATM   19  N1  UNL     1     -23.972   1.371   0.718  1.00  0.00    -0.115 N 
HETATM   20  O1  UNL     1     -23.772   2.567   0.449  1.00  0.00    -0.532 OA
HETATM   21  O2  UNL     1     -23.966   0.481  -0.327  1.00  0.00    -0.532 OA
ENDBRANCH  13  19
ENDBRANCH   8  10
ENDBRANCH   1   7
BRANCH   2  22
HETATM   22  N3  UNL     1     -23.808  -4.653   6.748  1.00  0.00    -0.115 N 
HETATM   23  O3  UNL     1     -23.199  -4.215   5.778  1.00  0.00    -0.532 OA
HETATM   24  O4  UNL     1     -23.914  -6.040   6.861  1.00  0.00    -0.532 OA
ENDBRANCH   2  22
BRANCH   6  25
HETATM   25  N5  UNL     1     -26.255  -0.687   8.431  1.00  0.00    -0.115 N 
HETATM   26  O7  UNL     1     -27.356  -0.380   8.011  1.00  0.00    -0.532 OA
HETATM   27  O8  UNL     1     -25.505   0.385   8.932  1.00  0.00    -0.532 OA
ENDBRANCH   6  25
BRANCH   4  28
HETATM   28  N4  UNL     1     -25.358  -4.506  11.246  1.00  0.00    -0.116 N 
HETATM   29  O5  UNL     1     -25.438  -5.738  11.281  1.00  0.00    -0.532 OA
HETATM   30  O6  UNL     1     -25.374  -3.760  12.392  1.00  0.00    -0.532 OA
ENDBRANCH   4  28
TORSDOF 7
ENDMDL
