MODEL 1
REMARK VINA RESULT: -4.803508267      0.000      0.000
REMARK  2 active torsions:
REMARK  status: ('A' for Active; 'I' for Inactive)
REMARK       I    between atoms: N1_2  and  C2_4 
REMARK    1  A    between atoms: N3_6  and  C3_8 
REMARK    2  A    between atoms: C3_8  and  N4_10 
ROOT
HETATM    1  C1  UNL     1      30.009  30.507  42.908  1.00  0.00     0.148 C 
HETATM    2  N1  UNL     1      29.193  30.593  41.729  1.00  0.00    -0.369 N 
ATOM      3  H1  UNL     1      29.380  29.940  40.968  1.00  0.00     0.161 HD
HETATM    4  C2  UNL     1      28.146  31.528  41.562  1.00  0.00     0.190 C 
HETATM    5  N2  UNL     1      27.115  31.324  40.603  1.00  0.00    -0.063 NA
HETATM    6  N3  UNL     1      28.084  32.610  42.277  1.00  0.00    -0.307 N 
ATOM      7  H3  UNL     1      28.810  32.784  42.973  1.00  0.00     0.171 HD
ENDROOT
BRANCH   6   8
HETATM    8  C3  UNL     1      27.039  33.559  42.121  1.00  0.00     0.177 C 
HETATM    9  S1  UNL     1      25.698  33.395  43.075  1.00  0.00    -0.041 SA
BRANCH   8  10
HETATM   10  N4  UNL     1      27.083  34.634  41.196  1.00  0.00    -0.345 N 
HETATM   11  C4  UNL     1      27.587  34.972  39.820  1.00  0.00     0.156 A 
HETATM   12  C5  UNL     1      26.852  35.961  40.684  1.00  0.00     0.043 A 
HETATM   13  C6  UNL     1      27.629  37.128  41.244  1.00  0.00     0.040 C 
HETATM   14  C7  UNL     1      25.479  36.333  40.178  1.00  0.00     0.040 C 
ENDBRANCH   8  10
ENDBRANCH   6   8
TORSDOF 2
ENDMDL
MODEL 2
REMARK VINA RESULT: -4.754313083      3.066      4.388
REMARK  2 active torsions:
REMARK  status: ('A' for Active; 'I' for Inactive)
REMARK       I    between atoms: N1_2  and  C2_4 
REMARK    1  A    between atoms: N3_6  and  C3_8 
REMARK    2  A    between atoms: C3_8  and  N4_10 
ROOT
HETATM    1  C1  UNL     1      28.058  34.399  38.897  1.00  0.00     0.148 C 
HETATM    2  N1  UNL     1      27.940  35.476  39.839  1.00  0.00    -0.369 N 
ATOM      3  H1  UNL     1      28.677  36.182  39.855  1.00  0.00     0.161 HD
HETATM    4  C2  UNL     1      26.864  35.618  40.745  1.00  0.00     0.190 C 
HETATM    5  N2  UNL     1      26.562  36.870  41.349  1.00  0.00    -0.063 NA
HETATM    6  N3  UNL     1      26.109  34.610  41.061  1.00  0.00    -0.307 N 
ATOM      7  H3  UNL     1      26.301  33.699  40.644  1.00  0.00     0.171 HD
ENDROOT
BRANCH   6   8
HETATM    8  C3  UNL     1      25.024  34.735  41.969  1.00  0.00     0.177 C 
HETATM    9  S1  UNL     1      25.253  34.214  43.522  1.00  0.00    -0.041 SA
BRANCH   8  10
HETATM   10  N4  UNL     1      23.761  35.279  41.618  1.00  0.00    -0.345 N 
HETATM   11  C4  UNL     1      22.555  34.981  40.769  1.00  0.00     0.156 A 
HETATM   12  C5  UNL     1      22.672  36.223  41.612  1.00  0.00     0.043 A 
HETATM   13  C6  UNL     1      22.829  37.547  40.906  1.00  0.00     0.040 C 
HETATM   14  C7  UNL     1      21.726  36.271  42.788  1.00  0.00     0.040 C 
ENDBRANCH   8  10
ENDBRANCH   6   8
TORSDOF 2
ENDMDL
MODEL 3
REMARK VINA RESULT: -4.708420063      4.229      5.501
REMARK  2 active torsions:
REMARK  status: ('A' for Active; 'I' for Inactive)
REMARK       I    between atoms: N1_2  and  C2_4 
REMARK    1  A    between atoms: N3_6  and  C3_8 
REMARK    2  A    between atoms: C3_8  and  N4_10 
ROOT
HETATM    1  C1  UNL     1      21.017  34.917  45.050  1.00  0.00     0.148 C 
HETATM    2  N1  UNL     1      21.713  34.169  44.041  1.00  0.00    -0.369 N 
ATOM      3  H1  UNL     1      21.639  33.152  44.062  1.00  0.00     0.161 HD
HETATM    4  C2  UNL     1      22.494  34.759  43.020  1.00  0.00     0.190 C 
HETATM    5  N2  UNL     1      22.811  34.051  41.827  1.00  0.00    -0.063 NA
HETATM    6  N3  UNL     1      22.951  35.968  43.131  1.00  0.00    -0.307 N 
ATOM      7  H3  UNL     1      22.740  36.500  43.976  1.00  0.00     0.171 HD
ENDROOT
BRANCH   6   8
HETATM    8  C3  UNL     1      23.737  36.575  42.115  1.00  0.00     0.177 C 
HETATM    9  S1  UNL     1      22.952  37.448  40.950  1.00  0.00    -0.041 SA
BRANCH   8  10
HETATM   10  N4  UNL     1      25.150  36.471  42.045  1.00  0.00    -0.345 N 
HETATM   11  C4  UNL     1      26.247  35.443  42.018  1.00  0.00     0.156 A 
HETATM   12  C5  UNL     1      26.516  36.923  41.962  1.00  0.00     0.043 A 
HETATM   13  C6  UNL     1      27.168  37.572  43.158  1.00  0.00     0.040 C 
HETATM   14  C7  UNL     1      27.058  37.409  40.638  1.00  0.00     0.040 C 
ENDBRANCH   8  10
ENDBRANCH   6   8
TORSDOF 2
ENDMDL
MODEL 4
REMARK VINA RESULT: -4.692914493      2.968      4.451
REMARK  2 active torsions:
REMARK  status: ('A' for Active; 'I' for Inactive)
REMARK       I    between atoms: N1_2  and  C2_4 
REMARK    1  A    between atoms: N3_6  and  C3_8 
REMARK    2  A    between atoms: C3_8  and  N4_10 
ROOT
HETATM    1  C1  UNL     1      28.193  34.440  38.829  1.00  0.00     0.148 C 
HETATM    2  N1  UNL     1      27.619  33.894  40.026  1.00  0.00    -0.369 N 
ATOM      3  H1  UNL     1      27.876  32.943  40.291  1.00  0.00     0.161 HD
HETATM    4  C2  UNL     1      26.718  34.596  40.860  1.00  0.00     0.190 C 
HETATM    5  N2  UNL     1      26.504  34.209  42.212  1.00  0.00    -0.063 NA
HETATM    6  N3  UNL     1      26.053  35.622  40.424  1.00  0.00    -0.307 N 
ATOM      7  H3  UNL     1      26.186  35.923  39.459  1.00  0.00     0.171 HD
ENDROOT
BRANCH   6   8
HETATM    8  C3  UNL     1      25.144  36.338  41.249  1.00  0.00     0.177 C 
HETATM    9  S1  UNL     1      25.762  37.504  42.246  1.00  0.00    -0.041 SA
BRANCH   8  10
HETATM   10  N4  UNL     1      23.744  36.107  41.264  1.00  0.00    -0.345 N 
HETATM   11  C4  UNL     1      22.720  35.100  40.818  1.00  0.00     0.156 A 
HETATM   12  C5  UNL     1      22.355  36.367  41.545  1.00  0.00     0.043 A 
HETATM   13  C6  UNL     1      21.620  37.438  40.777  1.00  0.00     0.040 C 
HETATM   14  C7  UNL     1      21.828  36.154  42.944  1.00  0.00     0.040 C 
ENDBRANCH   8  10
ENDBRANCH   6   8
TORSDOF 2
ENDMDL
MODEL 5
REMARK VINA RESULT: -4.621783301      5.930      7.735
REMARK  2 active torsions:
REMARK  status: ('A' for Active; 'I' for Inactive)
REMARK       I    between atoms: N1_2  and  C2_4 
REMARK    1  A    between atoms: N3_6  and  C3_8 
REMARK    2  A    between atoms: C3_8  and  N4_10 
ROOT
HETATM    1  C1  UNL     1      23.659  37.677  40.731  1.00  0.00     0.148 C 
HETATM    2  N1  UNL     1      23.253  36.314  40.537  1.00  0.00    -0.369 N 
ATOM      3  H1  UNL     1      23.404  35.895  39.619  1.00  0.00     0.161 HD
HETATM    4  C2  UNL     1      22.655  35.519  41.542  1.00  0.00     0.190 C 
HETATM    5  N2  UNL     1      22.651  34.098  41.459  1.00  0.00    -0.063 NA
HETATM    6  N3  UNL     1      22.087  36.054  42.579  1.00  0.00    -0.307 N 
ATOM      7  H3  UNL     1      22.073  37.070  42.666  1.00  0.00     0.171 HD
ENDROOT
BRANCH   6   8
HETATM    8  C3  UNL     1      21.482  35.269  43.597  1.00  0.00     0.177 C 
HETATM    9  S1  UNL     1      22.395  34.885  44.921  1.00  0.00    -0.041 SA
BRANCH   8  10
HETATM   10  N4  UNL     1      20.144  34.798  43.539  1.00  0.00    -0.345 N 
HETATM   11  C4  UNL     1      18.884  34.751  44.358  1.00  0.00     0.156 A 
HETATM   12  C5  UNL     1      18.982  34.156  42.979  1.00  0.00     0.043 A 
HETATM   13  C6  UNL     1      18.941  32.653  42.851  1.00  0.00     0.040 C 
HETATM   14  C7  UNL     1      18.170  34.876  41.929  1.00  0.00     0.040 C 
ENDBRANCH   8  10
ENDBRANCH   6   8
TORSDOF 2
ENDMDL
