MODEL 1
REMARK VINA RESULT: -5.454838041      0.000      0.000
REMARK  0 active torsions:
REMARK  status: ('A' for Active; 'I' for Inactive)
REMARK       I    between atoms: N1_2  and  C3_4 
REMARK       I    between atoms: C3_4  and  N6_15 
REMARK       I    between atoms: N2_5  and  C4_7 
REMARK       I    between atoms: C4_7  and  N4_11 
ROOT
HETATM    1  C1  UNL     1      24.632  36.993  42.268  1.00  0.00     0.152 C 
HETATM    2  N1  UNL     1      25.323  36.125  41.316  1.00  0.00    -0.355 N 
HETATM    3  C2  UNL     1      25.108  36.465  39.901  1.00  0.00     0.152 C 
HETATM    4  C3  UNL     1      26.135  35.044  41.706  1.00  0.00     0.294 C 
HETATM    5  N2  UNL     1      25.620  33.995  42.255  1.00  0.00    -0.154 N 
ATOM      6  H2  UNL     1      26.244  33.233  42.522  1.00  0.00     0.187 HD
HETATM    7  C4  UNL     1      24.226  33.849  42.505  1.00  0.00     0.687 C 
HETATM    8  N3  UNL     1      23.327  34.108  41.632  1.00  0.00    -0.234 N 
ATOM      9  H31 UNL     1      22.329  34.003  41.811  1.00  0.00     0.174 HD
ATOM     10  H32 UNL     1      23.636  34.434  40.715  1.00  0.00     0.174 HD
HETATM   11  N4  UNL     1      23.796  33.396  43.779  1.00  0.00    -0.126 N 
ATOM     12  H4  UNL     1      24.155  33.848  44.620  1.00  0.00     0.197 HD
HETATM   13  C5  UNL     1      22.880  32.328  43.901  1.00  0.00     0.196 C 
HETATM   14  N5  UNL     1      22.132  31.449  44.021  1.00  0.00    -0.171 NA
HETATM   15  N6  UNL     1      27.556  35.011  41.535  1.00  0.00    -0.018 N 
HETATM   16  C6  UNL     1      27.851  33.864  40.668  1.00  0.00     0.282 C 
HETATM   17  C7  UNL     1      28.214  34.747  42.818  1.00  0.00     0.282 C 
HETATM   18  C8  UNL     1      28.067  36.227  40.982  1.00  0.00     0.282 C 
ENDROOT
TORSDOF 0
ENDMDL
MODEL 2
REMARK VINA RESULT: -5.451571477      2.123      3.968
REMARK  0 active torsions:
REMARK  status: ('A' for Active; 'I' for Inactive)
REMARK       I    between atoms: N1_2  and  C3_4 
REMARK       I    between atoms: C3_4  and  N6_15 
REMARK       I    between atoms: N2_5  and  C4_7 
REMARK       I    between atoms: C4_7  and  N4_11 
ROOT
HETATM    1  C1  UNL     1      26.773  36.038  40.350  1.00  0.00     0.152 C 
HETATM    2  N1  UNL     1      25.970  36.115  41.571  1.00  0.00    -0.355 N 
HETATM    3  C2  UNL     1      26.406  37.139  42.532  1.00  0.00     0.152 C 
HETATM    4  C3  UNL     1      24.864  35.283  41.820  1.00  0.00     0.294 C 
HETATM    5  N2  UNL     1      25.021  34.019  42.030  1.00  0.00    -0.154 N 
ATOM      6  H2  UNL     1      24.193  33.450  42.208  1.00  0.00     0.187 HD
HETATM    7  C4  UNL     1      26.294  33.379  42.027  1.00  0.00     0.687 C 
HETATM    8  N3  UNL     1      27.310  33.838  42.654  1.00  0.00    -0.234 N 
ATOM      9  H31 UNL     1      28.221  33.381  42.651  1.00  0.00     0.174 HD
ATOM     10  H32 UNL     1      27.191  34.705  43.179  1.00  0.00     0.174 HD
HETATM   11  N4  UNL     1      26.459  32.174  41.296  1.00  0.00    -0.126 N 
ATOM     12  H4  UNL     1      26.155  32.130  40.323  1.00  0.00     0.197 HD
HETATM   13  C5  UNL     1      27.038  31.034  41.895  1.00  0.00     0.196 C 
HETATM   14  N5  UNL     1      27.507  30.084  42.372  1.00  0.00    -0.171 NA
HETATM   15  N6  UNL     1      23.510  35.747  41.862  1.00  0.00    -0.018 N 
HETATM   16  C6  UNL     1      23.003  35.452  43.208  1.00  0.00     0.282 C 
HETATM   17  C7  UNL     1      22.683  34.979  40.926  1.00  0.00     0.282 C 
HETATM   18  C8  UNL     1      23.401  37.140  41.558  1.00  0.00     0.282 C 
ENDROOT
TORSDOF 0
ENDMDL
MODEL 3
REMARK VINA RESULT: -5.423597083      2.494      4.559
REMARK  0 active torsions:
REMARK  status: ('A' for Active; 'I' for Inactive)
REMARK       I    between atoms: N1_2  and  C3_4 
REMARK       I    between atoms: C3_4  and  N6_15 
REMARK       I    between atoms: N2_5  and  C4_7 
REMARK       I    between atoms: C4_7  and  N4_11 
ROOT
HETATM    1  C1  UNL     1      28.066  34.856  43.130  1.00  0.00     0.152 C 
HETATM    2  N1  UNL     1      26.709  35.097  42.637  1.00  0.00    -0.355 N 
HETATM    3  C2  UNL     1      25.639  34.781  43.595  1.00  0.00     0.152 C 
HETATM    4  C3  UNL     1      26.433  35.593  41.351  1.00  0.00     0.294 C 
HETATM    5  N2  UNL     1      26.663  34.876  40.301  1.00  0.00    -0.154 N 
ATOM      6  H2  UNL     1      26.448  35.273  39.386  1.00  0.00     0.187 HD
HETATM    7  C4  UNL     1      27.200  33.558  40.359  1.00  0.00     0.687 C 
HETATM    8  N3  UNL     1      26.762  32.658  41.155  1.00  0.00    -0.234 N 
ATOM      9  H31 UNL     1      27.147  31.714  41.196  1.00  0.00     0.174 HD
ATOM     10  H32 UNL     1      25.989  32.906  41.773  1.00  0.00     0.174 HD
HETATM   11  N4  UNL     1      28.275  33.213  39.500  1.00  0.00    -0.126 N 
ATOM     12  H4  UNL     1      29.097  33.816  39.455  1.00  0.00     0.197 HD
HETATM   13  C5  UNL     1      28.225  32.046  38.705  1.00  0.00     0.196 C 
HETATM   14  N5  UNL     1      28.201  31.095  38.040  1.00  0.00    -0.171 NA
HETATM   15  N6  UNL     1      25.892  36.894  41.096  1.00  0.00    -0.018 N 
HETATM   16  C6  UNL     1      24.612  36.691  40.406  1.00  0.00     0.282 C 
HETATM   17  C7  UNL     1      26.756  37.630  40.169  1.00  0.00     0.282 C 
HETATM   18  C8  UNL     1      25.722  37.658  42.293  1.00  0.00     0.282 C 
ENDROOT
TORSDOF 0
ENDMDL
MODEL 4
REMARK VINA RESULT: -5.404520787      4.020      7.392
REMARK  0 active torsions:
REMARK  status: ('A' for Active; 'I' for Inactive)
REMARK       I    between atoms: N1_2  and  C3_4 
REMARK       I    between atoms: C3_4  and  N6_15 
REMARK       I    between atoms: N2_5  and  C4_7 
REMARK       I    between atoms: C4_7  and  N4_11 
ROOT
HETATM    1  C1  UNL     1      21.301  33.056  44.488  1.00  0.00     0.152 C 
HETATM    2  N1  UNL     1      20.037  33.512  43.908  1.00  0.00    -0.355 N 
HETATM    3  C2  UNL     1      19.264  32.470  43.216  1.00  0.00     0.152 C 
HETATM    4  C3  UNL     1      19.582  34.839  43.998  1.00  0.00     0.294 C 
HETATM    5  N2  UNL     1      20.188  35.790  43.369  1.00  0.00    -0.154 N 
ATOM      6  H2  UNL     1      19.826  36.740  43.460  1.00  0.00     0.187 HD
HETATM    7  C4  UNL     1      21.337  35.579  42.553  1.00  0.00     0.687 C 
HETATM    8  N3  UNL     1      21.414  34.648  41.680  1.00  0.00    -0.234 N 
ATOM      9  H31 UNL     1      22.236  34.496  41.097  1.00  0.00     0.174 HD
ATOM     10  H32 UNL     1      20.606  34.033  41.570  1.00  0.00     0.174 HD
HETATM   11  N4  UNL     1      22.460  36.433  42.707  1.00  0.00    -0.126 N 
ATOM     12  H4  UNL     1      22.841  36.599  43.638  1.00  0.00     0.197 HD
HETATM   13  C5  UNL     1      23.057  37.058  41.590  1.00  0.00     0.196 C 
HETATM   14  N5  UNL     1      23.558  37.584  40.684  1.00  0.00    -0.171 NA
HETATM   15  N6  UNL     1      18.446  35.243  44.769  1.00  0.00    -0.018 N 
HETATM   16  C6  UNL     1      17.487  35.838  43.830  1.00  0.00     0.282 C 
HETATM   17  C7  UNL     1      18.822  36.302  45.710  1.00  0.00     0.282 C 
HETATM   18  C8  UNL     1      17.861  34.155  45.490  1.00  0.00     0.282 C 
ENDROOT
TORSDOF 0
ENDMDL
MODEL 5
REMARK VINA RESULT: -5.298806476      1.653      1.672
REMARK  0 active torsions:
REMARK  status: ('A' for Active; 'I' for Inactive)
REMARK       I    between atoms: N1_2  and  C3_4 
REMARK       I    between atoms: C3_4  and  N6_15 
REMARK       I    between atoms: N2_5  and  C4_7 
REMARK       I    between atoms: C4_7  and  N4_11 
ROOT
HETATM    1  C1  UNL     1      24.100  36.126  43.010  1.00  0.00     0.152 C 
HETATM    2  N1  UNL     1      24.795  35.841  41.754  1.00  0.00    -0.355 N 
HETATM    3  C2  UNL     1      24.031  36.160  40.539  1.00  0.00     0.152 C 
HETATM    4  C3  UNL     1      26.094  35.304  41.697  1.00  0.00     0.294 C 
HETATM    5  N2  UNL     1      26.326  34.092  42.074  1.00  0.00    -0.154 N 
ATOM      6  H2  UNL     1      27.282  33.740  42.016  1.00  0.00     0.187 HD
HETATM    7  C4  UNL     1      25.313  33.220  42.568  1.00  0.00     0.687 C 
HETATM    8  N3  UNL     1      24.183  33.062  41.990  1.00  0.00    -0.234 N 
ATOM      9  H31 UNL     1      23.458  32.438  42.343  1.00  0.00     0.174 HD
ATOM     10  H32 UNL     1      24.010  33.590  41.134  1.00  0.00     0.174 HD
HETATM   11  N4  UNL     1      25.554  32.486  43.758  1.00  0.00    -0.126 N 
ATOM     12  H4  UNL     1      25.892  32.972  44.589  1.00  0.00     0.197 HD
HETATM   13  C5  UNL     1      25.333  31.092  43.810  1.00  0.00     0.196 C 
HETATM   14  N5  UNL     1      25.162  29.945  43.870  1.00  0.00    -0.171 NA
HETATM   15  N6  UNL     1      27.237  36.030  41.230  1.00  0.00    -0.018 N 
HETATM   16  C6  UNL     1      27.760  35.295  40.072  1.00  0.00     0.282 C 
HETATM   17  C7  UNL     1      28.293  36.018  42.246  1.00  0.00     0.282 C 
HETATM   18  C8  UNL     1      26.922  37.383  40.889  1.00  0.00     0.282 C 
ENDROOT
TORSDOF 0
ENDMDL
