MODEL 1
REMARK VINA RESULT: -7.117559060      0.000      0.000
REMARK  11 active torsions:
REMARK  status: ('A' for Active; 'I' for Inactive)
REMARK    1  A    between atoms: N1_1  and  C1_5 
REMARK    2  A    between atoms: C1_5  and  C2_6 
REMARK    3  A    between atoms: C2_6  and  C3_7 
REMARK    4  A    between atoms: C3_7  and  C4_8 
REMARK    5  A    between atoms: C4_8  and  C5_9 
REMARK    6  A    between atoms: C5_9  and  C6_10 
REMARK    7  A    between atoms: C7_11  and  C8_12 
REMARK    8  A    between atoms: C8_12  and  C9_13 
REMARK    9  A    between atoms: C9_13  and  C10_14 
REMARK   10  A    between atoms: C10_14  and  C11_15 
REMARK   11  A    between atoms: C11_15  and  C12_16 
ROOT
HETATM    1  C5  UNL     1      -4.398  11.014  19.511  1.00  0.00     0.027 C 
ENDROOT
BRANCH   1   2
HETATM    2  C4  UNL     1      -3.782  10.493  20.760  1.00  0.00     0.004 C 
BRANCH   2   3
HETATM    3  C3  UNL     1      -4.470   9.548  21.620  1.00  0.00     0.002 C 
BRANCH   3   4
HETATM    4  C2  UNL     1      -5.378   9.910  22.710  1.00  0.00     0.027 C 
BRANCH   4   5
HETATM    5  C1  UNL     1      -4.967  11.111  23.522  1.00  0.00     0.229 C 
BRANCH   5   6
HETATM    6  N1  UNL     1      -4.231  10.759  24.678  1.00  0.00    -0.079 N 
ATOM      7  H13 UNL     1      -4.578   9.889  25.083  1.00  0.00     0.274 HD
ATOM      8  H12 UNL     1      -3.287  10.460  24.434  1.00  0.00     0.274 HD
ATOM      9  H11 UNL     1      -4.212  11.505  25.372  1.00  0.00     0.274 HD
ENDBRANCH   5   6
ENDBRANCH   4   5
ENDBRANCH   3   4
ENDBRANCH   2   3
ENDBRANCH   1   2
BRANCH   1  10
HETATM   10  C6  UNL     1      -3.711  10.911  18.238  1.00  0.00    -0.031 C 
HETATM   11  C7  UNL     1      -3.203  11.864  17.512  1.00  0.00    -0.031 C 
BRANCH  11  12
HETATM   12  C8  UNL     1      -3.238  13.281  17.869  1.00  0.00     0.027 C 
BRANCH  12  13
HETATM   13  C9  UNL     1      -1.893  13.768  18.413  1.00  0.00     0.004 C 
BRANCH  13  14
HETATM   14  C10 UNL     1      -1.693  15.229  18.139  1.00  0.00     0.001 C 
BRANCH  14  15
HETATM   15  C11 UNL     1      -2.527  15.766  17.015  1.00  0.00     0.004 C 
BRANCH  15  16
HETATM   16  C12 UNL     1      -3.243  17.027  17.344  1.00  0.00    -0.014 A 
HETATM   17  C13 UNL     1      -3.606  18.034  16.335  1.00  0.00     0.005 A 
HETATM   18  C14 UNL     1      -4.672  17.117  16.809  1.00  0.00     0.005 A 
ENDBRANCH  15  16
ENDBRANCH  14  15
ENDBRANCH  13  14
ENDBRANCH  12  13
ENDBRANCH  11  12
ENDBRANCH   1  10
TORSDOF 11
ENDMDL
MODEL 2
REMARK VINA RESULT: -7.074243984      0.933      1.224
REMARK  11 active torsions:
REMARK  status: ('A' for Active; 'I' for Inactive)
REMARK    1  A    between atoms: N1_1  and  C1_5 
REMARK    2  A    between atoms: C1_5  and  C2_6 
REMARK    3  A    between atoms: C2_6  and  C3_7 
REMARK    4  A    between atoms: C3_7  and  C4_8 
REMARK    5  A    between atoms: C4_8  and  C5_9 
REMARK    6  A    between atoms: C5_9  and  C6_10 
REMARK    7  A    between atoms: C7_11  and  C8_12 
REMARK    8  A    between atoms: C8_12  and  C9_13 
REMARK    9  A    between atoms: C9_13  and  C10_14 
REMARK   10  A    between atoms: C10_14  and  C11_15 
REMARK   11  A    between atoms: C11_15  and  C12_16 
ROOT
HETATM    1  C5  UNL     1      -2.747  10.267  19.795  1.00  0.00     0.027 C 
ENDROOT
BRANCH   1   2
HETATM    2  C4  UNL     1      -4.043  10.410  20.509  1.00  0.00     0.004 C 
BRANCH   2   3
HETATM    3  C3  UNL     1      -4.382   9.594  21.660  1.00  0.00     0.002 C 
BRANCH   3   4
HETATM    4  C2  UNL     1      -5.368   9.950  22.683  1.00  0.00     0.027 C 
BRANCH   4   5
HETATM    5  C1  UNL     1      -4.999  11.122  23.555  1.00  0.00     0.229 C 
BRANCH   5   6
HETATM    6  N1  UNL     1      -4.251  10.736  24.694  1.00  0.00    -0.079 N 
ATOM      7  H13 UNL     1      -4.594  11.203  25.533  1.00  0.00     0.274 HD
ATOM      8  H12 UNL     1      -4.448   9.769  24.951  1.00  0.00     0.274 HD
ATOM      9  H11 UNL     1      -3.250  10.887  24.574  1.00  0.00     0.274 HD
ENDBRANCH   5   6
ENDBRANCH   4   5
ENDBRANCH   3   4
ENDBRANCH   2   3
ENDBRANCH   1   2
BRANCH   1  10
HETATM   10  C6  UNL     1      -1.869  11.405  19.603  1.00  0.00    -0.031 C 
HETATM   11  C7  UNL     1      -2.009  12.408  18.786  1.00  0.00    -0.031 C 
BRANCH  11  12
HETATM   12  C8  UNL     1      -3.135  12.574  17.869  1.00  0.00     0.027 C 
BRANCH  12  13
HETATM   13  C9  UNL     1      -3.385  14.045  17.528  1.00  0.00     0.004 C 
BRANCH  13  14
HETATM   14  C10 UNL     1      -2.258  14.912  18.006  1.00  0.00     0.001 C 
BRANCH  14  15
HETATM   15  C11 UNL     1      -2.478  16.380  17.799  1.00  0.00     0.004 C 
BRANCH  15  16
HETATM   16  C12 UNL     1      -3.343  16.701  16.633  1.00  0.00    -0.014 A 
HETATM   17  C13 UNL     1      -4.683  17.295  16.763  1.00  0.00     0.005 A 
HETATM   18  C14 UNL     1      -3.564  18.194  16.386  1.00  0.00     0.005 A 
ENDBRANCH  15  16
ENDBRANCH  14  15
ENDBRANCH  13  14
ENDBRANCH  12  13
ENDBRANCH  11  12
ENDBRANCH   1  10
TORSDOF 11
ENDMDL
MODEL 3
REMARK VINA RESULT: -6.702137124      3.439      7.608
REMARK  11 active torsions:
REMARK  status: ('A' for Active; 'I' for Inactive)
REMARK    1  A    between atoms: N1_1  and  C1_5 
REMARK    2  A    between atoms: C1_5  and  C2_6 
REMARK    3  A    between atoms: C2_6  and  C3_7 
REMARK    4  A    between atoms: C3_7  and  C4_8 
REMARK    5  A    between atoms: C4_8  and  C5_9 
REMARK    6  A    between atoms: C5_9  and  C6_10 
REMARK    7  A    between atoms: C7_11  and  C8_12 
REMARK    8  A    between atoms: C8_12  and  C9_13 
REMARK    9  A    between atoms: C9_13  and  C10_14 
REMARK   10  A    between atoms: C10_14  and  C11_15 
REMARK   11  A    between atoms: C11_15  and  C12_16 
ROOT
HETATM    1  C5  UNL     1      -1.874  15.024  17.410  1.00  0.00     0.027 C 
ENDROOT
BRANCH   1   2
HETATM    2  C4  UNL     1      -2.707  16.198  17.781  1.00  0.00     0.004 C 
BRANCH   2   3
HETATM    3  C3  UNL     1      -4.047  16.386  17.259  1.00  0.00     0.002 C 
BRANCH   3   4
HETATM    4  C2  UNL     1      -4.492  17.545  16.481  1.00  0.00     0.027 C 
BRANCH   4   5
HETATM    5  C1  UNL     1      -3.408  18.518  16.095  1.00  0.00     0.229 C 
BRANCH   5   6
HETATM    6  N1  UNL     1      -3.770  19.322  14.988  1.00  0.00    -0.079 N 
ATOM      7  H13 UNL     1      -4.209  20.191  15.293  1.00  0.00     0.274 HD
ATOM      8  H12 UNL     1      -2.945  19.707  14.529  1.00  0.00     0.274 HD
ATOM      9  H11 UNL     1      -4.363  18.827  14.322  1.00  0.00     0.274 HD
ENDBRANCH   5   6
ENDBRANCH   4   5
ENDBRANCH   3   4
ENDBRANCH   2   3
ENDBRANCH   1   2
BRANCH   1  10
HETATM   10  C6  UNL     1      -1.555  13.995  18.380  1.00  0.00    -0.031 C 
HETATM   11  C7  UNL     1      -2.193  12.888  18.627  1.00  0.00    -0.031 C 
BRANCH  11  12
HETATM   12  C8  UNL     1      -3.408  12.464  17.934  1.00  0.00     0.027 C 
BRANCH  12  13
HETATM   13  C9  UNL     1      -4.002  11.192  18.544  1.00  0.00     0.004 C 
BRANCH  13  14
HETATM   14  C10 UNL     1      -3.391  10.896  19.882  1.00  0.00     0.001 C 
BRANCH  14  15
HETATM   15  C11 UNL     1      -4.336  10.281  20.870  1.00  0.00     0.004 C 
BRANCH  15  16
HETATM   16  C12 UNL     1      -4.231  10.850  22.240  1.00  0.00    -0.014 A 
HETATM   17  C13 UNL     1      -5.402  11.204  23.057  1.00  0.00     0.005 A 
HETATM   18  C14 UNL     1      -4.710   9.927  23.360  1.00  0.00     0.005 A 
ENDBRANCH  15  16
ENDBRANCH  14  15
ENDBRANCH  13  14
ENDBRANCH  12  13
ENDBRANCH  11  12
ENDBRANCH   1  10
TORSDOF 11
ENDMDL
MODEL 4
REMARK VINA RESULT: -6.648413277      3.173      7.261
REMARK  11 active torsions:
REMARK  status: ('A' for Active; 'I' for Inactive)
REMARK    1  A    between atoms: N1_1  and  C1_5 
REMARK    2  A    between atoms: C1_5  and  C2_6 
REMARK    3  A    between atoms: C2_6  and  C3_7 
REMARK    4  A    between atoms: C3_7  and  C4_8 
REMARK    5  A    between atoms: C4_8  and  C5_9 
REMARK    6  A    between atoms: C5_9  and  C6_10 
REMARK    7  A    between atoms: C7_11  and  C8_12 
REMARK    8  A    between atoms: C8_12  and  C9_13 
REMARK    9  A    between atoms: C9_13  and  C10_14 
REMARK   10  A    between atoms: C10_14  and  C11_15 
REMARK   11  A    between atoms: C11_15  and  C12_16 
ROOT
HETATM    1  C5  UNL     1      -1.928  13.660  18.353  1.00  0.00     0.027 C 
ENDROOT
BRANCH   1   2
HETATM    2  C4  UNL     1      -1.669  15.120  18.242  1.00  0.00     0.004 C 
BRANCH   2   3
HETATM    3  C3  UNL     1      -2.342  15.947  17.258  1.00  0.00     0.002 C 
BRANCH   3   4
HETATM    4  C2  UNL     1      -3.156  17.126  17.565  1.00  0.00     0.027 C 
BRANCH   4   5
HETATM    5  C1  UNL     1      -4.130  17.536  16.491  1.00  0.00     0.229 C 
BRANCH   5   6
HETATM    6  N1  UNL     1      -3.712  18.694  15.793  1.00  0.00    -0.079 N 
ATOM      7  H13 UNL     1      -3.546  19.469  16.435  1.00  0.00     0.274 HD
ATOM      8  H12 UNL     1      -2.768  18.580  15.425  1.00  0.00     0.274 HD
ATOM      9  H11 UNL     1      -4.364  18.963  15.056  1.00  0.00     0.274 HD
ENDBRANCH   5   6
ENDBRANCH   4   5
ENDBRANCH   3   4
ENDBRANCH   2   3
ENDBRANCH   1   2
BRANCH   1  10
HETATM   10  C6  UNL     1      -3.172  13.082  17.882  1.00  0.00    -0.031 C 
HETATM   11  C7  UNL     1      -3.457  11.829  17.676  1.00  0.00    -0.031 C 
BRANCH  11  12
HETATM   12  C8  UNL     1      -2.523  10.725  17.892  1.00  0.00     0.027 C 
BRANCH  12  13
HETATM   13  C9  UNL     1      -2.937   9.850  19.078  1.00  0.00     0.004 C 
BRANCH  13  14
HETATM   14  C10 UNL     1      -3.032  10.656  20.340  1.00  0.00     0.001 C 
BRANCH  14  15
HETATM   15  C11 UNL     1      -4.289  10.427  21.124  1.00  0.00     0.004 C 
BRANCH  15  16
HETATM   16  C12 UNL     1      -4.209  10.883  22.537  1.00  0.00    -0.014 A 
HETATM   17  C13 UNL     1      -5.370  11.387  23.288  1.00  0.00     0.005 A 
HETATM   18  C14 UNL     1      -4.934   9.992  23.545  1.00  0.00     0.005 A 
ENDBRANCH  15  16
ENDBRANCH  14  15
ENDBRANCH  13  14
ENDBRANCH  12  13
ENDBRANCH  11  12
ENDBRANCH   1  10
TORSDOF 11
ENDMDL
MODEL 5
REMARK VINA RESULT: -6.588880042      0.853      1.335
REMARK  11 active torsions:
REMARK  status: ('A' for Active; 'I' for Inactive)
REMARK    1  A    between atoms: N1_1  and  C1_5 
REMARK    2  A    between atoms: C1_5  and  C2_6 
REMARK    3  A    between atoms: C2_6  and  C3_7 
REMARK    4  A    between atoms: C3_7  and  C4_8 
REMARK    5  A    between atoms: C4_8  and  C5_9 
REMARK    6  A    between atoms: C5_9  and  C6_10 
REMARK    7  A    between atoms: C7_11  and  C8_12 
REMARK    8  A    between atoms: C8_12  and  C9_13 
REMARK    9  A    between atoms: C9_13  and  C10_14 
REMARK   10  A    between atoms: C10_14  and  C11_15 
REMARK   11  A    between atoms: C11_15  and  C12_16 
ROOT
HETATM    1  C5  UNL     1      -3.595  10.700  20.549  1.00  0.00     0.027 C 
ENDROOT
BRANCH   1   2
HETATM    2  C4  UNL     1      -4.524   9.882  21.372  1.00  0.00     0.004 C 
BRANCH   2   3
HETATM    3  C3  UNL     1      -5.499  10.486  22.261  1.00  0.00     0.002 C 
BRANCH   3   4
HETATM    4  C2  UNL     1      -5.176  11.286  23.444  1.00  0.00     0.027 C 
BRANCH   4   5
HETATM    5  C1  UNL     1      -4.296  10.608  24.463  1.00  0.00     0.229 C 
BRANCH   5   6
HETATM    6  N1  UNL     1      -4.555  11.048  25.782  1.00  0.00    -0.079 N 
ATOM      7  H13 UNL     1      -3.698  11.353  26.243  1.00  0.00     0.274 HD
ATOM      8  H12 UNL     1      -5.064  11.932  25.781  1.00  0.00     0.274 HD
ATOM      9  H11 UNL     1      -5.041  10.347  26.341  1.00  0.00     0.274 HD
ENDBRANCH   5   6
ENDBRANCH   4   5
ENDBRANCH   3   4
ENDBRANCH   2   3
ENDBRANCH   1   2
BRANCH   1  10
HETATM   10  C6  UNL     1      -3.741  10.778  19.109  1.00  0.00    -0.031 C 
HETATM   11  C7  UNL     1      -2.993  11.410  18.251  1.00  0.00    -0.031 C 
BRANCH  11  12
HETATM   12  C8  UNL     1      -1.812  12.195  18.607  1.00  0.00     0.027 C 
BRANCH  12  13
HETATM   13  C9  UNL     1      -1.986  13.677  18.266  1.00  0.00     0.004 C 
BRANCH  13  14
HETATM   14  C10 UNL     1      -3.281  13.921  17.549  1.00  0.00     0.001 C 
BRANCH  14  15
HETATM   15  C11 UNL     1      -3.268  15.112  16.638  1.00  0.00     0.004 C 
BRANCH  15  16
HETATM   16  C12 UNL     1      -3.829  16.345  17.251  1.00  0.00    -0.014 A 
HETATM   17  C13 UNL     1      -2.996  17.472  17.699  1.00  0.00     0.005 A 
HETATM   18  C14 UNL     1      -3.696  17.607  16.398  1.00  0.00     0.005 A 
ENDBRANCH  15  16
ENDBRANCH  14  15
ENDBRANCH  13  14
ENDBRANCH  12  13
ENDBRANCH  11  12
ENDBRANCH   1  10
TORSDOF 11
ENDMDL
