MODEL 1
REMARK VINA RESULT: -5.079261652      0.000      0.000
REMARK  9 active torsions:
REMARK  status: ('A' for Active; 'I' for Inactive)
REMARK    1  A    between atoms: C2_2  and  C3_3 
REMARK    2  A    between atoms: C3_3  and  C4_4 
REMARK    3  A    between atoms: C4_4  and  C5_5 
REMARK    4  A    between atoms: C5_5  and  C6_6 
REMARK    5  A    between atoms: C5_5  and  N1_9 
REMARK    6  A    between atoms: C6_6  and  C7_7 
REMARK    7  A    between atoms: N1_9  and  C9_10 
REMARK    8  A    between atoms: N1_9  and  C11_12 
REMARK    9  A    between atoms: C11_12  and  C12_13 
ROOT
HETATM    1  C5  UNL     1      -2.777  11.667  18.358  1.00  0.00     0.083 C 
ENDROOT
BRANCH   1   2
HETATM    2  C4  UNL     1      -3.812  12.670  17.971  1.00  0.00     0.025 C 
BRANCH   2   3
HETATM    3  C3  UNL     1      -3.251  13.919  17.343  1.00  0.00     0.002 C 
BRANCH   3   4
HETATM    4  C2  UNL     1      -1.983  14.243  18.141  1.00  0.00    -0.004 C 
HETATM    5  C1  UNL     1      -1.732  15.714  18.248  1.00  0.00     0.005 C 
ENDBRANCH   3   4
ENDBRANCH   2   3
ENDBRANCH   1   2
BRANCH   1   6
HETATM    6  C6  UNL     1      -2.787  10.581  17.284  1.00  0.00     0.025 C 
BRANCH   6   7
HETATM    7  C7  UNL     1      -1.538   9.778  17.248  1.00  0.00    -0.002 C 
HETATM    8  C8  UNL     1      -1.931   8.329  17.601  1.00  0.00     0.005 C 
ENDBRANCH   6   7
ENDBRANCH   1   6
BRANCH   1   9
HETATM    9  N1  UNL     1      -2.849  11.136  19.658  1.00  0.00    -0.389 N 
BRANCH   9  10
HETATM   10  C9  UNL     1      -1.943  11.586  20.638  1.00  0.00     0.054 C 
HETATM   11  C10 UNL     1      -0.502  11.566  20.160  1.00  0.00     0.054 C 
ENDBRANCH   9  10
BRANCH   9  12
HETATM   12  C11 UNL     1      -4.143  10.740  20.067  1.00  0.00     0.122 C 
BRANCH  12  13
HETATM   13  C12 UNL     1      -4.149   9.840  21.278  1.00  0.00     0.015 C 
HETATM   14  C13 UNL     1      -5.105  10.370  22.311  1.00  0.00     0.006 C 
ENDBRANCH  12  13
ENDBRANCH   9  12
ENDBRANCH   1   9
TORSDOF 9
ENDMDL
MODEL 2
REMARK VINA RESULT: -4.923794873      0.983      4.296
REMARK  9 active torsions:
REMARK  status: ('A' for Active; 'I' for Inactive)
REMARK    1  A    between atoms: C2_2  and  C3_3 
REMARK    2  A    between atoms: C3_3  and  C4_4 
REMARK    3  A    between atoms: C4_4  and  C5_5 
REMARK    4  A    between atoms: C5_5  and  C6_6 
REMARK    5  A    between atoms: C5_5  and  N1_9 
REMARK    6  A    between atoms: C6_6  and  C7_7 
REMARK    7  A    between atoms: N1_9  and  C9_10 
REMARK    8  A    between atoms: N1_9  and  C11_12 
REMARK    9  A    between atoms: C11_12  and  C12_13 
ROOT
HETATM    1  C5  UNL     1      -3.743  10.376  19.618  1.00  0.00     0.083 C 
ENDROOT
BRANCH   1   2
HETATM    2  C4  UNL     1      -4.621  10.415  20.824  1.00  0.00     0.025 C 
BRANCH   2   3
HETATM    3  C3  UNL     1      -4.381   9.286  21.793  1.00  0.00     0.002 C 
BRANCH   3   4
HETATM    4  C2  UNL     1      -4.940   9.775  23.134  1.00  0.00    -0.004 C 
HETATM    5  C1  UNL     1      -4.835  11.258  23.293  1.00  0.00     0.005 C 
ENDBRANCH   3   4
ENDBRANCH   2   3
ENDBRANCH   1   2
BRANCH   1   6
HETATM    6  C6  UNL     1      -2.933   9.085  19.699  1.00  0.00     0.025 C 
BRANCH   6   7
HETATM    7  C7  UNL     1      -3.117   8.201  18.519  1.00  0.00    -0.002 C 
HETATM    8  C8  UNL     1      -1.855   8.355  17.646  1.00  0.00     0.005 C 
ENDBRANCH   6   7
ENDBRANCH   1   6
BRANCH   1   9
HETATM    9  N1  UNL     1      -2.936  11.502  19.374  1.00  0.00    -0.389 N 
BRANCH   9  10
HETATM   10  C9  UNL     1      -1.822  11.744  20.201  1.00  0.00     0.054 C 
HETATM   11  C10 UNL     1      -0.505  11.684  19.449  1.00  0.00     0.054 C 
ENDBRANCH   9  10
BRANCH   9  12
HETATM   12  C11 UNL     1      -2.870  11.904  18.020  1.00  0.00     0.122 C 
BRANCH  12  13
HETATM   13  C12 UNL     1      -3.621  13.179  17.728  1.00  0.00     0.015 C 
HETATM   14  C13 UNL     1      -2.682  14.353  17.772  1.00  0.00     0.006 C 
ENDBRANCH  12  13
ENDBRANCH   9  12
ENDBRANCH   1   9
TORSDOF 9
ENDMDL
MODEL 3
REMARK VINA RESULT: -4.867810664      1.983      4.679
REMARK  9 active torsions:
REMARK  status: ('A' for Active; 'I' for Inactive)
REMARK    1  A    between atoms: C2_2  and  C3_3 
REMARK    2  A    between atoms: C3_3  and  C4_4 
REMARK    3  A    between atoms: C4_4  and  C5_5 
REMARK    4  A    between atoms: C5_5  and  C6_6 
REMARK    5  A    between atoms: C5_5  and  N1_9 
REMARK    6  A    between atoms: C6_6  and  C7_7 
REMARK    7  A    between atoms: N1_9  and  C9_10 
REMARK    8  A    between atoms: N1_9  and  C11_12 
REMARK    9  A    between atoms: C11_12  and  C12_13 
ROOT
HETATM    1  C5  UNL     1      -2.365   9.881  19.342  1.00  0.00     0.083 C 
ENDROOT
BRANCH   1   2
HETATM    2  C4  UNL     1      -3.713  10.343  19.785  1.00  0.00     0.025 C 
BRANCH   2   3
HETATM    3  C3  UNL     1      -3.781  10.730  21.240  1.00  0.00     0.002 C 
BRANCH   3   4
HETATM    4  C2  UNL     1      -4.805   9.777  21.867  1.00  0.00    -0.004 C 
HETATM    5  C1  UNL     1      -4.922   9.955  23.348  1.00  0.00     0.005 C 
ENDBRANCH   3   4
ENDBRANCH   2   3
ENDBRANCH   1   2
BRANCH   1   6
HETATM    6  C6  UNL     1      -1.877  10.879  18.293  1.00  0.00     0.025 C 
BRANCH   6   7
HETATM    7  C7  UNL     1      -2.772  12.054  18.139  1.00  0.00    -0.002 C 
HETATM    8  C8  UNL     1      -1.924  13.303  18.460  1.00  0.00     0.005 C 
ENDBRANCH   6   7
ENDBRANCH   1   6
BRANCH   1   9
HETATM    9  N1  UNL     1      -2.251   8.548  18.908  1.00  0.00    -0.389 N 
BRANCH   9  10
HETATM   10  C9  UNL     1      -2.003   8.285  17.547  1.00  0.00     0.054 C 
HETATM   11  C10 UNL     1      -2.405   6.880  17.136  1.00  0.00     0.054 C 
ENDBRANCH   9  10
BRANCH   9  12
HETATM   12  C11 UNL     1      -1.739   7.652  19.873  1.00  0.00     0.122 C 
BRANCH  12  13
HETATM   13  C12 UNL     1      -2.805   6.949  20.676  1.00  0.00     0.015 C 
HETATM   14  C13 UNL     1      -2.496   5.480  20.773  1.00  0.00     0.006 C 
ENDBRANCH  12  13
ENDBRANCH   9  12
ENDBRANCH   1   9
TORSDOF 9
ENDMDL
MODEL 4
REMARK VINA RESULT: -4.857477753      1.043      4.189
REMARK  9 active torsions:
REMARK  status: ('A' for Active; 'I' for Inactive)
REMARK    1  A    between atoms: C2_2  and  C3_3 
REMARK    2  A    between atoms: C3_3  and  C4_4 
REMARK    3  A    between atoms: C4_4  and  C5_5 
REMARK    4  A    between atoms: C5_5  and  C6_6 
REMARK    5  A    between atoms: C5_5  and  N1_9 
REMARK    6  A    between atoms: C6_6  and  C7_7 
REMARK    7  A    between atoms: N1_9  and  C9_10 
REMARK    8  A    between atoms: N1_9  and  C11_12 
REMARK    9  A    between atoms: C11_12  and  C12_13 
ROOT
HETATM    1  C5  UNL     1      -3.106  10.353  18.542  1.00  0.00     0.083 C 
ENDROOT
BRANCH   1   2
HETATM    2  C4  UNL     1      -3.511   9.650  19.793  1.00  0.00     0.025 C 
BRANCH   2   3
HETATM    3  C3  UNL     1      -4.290  10.508  20.755  1.00  0.00     0.002 C 
BRANCH   3   4
HETATM    4  C2  UNL     1      -4.619   9.596  21.942  1.00  0.00    -0.004 C 
HETATM    5  C1  UNL     1      -4.700  10.343  23.235  1.00  0.00     0.005 C 
ENDBRANCH   3   4
ENDBRANCH   2   3
ENDBRANCH   1   2
BRANCH   1   6
HETATM    6  C6  UNL     1      -2.182   9.406  17.779  1.00  0.00     0.025 C 
BRANCH   6   7
HETATM    7  C7  UNL     1      -2.032   8.080  18.431  1.00  0.00    -0.002 C 
HETATM    8  C8  UNL     1      -2.336   7.019  17.354  1.00  0.00     0.005 C 
ENDBRANCH   6   7
ENDBRANCH   1   6
BRANCH   1   9
HETATM    9  N1  UNL     1      -2.561  11.643  18.676  1.00  0.00    -0.389 N 
BRANCH   9  10
HETATM   10  C9  UNL     1      -1.171  11.788  18.850  1.00  0.00     0.054 C 
HETATM   11  C10 UNL     1      -0.745  11.684  20.303  1.00  0.00     0.054 C 
ENDBRANCH   9  10
BRANCH   9  12
HETATM   12  C11 UNL     1      -3.265  12.660  17.993  1.00  0.00     0.122 C 
BRANCH  12  13
HETATM   13  C12 UNL     1      -2.526  13.973  17.928  1.00  0.00     0.015 C 
HETATM   14  C13 UNL     1      -3.458  15.070  17.492  1.00  0.00     0.006 C 
ENDBRANCH  12  13
ENDBRANCH   9  12
ENDBRANCH   1   9
TORSDOF 9
ENDMDL
MODEL 5
REMARK VINA RESULT: -4.841242699      1.955      3.820
REMARK  9 active torsions:
REMARK  status: ('A' for Active; 'I' for Inactive)
REMARK    1  A    between atoms: C2_2  and  C3_3 
REMARK    2  A    between atoms: C3_3  and  C4_4 
REMARK    3  A    between atoms: C4_4  and  C5_5 
REMARK    4  A    between atoms: C5_5  and  C6_6 
REMARK    5  A    between atoms: C5_5  and  N1_9 
REMARK    6  A    between atoms: C6_6  and  C7_7 
REMARK    7  A    between atoms: N1_9  and  C9_10 
REMARK    8  A    between atoms: N1_9  and  C11_12 
REMARK    9  A    between atoms: C11_12  and  C12_13 
ROOT
HETATM    1  C5  UNL     1      -3.190   9.756  18.826  1.00  0.00     0.083 C 
ENDROOT
BRANCH   1   2
HETATM    2  C4  UNL     1      -2.612  10.820  17.953  1.00  0.00     0.025 C 
BRANCH   2   3
HETATM    3  C3  UNL     1      -1.978  11.958  18.711  1.00  0.00     0.002 C 
BRANCH   3   4
HETATM    4  C2  UNL     1      -2.589  13.232  18.119  1.00  0.00    -0.004 C 
HETATM    5  C1  UNL     1      -1.691  14.419  18.261  1.00  0.00     0.005 C 
ENDBRANCH   3   4
ENDBRANCH   2   3
ENDBRANCH   1   2
BRANCH   1   6
HETATM    6  C6  UNL     1      -3.184  10.301  20.253  1.00  0.00     0.025 C 
BRANCH   6   7
HETATM    7  C7  UNL     1      -4.547  10.521  20.802  1.00  0.00    -0.002 C 
HETATM    8  C8  UNL     1      -4.592   9.818  22.174  1.00  0.00     0.005 C 
ENDBRANCH   6   7
ENDBRANCH   1   6
BRANCH   1   9
HETATM    9  N1  UNL     1      -2.621   8.473  18.739  1.00  0.00    -0.389 N 
BRANCH   9  10
HETATM   10  C9  UNL     1      -1.958   8.092  17.556  1.00  0.00     0.054 C 
HETATM   11  C10 UNL     1      -2.431   6.752  17.022  1.00  0.00     0.054 C 
ENDBRANCH   9  10
BRANCH   9  12
HETATM   12  C11 UNL     1      -2.171   7.939  19.967  1.00  0.00     0.122 C 
BRANCH  12  13
HETATM   13  C12 UNL     1      -3.031   6.817  20.494  1.00  0.00     0.015 C 
HETATM   14  C13 UNL     1      -2.212   5.564  20.644  1.00  0.00     0.006 C 
ENDBRANCH  12  13
ENDBRANCH   9  12
ENDBRANCH   1   9
TORSDOF 9
ENDMDL
