MODEL 1
REMARK VINA RESULT: -6.375823344      0.000      0.000
REMARK  10 active torsions:
REMARK  status: ('A' for Active; 'I' for Inactive)
REMARK    1  A    between atoms: C2_2  and  C3_3 
REMARK    2  A    between atoms: C3_3  and  N1_4 
REMARK    3  A    between atoms: N1_4  and  C4_7 
REMARK    4  A    between atoms: C4_7  and  C5_8 
REMARK    5  A    between atoms: C5_8  and  C6_9 
REMARK    6  A    between atoms: C6_9  and  C7_10 
REMARK    7  A    between atoms: C7_10  and  C8_11 
REMARK    8  A    between atoms: C8_11  and  C9_12 
REMARK    9  A    between atoms: C9_12  and  C10_13 
REMARK   10  A    between atoms: C10_13  and  C11_14 
ROOT
HETATM    1  C6  UNL     1      -2.080  14.676  17.534  1.00  0.00     0.002 C 
ENDROOT
BRANCH   1   2
HETATM    2  C5  UNL     1      -1.806  15.982  18.258  1.00  0.00     0.027 C 
BRANCH   2   3
HETATM    3  C4  UNL     1      -2.853  16.974  17.823  1.00  0.00     0.232 C 
BRANCH   3   4
HETATM    4  N1  UNL     1      -3.899  16.346  17.103  1.00  0.00    -0.072 N 
ATOM      5  H12 UNL     1      -4.574  15.918  17.735  1.00  0.00     0.277 HD
ATOM      6  H11 UNL     1      -3.566  15.508  16.628  1.00  0.00     0.277 HD
BRANCH   4   7
HETATM    7  C3  UNL     1      -4.546  17.242  16.183  1.00  0.00     0.259 C 
BRANCH   7   8
HETATM    8  C2  UNL     1      -3.660  18.444  16.048  1.00  0.00    -0.010 C 
HETATM    9  C1  UNL     1      -3.705  19.288  15.058  1.00  0.00     0.008 C 
ENDBRANCH   7   8
ENDBRANCH   4   7
ENDBRANCH   3   4
ENDBRANCH   2   3
ENDBRANCH   1   2
BRANCH   1  10
HETATM   10  C7  UNL     1      -2.034  13.500  18.513  1.00  0.00     0.001 C 
BRANCH  10  11
HETATM   11  C8  UNL     1      -3.115  12.548  18.049  1.00  0.00     0.009 C 
BRANCH  11  12
HETATM   12  C9  UNL     1      -2.953  11.170  18.664  1.00  0.00    -0.040 A 
HETATM   13  C13 UNL     1      -1.586  10.713  19.004  1.00  0.00     0.010 A 
HETATM   14  C14 UNL     1      -2.227  10.202  17.762  1.00  0.00     0.010 A 
BRANCH  12  15
HETATM   15  C10 UNL     1      -4.080  10.702  19.509  1.00  0.00     0.009 C 
BRANCH  15  16
HETATM   16  C11 UNL     1      -3.784  10.704  20.981  1.00  0.00    -0.004 C 
HETATM   17  C12 UNL     1      -4.520   9.564  21.647  1.00  0.00     0.005 C 
ENDBRANCH  15  16
ENDBRANCH  12  15
ENDBRANCH  11  12
ENDBRANCH  10  11
ENDBRANCH   1  10
TORSDOF 10
ENDMDL
MODEL 2
REMARK VINA RESULT: -6.229351666      1.034      2.207
REMARK  10 active torsions:
REMARK  status: ('A' for Active; 'I' for Inactive)
REMARK    1  A    between atoms: C2_2  and  C3_3 
REMARK    2  A    between atoms: C3_3  and  N1_4 
REMARK    3  A    between atoms: N1_4  and  C4_7 
REMARK    4  A    between atoms: C4_7  and  C5_8 
REMARK    5  A    between atoms: C5_8  and  C6_9 
REMARK    6  A    between atoms: C6_9  and  C7_10 
REMARK    7  A    between atoms: C7_10  and  C8_11 
REMARK    8  A    between atoms: C8_11  and  C9_12 
REMARK    9  A    between atoms: C9_12  and  C10_13 
REMARK   10  A    between atoms: C10_13  and  C11_14 
ROOT
HETATM    1  C6  UNL     1      -2.483  14.025  18.164  1.00  0.00     0.002 C 
ENDROOT
BRANCH   1   2
HETATM    2  C5  UNL     1      -1.644  15.281  18.316  1.00  0.00     0.027 C 
BRANCH   2   3
HETATM    3  C4  UNL     1      -2.482  16.448  17.862  1.00  0.00     0.232 C 
BRANCH   3   4
HETATM    4  N1  UNL     1      -3.691  16.020  17.263  1.00  0.00    -0.072 N 
ATOM      5  H12 UNL     1      -4.226  15.428  17.898  1.00  0.00     0.277 HD
ATOM      6  H11 UNL     1      -3.515  15.345  16.521  1.00  0.00     0.277 HD
BRANCH   4   7
HETATM    7  C3  UNL     1      -4.486  17.119  16.786  1.00  0.00     0.259 C 
BRANCH   7   8
HETATM    8  C2  UNL     1      -3.533  18.196  16.365  1.00  0.00    -0.010 C 
HETATM    9  C1  UNL     1      -3.715  18.989  15.348  1.00  0.00     0.008 C 
ENDBRANCH   7   8
ENDBRANCH   4   7
ENDBRANCH   3   4
ENDBRANCH   2   3
ENDBRANCH   1   2
BRANCH   1  10
HETATM   10  C7  UNL     1      -1.618  12.777  18.354  1.00  0.00     0.001 C 
BRANCH  10  11
HETATM   11  C8  UNL     1      -2.122  12.127  19.624  1.00  0.00     0.009 C 
BRANCH  11  12
HETATM   12  C9  UNL     1      -2.849  10.826  19.341  1.00  0.00    -0.040 A 
HETATM   13  C13 UNL     1      -4.162  10.892  18.661  1.00  0.00     0.010 A 
HETATM   14  C14 UNL     1      -4.124  10.677  20.133  1.00  0.00     0.010 A 
BRANCH  12  15
HETATM   15  C10 UNL     1      -1.986   9.645  19.086  1.00  0.00     0.009 C 
BRANCH  15  16
HETATM   16  C11 UNL     1      -1.928   9.229  17.645  1.00  0.00    -0.004 C 
HETATM   17  C12 UNL     1      -1.990   7.721  17.550  1.00  0.00     0.005 C 
ENDBRANCH  15  16
ENDBRANCH  12  15
ENDBRANCH  11  12
ENDBRANCH  10  11
ENDBRANCH   1  10
TORSDOF 10
ENDMDL
MODEL 3
REMARK VINA RESULT: -6.214745406      2.007      6.964
REMARK  10 active torsions:
REMARK  status: ('A' for Active; 'I' for Inactive)
REMARK    1  A    between atoms: C2_2  and  C3_3 
REMARK    2  A    between atoms: C3_3  and  N1_4 
REMARK    3  A    between atoms: N1_4  and  C4_7 
REMARK    4  A    between atoms: C4_7  and  C5_8 
REMARK    5  A    between atoms: C5_8  and  C6_9 
REMARK    6  A    between atoms: C6_9  and  C7_10 
REMARK    7  A    between atoms: C7_10  and  C8_11 
REMARK    8  A    between atoms: C8_11  and  C9_12 
REMARK    9  A    between atoms: C9_12  and  C10_13 
REMARK   10  A    between atoms: C10_13  and  C11_14 
ROOT
HETATM    1  C6  UNL     1      -3.596  11.816  18.005  1.00  0.00     0.002 C 
ENDROOT
BRANCH   1   2
HETATM    2  C5  UNL     1      -2.304  11.639  18.782  1.00  0.00     0.027 C 
BRANCH   2   3
HETATM    3  C4  UNL     1      -2.661  11.134  20.155  1.00  0.00     0.232 C 
BRANCH   3   4
HETATM    4  N1  UNL     1      -4.019  10.739  20.229  1.00  0.00    -0.072 N 
ATOM      5  H12 UNL     1      -4.358  10.420  19.321  1.00  0.00     0.277 HD
ATOM      6  H11 UNL     1      -4.630  11.545  20.357  1.00  0.00     0.277 HD
BRANCH   4   7
HETATM    7  C3  UNL     1      -4.249   9.748  21.245  1.00  0.00     0.259 C 
BRANCH   7   8
HETATM    8  C2  UNL     1      -5.083  10.398  22.307  1.00  0.00    -0.010 C 
HETATM    9  C1  UNL     1      -4.660  10.690  23.504  1.00  0.00     0.008 C 
ENDBRANCH   7   8
ENDBRANCH   4   7
ENDBRANCH   3   4
ENDBRANCH   2   3
ENDBRANCH   1   2
BRANCH   1  10
HETATM   10  C7  UNL     1      -3.488  13.006  17.049  1.00  0.00     0.001 C 
BRANCH  10  11
HETATM   11  C8  UNL     1      -3.509  14.234  17.933  1.00  0.00     0.009 C 
BRANCH  11  12
HETATM   12  C9  UNL     1      -2.427  15.225  17.545  1.00  0.00    -0.040 A 
HETATM   13  C13 UNL     1      -1.014  14.827  17.738  1.00  0.00     0.010 A 
HETATM   14  C14 UNL     1      -1.646  15.739  18.729  1.00  0.00     0.010 A 
BRANCH  12  15
HETATM   15  C10 UNL     1      -2.754  16.131  16.416  1.00  0.00     0.009 C 
BRANCH  15  16
HETATM   16  C11 UNL     1      -4.032  16.899  16.596  1.00  0.00    -0.004 C 
HETATM   17  C12 UNL     1      -3.849  18.312  16.089  1.00  0.00     0.005 C 
ENDBRANCH  15  16
ENDBRANCH  12  15
ENDBRANCH  11  12
ENDBRANCH  10  11
ENDBRANCH   1  10
TORSDOF 10
ENDMDL
MODEL 4
REMARK VINA RESULT: -6.106250067      1.418      2.276
REMARK  10 active torsions:
REMARK  status: ('A' for Active; 'I' for Inactive)
REMARK    1  A    between atoms: C2_2  and  C3_3 
REMARK    2  A    between atoms: C3_3  and  N1_4 
REMARK    3  A    between atoms: N1_4  and  C4_7 
REMARK    4  A    between atoms: C4_7  and  C5_8 
REMARK    5  A    between atoms: C5_8  and  C6_9 
REMARK    6  A    between atoms: C6_9  and  C7_10 
REMARK    7  A    between atoms: C7_10  and  C8_11 
REMARK    8  A    between atoms: C8_11  and  C9_12 
REMARK    9  A    between atoms: C9_12  and  C10_13 
REMARK   10  A    between atoms: C10_13  and  C11_14 
ROOT
HETATM    1  C6  UNL     1      -1.800  12.806  18.646  1.00  0.00     0.002 C 
ENDROOT
BRANCH   1   2
HETATM    2  C5  UNL     1      -3.133  12.874  17.923  1.00  0.00     0.027 C 
BRANCH   2   3
HETATM    3  C4  UNL     1      -3.362  14.306  17.517  1.00  0.00     0.232 C 
BRANCH   3   4
HETATM    4  N1  UNL     1      -2.172  15.069  17.604  1.00  0.00    -0.072 N 
ATOM      5  H12 UNL     1      -1.608  14.966  16.761  1.00  0.00     0.277 HD
ATOM      6  H11 UNL     1      -1.526  14.666  18.282  1.00  0.00     0.277 HD
BRANCH   4   7
HETATM    7  C3  UNL     1      -2.427  16.454  17.892  1.00  0.00     0.259 C 
BRANCH   7   8
HETATM    8  C2  UNL     1      -3.700  16.818  17.189  1.00  0.00    -0.010 C 
HETATM    9  C1  UNL     1      -3.850  17.860  16.423  1.00  0.00     0.008 C 
ENDBRANCH   7   8
ENDBRANCH   4   7
ENDBRANCH   3   4
ENDBRANCH   2   3
ENDBRANCH   1   2
BRANCH   1  10
HETATM   10  C7  UNL     1      -1.924  11.968  19.921  1.00  0.00     0.001 C 
BRANCH  10  11
HETATM   11  C8  UNL     1      -1.664  10.541  19.491  1.00  0.00     0.009 C 
BRANCH  11  12
HETATM   12  C9  UNL     1      -2.890   9.666  19.678  1.00  0.00    -0.040 A 
HETATM   13  C13 UNL     1      -2.685   8.217  19.903  1.00  0.00     0.010 A 
HETATM   14  C14 UNL     1      -3.091   8.684  18.550  1.00  0.00     0.010 A 
BRANCH  12  15
HETATM   15  C10 UNL     1      -4.059  10.318  20.318  1.00  0.00     0.009 C 
BRANCH  15  16
HETATM   16  C11 UNL     1      -4.410   9.758  21.667  1.00  0.00    -0.004 C 
HETATM   17  C12 UNL     1      -4.430  10.873  22.688  1.00  0.00     0.005 C 
ENDBRANCH  15  16
ENDBRANCH  12  15
ENDBRANCH  11  12
ENDBRANCH  10  11
ENDBRANCH   1  10
TORSDOF 10
ENDMDL
MODEL 5
REMARK VINA RESULT: -6.077243769      2.480      6.862
REMARK  10 active torsions:
REMARK  status: ('A' for Active; 'I' for Inactive)
REMARK    1  A    between atoms: C2_2  and  C3_3 
REMARK    2  A    between atoms: C3_3  and  N1_4 
REMARK    3  A    between atoms: N1_4  and  C4_7 
REMARK    4  A    between atoms: C4_7  and  C5_8 
REMARK    5  A    between atoms: C5_8  and  C6_9 
REMARK    6  A    between atoms: C6_9  and  C7_10 
REMARK    7  A    between atoms: C7_10  and  C8_11 
REMARK    8  A    between atoms: C8_11  and  C9_12 
REMARK    9  A    between atoms: C9_12  and  C10_13 
REMARK   10  A    between atoms: C10_13  and  C11_14 
ROOT
HETATM    1  C6  UNL     1      -4.207  11.438  18.717  1.00  0.00     0.002 C 
ENDROOT
BRANCH   1   2
HETATM    2  C5  UNL     1      -3.195  11.090  19.795  1.00  0.00     0.027 C 
BRANCH   2   3
HETATM    3  C4  UNL     1      -3.413   9.650  20.179  1.00  0.00     0.232 C 
BRANCH   3   4
HETATM    4  N1  UNL     1      -2.375   8.818  19.693  1.00  0.00    -0.072 N 
ATOM      5  H12 UNL     1      -1.966   8.264  20.445  1.00  0.00     0.277 HD
ATOM      6  H11 UNL     1      -1.557   9.366  19.430  1.00  0.00     0.277 HD
BRANCH   4   7
HETATM    7  C3  UNL     1      -2.807   7.979  18.608  1.00  0.00     0.259 C 
BRANCH   7   8
HETATM    8  C2  UNL     1      -1.875   8.236  17.461  1.00  0.00    -0.010 C 
HETATM    9  C1  UNL     1      -1.438   9.411  17.113  1.00  0.00     0.008 C 
ENDBRANCH   7   8
ENDBRANCH   4   7
ENDBRANCH   3   4
ENDBRANCH   2   3
ENDBRANCH   1   2
BRANCH   1  10
HETATM   10  C7  UNL     1      -3.557  12.299  17.631  1.00  0.00     0.001 C 
BRANCH  10  11
HETATM   11  C8  UNL     1      -2.440  13.047  18.325  1.00  0.00     0.009 C 
BRANCH  11  12
HETATM   12  C9  UNL     1      -2.435  14.519  17.957  1.00  0.00    -0.040 A 
HETATM   13  C13 UNL     1      -1.199  15.089  17.375  1.00  0.00     0.010 A 
HETATM   14  C14 UNL     1      -1.498  15.338  18.811  1.00  0.00     0.010 A 
BRANCH  12  15
HETATM   15  C10 UNL     1      -3.739  15.083  17.526  1.00  0.00     0.009 C 
BRANCH  15  16
HETATM   16  C11 UNL     1      -3.644  16.023  16.359  1.00  0.00    -0.004 C 
HETATM   17  C12 UNL     1      -4.102  17.401  16.781  1.00  0.00     0.005 C 
ENDBRANCH  15  16
ENDBRANCH  12  15
ENDBRANCH  11  12
ENDBRANCH  10  11
ENDBRANCH   1  10
TORSDOF 10
ENDMDL
