MODEL 1
REMARK VINA RESULT: -5.564541919      0.000      0.000
REMARK  9 active torsions:
REMARK  status: ('A' for Active; 'I' for Inactive)
REMARK    1  A    between atoms: C2_2  and  C3_3 
REMARK    2  A    between atoms: C3_3  and  C4_4 
REMARK    3  A    between atoms: C4_4  and  C5_5 
REMARK    4  A    between atoms: C5_5  and  C6_6 
REMARK    5  A    between atoms: C5_5  and  C10_10 
REMARK    6  A    between atoms: C6_6  and  C7_7 
REMARK    7  A    between atoms: C7_7  and  C8_8 
REMARK    8  A    between atoms: C10_10  and  N1_11 
REMARK    9  A    between atoms: N1_11  and  C12_13 
ROOT
HETATM    1  C5  UNL     1      -2.461  10.718  19.391  1.00  0.00     0.014 C 
ENDROOT
BRANCH   1   2
HETATM    2  C4  UNL     1      -3.903  10.824  19.580  1.00  0.00     0.006 C 
BRANCH   2   3
HETATM    3  C3  UNL     1      -4.536  10.397  20.827  1.00  0.00     0.000 C 
BRANCH   3   4
HETATM    4  C2  UNL     1      -4.062  10.784  22.158  1.00  0.00    -0.005 C 
HETATM    5  C1  UNL     1      -4.884   9.899  23.170  1.00  0.00     0.005 C 
ENDBRANCH   3   4
ENDBRANCH   2   3
ENDBRANCH   1   2
BRANCH   1   6
HETATM    6  C6  UNL     1      -1.758  11.995  19.154  1.00  0.00     0.006 C 
BRANCH   6   7
HETATM    7  C7  UNL     1      -2.568  12.951  18.252  1.00  0.00     0.000 C 
BRANCH   7   8
HETATM    8  C8  UNL     1      -1.722  14.237  18.247  1.00  0.00    -0.005 C 
HETATM    9  C9  UNL     1      -2.609  15.378  17.830  1.00  0.00     0.005 C 
ENDBRANCH   7   8
ENDBRANCH   6   7
ENDBRANCH   1   6
BRANCH   1  10
HETATM   10  C10 UNL     1      -2.104   9.711  18.290  1.00  0.00     0.276 C 
BRANCH  10  11
HETATM   11  N1  UNL     1      -2.510   8.369  18.594  1.00  0.00     0.084 N 
HETATM   12  C11 UNL     1      -2.181   7.564  17.432  1.00  0.00     0.309 C 
BRANCH  11  13
HETATM   13  C12 UNL     1      -1.816   7.796  19.715  1.00  0.00     0.267 C 
HETATM   14  C13 UNL     1      -2.870   7.080  20.583  1.00  0.00     0.037 C 
ENDBRANCH  11  13
ENDBRANCH  10  11
ENDBRANCH   1  10
TORSDOF 9
ENDMDL
MODEL 2
REMARK VINA RESULT: -5.552915170      0.758      4.167
REMARK  9 active torsions:
REMARK  status: ('A' for Active; 'I' for Inactive)
REMARK    1  A    between atoms: C2_2  and  C3_3 
REMARK    2  A    between atoms: C3_3  and  C4_4 
REMARK    3  A    between atoms: C4_4  and  C5_5 
REMARK    4  A    between atoms: C5_5  and  C6_6 
REMARK    5  A    between atoms: C5_5  and  C10_10 
REMARK    6  A    between atoms: C6_6  and  C7_7 
REMARK    7  A    between atoms: C7_7  and  C8_8 
REMARK    8  A    between atoms: C10_10  and  N1_11 
REMARK    9  A    between atoms: N1_11  and  C12_13 
ROOT
HETATM    1  C5  UNL     1      -3.187  10.797  18.617  1.00  0.00     0.014 C 
ENDROOT
BRANCH   1   2
HETATM    2  C4  UNL     1      -2.681  12.132  18.320  1.00  0.00     0.006 C 
BRANCH   2   3
HETATM    3  C3  UNL     1      -3.537  13.148  17.710  1.00  0.00     0.000 C 
BRANCH   3   4
HETATM    4  C2  UNL     1      -3.181  14.565  17.609  1.00  0.00    -0.005 C 
HETATM    5  C1  UNL     1      -1.746  14.684  18.251  1.00  0.00     0.005 C 
ENDBRANCH   3   4
ENDBRANCH   2   3
ENDBRANCH   1   2
BRANCH   1   6
HETATM    6  C6  UNL     1      -4.280  10.740  19.609  1.00  0.00     0.006 C 
BRANCH   6   7
HETATM    7  C7  UNL     1      -3.754  10.734  21.060  1.00  0.00     0.000 C 
BRANCH   7   8
HETATM    8  C8  UNL     1      -4.705   9.760  21.779  1.00  0.00    -0.005 C 
HETATM    9  C9  UNL     1      -4.743  10.134  23.235  1.00  0.00     0.005 C 
ENDBRANCH   7   8
ENDBRANCH   6   7
ENDBRANCH   1   6
BRANCH   1  10
HETATM   10  C10 UNL     1      -2.060   9.839  19.022  1.00  0.00     0.276 C 
BRANCH  10  11
HETATM   11  N1  UNL     1      -2.389   8.457  18.820  1.00  0.00     0.084 N 
HETATM   12  C11 UNL     1      -1.877   8.097  17.511  1.00  0.00     0.309 C 
BRANCH  11  13
HETATM   13  C12 UNL     1      -1.775   7.572  19.772  1.00  0.00     0.267 C 
HETATM   14  C13 UNL     1      -2.910   6.791  20.464  1.00  0.00     0.037 C 
ENDBRANCH  11  13
ENDBRANCH  10  11
ENDBRANCH   1  10
TORSDOF 9
ENDMDL
MODEL 3
REMARK VINA RESULT: -5.520637299      1.420      3.684
REMARK  9 active torsions:
REMARK  status: ('A' for Active; 'I' for Inactive)
REMARK    1  A    between atoms: C2_2  and  C3_3 
REMARK    2  A    between atoms: C3_3  and  C4_4 
REMARK    3  A    between atoms: C4_4  and  C5_5 
REMARK    4  A    between atoms: C5_5  and  C6_6 
REMARK    5  A    between atoms: C5_5  and  C10_10 
REMARK    6  A    between atoms: C6_6  and  C7_7 
REMARK    7  A    between atoms: C7_7  and  C8_8 
REMARK    8  A    between atoms: C10_10  and  N1_11 
REMARK    9  A    between atoms: N1_11  and  C12_13 
ROOT
HETATM    1  C5  UNL     1      -3.036  10.921  18.536  1.00  0.00     0.014 C 
ENDROOT
BRANCH   1   2
HETATM    2  C4  UNL     1      -1.810  10.405  17.938  1.00  0.00     0.006 C 
BRANCH   2   3
HETATM    3  C3  UNL     1      -1.782   9.102  17.275  1.00  0.00     0.000 C 
BRANCH   3   4
HETATM    4  C2  UNL     1      -1.685   7.825  17.985  1.00  0.00    -0.005 C 
HETATM    5  C1  UNL     1      -2.540   6.807  17.139  1.00  0.00     0.005 C 
ENDBRANCH   3   4
ENDBRANCH   2   3
ENDBRANCH   1   2
BRANCH   1   6
HETATM    6  C6  UNL     1      -3.486  12.232  18.025  1.00  0.00     0.006 C 
BRANCH   6   7
HETATM    7  C7  UNL     1      -2.407  13.325  18.184  1.00  0.00     0.000 C 
BRANCH   7   8
HETATM    8  C8  UNL     1      -3.103  14.591  17.655  1.00  0.00    -0.005 C 
HETATM    9  C9  UNL     1      -2.228  15.772  17.973  1.00  0.00     0.005 C 
ENDBRANCH   7   8
ENDBRANCH   6   7
ENDBRANCH   1   6
BRANCH   1  10
HETATM   10  C10 UNL     1      -2.952  10.955  20.067  1.00  0.00     0.276 C 
BRANCH  10  11
HETATM   11  N1  UNL     1      -4.074  10.336  20.712  1.00  0.00     0.084 N 
HETATM   12  C11 UNL     1      -3.769   8.921  20.804  1.00  0.00     0.309 C 
BRANCH  11  13
HETATM   13  C12 UNL     1      -4.303  10.807  22.050  1.00  0.00     0.267 C 
HETATM   14  C13 UNL     1      -5.089   9.706  22.791  1.00  0.00     0.037 C 
ENDBRANCH  11  13
ENDBRANCH  10  11
ENDBRANCH   1  10
TORSDOF 9
ENDMDL
MODEL 4
REMARK VINA RESULT: -5.517481089      0.966      1.169
REMARK  9 active torsions:
REMARK  status: ('A' for Active; 'I' for Inactive)
REMARK    1  A    between atoms: C2_2  and  C3_3 
REMARK    2  A    between atoms: C3_3  and  C4_4 
REMARK    3  A    between atoms: C4_4  and  C5_5 
REMARK    4  A    between atoms: C5_5  and  C6_6 
REMARK    5  A    between atoms: C5_5  and  C10_10 
REMARK    6  A    between atoms: C6_6  and  C7_7 
REMARK    7  A    between atoms: C7_7  and  C8_8 
REMARK    8  A    between atoms: C10_10  and  N1_11 
REMARK    9  A    between atoms: N1_11  and  C12_13 
ROOT
HETATM    1  C5  UNL     1      -2.953  11.117  19.699  1.00  0.00     0.014 C 
ENDROOT
BRANCH   1   2
HETATM    2  C4  UNL     1      -4.231  10.670  20.243  1.00  0.00     0.006 C 
BRANCH   2   3
HETATM    3  C3  UNL     1      -4.293   9.853  21.454  1.00  0.00     0.000 C 
BRANCH   3   4
HETATM    4  C2  UNL     1      -5.345   9.972  22.467  1.00  0.00    -0.005 C 
HETATM    5  C1  UNL     1      -4.835  11.071  23.475  1.00  0.00     0.005 C 
ENDBRANCH   3   4
ENDBRANCH   2   3
ENDBRANCH   1   2
BRANCH   1   6
HETATM    6  C6  UNL     1      -3.043  12.061  18.567  1.00  0.00     0.006 C 
BRANCH   6   7
HETATM    7  C7  UNL     1      -1.864  13.058  18.541  1.00  0.00     0.000 C 
BRANCH   7   8
HETATM    8  C8  UNL     1      -2.484  14.325  17.924  1.00  0.00    -0.005 C 
HETATM    9  C9  UNL     1      -1.624  15.498  18.307  1.00  0.00     0.005 C 
ENDBRANCH   7   8
ENDBRANCH   6   7
ENDBRANCH   1   6
BRANCH   1  10
HETATM   10  C10 UNL     1      -2.050   9.935  19.326  1.00  0.00     0.276 C 
BRANCH  10  11
HETATM   11  N1  UNL     1      -2.564   9.146  18.244  1.00  0.00     0.084 N 
HETATM   12  C11 UNL     1      -1.581   9.214  17.179  1.00  0.00     0.309 C 
BRANCH  11  13
HETATM   13  C12 UNL     1      -2.735   7.757  18.572  1.00  0.00     0.267 C 
HETATM   14  C13 UNL     1      -1.850   7.469  19.802  1.00  0.00     0.037 C 
ENDBRANCH  11  13
ENDBRANCH  10  11
ENDBRANCH   1  10
TORSDOF 9
ENDMDL
MODEL 5
REMARK VINA RESULT: -5.395905012      0.915      4.388
REMARK  9 active torsions:
REMARK  status: ('A' for Active; 'I' for Inactive)
REMARK    1  A    between atoms: C2_2  and  C3_3 
REMARK    2  A    between atoms: C3_3  and  C4_4 
REMARK    3  A    between atoms: C4_4  and  C5_5 
REMARK    4  A    between atoms: C5_5  and  C6_6 
REMARK    5  A    between atoms: C5_5  and  C10_10 
REMARK    6  A    between atoms: C6_6  and  C7_7 
REMARK    7  A    between atoms: C7_7  and  C8_8 
REMARK    8  A    between atoms: C10_10  and  N1_11 
REMARK    9  A    between atoms: N1_11  and  C12_13 
ROOT
HETATM    1  C5  UNL     1      -3.221  10.929  19.809  1.00  0.00     0.014 C 
ENDROOT
BRANCH   1   2
HETATM    2  C4  UNL     1      -1.972  11.609  19.485  1.00  0.00     0.006 C 
BRANCH   2   3
HETATM    3  C3  UNL     1      -1.953  12.779  18.608  1.00  0.00     0.000 C 
BRANCH   3   4
HETATM    4  C2  UNL     1      -3.119  13.265  17.867  1.00  0.00    -0.005 C 
HETATM    5  C1  UNL     1      -2.894  14.815  17.699  1.00  0.00     0.005 C 
ENDBRANCH   3   4
ENDBRANCH   2   3
ENDBRANCH   1   2
BRANCH   1   6
HETATM    6  C6  UNL     1      -3.528  10.823  21.250  1.00  0.00     0.006 C 
BRANCH   6   7
HETATM    7  C7  UNL     1      -4.574   9.727  21.547  1.00  0.00     0.000 C 
BRANCH   7   8
HETATM    8  C8  UNL     1      -4.793   9.847  23.066  1.00  0.00    -0.005 C 
HETATM    9  C9  UNL     1      -5.064  11.292  23.385  1.00  0.00     0.005 C 
ENDBRANCH   7   8
ENDBRANCH   6   7
ENDBRANCH   1   6
BRANCH   1  10
HETATM   10  C10 UNL     1      -3.302   9.546  19.152  1.00  0.00     0.276 C 
BRANCH  10  11
HETATM   11  N1  UNL     1      -2.017   8.964  18.890  1.00  0.00     0.084 N 
HETATM   12  C11 UNL     1      -1.935   7.761  19.696  1.00  0.00     0.309 C 
BRANCH  11  13
HETATM   13  C12 UNL     1      -1.831   8.570  17.520  1.00  0.00     0.267 C 
HETATM   14  C13 UNL     1      -2.281   7.099  17.406  1.00  0.00     0.037 C 
ENDBRANCH  11  13
ENDBRANCH  10  11
ENDBRANCH   1  10
TORSDOF 9
ENDMDL
