MODEL 1
REMARK VINA RESULT: -6.547284571      0.000      0.000
REMARK  9 active torsions:
REMARK  status: ('A' for Active; 'I' for Inactive)
REMARK    1  A    between atoms: C2_2  and  C3_3 
REMARK    2  A    between atoms: C3_3  and  C4_4 
REMARK    3  A    between atoms: C4_4  and  C5_5 
REMARK    4  A    between atoms: C5_5  and  C6_6 
REMARK    5  A    between atoms: C6_6  and  C7_7 
REMARK    6  A    between atoms: C7_7  and  C8_8 
REMARK    7  A    between atoms: C8_8  and  C9_9 
REMARK    8  A    between atoms: C10_10  and  C11_11 
REMARK    9  A    between atoms: C11_11  and  C12_12 
ROOT
HETATM    1  C7  UNL     1      -2.848  13.802  17.782  1.00  0.00     0.004 C 
ENDROOT
BRANCH   1   2
HETATM    2  C6  UNL     1      -1.907  14.896  18.191  1.00  0.00     0.000 C 
BRANCH   2   3
HETATM    3  C5  UNL     1      -2.412  16.286  17.879  1.00  0.00     0.000 C 
BRANCH   3   4
HETATM    4  C4  UNL     1      -3.705  16.187  17.122  1.00  0.00     0.004 C 
BRANCH   4   5
HETATM    5  C3  UNL     1      -4.314  17.481  16.730  1.00  0.00     0.026 C 
BRANCH   5   6
HETATM    6  C2  UNL     1      -3.467  18.472  16.085  1.00  0.00    -0.037 C 
HETATM    7  C1  UNL     1      -3.761  19.301  15.106  1.00  0.00     0.007 C 
ENDBRANCH   5   6
ENDBRANCH   4   5
ENDBRANCH   3   4
ENDBRANCH   2   3
ENDBRANCH   1   2
BRANCH   1   8
HETATM    8  C8  UNL     1      -2.329  12.502  18.438  1.00  0.00     0.027 C 
BRANCH   8   9
HETATM    9  C9  UNL     1      -3.377  11.504  18.232  1.00  0.00    -0.031 C 
HETATM   10  C10 UNL     1      -3.875  10.751  19.145  1.00  0.00    -0.030 C 
BRANCH  10  11
HETATM   11  C11 UNL     1      -3.487  10.752  20.554  1.00  0.00     0.037 C 
BRANCH  11  12
HETATM   12  C12 UNL     1      -4.618  10.145  21.398  1.00  0.00     0.090 C 
HETATM   13  S1  UNL     1      -4.542  10.921  23.041  1.00  0.00    -0.097 SA
ENDBRANCH  11  12
ENDBRANCH  10  11
ENDBRANCH   8   9
ENDBRANCH   1   8
TORSDOF 9
ENDMDL
MODEL 2
REMARK VINA RESULT: -6.538390851      0.791      1.111
REMARK  9 active torsions:
REMARK  status: ('A' for Active; 'I' for Inactive)
REMARK    1  A    between atoms: C2_2  and  C3_3 
REMARK    2  A    between atoms: C3_3  and  C4_4 
REMARK    3  A    between atoms: C4_4  and  C5_5 
REMARK    4  A    between atoms: C5_5  and  C6_6 
REMARK    5  A    between atoms: C6_6  and  C7_7 
REMARK    6  A    between atoms: C7_7  and  C8_8 
REMARK    7  A    between atoms: C8_8  and  C9_9 
REMARK    8  A    between atoms: C10_10  and  C11_11 
REMARK    9  A    between atoms: C11_11  and  C12_12 
ROOT
HETATM    1  C7  UNL     1      -3.255  13.359  17.808  1.00  0.00     0.004 C 
ENDROOT
BRANCH   1   2
HETATM    2  C6  UNL     1      -1.889  13.736  18.299  1.00  0.00     0.000 C 
BRANCH   2   3
HETATM    3  C5  UNL     1      -1.628  15.225  18.297  1.00  0.00     0.000 C 
BRANCH   3   4
HETATM    4  C4  UNL     1      -2.384  15.861  17.167  1.00  0.00     0.004 C 
BRANCH   4   5
HETATM    5  C3  UNL     1      -3.192  17.050  17.531  1.00  0.00     0.026 C 
BRANCH   5   6
HETATM    6  C2  UNL     1      -4.017  17.663  16.502  1.00  0.00    -0.037 C 
HETATM    7  C1  UNL     1      -3.748  18.694  15.730  1.00  0.00     0.007 C 
ENDBRANCH   5   6
ENDBRANCH   4   5
ENDBRANCH   3   4
ENDBRANCH   2   3
ENDBRANCH   1   2
BRANCH   1   8
HETATM    8  C8  UNL     1      -3.394  11.833  18.010  1.00  0.00     0.027 C 
BRANCH   8   9
HETATM    9  C9  UNL     1      -2.585  11.509  19.183  1.00  0.00    -0.031 C 
HETATM   10  C10 UNL     1      -3.020  10.947  20.252  1.00  0.00    -0.030 C 
BRANCH  10  11
HETATM   11  C11 UNL     1      -4.399  10.529  20.494  1.00  0.00     0.037 C 
BRANCH  11  12
HETATM   12  C12 UNL     1      -4.471   9.727  21.803  1.00  0.00     0.090 C 
HETATM   13  S1  UNL     1      -4.749  10.917  23.150  1.00  0.00    -0.097 SA
ENDBRANCH  11  12
ENDBRANCH  10  11
ENDBRANCH   8   9
ENDBRANCH   1   8
TORSDOF 9
ENDMDL
MODEL 3
REMARK VINA RESULT: -6.396262903      1.941      2.314
REMARK  9 active torsions:
REMARK  status: ('A' for Active; 'I' for Inactive)
REMARK    1  A    between atoms: C2_2  and  C3_3 
REMARK    2  A    between atoms: C3_3  and  C4_4 
REMARK    3  A    between atoms: C4_4  and  C5_5 
REMARK    4  A    between atoms: C5_5  and  C6_6 
REMARK    5  A    between atoms: C6_6  and  C7_7 
REMARK    6  A    between atoms: C7_7  and  C8_8 
REMARK    7  A    between atoms: C8_8  and  C9_9 
REMARK    8  A    between atoms: C10_10  and  C11_11 
REMARK    9  A    between atoms: C11_11  and  C12_12 
ROOT
HETATM    1  C7  UNL     1      -2.372  13.835  17.931  1.00  0.00     0.004 C 
ENDROOT
BRANCH   1   2
HETATM    2  C6  UNL     1      -1.643  15.098  18.284  1.00  0.00     0.000 C 
BRANCH   2   3
HETATM    3  C5  UNL     1      -2.373  16.358  17.881  1.00  0.00     0.000 C 
BRANCH   3   4
HETATM    4  C4  UNL     1      -3.705  15.995  17.291  1.00  0.00     0.004 C 
BRANCH   4   5
HETATM    5  C3  UNL     1      -4.392  17.081  16.552  1.00  0.00     0.026 C 
BRANCH   5   6
HETATM    6  C2  UNL     1      -3.667  18.319  16.318  1.00  0.00    -0.037 C 
HETATM    7  C1  UNL     1      -3.637  19.071  15.238  1.00  0.00     0.007 C 
ENDBRANCH   5   6
ENDBRANCH   4   5
ENDBRANCH   3   4
ENDBRANCH   2   3
ENDBRANCH   1   2
BRANCH   1   8
HETATM    8  C8  UNL     1      -1.733  12.704  18.769  1.00  0.00     0.027 C 
BRANCH   8   9
HETATM    9  C9  UNL     1      -2.786  11.710  18.968  1.00  0.00    -0.031 C 
HETATM   10  C10 UNL     1      -2.801  10.533  18.454  1.00  0.00    -0.030 C 
BRANCH  10  11
HETATM   11  C11 UNL     1      -1.774   9.973  17.579  1.00  0.00     0.037 C 
BRANCH  11  12
HETATM   12  C12 UNL     1      -1.875   8.439  17.585  1.00  0.00     0.090 C 
HETATM   13  S1  UNL     1      -2.260   7.929  19.287  1.00  0.00    -0.097 SA
ENDBRANCH  11  12
ENDBRANCH  10  11
ENDBRANCH   8   9
ENDBRANCH   1   8
TORSDOF 9
ENDMDL
MODEL 4
REMARK VINA RESULT: -6.381020934      0.950      1.843
REMARK  9 active torsions:
REMARK  status: ('A' for Active; 'I' for Inactive)
REMARK    1  A    between atoms: C2_2  and  C3_3 
REMARK    2  A    between atoms: C3_3  and  C4_4 
REMARK    3  A    between atoms: C4_4  and  C5_5 
REMARK    4  A    between atoms: C5_5  and  C6_6 
REMARK    5  A    between atoms: C6_6  and  C7_7 
REMARK    6  A    between atoms: C7_7  and  C8_8 
REMARK    7  A    between atoms: C8_8  and  C9_9 
REMARK    8  A    between atoms: C10_10  and  C11_11 
REMARK    9  A    between atoms: C11_11  and  C12_12 
ROOT
HETATM    1  C7  UNL     1      -1.901  12.369  18.327  1.00  0.00     0.004 C 
ENDROOT
BRANCH   1   2
HETATM    2  C6  UNL     1      -3.305  12.718  17.931  1.00  0.00     0.000 C 
BRANCH   2   3
HETATM    3  C5  UNL     1      -3.481  14.159  17.511  1.00  0.00     0.000 C 
BRANCH   3   4
HETATM    4  C4  UNL     1      -2.242  14.933  17.856  1.00  0.00     0.004 C 
BRANCH   4   5
HETATM    5  C3  UNL     1      -2.393  16.408  17.865  1.00  0.00     0.026 C 
BRANCH   5   6
HETATM    6  C2  UNL     1      -3.613  16.977  17.315  1.00  0.00    -0.037 C 
HETATM    7  C1  UNL     1      -3.751  17.869  16.357  1.00  0.00     0.007 C 
ENDBRANCH   5   6
ENDBRANCH   4   5
ENDBRANCH   3   4
ENDBRANCH   2   3
ENDBRANCH   1   2
BRANCH   1   8
HETATM    8  C8  UNL     1      -1.977  11.773  19.752  1.00  0.00     0.027 C 
BRANCH   8   9
HETATM    9  C9  UNL     1      -2.338  10.367  19.579  1.00  0.00    -0.031 C 
HETATM   10  C10 UNL     1      -3.393   9.808  20.051  1.00  0.00    -0.030 C 
BRANCH  10  11
HETATM   11  C11 UNL     1      -4.424  10.471  20.846  1.00  0.00     0.037 C 
BRANCH  11  12
HETATM   12  C12 UNL     1      -4.670   9.675  22.137  1.00  0.00     0.090 C 
HETATM   13  S1  UNL     1      -4.760  10.873  23.501  1.00  0.00    -0.097 SA
ENDBRANCH  11  12
ENDBRANCH  10  11
ENDBRANCH   8   9
ENDBRANCH   1   8
TORSDOF 9
ENDMDL
MODEL 5
REMARK VINA RESULT: -6.330864099      2.248      2.402
REMARK  9 active torsions:
REMARK  status: ('A' for Active; 'I' for Inactive)
REMARK    1  A    between atoms: C2_2  and  C3_3 
REMARK    2  A    between atoms: C3_3  and  C4_4 
REMARK    3  A    between atoms: C4_4  and  C5_5 
REMARK    4  A    between atoms: C5_5  and  C6_6 
REMARK    5  A    between atoms: C6_6  and  C7_7 
REMARK    6  A    between atoms: C7_7  and  C8_8 
REMARK    7  A    between atoms: C8_8  and  C9_9 
REMARK    8  A    between atoms: C10_10  and  C11_11 
REMARK    9  A    between atoms: C11_11  and  C12_12 
ROOT
HETATM    1  C7  UNL     1      -3.143  13.470  17.711  1.00  0.00     0.004 C 
ENDROOT
BRANCH   1   2
HETATM    2  C6  UNL     1      -1.849  13.902  18.332  1.00  0.00     0.000 C 
BRANCH   2   3
HETATM    3  C5  UNL     1      -1.619  15.396  18.291  1.00  0.00     0.000 C 
BRANCH   3   4
HETATM    4  C4  UNL     1      -2.405  15.989  17.157  1.00  0.00     0.004 C 
BRANCH   4   5
HETATM    5  C3  UNL     1      -3.237  17.165  17.506  1.00  0.00     0.026 C 
BRANCH   5   6
HETATM    6  C2  UNL     1      -4.025  17.787  16.454  1.00  0.00    -0.037 C 
HETATM    7  C1  UNL     1      -3.701  18.781  15.655  1.00  0.00     0.007 C 
ENDBRANCH   5   6
ENDBRANCH   4   5
ENDBRANCH   3   4
ENDBRANCH   2   3
ENDBRANCH   1   2
BRANCH   1   8
HETATM    8  C8  UNL     1      -3.333  11.979  18.072  1.00  0.00     0.027 C 
BRANCH   8   9
HETATM    9  C9  UNL     1      -2.066  11.545  18.657  1.00  0.00    -0.031 C 
HETATM   10  C10 UNL     1      -1.895  10.472  19.342  1.00  0.00    -0.030 C 
BRANCH  10  11
HETATM   11  C11 UNL     1      -2.929   9.491  19.661  1.00  0.00     0.037 C 
BRANCH  11  12
HETATM   12  C12 UNL     1      -2.354   8.073  19.518  1.00  0.00     0.090 C 
HETATM   13  S1  UNL     1      -2.006   7.807  17.753  1.00  0.00    -0.097 SA
ENDBRANCH  11  12
ENDBRANCH  10  11
ENDBRANCH   8   9
ENDBRANCH   1   8
TORSDOF 9
ENDMDL
