MODEL 1
REMARK VINA RESULT: -7.654673848      0.000      0.000
REMARK  5 active torsions:
REMARK  status: ('A' for Active; 'I' for Inactive)
REMARK    1  A    between atoms: C3_3  and  C4_4 
REMARK    2  A    between atoms: C4_4  and  C5_5 
REMARK    3  A    between atoms: C8_8  and  C9_9 
REMARK    4  A    between atoms: C9_9  and  O2_11 
REMARK    5  A    between atoms: O2_11  and  C10_12 
ROOT
HETATM    1  C5  UNL     1      -1.978  13.617  18.345  1.00  0.00    -0.011 C 
HETATM    2  C6  UNL     1      -1.430  12.907  19.512  1.00  0.00     0.006 C 
HETATM    3  C7  UNL     1      -1.860  11.488  19.687  1.00  0.00     0.015 C 
HETATM    4  C8  UNL     1      -2.601  10.938  18.485  1.00  0.00     0.085 C 
HETATM    5  C13 UNL     1      -3.789  11.860  18.312  1.00  0.00     0.015 C 
HETATM    6  C14 UNL     1      -3.317  13.185  17.858  1.00  0.00     0.006 C 
ENDROOT
BRANCH   4   7
HETATM    7  C9  UNL     1      -3.012   9.557  18.812  1.00  0.00     0.263 C 
HETATM    8  O1  UNL     1      -4.115   9.138  18.401  1.00  0.00    -0.265 OA
BRANCH   7   9
HETATM    9  O2  UNL     1      -2.180   8.765  19.555  1.00  0.00    -0.317 OA
BRANCH   9  10
HETATM   10  C10 UNL     1      -2.341   7.362  19.690  1.00  0.00     0.123 C 
HETATM   11  C11 UNL     1      -3.064   7.119  20.998  1.00  0.00     0.040 C 
HETATM   12  C12 UNL     1      -0.951   6.755  19.696  1.00  0.00     0.040 C 
ENDBRANCH   9  10
ENDBRANCH   7   9
ENDBRANCH   4   7
BRANCH   1  13
HETATM   13  C4  UNL     1      -2.035  15.131  18.539  1.00  0.00     0.031 C 
BRANCH  13  14
HETATM   14  C3  UNL     1      -3.087  15.779  17.737  1.00  0.00    -0.031 C 
HETATM   15  C2  UNL     1      -3.257  17.104  17.687  1.00  0.00    -0.035 C 
HETATM   16  C1  UNL     1      -4.337  17.687  16.860  1.00  0.00     0.036 C 
ENDBRANCH  13  14
ENDBRANCH   1  13
TORSDOF 5
ENDMDL
MODEL 2
REMARK VINA RESULT: -7.398254912      1.103      1.414
REMARK  5 active torsions:
REMARK  status: ('A' for Active; 'I' for Inactive)
REMARK    1  A    between atoms: C3_3  and  C4_4 
REMARK    2  A    between atoms: C4_4  and  C5_5 
REMARK    3  A    between atoms: C8_8  and  C9_9 
REMARK    4  A    between atoms: C9_9  and  O2_11 
REMARK    5  A    between atoms: O2_11  and  C10_12 
ROOT
HETATM    1  C5  UNL     1      -2.244  13.149  18.234  1.00  0.00    -0.011 C 
HETATM    2  C6  UNL     1      -1.603  12.438  19.351  1.00  0.00     0.006 C 
HETATM    3  C7  UNL     1      -1.797  10.958  19.394  1.00  0.00     0.015 C 
HETATM    4  C8  UNL     1      -2.421  10.403  18.130  1.00  0.00     0.085 C 
HETATM    5  C13 UNL     1      -3.741  11.131  18.001  1.00  0.00     0.015 C 
HETATM    6  C14 UNL     1      -3.486  12.550  17.674  1.00  0.00     0.006 C 
ENDROOT
BRANCH   4   7
HETATM    7  C9  UNL     1      -2.605   8.950  18.328  1.00  0.00     0.263 C 
HETATM    8  O1  UNL     1      -1.743   8.162  17.884  1.00  0.00    -0.265 OA
BRANCH   7   9
HETATM    9  O2  UNL     1      -3.712   8.497  18.991  1.00  0.00    -0.317 OA
BRANCH   9  10
HETATM   10  C10 UNL     1      -3.833   7.184  19.516  1.00  0.00     0.123 C 
HETATM   11  C11 UNL     1      -5.302   6.819  19.474  1.00  0.00     0.040 C 
HETATM   12  C12 UNL     1      -3.306   7.224  20.938  1.00  0.00     0.040 C 
ENDBRANCH   9  10
ENDBRANCH   7   9
ENDBRANCH   4   7
BRANCH   1  13
HETATM   13  C4  UNL     1      -2.551  14.611  18.552  1.00  0.00     0.031 C 
BRANCH  13  14
HETATM   14  C3  UNL     1      -3.509  15.220  17.614  1.00  0.00    -0.031 C 
HETATM   15  C2  UNL     1      -3.680  16.540  17.497  1.00  0.00    -0.035 C 
HETATM   16  C1  UNL     1      -4.663  17.083  16.534  1.00  0.00     0.036 C 
ENDBRANCH  13  14
ENDBRANCH   1  13
TORSDOF 5
ENDMDL
MODEL 3
REMARK VINA RESULT: -7.397210129      0.977      1.252
REMARK  5 active torsions:
REMARK  status: ('A' for Active; 'I' for Inactive)
REMARK    1  A    between atoms: C3_3  and  C4_4 
REMARK    2  A    between atoms: C4_4  and  C5_5 
REMARK    3  A    between atoms: C8_8  and  C9_9 
REMARK    4  A    between atoms: C9_9  and  O2_11 
REMARK    5  A    between atoms: O2_11  and  C10_12 
ROOT
HETATM    1  C5  UNL     1      -2.059  12.966  18.370  1.00  0.00    -0.011 C 
HETATM    2  C6  UNL     1      -1.580  12.241  19.558  1.00  0.00     0.006 C 
HETATM    3  C7  UNL     1      -1.947  10.796  19.645  1.00  0.00     0.015 C 
HETATM    4  C8  UNL     1      -2.547  10.255  18.363  1.00  0.00     0.085 C 
HETATM    5  C13 UNL     1      -3.762  11.122  18.113  1.00  0.00     0.015 C 
HETATM    6  C14 UNL     1      -3.323  12.486  17.749  1.00  0.00     0.006 C 
ENDROOT
BRANCH   4   7
HETATM    7  C9  UNL     1      -2.911   8.844  18.604  1.00  0.00     0.263 C 
HETATM    8  O1  UNL     1      -4.072   8.571  18.974  1.00  0.00    -0.265 OA
BRANCH   7   9
HETATM    9  O2  UNL     1      -1.973   7.866  18.418  1.00  0.00    -0.317 OA
BRANCH   9  10
HETATM   10  C10 UNL     1      -1.950   6.647  19.143  1.00  0.00     0.123 C 
HETATM   11  C11 UNL     1      -0.505   6.356  19.486  1.00  0.00     0.040 C 
HETATM   12  C12 UNL     1      -2.536   5.581  18.237  1.00  0.00     0.040 C 
ENDBRANCH   9  10
ENDBRANCH   7   9
ENDBRANCH   4   7
BRANCH   1  13
HETATM   13  C4  UNL     1      -2.214  14.466  18.608  1.00  0.00     0.031 C 
BRANCH  13  14
HETATM   14  C3  UNL     1      -3.342  15.058  17.867  1.00  0.00    -0.031 C 
HETATM   15  C2  UNL     1      -3.433  16.363  17.594  1.00  0.00    -0.035 C 
HETATM   16  C1  UNL     1      -4.596  16.889  16.845  1.00  0.00     0.036 C 
ENDBRANCH  13  14
ENDBRANCH   1  13
TORSDOF 5
ENDMDL
MODEL 4
REMARK VINA RESULT: -7.379283748      2.427      7.308
REMARK  5 active torsions:
REMARK  status: ('A' for Active; 'I' for Inactive)
REMARK    1  A    between atoms: C3_3  and  C4_4 
REMARK    2  A    between atoms: C4_4  and  C5_5 
REMARK    3  A    between atoms: C8_8  and  C9_9 
REMARK    4  A    between atoms: C9_9  and  O2_11 
REMARK    5  A    between atoms: O2_11  and  C10_12 
ROOT
HETATM    1  C5  UNL     1      -2.734  10.465  18.271  1.00  0.00    -0.011 C 
HETATM    2  C6  UNL     1      -3.914  11.254  17.878  1.00  0.00     0.006 C 
HETATM    3  C7  UNL     1      -3.774  12.738  17.952  1.00  0.00     0.015 C 
HETATM    4  C8  UNL     1      -2.346  13.191  18.184  1.00  0.00     0.085 C 
HETATM    5  C13 UNL     1      -1.941  12.531  19.484  1.00  0.00     0.015 C 
HETATM    6  C14 UNL     1      -1.818  11.072  19.274  1.00  0.00     0.006 C 
ENDROOT
BRANCH   4   7
HETATM    7  C9  UNL     1      -2.360  14.664  18.290  1.00  0.00     0.263 C 
HETATM    8  O1  UNL     1      -1.332  15.255  18.681  1.00  0.00    -0.265 OA
BRANCH   7   9
HETATM    9  O2  UNL     1      -3.495  15.352  17.956  1.00  0.00    -0.317 OA
BRANCH   9  10
HETATM   10  C10 UNL     1      -3.513  16.460  17.070  1.00  0.00     0.123 C 
HETATM   11  C11 UNL     1      -3.177  17.691  17.885  1.00  0.00     0.040 C 
HETATM   12  C12 UNL     1      -4.910  16.538  16.486  1.00  0.00     0.040 C 
ENDBRANCH   9  10
ENDBRANCH   7   9
ENDBRANCH   4   7
BRANCH   1  13
HETATM   13  C4  UNL     1      -3.088   9.067  18.770  1.00  0.00     0.031 C 
BRANCH  13  14
HETATM   14  C3  UNL     1      -1.981   8.105  18.637  1.00  0.00    -0.031 C 
HETATM   15  C2  UNL     1      -1.575   7.313  19.634  1.00  0.00    -0.035 C 
HETATM   16  C1  UNL     1      -0.454   6.370  19.429  1.00  0.00     0.036 C 
ENDBRANCH  13  14
ENDBRANCH   1  13
TORSDOF 5
ENDMDL
MODEL 5
REMARK VINA RESULT: -7.298639284      1.037      1.808
REMARK  5 active torsions:
REMARK  status: ('A' for Active; 'I' for Inactive)
REMARK    1  A    between atoms: C3_3  and  C4_4 
REMARK    2  A    between atoms: C4_4  and  C5_5 
REMARK    3  A    between atoms: C8_8  and  C9_9 
REMARK    4  A    between atoms: C9_9  and  O2_11 
REMARK    5  A    between atoms: O2_11  and  C10_12 
ROOT
HETATM    1  C5  UNL     1      -2.727  13.422  18.643  1.00  0.00    -0.011 C 
HETATM    2  C6  UNL     1      -3.575  12.807  17.609  1.00  0.00     0.006 C 
HETATM    3  C7  UNL     1      -3.581  11.316  17.556  1.00  0.00     0.015 C 
HETATM    4  C8  UNL     1      -2.899  10.675  18.748  1.00  0.00     0.085 C 
HETATM    5  C13 UNL     1      -1.489  11.225  18.725  1.00  0.00     0.015 C 
HETATM    6  C14 UNL     1      -1.519  12.663  19.067  1.00  0.00     0.006 C 
ENDROOT
BRANCH   4   7
HETATM    7  C9  UNL     1      -2.928   9.212  18.543  1.00  0.00     0.263 C 
HETATM    8  O1  UNL     1      -2.024   8.674  17.870  1.00  0.00    -0.265 OA
BRANCH   7   9
HETATM    9  O2  UNL     1      -3.941   8.476  19.094  1.00  0.00    -0.317 OA
BRANCH   9  10
HETATM   10  C10 UNL     1      -3.801   7.125  19.503  1.00  0.00     0.123 C 
HETATM   11  C11 UNL     1      -5.184   6.510  19.500  1.00  0.00     0.040 C 
HETATM   12  C12 UNL     1      -3.198   7.142  20.894  1.00  0.00     0.040 C 
ENDBRANCH   9  10
ENDBRANCH   7   9
ENDBRANCH   4   7
BRANCH   1  13
HETATM   13  C4  UNL     1      -2.270  14.833  18.282  1.00  0.00     0.031 C 
BRANCH  13  14
HETATM   14  C3  UNL     1      -3.313  15.627  17.611  1.00  0.00    -0.031 C 
HETATM   15  C2  UNL     1      -3.326  16.963  17.608  1.00  0.00    -0.035 C 
HETATM   16  C1  UNL     1      -4.408  17.697  16.913  1.00  0.00     0.036 C 
ENDBRANCH  13  14
ENDBRANCH   1  13
TORSDOF 5
ENDMDL
