MODEL 1
REMARK VINA RESULT: -6.699138293      0.000      0.000
REMARK  9 active torsions:
REMARK  status: ('A' for Active; 'I' for Inactive)
REMARK    1  A    between atoms: C2_2  and  C3_3 
REMARK    2  A    between atoms: C3_3  and  C4_4 
REMARK    3  A    between atoms: C4_4  and  C5_5 
REMARK    4  A    between atoms: C5_5  and  C6_6 
REMARK    5  A    between atoms: C6_6  and  C7_7 
REMARK    6  A    between atoms: C7_7  and  C8_8 
REMARK    7  A    between atoms: C8_8  and  O1_9 
REMARK    8  A    between atoms: O1_9  and  C9_10 
REMARK    9  A    between atoms: C14_15  and  O2_16 
ROOT
HETATM    1  O1  UNL     1      -1.812  12.744  18.411  1.00  0.00    -0.348 OA
ENDROOT
BRANCH   1   2
HETATM    2  C8  UNL     1      -1.759  12.068  19.604  1.00  0.00     0.176 C 
BRANCH   2   3
HETATM    3  C7  UNL     1      -2.563  10.794  19.546  1.00  0.00     0.027 C 
BRANCH   3   4
HETATM    4  C6  UNL     1      -2.217  10.154  18.200  1.00  0.00     0.002 C 
BRANCH   4   5
HETATM    5  C5  UNL     1      -2.213   8.636  18.324  1.00  0.00     0.000 C 
BRANCH   5   6
HETATM    6  C4  UNL     1      -2.672   8.340  19.755  1.00  0.00     0.000 C 
BRANCH   6   7
HETATM    7  C3  UNL     1      -2.126   6.978  20.111  1.00  0.00    -0.000 C 
BRANCH   7   8
HETATM    8  C2  UNL     1      -0.878   6.731  19.264  1.00  0.00    -0.005 C 
HETATM    9  C1  UNL     1      -0.084   5.645  19.961  1.00  0.00     0.005 C 
ENDBRANCH   7   8
ENDBRANCH   6   7
ENDBRANCH   5   6
ENDBRANCH   4   5
ENDBRANCH   3   4
ENDBRANCH   2   3
ENDBRANCH   1   2
BRANCH   1  10
HETATM   10  C9  UNL     1      -2.275  14.010  18.181  1.00  0.00     0.101 A 
HETATM   11  C10 UNL     1      -1.679  15.185  18.576  1.00  0.00     0.039 A 
HETATM   12  C11 UNL     1      -2.230  16.444  18.301  1.00  0.00     0.003 A 
HETATM   13  C12 UNL     1      -3.412  16.568  17.611  1.00  0.00     0.003 A 
HETATM   14  C13 UNL     1      -4.022  15.404  17.207  1.00  0.00     0.039 A 
HETATM   15  C14 UNL     1      -3.489  14.170  17.473  1.00  0.00     0.099 A 
BRANCH  15  16
HETATM   16  O2  UNL     1      -4.105  12.987  17.064  1.00  0.00    -0.358 OA
ATOM     17  H2  UNL     1      -4.378  12.962  16.154  1.00  0.00     0.217 HD
ENDBRANCH  15  16
ENDBRANCH   1  10
TORSDOF 9
ENDMDL
MODEL 2
REMARK VINA RESULT: -6.532217485      0.586      1.007
REMARK  9 active torsions:
REMARK  status: ('A' for Active; 'I' for Inactive)
REMARK    1  A    between atoms: C2_2  and  C3_3 
REMARK    2  A    between atoms: C3_3  and  C4_4 
REMARK    3  A    between atoms: C4_4  and  C5_5 
REMARK    4  A    between atoms: C5_5  and  C6_6 
REMARK    5  A    between atoms: C6_6  and  C7_7 
REMARK    6  A    between atoms: C7_7  and  C8_8 
REMARK    7  A    between atoms: C8_8  and  O1_9 
REMARK    8  A    between atoms: O1_9  and  C9_10 
REMARK    9  A    between atoms: C14_15  and  O2_16 
ROOT
HETATM    1  O1  UNL     1      -1.862  12.612  18.500  1.00  0.00    -0.348 OA
ENDROOT
BRANCH   1   2
HETATM    2  C8  UNL     1      -1.794  11.970  19.711  1.00  0.00     0.176 C 
BRANCH   2   3
HETATM    3  C7  UNL     1      -2.380  10.584  19.628  1.00  0.00     0.027 C 
BRANCH   3   4
HETATM    4  C6  UNL     1      -2.286  10.188  18.153  1.00  0.00     0.002 C 
BRANCH   4   5
HETATM    5  C5  UNL     1      -2.031   8.692  18.024  1.00  0.00     0.000 C 
BRANCH   5   6
HETATM    6  C4  UNL     1      -1.998   8.157  19.458  1.00  0.00     0.000 C 
BRANCH   6   7
HETATM    7  C3  UNL     1      -1.232   6.857  19.417  1.00  0.00    -0.000 C 
BRANCH   7   8
HETATM    8  C2  UNL     1      -1.959   5.848  20.306  1.00  0.00    -0.005 C 
HETATM    9  C1  UNL     1      -3.078   6.600  20.999  1.00  0.00     0.005 C 
ENDBRANCH   7   8
ENDBRANCH   6   7
ENDBRANCH   5   6
ENDBRANCH   4   5
ENDBRANCH   3   4
ENDBRANCH   2   3
ENDBRANCH   1   2
BRANCH   1  10
HETATM   10  C9  UNL     1      -2.271  13.893  18.249  1.00  0.00     0.101 A 
HETATM   11  C10 UNL     1      -1.639  15.048  18.646  1.00  0.00     0.039 A 
HETATM   12  C11 UNL     1      -2.136  16.324  18.348  1.00  0.00     0.003 A 
HETATM   13  C12 UNL     1      -3.297  16.487  17.632  1.00  0.00     0.003 A 
HETATM   14  C13 UNL     1      -3.942  15.343  17.224  1.00  0.00     0.039 A 
HETATM   15  C14 UNL     1      -3.462  14.092  17.513  1.00  0.00     0.099 A 
BRANCH  15  16
HETATM   16  O2  UNL     1      -4.114  12.930  17.101  1.00  0.00    -0.358 OA
ATOM     17  H2  UNL     1      -4.109  12.769  16.164  1.00  0.00     0.217 HD
ENDBRANCH  15  16
ENDBRANCH   1  10
TORSDOF 9
ENDMDL
MODEL 3
REMARK VINA RESULT: -6.487489801      1.409      7.600
REMARK  9 active torsions:
REMARK  status: ('A' for Active; 'I' for Inactive)
REMARK    1  A    between atoms: C2_2  and  C3_3 
REMARK    2  A    between atoms: C3_3  and  C4_4 
REMARK    3  A    between atoms: C4_4  and  C5_5 
REMARK    4  A    between atoms: C5_5  and  C6_6 
REMARK    5  A    between atoms: C6_6  and  C7_7 
REMARK    6  A    between atoms: C7_7  and  C8_8 
REMARK    7  A    between atoms: C8_8  and  O1_9 
REMARK    8  A    between atoms: O1_9  and  C9_10 
REMARK    9  A    between atoms: C14_15  and  O2_16 
ROOT
HETATM    1  O1  UNL     1      -2.542  11.677  17.978  1.00  0.00    -0.348 OA
ENDROOT
BRANCH   1   2
HETATM    2  C8  UNL     1      -3.717  12.295  17.631  1.00  0.00     0.176 C 
BRANCH   2   3
HETATM    3  C7  UNL     1      -3.571  13.795  17.650  1.00  0.00     0.027 C 
BRANCH   3   4
HETATM    4  C6  UNL     1      -2.279  14.070  18.422  1.00  0.00     0.002 C 
BRANCH   4   5
HETATM    5  C5  UNL     1      -1.961  15.560  18.402  1.00  0.00     0.000 C 
BRANCH   5   6
HETATM    6  C4  UNL     1      -2.793  16.141  17.255  1.00  0.00     0.000 C 
BRANCH   6   7
HETATM    7  C3  UNL     1      -3.292  17.487  17.724  1.00  0.00    -0.000 C 
BRANCH   7   8
HETATM    8  C2  UNL     1      -4.418  17.928  16.788  1.00  0.00    -0.005 C 
HETATM    9  C1  UNL     1      -3.811  18.904  15.801  1.00  0.00     0.005 C 
ENDBRANCH   7   8
ENDBRANCH   6   7
ENDBRANCH   5   6
ENDBRANCH   4   5
ENDBRANCH   3   4
ENDBRANCH   2   3
ENDBRANCH   1   2
BRANCH   1  10
HETATM   10  C9  UNL     1      -2.356  10.375  18.356  1.00  0.00     0.101 A 
HETATM   11  C10 UNL     1      -2.176   9.297  17.521  1.00  0.00     0.039 A 
HETATM   12  C11 UNL     1      -1.997   7.991  17.998  1.00  0.00     0.003 A 
HETATM   13  C12 UNL     1      -1.993   7.720  19.345  1.00  0.00     0.003 A 
HETATM   14  C13 UNL     1      -2.171   8.786  20.195  1.00  0.00     0.039 A 
HETATM   15  C14 UNL     1      -2.346  10.065  19.736  1.00  0.00     0.099 A 
BRANCH  15  16
HETATM   16  O2  UNL     1      -2.526  11.148  20.595  1.00  0.00    -0.358 OA
ATOM     17  H2  UNL     1      -2.198  11.981  20.277  1.00  0.00     0.217 HD
ENDBRANCH  15  16
ENDBRANCH   1  10
TORSDOF 9
ENDMDL
MODEL 4
REMARK VINA RESULT: -6.472902457      1.787      7.416
REMARK  9 active torsions:
REMARK  status: ('A' for Active; 'I' for Inactive)
REMARK    1  A    between atoms: C2_2  and  C3_3 
REMARK    2  A    between atoms: C3_3  and  C4_4 
REMARK    3  A    between atoms: C4_4  and  C5_5 
REMARK    4  A    between atoms: C5_5  and  C6_6 
REMARK    5  A    between atoms: C6_6  and  C7_7 
REMARK    6  A    between atoms: C7_7  and  C8_8 
REMARK    7  A    between atoms: C8_8  and  O1_9 
REMARK    8  A    between atoms: O1_9  and  C9_10 
REMARK    9  A    between atoms: C14_15  and  O2_16 
ROOT
HETATM    1  O1  UNL     1      -1.905  10.221  19.820  1.00  0.00    -0.348 OA
ENDROOT
BRANCH   1   2
HETATM    2  C8  UNL     1      -2.705  11.327  19.962  1.00  0.00     0.176 C 
BRANCH   2   3
HETATM    3  C7  UNL     1      -2.291  12.427  19.018  1.00  0.00     0.027 C 
BRANCH   3   4
HETATM    4  C6  UNL     1      -3.445  12.567  18.023  1.00  0.00     0.002 C 
BRANCH   4   5
HETATM    5  C5  UNL     1      -3.644  14.030  17.650  1.00  0.00     0.000 C 
BRANCH   5   6
HETATM    6  C4  UNL     1      -2.350  14.738  18.063  1.00  0.00     0.000 C 
BRANCH   6   7
HETATM    7  C3  UNL     1      -2.631  16.220  18.007  1.00  0.00    -0.000 C 
BRANCH   7   8
HETATM    8  C2  UNL     1      -3.954  16.424  17.268  1.00  0.00    -0.005 C 
HETATM    9  C1  UNL     1      -4.006  17.881  16.855  1.00  0.00     0.005 C 
ENDBRANCH   7   8
ENDBRANCH   6   7
ENDBRANCH   5   6
ENDBRANCH   4   5
ENDBRANCH   3   4
ENDBRANCH   2   3
ENDBRANCH   1   2
BRANCH   1  10
HETATM   10  C9  UNL     1      -2.285   8.938  19.538  1.00  0.00     0.101 A 
HETATM   11  C10 UNL     1      -2.749   8.006  20.437  1.00  0.00     0.039 A 
HETATM   12  C11 UNL     1      -3.113   6.706  20.059  1.00  0.00     0.003 A 
HETATM   13  C12 UNL     1      -3.023   6.293  18.751  1.00  0.00     0.003 A 
HETATM   14  C13 UNL     1      -2.562   7.213  17.839  1.00  0.00     0.039 A 
HETATM   15  C14 UNL     1      -2.204   8.485  18.201  1.00  0.00     0.099 A 
BRANCH  15  16
HETATM   16  O2  UNL     1      -1.737   9.420  17.278  1.00  0.00    -0.358 OA
ATOM     17  H2  UNL     1      -1.483   9.068  16.433  1.00  0.00     0.217 HD
ENDBRANCH  15  16
ENDBRANCH   1  10
TORSDOF 9
ENDMDL
MODEL 5
REMARK VINA RESULT: -6.461411878      1.273      2.145
REMARK  9 active torsions:
REMARK  status: ('A' for Active; 'I' for Inactive)
REMARK    1  A    between atoms: C2_2  and  C3_3 
REMARK    2  A    between atoms: C3_3  and  C4_4 
REMARK    3  A    between atoms: C4_4  and  C5_5 
REMARK    4  A    between atoms: C5_5  and  C6_6 
REMARK    5  A    between atoms: C6_6  and  C7_7 
REMARK    6  A    between atoms: C7_7  and  C8_8 
REMARK    7  A    between atoms: C8_8  and  O1_9 
REMARK    8  A    between atoms: O1_9  and  C9_10 
REMARK    9  A    between atoms: C14_15  and  O2_16 
ROOT
HETATM    1  O1  UNL     1      -2.986  13.682  17.584  1.00  0.00    -0.348 OA
ENDROOT
BRANCH   1   2
HETATM    2  C8  UNL     1      -3.838  12.619  17.749  1.00  0.00     0.176 C 
BRANCH   2   3
HETATM    3  C7  UNL     1      -3.358  11.700  18.844  1.00  0.00     0.027 C 
BRANCH   3   4
HETATM    4  C6  UNL     1      -1.936  11.300  18.447  1.00  0.00     0.002 C 
BRANCH   4   5
HETATM    5  C5  UNL     1      -1.949   9.967  17.711  1.00  0.00     0.000 C 
BRANCH   5   6
HETATM    6  C4  UNL     1      -2.586   8.969  18.682  1.00  0.00     0.000 C 
BRANCH   6   7
HETATM    7  C3  UNL     1      -1.911   7.641  18.442  1.00  0.00    -0.000 C 
BRANCH   7   8
HETATM    8  C2  UNL     1      -1.364   7.137  19.778  1.00  0.00    -0.005 C 
HETATM    9  C1  UNL     1      -0.278   6.131  19.456  1.00  0.00     0.005 C 
ENDBRANCH   7   8
ENDBRANCH   6   7
ENDBRANCH   5   6
ENDBRANCH   4   5
ENDBRANCH   3   4
ENDBRANCH   2   3
ENDBRANCH   1   2
BRANCH   1  10
HETATM   10  C9  UNL     1      -3.309  15.001  17.418  1.00  0.00     0.101 A 
HETATM   11  C10 UNL     1      -4.349  15.501  16.669  1.00  0.00     0.039 A 
HETATM   12  C11 UNL     1      -4.604  16.874  16.550  1.00  0.00     0.003 A 
HETATM   13  C12 UNL     1      -3.815  17.803  17.186  1.00  0.00     0.003 A 
HETATM   14  C13 UNL     1      -2.771  17.320  17.940  1.00  0.00     0.039 A 
HETATM   15  C14 UNL     1      -2.516  15.979  18.061  1.00  0.00     0.099 A 
BRANCH  15  16
HETATM   16  O2  UNL     1      -1.459  15.487  18.825  1.00  0.00    -0.358 OA
ATOM     17  H2  UNL     1      -1.702  14.883  19.517  1.00  0.00     0.217 HD
ENDBRANCH  15  16
ENDBRANCH   1  10
TORSDOF 9
ENDMDL
