MODEL 1
REMARK VINA RESULT: -6.948352193      0.000      0.000
REMARK  8 active torsions:
REMARK  status: ('A' for Active; 'I' for Inactive)
REMARK    1  A    between atoms: C2_2  and  C3_3 
REMARK    2  A    between atoms: C2_2  and  C5_7 
REMARK    3  A    between atoms: C3_3  and  C4_4 
REMARK    4  A    between atoms: C4_4  and  O1_5 
REMARK    5  A    between atoms: C5_7  and  C6_8 
REMARK    6  A    between atoms: C6_8  and  C7_9 
REMARK    7  A    between atoms: C7_9  and  O2_10 
REMARK    8  A    between atoms: O2_10  and  C8_11 
ROOT
HETATM    1  C6  UNL     1      -2.349   9.937  17.971  1.00  0.00     0.031 C 
ENDROOT
BRANCH   1   2
HETATM    2  C5  UNL     1      -2.391   9.075  19.224  1.00  0.00     0.035 C 
BRANCH   2   3
HETATM    3  C2  UNL     1      -1.995   7.671  18.971  1.00  0.00    -0.087 C 
HETATM    4  C1  UNL     1      -2.543   7.021  17.945  1.00  0.00     0.014 C 
BRANCH   3   5
HETATM    5  C3  UNL     1      -1.002   6.971  19.807  1.00  0.00     0.059 C 
BRANCH   5   6
HETATM    6  C4  UNL     1      -0.677   5.577  19.384  1.00  0.00     0.168 C 
BRANCH   6   7
HETATM    7  O1  UNL     1       0.676   5.364  19.373  1.00  0.00    -0.401 OA
ATOM      8  H1  UNL     1       0.950   4.860  20.129  1.00  0.00     0.209 HD
ENDBRANCH   6   7
ENDBRANCH   5   6
ENDBRANCH   3   5
ENDBRANCH   2   3
ENDBRANCH   1   2
BRANCH   1   9
HETATM    9  C7  UNL     1      -2.034  11.351  18.359  1.00  0.00     0.176 C 
BRANCH   9  10
HETATM   10  O2  UNL     1      -3.035  12.271  18.123  1.00  0.00    -0.351 OA
BRANCH  10  11
HETATM   11  C8  UNL     1      -2.973  13.638  18.050  1.00  0.00     0.068 A 
HETATM   12  C9  UNL     1      -3.917  14.452  17.473  1.00  0.00     0.037 A 
HETATM   13  C10 UNL     1      -3.771  15.843  17.448  1.00  0.00     0.003 A 
HETATM   14  C11 UNL     1      -2.677  16.464  18.000  1.00  0.00     0.000 A 
HETATM   15  C12 UNL     1      -1.724  15.660  18.579  1.00  0.00     0.003 A 
HETATM   16  C13 UNL     1      -1.858  14.301  18.608  1.00  0.00     0.037 A 
ENDBRANCH  10  11
ENDBRANCH   9  10
ENDBRANCH   1   9
TORSDOF 8
ENDMDL
MODEL 2
REMARK VINA RESULT: -6.884217579      0.670      1.360
REMARK  8 active torsions:
REMARK  status: ('A' for Active; 'I' for Inactive)
REMARK    1  A    between atoms: C2_2  and  C3_3 
REMARK    2  A    between atoms: C2_2  and  C5_7 
REMARK    3  A    between atoms: C3_3  and  C4_4 
REMARK    4  A    between atoms: C4_4  and  O1_5 
REMARK    5  A    between atoms: C5_7  and  C6_8 
REMARK    6  A    between atoms: C6_8  and  C7_9 
REMARK    7  A    between atoms: C7_9  and  O2_10 
REMARK    8  A    between atoms: O2_10  and  C8_11 
ROOT
HETATM    1  C6  UNL     1      -2.366   9.953  19.064  1.00  0.00     0.031 C 
ENDROOT
BRANCH   1   2
HETATM    2  C5  UNL     1      -2.027   8.915  18.004  1.00  0.00     0.035 C 
BRANCH   2   3
HETATM    3  C2  UNL     1      -2.036   7.531  18.528  1.00  0.00    -0.087 C 
HETATM    4  C1  UNL     1      -2.796   6.618  17.925  1.00  0.00     0.014 C 
BRANCH   3   5
HETATM    5  C3  UNL     1      -1.221   7.124  19.688  1.00  0.00     0.059 C 
BRANCH   5   6
HETATM    6  C4  UNL     1      -0.752   5.707  19.676  1.00  0.00     0.168 C 
BRANCH   6   7
HETATM    7  O1  UNL     1       0.517   5.608  19.170  1.00  0.00    -0.401 OA
ATOM      8  H1  UNL     1       0.969   6.442  19.211  1.00  0.00     0.209 HD
ENDBRANCH   6   7
ENDBRANCH   5   6
ENDBRANCH   3   5
ENDBRANCH   2   3
ENDBRANCH   1   2
BRANCH   1   9
HETATM    9  C7  UNL     1      -2.886  11.189  18.393  1.00  0.00     0.176 C 
BRANCH   9  10
HETATM   10  O2  UNL     1      -2.166  12.342  18.628  1.00  0.00    -0.351 OA
BRANCH  10  11
HETATM   11  C8  UNL     1      -2.473  13.646  18.336  1.00  0.00     0.068 A 
HETATM   12  C9  UNL     1      -1.703  14.738  18.648  1.00  0.00     0.037 A 
HETATM   13  C10 UNL     1      -2.096  16.037  18.304  1.00  0.00     0.003 A 
HETATM   14  C11 UNL     1      -3.273  16.282  17.638  1.00  0.00     0.000 A 
HETATM   15  C12 UNL     1      -4.054  15.196  17.322  1.00  0.00     0.003 A 
HETATM   16  C13 UNL     1      -3.677  13.925  17.652  1.00  0.00     0.037 A 
ENDBRANCH  10  11
ENDBRANCH   9  10
ENDBRANCH   1   9
TORSDOF 8
ENDMDL
MODEL 3
REMARK VINA RESULT: -6.832299723      0.817      1.521
REMARK  8 active torsions:
REMARK  status: ('A' for Active; 'I' for Inactive)
REMARK    1  A    between atoms: C2_2  and  C3_3 
REMARK    2  A    between atoms: C2_2  and  C5_7 
REMARK    3  A    between atoms: C3_3  and  C4_4 
REMARK    4  A    between atoms: C4_4  and  O1_5 
REMARK    5  A    between atoms: C5_7  and  C6_8 
REMARK    6  A    between atoms: C6_8  and  C7_9 
REMARK    7  A    between atoms: C7_9  and  O2_10 
REMARK    8  A    between atoms: O2_10  and  C8_11 
ROOT
HETATM    1  C6  UNL     1      -2.312   9.739  18.150  1.00  0.00     0.031 C 
ENDROOT
BRANCH   1   2
HETATM    2  C5  UNL     1      -2.294   9.340  19.618  1.00  0.00     0.035 C 
BRANCH   2   3
HETATM    3  C2  UNL     1      -2.242   7.874  19.816  1.00  0.00    -0.087 C 
HETATM    4  C1  UNL     1      -3.061   7.315  20.706  1.00  0.00     0.014 C 
BRANCH   3   5
HETATM    5  C3  UNL     1      -1.327   7.008  19.050  1.00  0.00     0.059 C 
BRANCH   5   6
HETATM    6  C4  UNL     1      -0.561   6.013  19.857  1.00  0.00     0.168 C 
BRANCH   6   7
HETATM    7  O1  UNL     1       0.560   5.593  19.193  1.00  0.00    -0.401 OA
ATOM      8  H1  UNL     1       0.732   6.134  18.431  1.00  0.00     0.209 HD
ENDBRANCH   6   7
ENDBRANCH   5   6
ENDBRANCH   3   5
ENDBRANCH   2   3
ENDBRANCH   1   2
BRANCH   1   9
HETATM    9  C7  UNL     1      -3.051  11.036  18.003  1.00  0.00     0.176 C 
BRANCH   9  10
HETATM   10  O2  UNL     1      -2.465  12.129  18.607  1.00  0.00    -0.351 OA
BRANCH  10  11
HETATM   11  C8  UNL     1      -2.617  13.466  18.345  1.00  0.00     0.068 A 
HETATM   12  C9  UNL     1      -1.732  14.455  18.694  1.00  0.00     0.037 A 
HETATM   13  C10 UNL     1      -1.969  15.798  18.380  1.00  0.00     0.003 A 
HETATM   14  C11 UNL     1      -3.100  16.192  17.707  1.00  0.00     0.000 A 
HETATM   15  C12 UNL     1      -3.995  15.211  17.353  1.00  0.00     0.003 A 
HETATM   16  C13 UNL     1      -3.771  13.897  17.655  1.00  0.00     0.037 A 
ENDBRANCH  10  11
ENDBRANCH   9  10
ENDBRANCH   1   9
TORSDOF 8
ENDMDL
MODEL 4
REMARK VINA RESULT: -6.732547917      1.014      1.014
REMARK  8 active torsions:
REMARK  status: ('A' for Active; 'I' for Inactive)
REMARK    1  A    between atoms: C2_2  and  C3_3 
REMARK    2  A    between atoms: C2_2  and  C5_7 
REMARK    3  A    between atoms: C3_3  and  C4_4 
REMARK    4  A    between atoms: C4_4  and  O1_5 
REMARK    5  A    between atoms: C5_7  and  C6_8 
REMARK    6  A    between atoms: C6_8  and  C7_9 
REMARK    7  A    between atoms: C7_9  and  O2_10 
REMARK    8  A    between atoms: O2_10  and  C8_11 
ROOT
HETATM    1  C6  UNL     1      -2.302   9.817  18.045  1.00  0.00     0.031 C 
ENDROOT
BRANCH   1   2
HETATM    2  C5  UNL     1      -2.266   8.962  19.303  1.00  0.00     0.035 C 
BRANCH   2   3
HETATM    3  C2  UNL     1      -2.006   7.532  19.021  1.00  0.00    -0.087 C 
HETATM    4  C1  UNL     1      -2.629   6.954  17.994  1.00  0.00     0.014 C 
BRANCH   3   5
HETATM    5  C3  UNL     1      -1.069   6.729  19.828  1.00  0.00     0.059 C 
BRANCH   5   6
HETATM    6  C4  UNL     1      -1.579   5.395  20.262  1.00  0.00     0.168 C 
BRANCH   6   7
HETATM    7  O1  UNL     1      -2.440   5.514  21.320  1.00  0.00    -0.401 OA
ATOM      8  H1  UNL     1      -2.948   4.721  21.441  1.00  0.00     0.209 HD
ENDBRANCH   6   7
ENDBRANCH   5   6
ENDBRANCH   3   5
ENDBRANCH   2   3
ENDBRANCH   1   2
BRANCH   1   9
HETATM    9  C7  UNL     1      -2.002  11.240  18.410  1.00  0.00     0.176 C 
BRANCH   9  10
HETATM   10  O2  UNL     1      -3.004  12.149  18.139  1.00  0.00    -0.351 OA
BRANCH  10  11
HETATM   11  C8  UNL     1      -2.953  13.516  18.057  1.00  0.00     0.068 A 
HETATM   12  C9  UNL     1      -3.895  14.318  17.461  1.00  0.00     0.037 A 
HETATM   13  C10 UNL     1      -3.761  15.710  17.429  1.00  0.00     0.003 A 
HETATM   14  C11 UNL     1      -2.680  16.344  17.993  1.00  0.00     0.000 A 
HETATM   15  C12 UNL     1      -1.729  15.552  18.591  1.00  0.00     0.003 A 
HETATM   16  C13 UNL     1      -1.852  14.192  18.628  1.00  0.00     0.037 A 
ENDBRANCH  10  11
ENDBRANCH   9  10
ENDBRANCH   1   9
TORSDOF 8
ENDMDL
MODEL 5
REMARK VINA RESULT: -6.706307132      1.054      1.607
REMARK  8 active torsions:
REMARK  status: ('A' for Active; 'I' for Inactive)
REMARK    1  A    between atoms: C2_2  and  C3_3 
REMARK    2  A    between atoms: C2_2  and  C5_7 
REMARK    3  A    between atoms: C3_3  and  C4_4 
REMARK    4  A    between atoms: C4_4  and  O1_5 
REMARK    5  A    between atoms: C5_7  and  C6_8 
REMARK    6  A    between atoms: C6_8  and  C7_9 
REMARK    7  A    between atoms: C7_9  and  O2_10 
REMARK    8  A    between atoms: O2_10  and  C8_11 
ROOT
HETATM    1  C6  UNL     1      -2.371   9.809  18.075  1.00  0.00     0.031 C 
ENDROOT
BRANCH   1   2
HETATM    2  C5  UNL     1      -2.241   8.956  19.328  1.00  0.00     0.035 C 
BRANCH   2   3
HETATM    3  C2  UNL     1      -1.990   7.528  19.029  1.00  0.00    -0.087 C 
HETATM    4  C1  UNL     1      -2.580   6.978  17.969  1.00  0.00     0.014 C 
BRANCH   3   5
HETATM    5  C3  UNL     1      -1.096   6.697  19.856  1.00  0.00     0.059 C 
BRANCH   5   6
HETATM    6  C4  UNL     1      -1.675   5.404  20.325  1.00  0.00     0.168 C 
BRANCH   6   7
HETATM    7  O1  UNL     1      -2.545   5.599  21.365  1.00  0.00    -0.401 OA
ATOM      8  H1  UNL     1      -3.428   5.341  21.128  1.00  0.00     0.209 HD
ENDBRANCH   6   7
ENDBRANCH   5   6
ENDBRANCH   3   5
ENDBRANCH   2   3
ENDBRANCH   1   2
BRANCH   1   9
HETATM    9  C7  UNL     1      -1.996  11.224  18.402  1.00  0.00     0.176 C 
BRANCH   9  10
HETATM   10  O2  UNL     1      -2.944  12.178  18.100  1.00  0.00    -0.351 OA
BRANCH  10  11
HETATM   11  C8  UNL     1      -2.842  13.545  18.078  1.00  0.00     0.068 A 
HETATM   12  C9  UNL     1      -1.816  14.279  18.620  1.00  0.00     0.037 A 
HETATM   13  C10 UNL     1      -1.794  15.676  18.545  1.00  0.00     0.003 A 
HETATM   14  C11 UNL     1      -2.796  16.383  17.926  1.00  0.00     0.000 A 
HETATM   15  C12 UNL     1      -3.829  15.659  17.380  1.00  0.00     0.003 A 
HETATM   16  C13 UNL     1      -3.860  14.295  17.447  1.00  0.00     0.037 A 
ENDBRANCH  10  11
ENDBRANCH   9  10
ENDBRANCH   1   9
TORSDOF 8
ENDMDL
