MODEL 1
REMARK VINA RESULT: -6.088201432      0.000      0.000
REMARK  8 active torsions:
REMARK  status: ('A' for Active; 'I' for Inactive)
REMARK    1  A    between atoms: C2_2  and  C4_4 
REMARK    2  A    between atoms: C4_4  and  C5_5 
REMARK    3  A    between atoms: C5_5  and  C6_6 
REMARK    4  A    between atoms: C5_5  and  C12_15 
REMARK    5  A    between atoms: C6_6  and  C7_7 
REMARK    6  A    between atoms: C10_10  and  C11_11 
REMARK    7  A    between atoms: C11_11  and  O1_12 
REMARK    8  A    between atoms: C12_15  and  C13_16 
ROOT
HETATM    1  C5  UNL     1      -2.567   7.459  19.677  1.00  0.00    -0.007 C 
ENDROOT
BRANCH   1   2
HETATM    2  C4  UNL     1      -1.148   7.221  20.185  1.00  0.00     0.009 C 
BRANCH   2   3
HETATM    3  C2  UNL     1      -0.541   5.935  19.721  1.00  0.00    -0.022 C 
HETATM    4  C1  UNL     1       0.171   5.342  20.933  1.00  0.00     0.009 C 
HETATM    5  C3  UNL     1       0.475   6.080  18.642  1.00  0.00     0.009 C 
ENDBRANCH   2   3
ENDBRANCH   1   2
BRANCH   1   6
HETATM    6  C6  UNL     1      -3.085   8.599  20.475  1.00  0.00     0.069 C 
BRANCH   6   7
HETATM    7  C7  UNL     1      -2.821   9.951  19.900  1.00  0.00     0.053 A 
HETATM    8  C8  UNL     1      -1.715  10.735  19.873  1.00  0.00     0.035 A 
HETATM    9  C9  UNL     1      -2.023  11.903  19.204  1.00  0.00     0.037 A 
HETATM   10  C10 UNL     1      -3.354  11.743  18.854  1.00  0.00     0.076 A 
HETATM   11  O2  UNL     1      -3.788  10.594  19.274  1.00  0.00    -0.317 OA
BRANCH  10  12
HETATM   12  C11 UNL     1      -4.146  12.761  18.102  1.00  0.00     0.229 C 
BRANCH  12  13
HETATM   13  O1  UNL     1      -3.767  14.053  18.467  1.00  0.00    -0.394 OA
ATOM     14  H1  UNL     1      -3.487  14.550  17.707  1.00  0.00     0.209 HD
ENDBRANCH  12  13
ENDBRANCH  10  12
ENDBRANCH   6   7
ENDBRANCH   1   6
BRANCH   1  15
HETATM   15  C12 UNL     1      -3.368   6.234  19.744  1.00  0.00     0.013 C 
BRANCH  15  16
HETATM   16  C13 UNL     1      -3.993   5.604  18.578  1.00  0.00    -0.051 C 
HETATM   17  C14 UNL     1      -5.365   6.327  18.291  1.00  0.00     0.014 C 
HETATM   18  C15 UNL     1      -3.296   5.711  17.247  1.00  0.00     0.014 C 
HETATM   19  C16 UNL     1      -4.379   4.158  18.771  1.00  0.00     0.014 C 
ENDBRANCH  15  16
ENDBRANCH   1  15
TORSDOF 8
ENDMDL
MODEL 2
REMARK VINA RESULT: -5.807320296      0.775      3.159
REMARK  8 active torsions:
REMARK  status: ('A' for Active; 'I' for Inactive)
REMARK    1  A    between atoms: C2_2  and  C4_4 
REMARK    2  A    between atoms: C4_4  and  C5_5 
REMARK    3  A    between atoms: C5_5  and  C6_6 
REMARK    4  A    between atoms: C5_5  and  C12_15 
REMARK    5  A    between atoms: C6_6  and  C7_7 
REMARK    6  A    between atoms: C10_10  and  C11_11 
REMARK    7  A    between atoms: C11_11  and  O1_12 
REMARK    8  A    between atoms: C12_15  and  C13_16 
ROOT
HETATM    1  C5  UNL     1      -2.833   7.009  20.114  1.00  0.00    -0.007 C 
ENDROOT
BRANCH   1   2
HETATM    2  C4  UNL     1      -3.505   6.987  18.744  1.00  0.00     0.009 C 
BRANCH   2   3
HETATM    3  C2  UNL     1      -4.274   5.736  18.461  1.00  0.00    -0.022 C 
HETATM    4  C1  UNL     1      -3.594   5.084  17.260  1.00  0.00     0.009 C 
HETATM    5  C3  UNL     1      -5.702   5.951  18.095  1.00  0.00     0.009 C 
ENDBRANCH   2   3
ENDBRANCH   1   2
BRANCH   1   6
HETATM    6  C6  UNL     1      -3.308   8.255  20.766  1.00  0.00     0.069 C 
BRANCH   6   7
HETATM    7  C7  UNL     1      -2.911   9.522  20.083  1.00  0.00     0.053 A 
HETATM    8  C8  UNL     1      -1.732  10.187  19.999  1.00  0.00     0.035 A 
HETATM    9  C9  UNL     1      -1.923  11.320  19.234  1.00  0.00     0.037 A 
HETATM   10  C10 UNL     1      -3.263  11.265  18.889  1.00  0.00     0.076 A 
HETATM   11  O2  UNL     1      -3.809  10.204  19.400  1.00  0.00    -0.317 OA
BRANCH  10  12
HETATM   12  C11 UNL     1      -3.951  12.292  18.051  1.00  0.00     0.229 C 
BRANCH  12  13
HETATM   13  O1  UNL     1      -3.476  13.571  18.344  1.00  0.00    -0.394 OA
ATOM     14  H1  UNL     1      -3.840  14.211  17.744  1.00  0.00     0.209 HD
ENDBRANCH  12  13
ENDBRANCH  10  12
ENDBRANCH   6   7
ENDBRANCH   1   6
BRANCH   1  15
HETATM   15  C12 UNL     1      -1.378   6.881  19.995  1.00  0.00     0.013 C 
BRANCH  15  16
HETATM   16  C13 UNL     1      -0.656   5.614  20.146  1.00  0.00    -0.051 C 
HETATM   17  C14 UNL     1      -0.174   5.138  18.722  1.00  0.00     0.014 C 
HETATM   18  C15 UNL     1       0.630   5.613  20.931  1.00  0.00     0.014 C 
HETATM   19  C16 UNL     1      -1.493   4.465  20.649  1.00  0.00     0.014 C 
ENDBRANCH  15  16
ENDBRANCH   1  15
TORSDOF 8
ENDMDL
MODEL 3
REMARK VINA RESULT: -5.776228886      2.642      5.661
REMARK  8 active torsions:
REMARK  status: ('A' for Active; 'I' for Inactive)
REMARK    1  A    between atoms: C2_2  and  C4_4 
REMARK    2  A    between atoms: C4_4  and  C5_5 
REMARK    3  A    between atoms: C5_5  and  C6_6 
REMARK    4  A    between atoms: C5_5  and  C12_15 
REMARK    5  A    between atoms: C6_6  and  C7_7 
REMARK    6  A    between atoms: C10_10  and  C11_11 
REMARK    7  A    between atoms: C11_11  and  O1_12 
REMARK    8  A    between atoms: C12_15  and  C13_16 
ROOT
HETATM    1  C5  UNL     1      -2.629   8.206  19.965  1.00  0.00    -0.007 C 
ENDROOT
BRANCH   1   2
HETATM    2  C4  UNL     1      -2.623   9.663  20.421  1.00  0.00     0.009 C 
BRANCH   2   3
HETATM    3  C2  UNL     1      -2.067  10.616  19.412  1.00  0.00    -0.022 C 
HETATM    4  C1  UNL     1      -1.269  11.649  20.202  1.00  0.00     0.009 C 
HETATM    5  C3  UNL     1      -3.091  11.358  18.625  1.00  0.00     0.009 C 
ENDBRANCH   2   3
ENDBRANCH   1   2
BRANCH   1   6
HETATM    6  C6  UNL     1      -3.803   7.589  20.634  1.00  0.00     0.069 C 
BRANCH   6   7
HETATM    7  C7  UNL     1      -4.703   6.802  19.740  1.00  0.00     0.053 A 
HETATM    8  C8  UNL     1      -5.238   7.061  18.521  1.00  0.00     0.035 A 
HETATM    9  C9  UNL     1      -6.009   5.980  18.144  1.00  0.00     0.037 A 
HETATM   10  C10 UNL     1      -5.886   5.098  19.205  1.00  0.00     0.076 A 
HETATM   11  O2  UNL     1      -5.117   5.608  20.118  1.00  0.00    -0.317 OA
BRANCH  10  12
HETATM   12  C11 UNL     1      -6.551   3.763  19.261  1.00  0.00     0.229 C 
BRANCH  12  13
HETATM   13  O1  UNL     1      -7.339   3.553  18.128  1.00  0.00    -0.394 OA
ATOM     14  H1  UNL     1      -7.256   4.279  17.521  1.00  0.00     0.209 HD
ENDBRANCH  12  13
ENDBRANCH  10  12
ENDBRANCH   6   7
ENDBRANCH   1   6
BRANCH   1  15
HETATM   15  C12 UNL     1      -1.343   7.559  20.237  1.00  0.00     0.013 C 
BRANCH  15  16
HETATM   16  C13 UNL     1      -0.930   6.284  19.644  1.00  0.00    -0.051 C 
HETATM   17  C14 UNL     1      -0.897   5.189  20.779  1.00  0.00     0.014 C 
HETATM   18  C15 UNL     1      -1.830   5.648  18.617  1.00  0.00     0.014 C 
HETATM   19  C16 UNL     1       0.472   6.270  19.087  1.00  0.00     0.014 C 
ENDBRANCH  15  16
ENDBRANCH   1  15
TORSDOF 8
ENDMDL
MODEL 4
REMARK VINA RESULT: -5.770961844      2.648      5.608
REMARK  8 active torsions:
REMARK  status: ('A' for Active; 'I' for Inactive)
REMARK    1  A    between atoms: C2_2  and  C4_4 
REMARK    2  A    between atoms: C4_4  and  C5_5 
REMARK    3  A    between atoms: C5_5  and  C6_6 
REMARK    4  A    between atoms: C5_5  and  C12_15 
REMARK    5  A    between atoms: C6_6  and  C7_7 
REMARK    6  A    between atoms: C10_10  and  C11_11 
REMARK    7  A    between atoms: C11_11  and  O1_12 
REMARK    8  A    between atoms: C12_15  and  C13_16 
ROOT
HETATM    1  C5  UNL     1      -2.801   8.483  20.151  1.00  0.00    -0.007 C 
ENDROOT
BRANCH   1   2
HETATM    2  C4  UNL     1      -2.925   9.993  20.332  1.00  0.00     0.009 C 
BRANCH   2   3
HETATM    3  C2  UNL     1      -2.042  10.791  19.426  1.00  0.00    -0.022 C 
HETATM    4  C1  UNL     1      -1.275  11.756  20.326  1.00  0.00     0.009 C 
HETATM    5  C3  UNL     1      -2.765  11.613  18.416  1.00  0.00     0.009 C 
ENDBRANCH   2   3
ENDBRANCH   1   2
BRANCH   1   6
HETATM    6  C6  UNL     1      -1.342   8.207  20.134  1.00  0.00     0.069 C 
BRANCH   6   7
HETATM    7  C7  UNL     1      -0.968   6.770  19.978  1.00  0.00     0.053 A 
HETATM    8  C8  UNL     1      -0.188   6.118  19.079  1.00  0.00     0.035 A 
HETATM    9  C9  UNL     1      -0.182   4.776  19.399  1.00  0.00     0.037 A 
HETATM   10  C10 UNL     1      -0.993   4.698  20.520  1.00  0.00     0.076 A 
HETATM   11  O2  UNL     1      -1.433   5.878  20.830  1.00  0.00    -0.317 OA
BRANCH  10  12
HETATM   12  C11 UNL     1      -1.296   3.427  21.242  1.00  0.00     0.229 C 
BRANCH  12  13
HETATM   13  O1  UNL     1      -2.399   3.584  22.082  1.00  0.00    -0.394 OA
ATOM     14  H1  UNL     1      -2.212   3.250  22.951  1.00  0.00     0.209 HD
ENDBRANCH  12  13
ENDBRANCH  10  12
ENDBRANCH   6   7
ENDBRANCH   1   6
BRANCH   1  15
HETATM   15  C12 UNL     1      -3.537   8.026  18.970  1.00  0.00     0.013 C 
BRANCH  15  16
HETATM   16  C13 UNL     1      -4.429   6.863  18.964  1.00  0.00    -0.051 C 
HETATM   17  C14 UNL     1      -3.881   5.816  17.920  1.00  0.00     0.014 C 
HETATM   18  C15 UNL     1      -4.532   6.034  20.218  1.00  0.00     0.014 C 
HETATM   19  C16 UNL     1      -5.834   7.145  18.492  1.00  0.00     0.014 C 
ENDBRANCH  15  16
ENDBRANCH   1  15
TORSDOF 8
ENDMDL
MODEL 5
REMARK VINA RESULT: -5.753522735      0.768      3.218
REMARK  8 active torsions:
REMARK  status: ('A' for Active; 'I' for Inactive)
REMARK    1  A    between atoms: C2_2  and  C4_4 
REMARK    2  A    between atoms: C4_4  and  C5_5 
REMARK    3  A    between atoms: C5_5  and  C6_6 
REMARK    4  A    between atoms: C5_5  and  C12_15 
REMARK    5  A    between atoms: C6_6  and  C7_7 
REMARK    6  A    between atoms: C10_10  and  C11_11 
REMARK    7  A    between atoms: C11_11  and  O1_12 
REMARK    8  A    between atoms: C12_15  and  C13_16 
ROOT
HETATM    1  C5  UNL     1      -2.842   6.997  20.121  1.00  0.00    -0.007 C 
ENDROOT
BRANCH   1   2
HETATM    2  C4  UNL     1      -3.466   6.979  18.728  1.00  0.00     0.009 C 
BRANCH   2   3
HETATM    3  C2  UNL     1      -4.239   5.736  18.421  1.00  0.00    -0.022 C 
HETATM    4  C1  UNL     1      -3.558   5.104  17.210  1.00  0.00     0.009 C 
HETATM    5  C3  UNL     1      -5.665   5.963  18.056  1.00  0.00     0.009 C 
ENDBRANCH   2   3
ENDBRANCH   1   2
BRANCH   1   6
HETATM    6  C6  UNL     1      -3.326   8.250  20.754  1.00  0.00     0.069 C 
BRANCH   6   7
HETATM    7  C7  UNL     1      -2.909   9.510  20.072  1.00  0.00     0.053 A 
HETATM    8  C8  UNL     1      -1.717  10.152  19.983  1.00  0.00     0.035 A 
HETATM    9  C9  UNL     1      -1.891  11.291  19.222  1.00  0.00     0.037 A 
HETATM   10  C10 UNL     1      -3.234  11.263  18.885  1.00  0.00     0.076 A 
HETATM   11  O2  UNL     1      -3.797  10.212  19.396  1.00  0.00    -0.317 OA
BRANCH  10  12
HETATM   12  C11 UNL     1      -3.906  12.305  18.053  1.00  0.00     0.229 C 
BRANCH  12  13
HETATM   13  O1  UNL     1      -3.443  13.579  18.382  1.00  0.00    -0.394 OA
ATOM     14  H1  UNL     1      -2.982  13.971  17.650  1.00  0.00     0.209 HD
ENDBRANCH  12  13
ENDBRANCH  10  12
ENDBRANCH   6   7
ENDBRANCH   1   6
BRANCH   1  15
HETATM   15  C12 UNL     1      -1.386   6.853  20.053  1.00  0.00     0.013 C 
BRANCH  15  16
HETATM   16  C13 UNL     1      -0.696   5.562  19.970  1.00  0.00    -0.051 C 
HETATM   17  C14 UNL     1       0.541   5.590  20.947  1.00  0.00     0.014 C 
HETATM   18  C15 UNL     1      -1.431   4.329  20.424  1.00  0.00     0.014 C 
HETATM   19  C16 UNL     1      -0.088   5.256  18.624  1.00  0.00     0.014 C 
ENDBRANCH  15  16
ENDBRANCH   1  15
TORSDOF 8
ENDMDL
