MODEL 1
REMARK VINA RESULT: -7.269826194      0.000      0.000
REMARK  8 active torsions:
REMARK  status: ('A' for Active; 'I' for Inactive)
REMARK    1  A    between atoms: C2_2  and  C3_3 
REMARK    2  A    between atoms: C3_3  and  C4_4 
REMARK    3  A    between atoms: C4_4  and  C5_5 
REMARK    4  A    between atoms: C5_5  and  C6_6 
REMARK    5  A    between atoms: C6_6  and  C7_7 
REMARK    6  A    between atoms: C7_7  and  C8_9 
REMARK    7  A    between atoms: C10_11  and  C11_12 
REMARK    8  A    between atoms: C13_14  and  O2_15 
ROOT
HETATM    1  C8  UNL     1      -3.243  10.768  19.243  1.00  0.00     0.016 A 
HETATM    2  C9  UNL     1      -4.034   9.622  19.030  1.00  0.00     0.025 A 
HETATM    3  C10 UNL     1      -3.658   8.359  19.435  1.00  0.00    -0.024 A 
HETATM    4  C13 UNL     1      -2.445   8.244  20.076  1.00  0.00     0.072 A 
HETATM    5  C14 UNL     1      -1.634   9.329  20.311  1.00  0.00     0.044 A 
HETATM    6  C15 UNL     1      -2.047  10.612  19.884  1.00  0.00    -0.045 A 
HETATM    7  C16 UNL     1      -1.138  11.725  20.159  1.00  0.00     0.049 C 
ENDROOT
BRANCH   1   8
HETATM    8  C7  UNL     1      -3.698  12.057  18.806  1.00  0.00     0.160 C 
HETATM    9  O1  UNL     1      -4.903  12.386  18.974  1.00  0.00    -0.292 OA
BRANCH   8  10
HETATM   10  C6  UNL     1      -2.875  13.108  18.145  1.00  0.00     0.084 C 
BRANCH  10  11
HETATM   11  C5  UNL     1      -3.520  14.464  18.300  1.00  0.00     0.008 C 
BRANCH  11  12
HETATM   12  C4  UNL     1      -2.523  15.536  18.659  1.00  0.00     0.004 C 
BRANCH  12  13
HETATM   13  C3  UNL     1      -2.974  16.910  18.316  1.00  0.00     0.026 C 
BRANCH  13  14
HETATM   14  C2  UNL     1      -4.296  16.811  17.625  1.00  0.00    -0.037 C 
HETATM   15  C1  UNL     1      -5.032  17.859  17.292  1.00  0.00     0.007 C 
ENDBRANCH  13  14
ENDBRANCH  12  13
ENDBRANCH  11  12
ENDBRANCH  10  11
ENDBRANCH   8  10
ENDBRANCH   1   8
BRANCH   3  16
HETATM   16  C11 UNL     1      -4.528   7.180  19.185  1.00  0.00     0.037 C 
HETATM   17  C12 UNL     1      -5.995   7.521  19.300  1.00  0.00     0.010 C 
ENDBRANCH   3  16
BRANCH   4  18
HETATM   18  O2  UNL     1      -2.078   6.964  20.479  1.00  0.00    -0.360 OA
ATOM     19  H2  UNL     1      -2.416   6.671  21.317  1.00  0.00     0.217 HD
ENDBRANCH   4  18
TORSDOF 8
ENDMDL
MODEL 2
REMARK VINA RESULT: -7.030061445      2.004      7.316
REMARK  8 active torsions:
REMARK  status: ('A' for Active; 'I' for Inactive)
REMARK    1  A    between atoms: C2_2  and  C3_3 
REMARK    2  A    between atoms: C3_3  and  C4_4 
REMARK    3  A    between atoms: C4_4  and  C5_5 
REMARK    4  A    between atoms: C5_5  and  C6_6 
REMARK    5  A    between atoms: C6_6  and  C7_7 
REMARK    6  A    between atoms: C7_7  and  C8_9 
REMARK    7  A    between atoms: C10_11  and  C11_12 
REMARK    8  A    between atoms: C13_14  and  O2_15 
ROOT
HETATM    1  C8  UNL     1      -3.716  14.377  18.221  1.00  0.00     0.016 A 
HETATM    2  C9  UNL     1      -4.645  15.267  17.648  1.00  0.00     0.025 A 
HETATM    3  C10 UNL     1      -4.458  16.632  17.610  1.00  0.00    -0.024 A 
HETATM    4  C13 UNL     1      -3.297  17.120  18.166  1.00  0.00     0.072 A 
HETATM    5  C14 UNL     1      -2.356  16.296  18.737  1.00  0.00     0.044 A 
HETATM    6  C15 UNL     1      -2.575  14.900  18.762  1.00  0.00    -0.045 A 
HETATM    7  C16 UNL     1      -1.539  14.077  19.387  1.00  0.00     0.049 C 
ENDROOT
BRANCH   1   8
HETATM    8  C7  UNL     1      -3.966  12.963  18.219  1.00  0.00     0.160 C 
HETATM    9  O1  UNL     1      -4.191  12.369  17.130  1.00  0.00    -0.292 OA
BRANCH   8  10
HETATM   10  C6  UNL     1      -3.990  12.068  19.408  1.00  0.00     0.084 C 
BRANCH  10  11
HETATM   11  C5  UNL     1      -3.368  10.732  19.081  1.00  0.00     0.008 C 
BRANCH  11  12
HETATM   12  C4  UNL     1      -2.048  10.528  19.780  1.00  0.00     0.004 C 
BRANCH  12  13
HETATM   13  C3  UNL     1      -1.813   9.126  20.215  1.00  0.00     0.026 C 
BRANCH  13  14
HETATM   14  C2  UNL     1      -3.138   8.441  20.324  1.00  0.00    -0.037 C 
HETATM   15  C1  UNL     1      -3.359   7.386  21.091  1.00  0.00     0.007 C 
ENDBRANCH  13  14
ENDBRANCH  12  13
ENDBRANCH  11  12
ENDBRANCH  10  11
ENDBRANCH   8  10
ENDBRANCH   1   8
BRANCH   3  16
HETATM   16  C11 UNL     1      -5.470  17.531  16.995  1.00  0.00     0.037 C 
HETATM   17  C12 UNL     1      -5.719  17.198  15.543  1.00  0.00     0.010 C 
ENDBRANCH   3  16
BRANCH   4  18
HETATM   18  O2  UNL     1      -3.121  18.499  18.121  1.00  0.00    -0.360 OA
ATOM     19  H2  UNL     1      -2.798  18.911  18.915  1.00  0.00     0.217 HD
ENDBRANCH   4  18
TORSDOF 8
ENDMDL
MODEL 3
REMARK VINA RESULT: -7.022199628      2.389      4.400
REMARK  8 active torsions:
REMARK  status: ('A' for Active; 'I' for Inactive)
REMARK    1  A    between atoms: C2_2  and  C3_3 
REMARK    2  A    between atoms: C3_3  and  C4_4 
REMARK    3  A    between atoms: C4_4  and  C5_5 
REMARK    4  A    between atoms: C5_5  and  C6_6 
REMARK    5  A    between atoms: C6_6  and  C7_7 
REMARK    6  A    between atoms: C7_7  and  C8_9 
REMARK    7  A    between atoms: C10_11  and  C11_12 
REMARK    8  A    between atoms: C13_14  and  O2_15 
ROOT
HETATM    1  C8  UNL     1      -3.517  14.671  17.956  1.00  0.00     0.016 A 
HETATM    2  C9  UNL     1      -3.783  13.289  18.007  1.00  0.00     0.025 A 
HETATM    3  C10 UNL     1      -3.075  12.413  18.802  1.00  0.00    -0.024 A 
HETATM    4  C13 UNL     1      -2.064  12.945  19.572  1.00  0.00     0.072 A 
HETATM    5  C14 UNL     1      -1.764  14.286  19.561  1.00  0.00     0.044 A 
HETATM    6  C15 UNL     1      -2.507  15.160  18.736  1.00  0.00    -0.045 A 
HETATM    7  C16 UNL     1      -2.135  16.576  18.766  1.00  0.00     0.049 C 
ENDROOT
BRANCH   1   8
HETATM    8  C7  UNL     1      -4.299  15.532  17.115  1.00  0.00     0.160 C 
HETATM    9  O1  UNL     1      -4.443  15.251  15.894  1.00  0.00    -0.292 OA
BRANCH   8  10
HETATM   10  C6  UNL     1      -4.997  16.780  17.530  1.00  0.00     0.084 C 
BRANCH  10  11
HETATM   11  C5  UNL     1      -5.179  17.705  16.351  1.00  0.00     0.008 C 
BRANCH  11  12
HETATM   12  C4  UNL     1      -4.095  18.749  16.267  1.00  0.00     0.004 C 
BRANCH  12  13
HETATM   13  C3  UNL     1      -4.472  19.938  15.459  1.00  0.00     0.026 C 
BRANCH  13  14
HETATM   14  C2  UNL     1      -4.931  19.465  14.115  1.00  0.00    -0.037 C 
HETATM   15  C1  UNL     1      -5.356  20.274  13.158  1.00  0.00     0.007 C 
ENDBRANCH  13  14
ENDBRANCH  12  13
ENDBRANCH  11  12
ENDBRANCH  10  11
ENDBRANCH   8  10
ENDBRANCH   1   8
BRANCH   3  16
HETATM   16  C11 UNL     1      -3.393  10.961  18.819  1.00  0.00     0.037 C 
HETATM   17  C12 UNL     1      -4.876  10.702  18.695  1.00  0.00     0.010 C 
ENDBRANCH   3  16
BRANCH   4  18
HETATM   18  O2  UNL     1      -1.358  12.049  20.369  1.00  0.00    -0.360 OA
ATOM     19  H2  UNL     1      -0.627  12.406  20.859  1.00  0.00     0.217 HD
ENDBRANCH   4  18
TORSDOF 8
ENDMDL
MODEL 4
REMARK VINA RESULT: -6.981787282      1.648      3.033
REMARK  8 active torsions:
REMARK  status: ('A' for Active; 'I' for Inactive)
REMARK    1  A    between atoms: C2_2  and  C3_3 
REMARK    2  A    between atoms: C3_3  and  C4_4 
REMARK    3  A    between atoms: C4_4  and  C5_5 
REMARK    4  A    between atoms: C5_5  and  C6_6 
REMARK    5  A    between atoms: C6_6  and  C7_7 
REMARK    6  A    between atoms: C7_7  and  C8_9 
REMARK    7  A    between atoms: C10_11  and  C11_12 
REMARK    8  A    between atoms: C13_14  and  O2_15 
ROOT
HETATM    1  C8  UNL     1      -2.717   9.392  19.795  1.00  0.00     0.016 A 
HETATM    2  C9  UNL     1      -1.638   8.539  20.097  1.00  0.00     0.025 A 
HETATM    3  C10 UNL     1      -1.704   7.167  19.976  1.00  0.00    -0.024 A 
HETATM    4  C13 UNL     1      -2.895   6.634  19.537  1.00  0.00     0.072 A 
HETATM    5  C14 UNL     1      -3.979   7.422  19.228  1.00  0.00     0.044 A 
HETATM    6  C15 UNL     1      -3.882   8.825  19.361  1.00  0.00    -0.045 A 
HETATM    7  C16 UNL     1      -5.072   9.607  19.020  1.00  0.00     0.049 C 
ENDROOT
BRANCH   1   8
HETATM    8  C7  UNL     1      -2.581  10.815  19.932  1.00  0.00     0.160 C 
HETATM    9  O1  UNL     1      -2.954  11.379  20.997  1.00  0.00    -0.292 OA
BRANCH   8  10
HETATM   10  C6  UNL     1      -2.021  11.752  18.920  1.00  0.00     0.084 C 
BRANCH  10  11
HETATM   11  C5  UNL     1      -2.613  13.130  19.087  1.00  0.00     0.008 C 
BRANCH  11  12
HETATM   12  C4  UNL     1      -3.901  13.299  18.323  1.00  0.00     0.004 C 
BRANCH  12  13
HETATM   13  C3  UNL     1      -4.204  14.710  17.967  1.00  0.00     0.026 C 
BRANCH  13  14
HETATM   14  C2  UNL     1      -3.012  15.546  18.309  1.00  0.00    -0.037 C 
HETATM   15  C1  UNL     1      -3.016  16.869  18.300  1.00  0.00     0.007 C 
ENDBRANCH  13  14
ENDBRANCH  12  13
ENDBRANCH  11  12
ENDBRANCH  10  11
ENDBRANCH   8  10
ENDBRANCH   1   8
BRANCH   3  16
HETATM   16  C11 UNL     1      -0.537   6.308  20.309  1.00  0.00     0.037 C 
HETATM   17  C12 UNL     1       0.371   6.096  19.120  1.00  0.00     0.010 C 
ENDBRANCH   3  16
BRANCH   4  18
HETATM   18  O2  UNL     1      -2.948   5.249  19.420  1.00  0.00    -0.360 OA
ATOM     19  H2  UNL     1      -3.357   4.780  20.137  1.00  0.00     0.217 HD
ENDBRANCH   4  18
TORSDOF 8
ENDMDL
MODEL 5
REMARK VINA RESULT: -6.960654049      2.137      7.375
REMARK  8 active torsions:
REMARK  status: ('A' for Active; 'I' for Inactive)
REMARK    1  A    between atoms: C2_2  and  C3_3 
REMARK    2  A    between atoms: C3_3  and  C4_4 
REMARK    3  A    between atoms: C4_4  and  C5_5 
REMARK    4  A    between atoms: C5_5  and  C6_6 
REMARK    5  A    between atoms: C6_6  and  C7_7 
REMARK    6  A    between atoms: C7_7  and  C8_9 
REMARK    7  A    between atoms: C10_11  and  C11_12 
REMARK    8  A    between atoms: C13_14  and  O2_15 
ROOT
HETATM    1  C8  UNL     1      -2.812  13.339  19.085  1.00  0.00     0.016 A 
HETATM    2  C9  UNL     1      -2.369  14.673  19.003  1.00  0.00     0.025 A 
HETATM    3  C10 UNL     1      -2.999  15.632  18.239  1.00  0.00    -0.024 A 
HETATM    4  C13 UNL     1      -4.113  15.236  17.532  1.00  0.00     0.072 A 
HETATM    5  C14 UNL     1      -4.589  13.947  17.578  1.00  0.00     0.044 A 
HETATM    6  C15 UNL     1      -3.922  12.985  18.371  1.00  0.00    -0.045 A 
HETATM    7  C16 UNL     1      -4.474  11.630  18.373  1.00  0.00     0.049 C 
ENDROOT
BRANCH   1   8
HETATM    8  C7  UNL     1      -2.116  12.391  19.908  1.00  0.00     0.160 C 
HETATM    9  O1  UNL     1      -2.219  12.457  21.163  1.00  0.00    -0.292 OA
BRANCH   8  10
HETATM   10  C6  UNL     1      -1.244  11.280  19.435  1.00  0.00     0.084 C 
BRANCH  10  11
HETATM   11  C5  UNL     1      -1.396  10.069  20.324  1.00  0.00     0.008 C 
BRANCH  11  12
HETATM   12  C4  UNL     1      -2.615   9.252  19.978  1.00  0.00     0.004 C 
BRANCH  12  13
HETATM   13  C3  UNL     1      -2.456   7.800  20.247  1.00  0.00     0.026 C 
BRANCH  13  14
HETATM   14  C2  UNL     1      -1.006   7.455  20.123  1.00  0.00    -0.037 C 
HETATM   15  C1  UNL     1      -0.559   6.356  19.537  1.00  0.00     0.007 C 
ENDBRANCH  13  14
ENDBRANCH  12  13
ENDBRANCH  11  12
ENDBRANCH  10  11
ENDBRANCH   8  10
ENDBRANCH   1   8
BRANCH   3  16
HETATM   16  C11 UNL     1      -2.492  17.028  18.183  1.00  0.00     0.037 C 
HETATM   17  C12 UNL     1      -3.608  18.043  18.263  1.00  0.00     0.010 C 
ENDBRANCH   3  16
BRANCH   4  18
HETATM   18  O2  UNL     1      -4.739  16.214  16.765  1.00  0.00    -0.360 OA
ATOM     19  H2  UNL     1      -4.802  16.043  15.833  1.00  0.00     0.217 HD
ENDBRANCH   4  18
TORSDOF 8
ENDMDL
