MODEL 1
REMARK VINA RESULT: -8.013121159      0.000      0.000
REMARK  9 active torsions:
REMARK  status: ('A' for Active; 'I' for Inactive)
REMARK    1  A    between atoms: C2_2  and  C3_3 
REMARK    2  A    between atoms: C3_3  and  C6_6 
REMARK    3  A    between atoms: C6_6  and  C7_7 
REMARK    4  A    between atoms: C7_7  and  O1_8 
REMARK    5  A    between atoms: C7_7  and  C8_10 
REMARK    6  A    between atoms: C8_10  and  C9_11 
REMARK    7  A    between atoms: C9_11  and  C10_12 
REMARK    8  A    between atoms: C10_12  and  O2_13 
REMARK    9  A    between atoms: O2_13  and  C11_14 
ROOT
HETATM    1  C9  UNL     1      -4.235  13.349  18.147  1.00  0.00     0.029 C 
ENDROOT
BRANCH   1   2
HETATM    2  C8  UNL     1      -2.988  14.098  18.553  1.00  0.00     0.034 C 
BRANCH   2   3
HETATM    3  C7  UNL     1      -3.098  15.583  18.296  1.00  0.00     0.122 C 
BRANCH   3   4
HETATM    4  C6  UNL     1      -2.822  15.804  16.835  1.00  0.00     0.070 C 
BRANCH   4   5
HETATM    5  C3  UNL     1      -3.951  16.236  16.022  1.00  0.00    -0.061 C 
HETATM    6  C4  UNL     1      -4.209  15.762  14.827  1.00  0.00    -0.024 C 
HETATM    7  C5  UNL     1      -5.411  16.271  14.087  1.00  0.00     0.036 C 
BRANCH   5   8
HETATM    8  C2  UNL     1      -4.844  17.246  16.591  1.00  0.00    -0.004 C 
HETATM    9  C1  UNL     1      -4.440  18.484  16.773  1.00  0.00     0.012 C 
ENDBRANCH   5   8
ENDBRANCH   4   5
ENDBRANCH   3   4
BRANCH   3  10
HETATM   10  O1  UNL     1      -2.172  16.307  19.033  1.00  0.00    -0.395 OA
ATOM     11  H1  UNL     1      -2.018  15.852  19.853  1.00  0.00     0.210 HD
ENDBRANCH   3  10
ENDBRANCH   2   3
ENDBRANCH   1   2
BRANCH   1  12
HETATM   12  C10 UNL     1      -4.441  12.082  18.896  1.00  0.00     0.175 C 
BRANCH  12  13
HETATM   13  O2  UNL     1      -3.471  11.156  18.588  1.00  0.00    -0.351 OA
BRANCH  13  14
HETATM   14  C11 UNL     1      -3.089   9.955  19.071  1.00  0.00     0.075 A 
HETATM   15  C12 UNL     1      -3.824   8.796  19.065  1.00  0.00     0.044 A 
HETATM   16  C13 UNL     1      -3.368   7.585  19.584  1.00  0.00    -0.059 A 
HETATM   17  C14 UNL     1      -4.208   6.356  19.551  1.00  0.00     0.048 C 
HETATM   18  C15 UNL     1      -2.104   7.579  20.130  1.00  0.00     0.007 A 
HETATM   19  C16 UNL     1      -1.356   8.732  20.145  1.00  0.00     0.010 A 
HETATM   20  C17 UNL     1      -1.801   9.921  19.635  1.00  0.00    -0.029 A 
HETATM   21  C18 UNL     1      -0.943  11.147  19.677  1.00  0.00     0.051 C 
ENDBRANCH  13  14
ENDBRANCH  12  13
ENDBRANCH   1  12
TORSDOF 9
ENDMDL
MODEL 2
REMARK VINA RESULT: -7.903222531      0.994      1.755
REMARK  9 active torsions:
REMARK  status: ('A' for Active; 'I' for Inactive)
REMARK    1  A    between atoms: C2_2  and  C3_3 
REMARK    2  A    between atoms: C3_3  and  C6_6 
REMARK    3  A    between atoms: C6_6  and  C7_7 
REMARK    4  A    between atoms: C7_7  and  O1_8 
REMARK    5  A    between atoms: C7_7  and  C8_10 
REMARK    6  A    between atoms: C8_10  and  C9_11 
REMARK    7  A    between atoms: C9_11  and  C10_12 
REMARK    8  A    between atoms: C10_12  and  O2_13 
REMARK    9  A    between atoms: O2_13  and  C11_14 
ROOT
HETATM    1  C9  UNL     1      -3.455  14.016  18.238  1.00  0.00     0.029 C 
ENDROOT
BRANCH   1   2
HETATM    2  C8  UNL     1      -4.442  15.110  17.906  1.00  0.00     0.034 C 
BRANCH   2   3
HETATM    3  C7  UNL     1      -3.773  16.452  17.721  1.00  0.00     0.122 C 
BRANCH   3   4
HETATM    4  C6  UNL     1      -3.478  16.605  16.255  1.00  0.00     0.070 C 
BRANCH   4   5
HETATM    5  C3  UNL     1      -4.153  17.701  15.571  1.00  0.00    -0.061 C 
HETATM    6  C4  UNL     1      -4.067  18.953  15.948  1.00  0.00    -0.024 C 
HETATM    7  C5  UNL     1      -4.793  20.002  15.157  1.00  0.00     0.036 C 
BRANCH   5   8
HETATM    8  C2  UNL     1      -4.955  17.369  14.394  1.00  0.00    -0.004 C 
HETATM    9  C1  UNL     1      -5.103  16.122  14.002  1.00  0.00     0.012 C 
ENDBRANCH   5   8
ENDBRANCH   4   5
ENDBRANCH   3   4
BRANCH   3  10
HETATM   10  O1  UNL     1      -2.577  16.537  18.421  1.00  0.00    -0.395 OA
ATOM     11  H1  UNL     1      -2.162  17.365  18.209  1.00  0.00     0.210 HD
ENDBRANCH   3  10
ENDBRANCH   2   3
ENDBRANCH   1   2
BRANCH   1  12
HETATM   12  C10 UNL     1      -4.065  12.662  18.305  1.00  0.00     0.175 C 
BRANCH  12  13
HETATM   13  O2  UNL     1      -3.500  11.908  19.307  1.00  0.00    -0.351 OA
BRANCH  13  14
HETATM   14  C11 UNL     1      -3.077  10.633  19.441  1.00  0.00     0.075 A 
HETATM   15  C12 UNL     1      -3.814   9.497  19.216  1.00  0.00     0.044 A 
HETATM   16  C13 UNL     1      -3.315   8.204  19.375  1.00  0.00    -0.059 A 
HETATM   17  C14 UNL     1      -4.157   7.004  19.116  1.00  0.00     0.048 C 
HETATM   18  C15 UNL     1      -2.005   8.090  19.784  1.00  0.00     0.007 A 
HETATM   19  C16 UNL     1      -1.255   9.218  20.015  1.00  0.00     0.010 A 
HETATM   20  C17 UNL     1      -1.742  10.487  19.859  1.00  0.00    -0.029 A 
HETATM   21  C18 UNL     1      -0.881  11.683  20.124  1.00  0.00     0.051 C 
ENDBRANCH  13  14
ENDBRANCH  12  13
ENDBRANCH   1  12
TORSDOF 9
ENDMDL
MODEL 3
REMARK VINA RESULT: -7.794594997      0.476      1.418
REMARK  9 active torsions:
REMARK  status: ('A' for Active; 'I' for Inactive)
REMARK    1  A    between atoms: C2_2  and  C3_3 
REMARK    2  A    between atoms: C3_3  and  C6_6 
REMARK    3  A    between atoms: C6_6  and  C7_7 
REMARK    4  A    between atoms: C7_7  and  O1_8 
REMARK    5  A    between atoms: C7_7  and  C8_10 
REMARK    6  A    between atoms: C8_10  and  C9_11 
REMARK    7  A    between atoms: C9_11  and  C10_12 
REMARK    8  A    between atoms: C10_12  and  O2_13 
REMARK    9  A    between atoms: O2_13  and  C11_14 
ROOT
HETATM    1  C9  UNL     1      -4.233  13.369  18.076  1.00  0.00     0.029 C 
ENDROOT
BRANCH   1   2
HETATM    2  C8  UNL     1      -3.088  14.145  18.682  1.00  0.00     0.034 C 
BRANCH   2   3
HETATM    3  C7  UNL     1      -3.140  15.615  18.336  1.00  0.00     0.122 C 
BRANCH   3   4
HETATM    4  C6  UNL     1      -3.101  15.721  16.837  1.00  0.00     0.070 C 
BRANCH   4   5
HETATM    5  C3  UNL     1      -3.849  16.823  16.247  1.00  0.00    -0.061 C 
HETATM    6  C4  UNL     1      -3.904  18.024  16.769  1.00  0.00    -0.024 C 
HETATM    7  C5  UNL     1      -4.695  19.088  16.065  1.00  0.00     0.036 C 
BRANCH   5   8
HETATM    8  C2  UNL     1      -4.563  16.561  14.997  1.00  0.00    -0.004 C 
HETATM    9  C1  UNL     1      -4.585  15.357  14.468  1.00  0.00     0.012 C 
ENDBRANCH   5   8
ENDBRANCH   4   5
ENDBRANCH   3   4
BRANCH   3  10
HETATM   10  O1  UNL     1      -2.056  16.309  18.855  1.00  0.00    -0.395 OA
ATOM     11  H1  UNL     1      -2.357  16.831  19.590  1.00  0.00     0.210 HD
ENDBRANCH   3  10
ENDBRANCH   2   3
ENDBRANCH   1   2
BRANCH   1  12
HETATM   12  C10 UNL     1      -4.503  12.075  18.754  1.00  0.00     0.175 C 
BRANCH  12  13
HETATM   13  O2  UNL     1      -3.488  11.173  18.532  1.00  0.00    -0.351 OA
BRANCH  13  14
HETATM   14  C11 UNL     1      -3.123   9.978  19.044  1.00  0.00     0.075 A 
HETATM   15  C12 UNL     1      -3.887   8.840  19.095  1.00  0.00     0.044 A 
HETATM   16  C13 UNL     1      -3.448   7.634  19.641  1.00  0.00    -0.059 A 
HETATM   17  C14 UNL     1      -4.318   6.426  19.670  1.00  0.00     0.048 C 
HETATM   18  C15 UNL     1      -2.170   7.613  20.155  1.00  0.00     0.007 A 
HETATM   19  C16 UNL     1      -1.393   8.746  20.113  1.00  0.00     0.010 A 
HETATM   20  C17 UNL     1      -1.821   9.930  19.577  1.00  0.00    -0.029 A 
HETATM   21  C18 UNL     1      -0.933  11.134  19.557  1.00  0.00     0.051 C 
ENDBRANCH  13  14
ENDBRANCH  12  13
ENDBRANCH   1  12
TORSDOF 9
ENDMDL
MODEL 4
REMARK VINA RESULT: -7.760605716      1.393      8.278
REMARK  9 active torsions:
REMARK  status: ('A' for Active; 'I' for Inactive)
REMARK    1  A    between atoms: C2_2  and  C3_3 
REMARK    2  A    between atoms: C3_3  and  C6_6 
REMARK    3  A    between atoms: C6_6  and  C7_7 
REMARK    4  A    between atoms: C7_7  and  O1_8 
REMARK    5  A    between atoms: C7_7  and  C8_10 
REMARK    6  A    between atoms: C8_10  and  C9_11 
REMARK    7  A    between atoms: C9_11  and  C10_12 
REMARK    8  A    between atoms: C10_12  and  O2_13 
REMARK    9  A    between atoms: O2_13  and  C11_14 
ROOT
HETATM    1  C9  UNL     1      -2.721  14.364  18.656  1.00  0.00     0.029 C 
ENDROOT
BRANCH   1   2
HETATM    2  C8  UNL     1      -3.889  13.495  18.257  1.00  0.00     0.034 C 
BRANCH   2   3
HETATM    3  C7  UNL     1      -3.848  12.135  18.916  1.00  0.00     0.122 C 
BRANCH   3   4
HETATM    4  C6  UNL     1      -2.645  11.415  18.374  1.00  0.00     0.070 C 
BRANCH   4   5
HETATM    5  C3  UNL     1      -1.995  10.474  19.277  1.00  0.00    -0.061 C 
HETATM    6  C4  UNL     1      -2.054   9.172  19.135  1.00  0.00    -0.024 C 
HETATM    7  C5  UNL     1      -1.331   8.299  20.118  1.00  0.00     0.036 C 
BRANCH   5   8
HETATM    8  C2  UNL     1      -1.228  11.030  20.392  1.00  0.00    -0.004 C 
HETATM    9  C1  UNL     1      -0.415  12.049  20.215  1.00  0.00     0.012 C 
ENDBRANCH   5   8
ENDBRANCH   4   5
ENDBRANCH   3   4
BRANCH   3  10
HETATM   10  O1  UNL     1      -4.979  11.384  18.626  1.00  0.00    -0.395 OA
ATOM     11  H1  UNL     1      -4.977  10.612  19.180  1.00  0.00     0.210 HD
ENDBRANCH   3  10
ENDBRANCH   2   3
ENDBRANCH   1   2
BRANCH   1  12
HETATM   12  C10 UNL     1      -2.774  15.735  18.086  1.00  0.00     0.175 C 
BRANCH  12  13
HETATM   13  O2  UNL     1      -3.170  15.714  16.769  1.00  0.00    -0.351 OA
BRANCH  13  14
HETATM   14  C11 UNL     1      -3.817  16.559  15.937  1.00  0.00     0.075 A 
HETATM   15  C12 UNL     1      -3.836  17.928  16.011  1.00  0.00     0.044 A 
HETATM   16  C13 UNL     1      -4.528  18.744  15.117  1.00  0.00    -0.059 A 
HETATM   17  C14 UNL     1      -4.516  20.228  15.242  1.00  0.00     0.048 C 
HETATM   18  C15 UNL     1      -5.226  18.113  14.111  1.00  0.00     0.007 A 
HETATM   19  C16 UNL     1      -5.217  16.741  14.024  1.00  0.00     0.010 A 
HETATM   20  C17 UNL     1      -4.538  15.939  14.900  1.00  0.00    -0.029 A 
HETATM   21  C18 UNL     1      -4.563  14.449  14.760  1.00  0.00     0.051 C 
ENDBRANCH  13  14
ENDBRANCH  12  13
ENDBRANCH   1  12
TORSDOF 9
ENDMDL
MODEL 5
REMARK VINA RESULT: -7.726689922      1.331      8.230
REMARK  9 active torsions:
REMARK  status: ('A' for Active; 'I' for Inactive)
REMARK    1  A    between atoms: C2_2  and  C3_3 
REMARK    2  A    between atoms: C3_3  and  C6_6 
REMARK    3  A    between atoms: C6_6  and  C7_7 
REMARK    4  A    between atoms: C7_7  and  O1_8 
REMARK    5  A    between atoms: C7_7  and  C8_10 
REMARK    6  A    between atoms: C8_10  and  C9_11 
REMARK    7  A    between atoms: C9_11  and  C10_12 
REMARK    8  A    between atoms: C10_12  and  O2_13 
REMARK    9  A    between atoms: O2_13  and  C11_14 
ROOT
HETATM    1  C9  UNL     1      -2.657  14.054  18.607  1.00  0.00     0.029 C 
ENDROOT
BRANCH   1   2
HETATM    2  C8  UNL     1      -3.872  13.227  18.261  1.00  0.00     0.034 C 
BRANCH   2   3
HETATM    3  C7  UNL     1      -4.113  12.113  19.254  1.00  0.00     0.122 C 
BRANCH   3   4
HETATM    4  C6  UNL     1      -2.800  11.825  19.927  1.00  0.00     0.070 C 
BRANCH   4   5
HETATM    5  C3  UNL     1      -2.256  10.487  19.737  1.00  0.00    -0.061 C 
HETATM    6  C4  UNL     1      -2.683   9.431  20.387  1.00  0.00    -0.024 C 
HETATM    7  C5  UNL     1      -2.059   8.098  20.098  1.00  0.00     0.036 C 
BRANCH   5   8
HETATM    8  C2  UNL     1      -1.185  10.327  18.754  1.00  0.00    -0.004 C 
HETATM    9  C1  UNL     1      -1.448  10.265  17.467  1.00  0.00     0.012 C 
ENDBRANCH   5   8
ENDBRANCH   4   5
ENDBRANCH   3   4
BRANCH   3  10
HETATM   10  O1  UNL     1      -4.553  10.952  18.634  1.00  0.00    -0.395 OA
ATOM     11  H1  UNL     1      -4.873  11.176  17.768  1.00  0.00     0.210 HD
ENDBRANCH   3  10
ENDBRANCH   2   3
ENDBRANCH   1   2
BRANCH   1  12
HETATM   12  C10 UNL     1      -2.708  15.441  18.076  1.00  0.00     0.175 C 
BRANCH  12  13
HETATM   13  O2  UNL     1      -3.106  15.457  16.759  1.00  0.00    -0.351 OA
BRANCH  13  14
HETATM   14  C11 UNL     1      -3.757  16.324  15.953  1.00  0.00     0.075 A 
HETATM   15  C12 UNL     1      -3.745  17.693  16.040  1.00  0.00     0.044 A 
HETATM   16  C13 UNL     1      -4.444  18.532  15.173  1.00  0.00    -0.059 A 
HETATM   17  C14 UNL     1      -4.395  20.014  15.311  1.00  0.00     0.048 C 
HETATM   18  C15 UNL     1      -5.182  17.925  14.182  1.00  0.00     0.007 A 
HETATM   19  C16 UNL     1      -5.206  16.555  14.082  1.00  0.00     0.010 A 
HETATM   20  C17 UNL     1      -4.520  15.730  14.931  1.00  0.00    -0.029 A 
HETATM   21  C18 UNL     1      -4.581  14.242  14.778  1.00  0.00     0.051 C 
ENDBRANCH  13  14
ENDBRANCH  12  13
ENDBRANCH   1  12
TORSDOF 9
ENDMDL
