MODEL 1
REMARK VINA RESULT: -6.402728459      0.000      0.000
REMARK  10 active torsions:
REMARK  status: ('A' for Active; 'I' for Inactive)
REMARK    1  A    between atoms: C2_2  and  C3_3 
REMARK    2  A    between atoms: C3_3  and  C4_4 
REMARK    3  A    between atoms: C4_4  and  C5_5 
REMARK    4  A    between atoms: C5_5  and  O1_6 
REMARK    5  A    between atoms: O1_6  and  C6_7 
REMARK    6  A    between atoms: C9_10  and  C10_11 
REMARK    7  A    between atoms: C10_11  and  O2_13 
REMARK    8  A    between atoms: C13_16  and  C14_17 
REMARK    9  A    between atoms: C14_17  and  C16_19 
REMARK   10  A    between atoms: C16_19  and  C17_20 
ROOT
HETATM    1  C6  UNL     1      -3.294   8.432  19.356  1.00  0.00     0.075 A 
HETATM    2  C7  UNL     1      -2.083   8.574  20.004  1.00  0.00     0.038 A 
HETATM    3  C8  UNL     1      -1.442   7.416  20.417  1.00  0.00     0.012 A 
HETATM    4  C9  UNL     1      -2.003   6.173  20.185  1.00  0.00    -0.029 A 
HETATM    5  C12 UNL     1      -3.219   6.112  19.531  1.00  0.00     0.020 A 
HETATM    6  C13 UNL     1      -3.903   7.236  19.099  1.00  0.00    -0.020 A 
ENDROOT
BRANCH   1   7
HETATM    7  O1  UNL     1      -3.925   9.601  18.910  1.00  0.00    -0.351 OA
BRANCH   7   8
HETATM    8  C5  UNL     1      -3.168  10.808  18.806  1.00  0.00     0.175 C 
BRANCH   8   9
HETATM    9  C4  UNL     1      -4.158  11.957  18.612  1.00  0.00     0.027 C 
BRANCH   9  10
HETATM   10  C3  UNL     1      -3.360  13.249  18.582  1.00  0.00     0.002 C 
BRANCH  10  11
HETATM   11  C2  UNL     1      -4.057  14.375  17.863  1.00  0.00    -0.004 C 
HETATM   12  C1  UNL     1      -3.561  15.738  18.206  1.00  0.00     0.005 C 
ENDBRANCH  10  11
ENDBRANCH   9  10
ENDBRANCH   8   9
ENDBRANCH   7   8
ENDBRANCH   1   7
BRANCH   6  13
HETATM   13  C14 UNL     1      -5.282   7.200  18.585  1.00  0.00     0.017 C 
HETATM   14  C15 UNL     1      -5.436   5.812  17.869  1.00  0.00     0.015 C 
BRANCH  13  15
HETATM   15  C16 UNL     1      -6.267   7.078  19.769  1.00  0.00     0.009 C 
BRANCH  15  16
HETATM   16  C17 UNL     1      -7.417   8.022  19.663  1.00  0.00    -0.004 C 
HETATM   17  C18 UNL     1      -7.248   8.888  18.438  1.00  0.00     0.005 C 
ENDBRANCH  15  16
ENDBRANCH  13  15
ENDBRANCH   6  13
BRANCH   4  18
HETATM   18  C10 UNL     1      -1.242   5.028  20.675  1.00  0.00     0.147 C 
HETATM   19  C11 UNL     1       0.224   5.458  20.881  1.00  0.00     0.044 C 
BRANCH  18  20
HETATM   20  O2  UNL     1      -1.690   4.587  21.922  1.00  0.00    -0.391 OA
ATOM     21  H2  UNL     1      -1.156   3.882  22.269  1.00  0.00     0.210 HD
ENDBRANCH  18  20
ENDBRANCH   4  18
TORSDOF 10
ENDMDL
MODEL 2
REMARK VINA RESULT: -6.045863371      1.626      6.506
REMARK  10 active torsions:
REMARK  status: ('A' for Active; 'I' for Inactive)
REMARK    1  A    between atoms: C2_2  and  C3_3 
REMARK    2  A    between atoms: C3_3  and  C4_4 
REMARK    3  A    between atoms: C4_4  and  C5_5 
REMARK    4  A    between atoms: C5_5  and  O1_6 
REMARK    5  A    between atoms: O1_6  and  C6_7 
REMARK    6  A    between atoms: C9_10  and  C10_11 
REMARK    7  A    between atoms: C10_11  and  O2_13 
REMARK    8  A    between atoms: C13_16  and  C14_17 
REMARK    9  A    between atoms: C14_17  and  C16_19 
REMARK   10  A    between atoms: C16_19  and  C17_20 
ROOT
HETATM    1  C6  UNL     1      -2.336   7.585  20.075  1.00  0.00     0.075 A 
HETATM    2  C7  UNL     1      -3.173   6.492  20.189  1.00  0.00     0.038 A 
HETATM    3  C8  UNL     1      -4.483   6.644  19.759  1.00  0.00     0.012 A 
HETATM    4  C9  UNL     1      -4.922   7.847  19.239  1.00  0.00    -0.029 A 
HETATM    5  C12 UNL     1      -4.027   8.897  19.158  1.00  0.00     0.020 A 
HETATM    6  C13 UNL     1      -2.709   8.799  19.574  1.00  0.00    -0.020 A 
ENDROOT
BRANCH   1   7
HETATM    7  O1  UNL     1      -1.005   7.419  20.479  1.00  0.00    -0.351 OA
BRANCH   7   8
HETATM    8  C5  UNL     1      -0.189   6.449  19.821  1.00  0.00     0.175 C 
BRANCH   8   9
HETATM    9  C4  UNL     1       0.264   5.438  20.874  1.00  0.00     0.027 C 
BRANCH   9  10
HETATM   10  C3  UNL     1      -0.300   4.083  20.481  1.00  0.00     0.002 C 
BRANCH  10  11
HETATM   11  C2  UNL     1      -0.425   3.887  18.992  1.00  0.00    -0.004 C 
HETATM   12  C1  UNL     1      -1.740   3.350  18.539  1.00  0.00     0.005 C 
ENDBRANCH  10  11
ENDBRANCH   9  10
ENDBRANCH   8   9
ENDBRANCH   7   8
ENDBRANCH   1   7
BRANCH   6  13
HETATM   13  C14 UNL     1      -1.805   9.956  19.681  1.00  0.00     0.017 C 
HETATM   14  C15 UNL     1      -1.291  10.235  18.225  1.00  0.00     0.015 C 
BRANCH  13  15
HETATM   15  C16 UNL     1      -2.629  11.225  19.995  1.00  0.00     0.009 C 
BRANCH  15  16
HETATM   16  C17 UNL     1      -2.489  12.277  18.947  1.00  0.00    -0.004 C 
HETATM   17  C18 UNL     1      -3.849  12.830  18.600  1.00  0.00     0.005 C 
ENDBRANCH  15  16
ENDBRANCH  13  15
ENDBRANCH   6  13
BRANCH   4  18
HETATM   18  C10 UNL     1      -6.323   7.892  18.831  1.00  0.00     0.147 C 
HETATM   19  C11 UNL     1      -7.196   7.387  19.997  1.00  0.00     0.044 C 
BRANCH  18  20
HETATM   20  O2  UNL     1      -6.758   9.191  18.561  1.00  0.00    -0.391 OA
ATOM     21  H2  UNL     1      -6.940   9.327  17.639  1.00  0.00     0.210 HD
ENDBRANCH  18  20
ENDBRANCH   4  18
TORSDOF 10
ENDMDL
MODEL 3
REMARK VINA RESULT: -6.013949471      2.116      5.746
REMARK  10 active torsions:
REMARK  status: ('A' for Active; 'I' for Inactive)
REMARK    1  A    between atoms: C2_2  and  C3_3 
REMARK    2  A    between atoms: C3_3  and  C4_4 
REMARK    3  A    between atoms: C4_4  and  C5_5 
REMARK    4  A    between atoms: C5_5  and  O1_6 
REMARK    5  A    between atoms: O1_6  and  C6_7 
REMARK    6  A    between atoms: C9_10  and  C10_11 
REMARK    7  A    between atoms: C10_11  and  O2_13 
REMARK    8  A    between atoms: C13_16  and  C14_17 
REMARK    9  A    between atoms: C14_17  and  C16_19 
REMARK   10  A    between atoms: C16_19  and  C17_20 
ROOT
HETATM    1  C6  UNL     1      -3.498   7.138  20.428  1.00  0.00     0.075 A 
HETATM    2  C7  UNL     1      -2.190   7.538  20.621  1.00  0.00     0.038 A 
HETATM    3  C8  UNL     1      -1.778   8.697  19.979  1.00  0.00     0.012 A 
HETATM    4  C9  UNL     1      -2.650   9.413  19.180  1.00  0.00    -0.029 A 
HETATM    5  C12 UNL     1      -3.943   8.948  19.034  1.00  0.00     0.020 A 
HETATM    6  C13 UNL     1      -4.406   7.798  19.650  1.00  0.00    -0.020 A 
ENDROOT
BRANCH   1   7
HETATM    7  O1  UNL     1      -3.922   5.985  21.104  1.00  0.00    -0.351 OA
BRANCH   7   8
HETATM    8  C5  UNL     1      -3.064   4.844  21.148  1.00  0.00     0.175 C 
BRANCH   8   9
HETATM    9  C4  UNL     1      -3.005   4.259  19.737  1.00  0.00     0.027 C 
BRANCH   9  10
HETATM   10  C3  UNL     1      -1.542   4.170  19.339  1.00  0.00     0.002 C 
BRANCH  10  11
HETATM   11  C2  UNL     1      -0.593   4.180  20.509  1.00  0.00    -0.004 C 
HETATM   12  C1  UNL     1       0.433   5.262  20.474  1.00  0.00     0.005 C 
ENDBRANCH  10  11
ENDBRANCH   9  10
ENDBRANCH   8   9
ENDBRANCH   7   8
ENDBRANCH   1   7
BRANCH   6  13
HETATM   13  C14 UNL     1      -5.710   7.184  19.348  1.00  0.00     0.017 C 
HETATM   14  C15 UNL     1      -6.632   8.355  18.859  1.00  0.00     0.015 C 
BRANCH  13  15
HETATM   15  C16 UNL     1      -5.582   6.307  18.082  1.00  0.00     0.009 C 
BRANCH  15  16
HETATM   16  C17 UNL     1      -6.401   5.063  18.157  1.00  0.00    -0.004 C 
HETATM   17  C18 UNL     1      -6.784   4.795  19.592  1.00  0.00     0.005 C 
ENDBRANCH  15  16
ENDBRANCH  13  15
ENDBRANCH   6  13
BRANCH   4  18
HETATM   18  C10 UNL     1      -2.099  10.608  18.548  1.00  0.00     0.147 C 
HETATM   19  C11 UNL     1      -1.260  11.378  19.588  1.00  0.00     0.044 C 
BRANCH  18  20
HETATM   20  O2  UNL     1      -1.227  10.303  17.502  1.00  0.00    -0.391 OA
ATOM     21  H2  UNL     1      -1.325  10.894  16.765  1.00  0.00     0.210 HD
ENDBRANCH  18  20
ENDBRANCH   4  18
TORSDOF 10
ENDMDL
MODEL 4
REMARK VINA RESULT: -6.009515828      0.930      1.470
REMARK  10 active torsions:
REMARK  status: ('A' for Active; 'I' for Inactive)
REMARK    1  A    between atoms: C2_2  and  C3_3 
REMARK    2  A    between atoms: C3_3  and  C4_4 
REMARK    3  A    between atoms: C4_4  and  C5_5 
REMARK    4  A    between atoms: C5_5  and  O1_6 
REMARK    5  A    between atoms: O1_6  and  C6_7 
REMARK    6  A    between atoms: C9_10  and  C10_11 
REMARK    7  A    between atoms: C10_11  and  O2_13 
REMARK    8  A    between atoms: C13_16  and  C14_17 
REMARK    9  A    between atoms: C14_17  and  C16_19 
REMARK   10  A    between atoms: C16_19  and  C17_20 
ROOT
HETATM    1  C6  UNL     1      -3.298   8.386  19.381  1.00  0.00     0.075 A 
HETATM    2  C7  UNL     1      -2.092   8.534  20.036  1.00  0.00     0.038 A 
HETATM    3  C8  UNL     1      -1.439   7.379  20.438  1.00  0.00     0.012 A 
HETATM    4  C9  UNL     1      -1.985   6.133  20.189  1.00  0.00    -0.029 A 
HETATM    5  C12 UNL     1      -3.197   6.064  19.530  1.00  0.00     0.020 A 
HETATM    6  C13 UNL     1      -3.892   7.186  19.107  1.00  0.00    -0.020 A 
ENDROOT
BRANCH   1   7
HETATM    7  O1  UNL     1      -3.940   9.553  18.945  1.00  0.00    -0.351 OA
BRANCH   7   8
HETATM    8  C5  UNL     1      -3.178  10.569  18.292  1.00  0.00     0.175 C 
BRANCH   8   9
HETATM    9  C4  UNL     1      -3.848  11.910  18.590  1.00  0.00     0.027 C 
BRANCH   9  10
HETATM   10  C3  UNL     1      -2.801  12.817  19.212  1.00  0.00     0.002 C 
BRANCH  10  11
HETATM   11  C2  UNL     1      -2.161  12.246  20.450  1.00  0.00    -0.004 C 
HETATM   12  C1  UNL     1      -0.707  11.941  20.321  1.00  0.00     0.005 C 
ENDBRANCH  10  11
ENDBRANCH   9  10
ENDBRANCH   8   9
ENDBRANCH   7   8
ENDBRANCH   1   7
BRANCH   6  13
HETATM   13  C14 UNL     1      -5.268   7.140  18.587  1.00  0.00     0.017 C 
HETATM   14  C15 UNL     1      -5.404   5.759  17.855  1.00  0.00     0.015 C 
BRANCH  13  15
HETATM   15  C16 UNL     1      -6.257   6.993  19.766  1.00  0.00     0.009 C 
BRANCH  15  16
HETATM   16  C17 UNL     1      -7.398   7.950  19.684  1.00  0.00    -0.004 C 
HETATM   17  C18 UNL     1      -7.243   8.819  18.459  1.00  0.00     0.005 C 
ENDBRANCH  15  16
ENDBRANCH  13  15
ENDBRANCH   6  13
BRANCH   4  18
HETATM   18  C10 UNL     1      -1.213   4.991  20.670  1.00  0.00     0.147 C 
HETATM   19  C11 UNL     1       0.247   5.435  20.888  1.00  0.00     0.044 C 
BRANCH  18  20
HETATM   20  O2  UNL     1      -1.661   4.529  21.909  1.00  0.00    -0.391 OA
ATOM     21  H2  UNL     1      -1.799   5.235  22.529  1.00  0.00     0.210 HD
ENDBRANCH  18  20
ENDBRANCH   4  18
TORSDOF 10
ENDMDL
MODEL 5
REMARK VINA RESULT: -5.972305818      2.278      5.909
REMARK  10 active torsions:
REMARK  status: ('A' for Active; 'I' for Inactive)
REMARK    1  A    between atoms: C2_2  and  C3_3 
REMARK    2  A    between atoms: C3_3  and  C4_4 
REMARK    3  A    between atoms: C4_4  and  C5_5 
REMARK    4  A    between atoms: C5_5  and  O1_6 
REMARK    5  A    between atoms: O1_6  and  C6_7 
REMARK    6  A    between atoms: C9_10  and  C10_11 
REMARK    7  A    between atoms: C10_11  and  O2_13 
REMARK    8  A    between atoms: C13_16  and  C14_17 
REMARK    9  A    between atoms: C14_17  and  C16_19 
REMARK   10  A    between atoms: C16_19  and  C17_20 
ROOT
HETATM    1  C6  UNL     1      -3.326   6.918  20.355  1.00  0.00     0.075 A 
HETATM    2  C7  UNL     1      -1.996   7.262  20.493  1.00  0.00     0.038 A 
HETATM    3  C8  UNL     1      -1.585   8.459  19.924  1.00  0.00     0.012 A 
HETATM    4  C9  UNL     1      -2.481   9.266  19.248  1.00  0.00    -0.029 A 
HETATM    5  C12 UNL     1      -3.796   8.853  19.150  1.00  0.00     0.020 A 
HETATM    6  C13 UNL     1      -4.259   7.668  19.697  1.00  0.00    -0.020 A 
ENDROOT
BRANCH   1   7
HETATM    7  O1  UNL     1      -3.746   5.725  20.959  1.00  0.00    -0.351 OA
BRANCH   7   8
HETATM    8  C5  UNL     1      -2.880   4.589  20.941  1.00  0.00     0.175 C 
BRANCH   8   9
HETATM    9  C4  UNL     1      -3.331   3.685  19.792  1.00  0.00     0.027 C 
BRANCH   9  10
HETATM   10  C3  UNL     1      -2.337   3.858  18.657  1.00  0.00     0.002 C 
BRANCH  10  11
HETATM   11  C2  UNL     1      -2.967   3.833  17.289  1.00  0.00    -0.004 C 
HETATM   12  C1  UNL     1      -3.852   2.661  17.028  1.00  0.00     0.005 C 
ENDBRANCH  10  11
ENDBRANCH   9  10
ENDBRANCH   8   9
ENDBRANCH   7   8
ENDBRANCH   1   7
BRANCH   6  13
HETATM   13  C14 UNL     1      -5.599   7.121  19.432  1.00  0.00     0.017 C 
HETATM   14  C15 UNL     1      -6.479   8.340  18.983  1.00  0.00     0.015 C 
BRANCH  13  15
HETATM   15  C16 UNL     1      -5.555   6.251  18.155  1.00  0.00     0.009 C 
BRANCH  15  16
HETATM   16  C17 UNL     1      -6.449   5.060  18.237  1.00  0.00    -0.004 C 
HETATM   17  C18 UNL     1      -6.860   4.834  19.671  1.00  0.00     0.005 C 
ENDBRANCH  15  16
ENDBRANCH  13  15
ENDBRANCH   6  13
BRANCH   4  18
HETATM   18  C10 UNL     1      -1.931  10.494  18.682  1.00  0.00     0.147 C 
HETATM   19  C11 UNL     1      -1.195  11.267  19.795  1.00  0.00     0.044 C 
BRANCH  18  20
HETATM   20  O2  UNL     1      -0.976  10.244  17.694  1.00  0.00    -0.391 OA
ATOM     21  H2  UNL     1      -0.204   9.812  18.039  1.00  0.00     0.210 HD
ENDBRANCH  18  20
ENDBRANCH   4  18
TORSDOF 10
ENDMDL
