MODEL 1
REMARK VINA RESULT: -7.325539435      0.000      0.000
REMARK  10 active torsions:
REMARK  status: ('A' for Active; 'I' for Inactive)
REMARK    1  A    between atoms: C2_2  and  C3_3 
REMARK    2  A    between atoms: C3_3  and  C4_4 
REMARK    3  A    between atoms: C6_6  and  C7_7 
REMARK    4  A    between atoms: C10_10  and  C11_11 
REMARK    5  A    between atoms: C11_11  and  O1_12 
REMARK    6  A    between atoms: O1_12  and  C12_13 
REMARK    7  A    between atoms: C12_13  and  C14_15 
REMARK    8  A    between atoms: C14_15  and  O2_16 
REMARK    9  A    between atoms: C14_15  and  C15_18 
REMARK   10  A    between atoms: C15_18  and  C16_19 
ROOT
HETATM    1  C4  UNL     1      -4.102  17.803  16.898  1.00  0.00    -0.057 A 
HETATM    2  C5  UNL     1      -4.473  16.999  15.827  1.00  0.00     0.014 A 
HETATM    3  C6  UNL     1      -4.202  15.654  15.770  1.00  0.00    -0.057 A 
HETATM    4  C9  UNL     1      -3.527  15.104  16.842  1.00  0.00     0.016 A 
HETATM    5  C10 UNL     1      -3.128  15.838  17.940  1.00  0.00    -0.034 A 
HETATM    6  C18 UNL     1      -3.432  17.199  17.941  1.00  0.00     0.016 A 
ENDROOT
BRANCH   5   7
HETATM    7  C11 UNL     1      -2.404  15.201  19.071  1.00  0.00     0.207 C 
BRANCH   7   8
HETATM    8  O1  UNL     1      -2.071  13.916  18.711  1.00  0.00    -0.379 OA
BRANCH   8   9
HETATM    9  C12 UNL     1      -2.512  12.951  19.585  1.00  0.00     0.146 C 
HETATM   10  C13 UNL     1      -3.852  12.368  19.197  1.00  0.00     0.042 C 
BRANCH   9  11
HETATM   11  C14 UNL     1      -1.508  11.795  19.528  1.00  0.00     0.146 C 
BRANCH  11  12
HETATM   12  O2  UNL     1      -0.633  11.965  20.580  1.00  0.00    -0.393 OA
ATOM     13  H2  UNL     1      -1.108  11.756  21.375  1.00  0.00     0.210 HD
ENDBRANCH  11  12
BRANCH  11  14
HETATM   14  C15 UNL     1      -2.304  10.522  19.750  1.00  0.00     0.034 C 
BRANCH  14  15
HETATM   15  C16 UNL     1      -1.537   9.371  19.137  1.00  0.00    -0.002 C 
HETATM   16  C17 UNL     1      -1.370   8.227  20.101  1.00  0.00     0.005 C 
ENDBRANCH  14  15
ENDBRANCH  11  14
ENDBRANCH   9  11
ENDBRANCH   8   9
ENDBRANCH   7   8
ENDBRANCH   5   7
BRANCH   3  17
HETATM   17  C7  UNL     1      -4.606  14.829  14.625  1.00  0.00     0.034 C 
HETATM   18  C8  UNL     1      -5.137  15.605  13.470  1.00  0.00     0.010 C 
ENDBRANCH   3  17
BRANCH   1  19
HETATM   19  C3  UNL     1      -4.433  19.243  16.881  1.00  0.00     0.038 C 
BRANCH  19  20
HETATM   20  C2  UNL     1      -4.130  19.867  15.527  1.00  0.00     0.000 C 
HETATM   21  C1  UNL     1      -5.231  20.839  15.126  1.00  0.00     0.005 C 
ENDBRANCH  19  20
ENDBRANCH   1  19
TORSDOF 10
ENDMDL
MODEL 2
REMARK VINA RESULT: -7.291727329      1.150      1.579
REMARK  10 active torsions:
REMARK  status: ('A' for Active; 'I' for Inactive)
REMARK    1  A    between atoms: C2_2  and  C3_3 
REMARK    2  A    between atoms: C3_3  and  C4_4 
REMARK    3  A    between atoms: C6_6  and  C7_7 
REMARK    4  A    between atoms: C10_10  and  C11_11 
REMARK    5  A    between atoms: C11_11  and  O1_12 
REMARK    6  A    between atoms: O1_12  and  C12_13 
REMARK    7  A    between atoms: C12_13  and  C14_15 
REMARK    8  A    between atoms: C14_15  and  O2_16 
REMARK    9  A    between atoms: C14_15  and  C15_18 
REMARK   10  A    between atoms: C15_18  and  C16_19 
ROOT
HETATM    1  C4  UNL     1      -3.719  17.160  17.484  1.00  0.00    -0.057 A 
HETATM    2  C5  UNL     1      -4.211  16.563  16.330  1.00  0.00     0.014 A 
HETATM    3  C6  UNL     1      -4.115  15.216  16.084  1.00  0.00    -0.057 A 
HETATM    4  C9  UNL     1      -3.494  14.444  17.048  1.00  0.00     0.016 A 
HETATM    5  C10 UNL     1      -2.983  14.966  18.218  1.00  0.00    -0.034 A 
HETATM    6  C18 UNL     1      -3.110  16.341  18.412  1.00  0.00     0.016 A 
ENDROOT
BRANCH   5   7
HETATM    7  C11 UNL     1      -2.324  14.095  19.226  1.00  0.00     0.207 C 
BRANCH   7   8
HETATM    8  O1  UNL     1      -2.859  12.831  19.133  1.00  0.00    -0.379 OA
BRANCH   8   9
HETATM    9  C12 UNL     1      -1.928  11.821  19.124  1.00  0.00     0.146 C 
HETATM   10  C13 UNL     1      -0.819  12.027  20.131  1.00  0.00     0.042 C 
BRANCH   9  11
HETATM   11  C14 UNL     1      -2.651  10.534  19.537  1.00  0.00     0.146 C 
BRANCH  11  12
HETATM   12  O2  UNL     1      -3.889  10.552  18.931  1.00  0.00    -0.393 OA
ATOM     13  H2  UNL     1      -4.153  11.461  18.861  1.00  0.00     0.210 HD
ENDBRANCH  11  12
BRANCH  11  14
HETATM   14  C15 UNL     1      -1.840   9.384  18.970  1.00  0.00     0.034 C 
BRANCH  14  15
HETATM   15  C16 UNL     1      -1.489   8.448  20.105  1.00  0.00    -0.002 C 
HETATM   16  C17 UNL     1      -2.662   7.601  20.522  1.00  0.00     0.005 C 
ENDBRANCH  14  15
ENDBRANCH  11  14
ENDBRANCH   9  11
ENDBRANCH   8   9
ENDBRANCH   7   8
ENDBRANCH   5   7
BRANCH   3  17
HETATM   17  C7  UNL     1      -4.644  14.611  14.855  1.00  0.00     0.034 C 
HETATM   18  C8  UNL     1      -5.071  15.598  13.824  1.00  0.00     0.010 C 
ENDBRANCH   3  17
BRANCH   1  19
HETATM   19  C3  UNL     1      -3.863  18.619  17.672  1.00  0.00     0.038 C 
BRANCH  19  20
HETATM   20  C2  UNL     1      -4.888  19.205  16.713  1.00  0.00     0.000 C 
HETATM   21  C1  UNL     1      -4.198  19.863  15.526  1.00  0.00     0.005 C 
ENDBRANCH  19  20
ENDBRANCH   1  19
TORSDOF 10
ENDMDL
MODEL 3
REMARK VINA RESULT: -7.251574906      1.616      3.189
REMARK  10 active torsions:
REMARK  status: ('A' for Active; 'I' for Inactive)
REMARK    1  A    between atoms: C2_2  and  C3_3 
REMARK    2  A    between atoms: C3_3  and  C4_4 
REMARK    3  A    between atoms: C6_6  and  C7_7 
REMARK    4  A    between atoms: C10_10  and  C11_11 
REMARK    5  A    between atoms: C11_11  and  O1_12 
REMARK    6  A    between atoms: O1_12  and  C12_13 
REMARK    7  A    between atoms: C12_13  and  C14_15 
REMARK    8  A    between atoms: C14_15  and  O2_16 
REMARK    9  A    between atoms: C14_15  and  C15_18 
REMARK   10  A    between atoms: C15_18  and  C16_19 
ROOT
HETATM    1  C4  UNL     1      -4.199  15.018  15.761  1.00  0.00    -0.057 A 
HETATM    2  C5  UNL     1      -3.734  16.106  16.490  1.00  0.00     0.014 A 
HETATM    3  C6  UNL     1      -3.382  16.026  17.815  1.00  0.00    -0.057 A 
HETATM    4  C9  UNL     1      -3.507  14.792  18.423  1.00  0.00     0.016 A 
HETATM    5  C10 UNL     1      -3.959  13.668  17.765  1.00  0.00    -0.034 A 
HETATM    6  C18 UNL     1      -4.302  13.811  16.421  1.00  0.00     0.016 A 
ENDROOT
BRANCH   5   7
HETATM    7  C11 UNL     1      -4.076  12.361  18.463  1.00  0.00     0.207 C 
BRANCH   7   8
HETATM    8  O1  UNL     1      -3.130  12.309  19.460  1.00  0.00    -0.379 OA
BRANCH   8   9
HETATM    9  C12 UNL     1      -1.907  11.828  19.056  1.00  0.00     0.146 C 
HETATM   10  C13 UNL     1      -0.888  11.787  20.171  1.00  0.00     0.042 C 
BRANCH   9  11
HETATM   11  C14 UNL     1      -2.116  10.376  18.611  1.00  0.00     0.146 C 
BRANCH  11  12
HETATM   12  O2  UNL     1      -1.380  10.194  17.461  1.00  0.00    -0.393 OA
ATOM     13  H2  UNL     1      -1.947   9.767  16.830  1.00  0.00     0.210 HD
ENDBRANCH  11  12
BRANCH  11  14
HETATM   14  C15 UNL     1      -1.540   9.502  19.709  1.00  0.00     0.034 C 
BRANCH  14  15
HETATM   15  C16 UNL     1      -2.579   8.471  20.089  1.00  0.00    -0.002 C 
HETATM   16  C17 UNL     1      -3.855   8.642  19.308  1.00  0.00     0.005 C 
ENDBRANCH  14  15
ENDBRANCH  11  14
ENDBRANCH   9  11
ENDBRANCH   8   9
ENDBRANCH   7   8
ENDBRANCH   5   7
BRANCH   3  17
HETATM   17  C7  UNL     1      -2.894  17.193  18.560  1.00  0.00     0.034 C 
HETATM   18  C8  UNL     1      -3.542  18.478  18.175  1.00  0.00     0.010 C 
ENDBRANCH   3  17
BRANCH   1  19
HETATM   19  C3  UNL     1      -4.557  15.190  14.338  1.00  0.00     0.038 C 
BRANCH  19  20
HETATM   20  C2  UNL     1      -5.634  16.250  14.159  1.00  0.00     0.000 C 
HETATM   21  C1  UNL     1      -5.011  17.587  13.780  1.00  0.00     0.005 C 
ENDBRANCH  19  20
ENDBRANCH   1  19
TORSDOF 10
ENDMDL
MODEL 4
REMARK VINA RESULT: -7.046060048      0.516      2.632
REMARK  10 active torsions:
REMARK  status: ('A' for Active; 'I' for Inactive)
REMARK    1  A    between atoms: C2_2  and  C3_3 
REMARK    2  A    between atoms: C3_3  and  C4_4 
REMARK    3  A    between atoms: C6_6  and  C7_7 
REMARK    4  A    between atoms: C10_10  and  C11_11 
REMARK    5  A    between atoms: C11_11  and  O1_12 
REMARK    6  A    between atoms: O1_12  and  C12_13 
REMARK    7  A    between atoms: C12_13  and  C14_15 
REMARK    8  A    between atoms: C14_15  and  O2_16 
REMARK    9  A    between atoms: C14_15  and  C15_18 
REMARK   10  A    between atoms: C15_18  and  C16_19 
ROOT
HETATM    1  C4  UNL     1      -3.961  15.663  15.881  1.00  0.00    -0.057 A 
HETATM    2  C5  UNL     1      -4.241  17.015  16.036  1.00  0.00     0.014 A 
HETATM    3  C6  UNL     1      -3.921  17.722  17.168  1.00  0.00    -0.057 A 
HETATM    4  C9  UNL     1      -3.292  17.029  18.184  1.00  0.00     0.016 A 
HETATM    5  C10 UNL     1      -2.980  15.688  18.102  1.00  0.00    -0.034 A 
HETATM    6  C18 UNL     1      -3.330  15.023  16.928  1.00  0.00     0.016 A 
ENDROOT
BRANCH   5   7
HETATM    7  C11 UNL     1      -2.301  14.985  19.223  1.00  0.00     0.207 C 
BRANCH   7   8
HETATM    8  O1  UNL     1      -1.993  13.707  18.817  1.00  0.00    -0.379 OA
BRANCH   8   9
HETATM    9  C12 UNL     1      -2.469  12.720  19.646  1.00  0.00     0.146 C 
HETATM   10  C13 UNL     1      -3.815  12.183  19.217  1.00  0.00     0.042 C 
BRANCH   9  11
HETATM   11  C14 UNL     1      -1.489  11.544  19.559  1.00  0.00     0.146 C 
BRANCH  11  12
HETATM   12  O2  UNL     1      -0.587  11.690  20.590  1.00  0.00    -0.393 OA
ATOM     13  H2  UNL     1       0.276  11.522  20.233  1.00  0.00     0.210 HD
ENDBRANCH  11  12
BRANCH  11  14
HETATM   14  C15 UNL     1      -2.305  10.286  19.791  1.00  0.00     0.034 C 
BRANCH  14  15
HETATM   15  C16 UNL     1      -1.380   9.095  19.678  1.00  0.00    -0.002 C 
HETATM   16  C17 UNL     1      -1.992   7.847  20.257  1.00  0.00     0.005 C 
ENDBRANCH  14  15
ENDBRANCH  11  14
ENDBRANCH   9  11
ENDBRANCH   8   9
ENDBRANCH   7   8
ENDBRANCH   5   7
BRANCH   3  17
HETATM   17  C7  UNL     1      -4.230  19.151  17.305  1.00  0.00     0.034 C 
HETATM   18  C8  UNL     1      -4.363  19.873  16.009  1.00  0.00     0.010 C 
ENDBRANCH   3  17
BRANCH   1  19
HETATM   19  C3  UNL     1      -4.339  14.976  14.629  1.00  0.00     0.038 C 
BRANCH  19  20
HETATM   20  C2  UNL     1      -5.492  15.682  13.933  1.00  0.00     0.000 C 
HETATM   21  C1  UNL     1      -5.057  17.053  13.432  1.00  0.00     0.005 C 
ENDBRANCH  19  20
ENDBRANCH   1  19
TORSDOF 10
ENDMDL
MODEL 5
REMARK VINA RESULT: -6.947733963      2.332      8.771
REMARK  10 active torsions:
REMARK  status: ('A' for Active; 'I' for Inactive)
REMARK    1  A    between atoms: C2_2  and  C3_3 
REMARK    2  A    between atoms: C3_3  and  C4_4 
REMARK    3  A    between atoms: C6_6  and  C7_7 
REMARK    4  A    between atoms: C10_10  and  C11_11 
REMARK    5  A    between atoms: C11_11  and  O1_12 
REMARK    6  A    between atoms: O1_12  and  C12_13 
REMARK    7  A    between atoms: C12_13  and  C14_15 
REMARK    8  A    between atoms: C14_15  and  O2_16 
REMARK    9  A    between atoms: C14_15  and  C15_18 
REMARK   10  A    between atoms: C15_18  and  C16_19 
ROOT
HETATM    1  C4  UNL     1      -3.895   8.312  19.536  1.00  0.00    -0.057 A 
HETATM    2  C5  UNL     1      -2.984   7.315  19.864  1.00  0.00     0.014 A 
HETATM    3  C6  UNL     1      -1.658   7.564  20.117  1.00  0.00    -0.057 A 
HETATM    4  C9  UNL     1      -1.239   8.878  20.034  1.00  0.00     0.016 A 
HETATM    5  C10 UNL     1      -2.085   9.921  19.715  1.00  0.00    -0.034 A 
HETATM    6  C18 UNL     1      -3.420   9.606  19.468  1.00  0.00     0.016 A 
ENDROOT
BRANCH   5   7
HETATM    7  C11 UNL     1      -1.587  11.319  19.638  1.00  0.00     0.207 C 
BRANCH   7   8
HETATM    8  O1  UNL     1      -2.663  12.173  19.711  1.00  0.00    -0.379 OA
BRANCH   8   9
HETATM    9  C12 UNL     1      -2.846  12.950  18.592  1.00  0.00     0.146 C 
HETATM   10  C13 UNL     1      -4.250  12.871  18.037  1.00  0.00     0.042 C 
BRANCH   9  11
HETATM   11  C14 UNL     1      -2.632  14.408  19.014  1.00  0.00     0.146 C 
BRANCH  11  12
HETATM   12  O2  UNL     1      -1.346  14.750  18.654  1.00  0.00    -0.393 OA
ATOM     13  H2  UNL     1      -1.349  15.678  18.451  1.00  0.00     0.210 HD
ENDBRANCH  11  12
BRANCH  11  14
HETATM   14  C15 UNL     1      -3.608  15.239  18.202  1.00  0.00     0.034 C 
BRANCH  14  15
HETATM   15  C16 UNL     1      -3.129  16.674  18.209  1.00  0.00    -0.002 C 
HETATM   16  C17 UNL     1      -4.209  17.632  17.784  1.00  0.00     0.005 C 
ENDBRANCH  14  15
ENDBRANCH  11  14
ENDBRANCH   9  11
ENDBRANCH   8   9
ENDBRANCH   7   8
ENDBRANCH   5   7
BRANCH   3  17
HETATM   17  C7  UNL     1      -0.718   6.490  20.462  1.00  0.00     0.034 C 
HETATM   18  C8  UNL     1      -1.365   5.265  21.008  1.00  0.00     0.010 C 
ENDBRANCH   3  17
BRANCH   1  19
HETATM   19  C3  UNL     1      -5.306   7.959  19.278  1.00  0.00     0.038 C 
BRANCH  19  20
HETATM   20  C2  UNL     1      -5.418   6.735  18.381  1.00  0.00     0.000 C 
HETATM   21  C1  UNL     1      -6.439   5.753  18.939  1.00  0.00     0.005 C 
ENDBRANCH  19  20
ENDBRANCH   1  19
TORSDOF 10
ENDMDL
