MODEL 1
REMARK VINA RESULT: -6.470827616      0.000      0.000
REMARK  10 active torsions:
REMARK  status: ('A' for Active; 'I' for Inactive)
REMARK    1  A    between atoms: C2_2  and  O1_3 
REMARK    2  A    between atoms: C2_2  and  C9_14 
REMARK    3  A    between atoms: O1_3  and  C3_4 
REMARK    4  A    between atoms: C3_4  and  N1_5 
REMARK    5  A    between atoms: C4_6  and  O2_7 
REMARK    6  A    between atoms: C7_11  and  C8_12 
REMARK    7  A    between atoms: C9_14  and  O4_16 
REMARK    8  A    between atoms: O4_16  and  C10_17 
REMARK    9  A    between atoms: C10_17  and  C11_18 
REMARK   10  A    between atoms: C10_17  and  C12_21 
ROOT
HETATM    1  C9  UNL     1       0.358  52.856  24.691  1.00  0.00     0.289 C 
HETATM    2  O3  UNL     1       0.234  53.857  25.447  1.00  0.00    -0.262 OA
ENDROOT
BRANCH   1   3
HETATM    3  C2  UNL     1      -0.803  52.268  23.952  1.00  0.00     0.225 C 
HETATM    4  C1  UNL     1      -1.463  51.241  24.902  1.00  0.00     0.051 C 
BRANCH   3   5
HETATM    5  O1  UNL     1      -0.465  51.681  22.797  1.00  0.00    -0.331 OA
BRANCH   5   6
HETATM    6  C3  UNL     1      -1.291  50.873  22.113  1.00  0.00     0.236 C 
BRANCH   6   7
HETATM    7  N1  UNL     1      -1.576  51.213  20.739  1.00  0.00    -0.286 N 
HETATM    8  C4  UNL     1      -2.009  52.391  20.301  1.00  0.00     0.147 A 
HETATM    9  C5  UNL     1      -2.180  52.270  18.913  1.00  0.00     0.058 A 
HETATM   10  C6  UNL     1      -1.828  50.983  18.584  1.00  0.00     0.030 A 
HETATM   11  C7  UNL     1      -1.450  50.318  19.715  1.00  0.00     0.030 A 
BRANCH   8  12
HETATM   12  O2  UNL     1      -2.276  53.590  20.979  1.00  0.00    -0.346 OA
ATOM     13  H2  UNL     1      -3.048  54.143  20.995  1.00  0.00     0.219 HD
ENDBRANCH   8  12
BRANCH  11  14
HETATM   14  C8  UNL     1      -0.991  48.903  19.828  1.00  0.00     0.142 C 
HETATM   15 BR1  UNL     1      -0.033  48.365  18.228  1.00  0.00    -0.090 Br
ENDBRANCH  11  14
ENDBRANCH   6   7
ENDBRANCH   5   6
ENDBRANCH   3   5
ENDBRANCH   1   3
BRANCH   1  16
HETATM   16  O4  UNL     1       1.639  52.335  24.588  1.00  0.00    -0.303 OA
BRANCH  16  17
HETATM   17  C10 UNL     1       1.982  51.060  25.116  1.00  0.00     0.236 C 
BRANCH  17  18
HETATM   18  C11 UNL     1       2.778  51.184  26.347  1.00  0.00     0.204 C 
HETATM   19  O5  UNL     1       3.578  50.228  26.622  1.00  0.00    -0.646 OA
HETATM   20  O6  UNL     1       2.735  52.231  27.219  1.00  0.00    -0.646 OA
ENDBRANCH  17  18
BRANCH  17  21
HETATM   21  C12 UNL     1       2.691  50.206  24.116  1.00  0.00     0.027 C 
HETATM   22  C13 UNL     1       3.021  51.057  22.892  1.00  0.00     0.008 C 
HETATM   23  C14 UNL     1       3.875  50.293  21.920  1.00  0.00     0.002 C 
HETATM   24  C15 UNL     1       3.498  48.840  21.966  1.00  0.00     0.020 C 
HETATM   25  C16 UNL     1       2.016  48.713  22.241  1.00  0.00     0.082 C 
HETATM   26 CL1  UNL     1       1.425  47.093  21.857  1.00  0.00    -0.125 Cl
HETATM   27  C17 UNL     1       1.719  49.098  23.687  1.00  0.00     0.028 C 
ENDBRANCH  17  21
ENDBRANCH  16  17
ENDBRANCH   1  16
TORSDOF 10
ENDMDL
MODEL 2
REMARK VINA RESULT: -6.399636623      2.209      5.194
REMARK  10 active torsions:
REMARK  status: ('A' for Active; 'I' for Inactive)
REMARK    1  A    between atoms: C2_2  and  O1_3 
REMARK    2  A    between atoms: C2_2  and  C9_14 
REMARK    3  A    between atoms: O1_3  and  C3_4 
REMARK    4  A    between atoms: C3_4  and  N1_5 
REMARK    5  A    between atoms: C4_6  and  O2_7 
REMARK    6  A    between atoms: C7_11  and  C8_12 
REMARK    7  A    between atoms: C9_14  and  O4_16 
REMARK    8  A    between atoms: O4_16  and  C10_17 
REMARK    9  A    between atoms: C10_17  and  C11_18 
REMARK   10  A    between atoms: C10_17  and  C12_21 
ROOT
HETATM    1  C9  UNL     1      -1.411  51.243  23.667  1.00  0.00     0.289 C 
HETATM    2  O3  UNL     1      -1.081  52.414  23.997  1.00  0.00    -0.262 OA
ENDROOT
BRANCH   1   3
HETATM    3  C2  UNL     1      -1.364  50.100  24.632  1.00  0.00     0.225 C 
HETATM    4  C1  UNL     1      -2.661  50.171  25.472  1.00  0.00     0.051 C 
BRANCH   3   5
HETATM    5  O1  UNL     1      -0.292  50.114  25.434  1.00  0.00    -0.331 OA
BRANCH   5   6
HETATM    6  C3  UNL     1       0.805  49.373  25.209  1.00  0.00     0.236 C 
BRANCH   6   7
HETATM    7  N1  UNL     1       1.741  49.845  24.215  1.00  0.00    -0.286 N 
HETATM    8  C4  UNL     1       2.155  51.099  24.068  1.00  0.00     0.147 A 
HETATM    9  C5  UNL     1       3.030  51.111  22.970  1.00  0.00     0.058 A 
HETATM   10  C6  UNL     1       3.094  49.819  22.505  1.00  0.00     0.030 A 
HETATM   11  C7  UNL     1       2.295  49.024  23.274  1.00  0.00     0.030 A 
BRANCH   8  12
HETATM   12  O2  UNL     1       1.860  52.263  24.793  1.00  0.00    -0.346 OA
ATOM     13  H2  UNL     1       1.960  53.181  24.573  1.00  0.00     0.219 HD
ENDBRANCH   8  12
BRANCH  11  14
HETATM   14  C8  UNL     1       2.062  47.557  23.131  1.00  0.00     0.142 C 
HETATM   15 BR1  UNL     1       2.896  46.887  21.511  1.00  0.00    -0.090 Br
ENDBRANCH  11  14
ENDBRANCH   6   7
ENDBRANCH   5   6
ENDBRANCH   3   5
ENDBRANCH   1   3
BRANCH   1  16
HETATM   16  O4  UNL     1      -1.822  51.082  22.353  1.00  0.00    -0.303 OA
BRANCH  16  17
HETATM   17  C10 UNL     1      -1.095  51.630  21.260  1.00  0.00     0.236 C 
BRANCH  17  18
HETATM   18  C11 UNL     1      -1.837  52.723  20.613  1.00  0.00     0.204 C 
HETATM   19  O5  UNL     1      -2.038  53.779  21.302  1.00  0.00    -0.646 OA
HETATM   20  O6  UNL     1      -2.329  52.706  19.342  1.00  0.00    -0.646 OA
ENDBRANCH  17  18
BRANCH  17  21
HETATM   21  C12 UNL     1      -0.711  50.591  20.258  1.00  0.00     0.027 C 
HETATM   22  C13 UNL     1      -0.670  49.232  20.953  1.00  0.00     0.008 C 
HETATM   23  C14 UNL     1      -0.446  48.126  19.961  1.00  0.00     0.002 C 
HETATM   24  C15 UNL     1       0.433  48.628  18.852  1.00  0.00     0.020 C 
HETATM   25  C16 UNL     1       1.423  49.628  19.407  1.00  0.00     0.082 C 
HETATM   26 CL1  UNL     1       2.758  49.906  18.283  1.00  0.00    -0.125 Cl
HETATM   27  C17 UNL     1       0.705  50.925  19.768  1.00  0.00     0.028 C 
ENDBRANCH  17  21
ENDBRANCH  16  17
ENDBRANCH   1  16
TORSDOF 10
ENDMDL
MODEL 3
REMARK VINA RESULT: -6.367749014      2.919      6.307
REMARK  10 active torsions:
REMARK  status: ('A' for Active; 'I' for Inactive)
REMARK    1  A    between atoms: C2_2  and  O1_3 
REMARK    2  A    between atoms: C2_2  and  C9_14 
REMARK    3  A    between atoms: O1_3  and  C3_4 
REMARK    4  A    between atoms: C3_4  and  N1_5 
REMARK    5  A    between atoms: C4_6  and  O2_7 
REMARK    6  A    between atoms: C7_11  and  C8_12 
REMARK    7  A    between atoms: C9_14  and  O4_16 
REMARK    8  A    between atoms: O4_16  and  C10_17 
REMARK    9  A    between atoms: C10_17  and  C11_18 
REMARK   10  A    between atoms: C10_17  and  C12_21 
ROOT
HETATM    1  C9  UNL     1      -0.035  51.336  23.029  1.00  0.00     0.289 C 
HETATM    2  O3  UNL     1      -0.496  52.160  23.864  1.00  0.00    -0.262 OA
ENDROOT
BRANCH   1   3
HETATM    3  C2  UNL     1       1.244  50.596  23.263  1.00  0.00     0.225 C 
HETATM    4  C1  UNL     1       0.986  49.123  22.867  1.00  0.00     0.051 C 
BRANCH   3   5
HETATM    5  O1  UNL     1       1.684  50.666  24.526  1.00  0.00    -0.331 OA
BRANCH   5   6
HETATM    6  C3  UNL     1       1.517  49.678  25.419  1.00  0.00     0.236 C 
BRANCH   6   7
HETATM    7  N1  UNL     1       0.753  49.973  26.609  1.00  0.00    -0.286 N 
HETATM    8  C4  UNL     1       1.243  50.431  27.756  1.00  0.00     0.147 A 
HETATM    9  C5  UNL     1       0.161  50.545  28.643  1.00  0.00     0.058 A 
HETATM   10  C6  UNL     1      -0.957  50.137  27.954  1.00  0.00     0.030 A 
HETATM   11  C7  UNL     1      -0.597  49.779  26.687  1.00  0.00     0.030 A 
BRANCH   8  12
HETATM   12  O2  UNL     1       2.550  50.774  28.134  1.00  0.00    -0.346 OA
ATOM     13  H2  UNL     1       2.900  51.101  28.953  1.00  0.00     0.219 HD
ENDBRANCH   8  12
BRANCH  11  14
HETATM   14  C8  UNL     1      -1.484  49.276  25.597  1.00  0.00     0.142 C 
HETATM   15 BR1  UNL     1      -3.162  50.250  25.577  1.00  0.00    -0.090 Br
ENDBRANCH  11  14
ENDBRANCH   6   7
ENDBRANCH   5   6
ENDBRANCH   3   5
ENDBRANCH   1   3
BRANCH   1  16
HETATM   16  O4  UNL     1      -0.790  51.160  21.879  1.00  0.00    -0.303 OA
BRANCH  16  17
HETATM   17  C10 UNL     1      -0.578  51.940  20.708  1.00  0.00     0.236 C 
BRANCH  17  18
HETATM   18  C11 UNL     1      -1.742  52.788  20.409  1.00  0.00     0.204 C 
HETATM   19  O5  UNL     1      -2.110  53.612  21.312  1.00  0.00    -0.646 OA
HETATM   20  O6  UNL     1      -2.462  52.771  19.251  1.00  0.00    -0.646 OA
ENDBRANCH  17  18
BRANCH  17  21
HETATM   21  C12 UNL     1      -0.224  51.099  19.525  1.00  0.00     0.027 C 
HETATM   22  C13 UNL     1      -0.833  49.711  19.711  1.00  0.00     0.008 C 
HETATM   23  C14 UNL     1      -0.644  48.871  18.479  1.00  0.00     0.002 C 
HETATM   24  C15 UNL     1       0.660  49.232  17.829  1.00  0.00     0.020 C 
HETATM   25  C16 UNL     1       1.667  49.606  18.894  1.00  0.00     0.082 C 
HETATM   26 CL1  UNL     1       3.315  49.593  18.257  1.00  0.00    -0.125 Cl
HETATM   27  C17 UNL     1       1.305  50.957  19.504  1.00  0.00     0.028 C 
ENDBRANCH  17  21
ENDBRANCH  16  17
ENDBRANCH   1  16
TORSDOF 10
ENDMDL
MODEL 4
REMARK VINA RESULT: -6.327141636      3.476      6.629
REMARK  10 active torsions:
REMARK  status: ('A' for Active; 'I' for Inactive)
REMARK    1  A    between atoms: C2_2  and  O1_3 
REMARK    2  A    between atoms: C2_2  and  C9_14 
REMARK    3  A    between atoms: O1_3  and  C3_4 
REMARK    4  A    between atoms: C3_4  and  N1_5 
REMARK    5  A    between atoms: C4_6  and  O2_7 
REMARK    6  A    between atoms: C7_11  and  C8_12 
REMARK    7  A    between atoms: C9_14  and  O4_16 
REMARK    8  A    between atoms: O4_16  and  C10_17 
REMARK    9  A    between atoms: C10_17  and  C11_18 
REMARK   10  A    between atoms: C10_17  and  C12_21 
ROOT
HETATM    1  C9  UNL     1      -0.952  50.458  22.653  1.00  0.00     0.289 C 
HETATM    2  O3  UNL     1      -1.751  50.939  23.503  1.00  0.00    -0.262 OA
ENDROOT
BRANCH   1   3
HETATM    3  C2  UNL     1       0.325  49.788  23.050  1.00  0.00     0.225 C 
HETATM    4  C1  UNL     1       0.456  48.521  22.173  1.00  0.00     0.051 C 
BRANCH   3   5
HETATM    5  O1  UNL     1       0.382  49.461  24.347  1.00  0.00    -0.331 OA
BRANCH   5   6
HETATM    6  C3  UNL     1       0.933  50.251  25.282  1.00  0.00     0.236 C 
BRANCH   6   7
HETATM    7  N1  UNL     1       0.315  50.278  26.587  1.00  0.00    -0.286 N 
HETATM    8  C4  UNL     1      -0.969  50.052  26.846  1.00  0.00     0.147 A 
HETATM    9  C5  UNL     1      -1.138  50.209  28.230  1.00  0.00     0.058 A 
HETATM   10  C6  UNL     1       0.096  50.530  28.743  1.00  0.00     0.030 A 
HETATM   11  C7  UNL     1       1.007  50.575  27.726  1.00  0.00     0.030 A 
BRANCH   8  12
HETATM   12  O2  UNL     1      -2.038  49.713  26.003  1.00  0.00    -0.346 OA
ATOM     13  H2  UNL     1      -2.497  48.892  25.871  1.00  0.00     0.219 HD
ENDBRANCH   8  12
BRANCH  11  14
HETATM   14  C8  UNL     1       2.463  50.885  27.823  1.00  0.00     0.142 C 
HETATM   15 BR1  UNL     1       3.488  49.265  28.124  1.00  0.00    -0.090 Br
ENDBRANCH  11  14
ENDBRANCH   6   7
ENDBRANCH   5   6
ENDBRANCH   3   5
ENDBRANCH   1   3
BRANCH   1  16
HETATM   16  O4  UNL     1      -1.335  50.590  21.327  1.00  0.00    -0.303 OA
BRANCH  16  17
HETATM   17  C10 UNL     1      -0.784  51.588  20.476  1.00  0.00     0.236 C 
BRANCH  17  18
HETATM   18  C11 UNL     1      -1.721  52.703  20.275  1.00  0.00     0.204 C 
HETATM   19  O5  UNL     1      -2.294  52.785  19.137  1.00  0.00    -0.646 OA
HETATM   20  O6  UNL     1      -2.032  53.656  21.200  1.00  0.00    -0.646 OA
ENDBRANCH  17  18
BRANCH  17  21
HETATM   21  C12 UNL     1      -0.344  51.029  19.162  1.00  0.00     0.027 C 
HETATM   22  C13 UNL     1      -1.018  49.675  18.955  1.00  0.00     0.008 C 
HETATM   23  C14 UNL     1      -0.738  49.139  17.579  1.00  0.00     0.002 C 
HETATM   24  C15 UNL     1       0.637  49.565  17.153  1.00  0.00     0.020 C 
HETATM   25  C16 UNL     1       1.546  49.618  18.361  1.00  0.00     0.082 C 
HETATM   26 CL1  UNL     1       3.248  49.658  17.887  1.00  0.00    -0.125 Cl
HETATM   27  C17 UNL     1       1.173  50.806  19.242  1.00  0.00     0.028 C 
ENDBRANCH  17  21
ENDBRANCH  16  17
ENDBRANCH   1  16
TORSDOF 10
ENDMDL
MODEL 5
REMARK VINA RESULT: -6.305123549      1.271      1.572
REMARK  10 active torsions:
REMARK  status: ('A' for Active; 'I' for Inactive)
REMARK    1  A    between atoms: C2_2  and  O1_3 
REMARK    2  A    between atoms: C2_2  and  C9_14 
REMARK    3  A    between atoms: O1_3  and  C3_4 
REMARK    4  A    between atoms: C3_4  and  N1_5 
REMARK    5  A    between atoms: C4_6  and  O2_7 
REMARK    6  A    between atoms: C7_11  and  C8_12 
REMARK    7  A    between atoms: C9_14  and  O4_16 
REMARK    8  A    between atoms: O4_16  and  C10_17 
REMARK    9  A    between atoms: C10_17  and  C11_18 
REMARK   10  A    between atoms: C10_17  and  C12_21 
ROOT
HETATM    1  C9  UNL     1      -0.610  50.470  25.620  1.00  0.00     0.289 C 
HETATM    2  O3  UNL     1      -0.723  49.399  26.276  1.00  0.00    -0.262 OA
ENDROOT
BRANCH   1   3
HETATM    3  C2  UNL     1      -1.754  51.063  24.859  1.00  0.00     0.225 C 
HETATM    4  C1  UNL     1      -3.050  50.532  25.514  1.00  0.00     0.051 C 
BRANCH   3   5
HETATM    5  O1  UNL     1      -1.742  50.770  23.552  1.00  0.00    -0.331 OA
BRANCH   5   6
HETATM    6  C3  UNL     1      -0.885  51.327  22.681  1.00  0.00     0.236 C 
BRANCH   6   7
HETATM    7  N1  UNL     1      -1.331  51.494  21.318  1.00  0.00    -0.286 N 
HETATM    8  C4  UNL     1      -1.882  52.590  20.806  1.00  0.00     0.147 A 
HETATM    9  C5  UNL     1      -2.186  52.304  19.466  1.00  0.00     0.058 A 
HETATM   10  C6  UNL     1      -1.786  51.009  19.240  1.00  0.00     0.030 A 
HETATM   11  C7  UNL     1      -1.252  50.497  20.387  1.00  0.00     0.030 A 
BRANCH   8  12
HETATM   12  O2  UNL     1      -2.156  53.842  21.378  1.00  0.00    -0.346 OA
ATOM     13  H2  UNL     1      -1.830  54.709  21.173  1.00  0.00     0.219 HD
ENDBRANCH   8  12
BRANCH  11  14
HETATM   14  C8  UNL     1      -0.692  49.130  20.600  1.00  0.00     0.142 C 
HETATM   15 BR1  UNL     1      -0.179  48.331  18.907  1.00  0.00    -0.090 Br
ENDBRANCH  11  14
ENDBRANCH   6   7
ENDBRANCH   5   6
ENDBRANCH   3   5
ENDBRANCH   1   3
BRANCH   1  16
HETATM   16  O4  UNL     1       0.643  51.063  25.651  1.00  0.00    -0.303 OA
BRANCH  16  17
HETATM   17  C10 UNL     1       1.815  50.340  26.008  1.00  0.00     0.236 C 
BRANCH  17  18
HETATM   18  C11 UNL     1       2.570  51.027  27.066  1.00  0.00     0.204 C 
HETATM   19  O5  UNL     1       2.514  52.303  27.087  1.00  0.00    -0.646 OA
HETATM   20  O6  UNL     1       3.325  50.421  28.027  1.00  0.00    -0.646 OA
ENDBRANCH  17  18
BRANCH  17  21
HETATM   21  C12 UNL     1       2.691  50.066  24.830  1.00  0.00     0.027 C 
HETATM   22  C13 UNL     1       2.604  51.249  23.870  1.00  0.00     0.008 C 
HETATM   23  C14 UNL     1       3.588  51.101  22.743  1.00  0.00     0.002 C 
HETATM   24  C15 UNL     1       3.742  49.645  22.410  1.00  0.00     0.020 C 
HETATM   25  C16 UNL     1       2.424  48.936  22.627  1.00  0.00     0.082 C 
HETATM   26 CL1  UNL     1       2.403  47.358  21.833  1.00  0.00    -0.125 Cl
HETATM   27  C17 UNL     1       2.131  48.825  24.120  1.00  0.00     0.028 C 
ENDBRANCH  17  21
ENDBRANCH  16  17
ENDBRANCH   1  16
TORSDOF 10
ENDMDL
