MODEL 1
REMARK VINA RESULT: -6.712924109      0.000      0.000
REMARK  10 active torsions:
REMARK  status: ('A' for Active; 'I' for Inactive)
REMARK    1  A    between atoms: C2_2  and  N1_3 
REMARK    2  A    between atoms: N2_6  and  C5_7 
REMARK    3  A    between atoms: C5_7  and  C6_8 
REMARK    4  A    between atoms: C5_7  and  C12_16 
REMARK    5  A    between atoms: C12_16  and  C14_18 
REMARK    6  A    between atoms: C14_18  and  O1_19 
REMARK    7  A    between atoms: C14_18  and  C15_21 
REMARK    8  A    between atoms: C15_21  and  O2_22 
REMARK    9  A    between atoms: C15_21  and  C16_24 
REMARK   10  A    between atoms: C16_24  and  C17_26 
ROOT
HETATM    1  C17 UNL     1       2.936  49.897  27.387  1.00  0.00     0.105 C 
HETATM    2  C18 UNL     1       3.010  51.314  27.897  1.00  0.00     0.039 C 
HETATM    3  C19 UNL     1       1.445  49.564  27.388  1.00  0.00     0.039 C 
HETATM    4  C20 UNL     1       3.556  49.017  28.363  1.00  0.00     0.076 C 
HETATM    5  N3  UNL     1       4.069  48.294  29.138  1.00  0.00    -0.196 NA
ENDROOT
BRANCH   1   6
HETATM    6  C16 UNL     1       3.533  49.739  26.041  1.00  0.00     0.179 C 
HETATM    7  O3  UNL     1       3.765  48.565  25.751  1.00  0.00    -0.293 OA
BRANCH   6   8
HETATM    8  C15 UNL     1       3.858  50.773  25.071  1.00  0.00     0.218 C 
BRANCH   8   9
HETATM    9  C14 UNL     1       2.992  50.964  23.851  1.00  0.00     0.160 C 
BRANCH   9  10
HETATM   10  C12 UNL     1       1.584  51.197  24.038  1.00  0.00     0.036 C 
HETATM   11  C13 UNL     1       1.496  52.510  24.900  1.00  0.00     0.014 C 
BRANCH  10  12
HETATM   12  C5  UNL     1       0.465  51.260  23.125  1.00  0.00     0.105 C 
BRANCH  12  13
HETATM   13  N2  UNL     1       0.435  50.373  21.956  1.00  0.00    -0.281 NA
HETATM   14  C4  UNL     1       1.235  50.788  20.850  1.00  0.00     0.077 C 
HETATM   15  C3  UNL     1       0.728  50.769  19.461  1.00  0.00     0.097 C 
HETATM   16  N1  UNL     1      -0.607  50.482  19.191  1.00  0.00    -0.388 N 
HETATM   17  C22 UNL     1      -1.131  49.626  20.175  1.00  0.00     0.137 C 
HETATM   18  C21 UNL     1      -0.936  50.357  21.508  1.00  0.00     0.115 C 
BRANCH  16  19
HETATM   19  C2  UNL     1      -1.429  51.431  18.559  1.00  0.00     0.118 C 
HETATM   20  C1  UNL     1      -1.734  50.923  17.142  1.00  0.00     0.026 C 
ENDBRANCH  16  19
ENDBRANCH  12  13
BRANCH  12  21
HETATM   21  C6  UNL     1      -0.738  50.736  23.905  1.00  0.00     0.004 A 
HETATM   22  C7  UNL     1      -0.753  49.475  24.499  1.00  0.00     0.043 A 
HETATM   23 CL1  UNL     1       0.568  48.378  24.187  1.00  0.00    -0.084 Cl
HETATM   24  C8  UNL     1      -1.807  49.056  25.324  1.00  0.00     0.024 A 
HETATM   25  C9  UNL     1      -2.853  49.881  25.564  1.00  0.00     0.003 A 
HETATM   26  C10 UNL     1      -2.894  51.137  25.006  1.00  0.00     0.024 A 
HETATM   27  C11 UNL     1      -1.817  51.517  24.192  1.00  0.00     0.043 A 
HETATM   28 CL2  UNL     1      -1.897  53.207  23.738  1.00  0.00    -0.084 Cl
ENDBRANCH  12  21
ENDBRANCH  10  12
ENDBRANCH   9  10
BRANCH   9  29
HETATM   29  O1  UNL     1       3.460  49.965  23.025  1.00  0.00    -0.392 OA
ATOM     30  H1  UNL     1       4.038  50.149  22.294  1.00  0.00     0.210 HD
ENDBRANCH   9  29
ENDBRANCH   8   9
BRANCH   8  31
HETATM   31  O2  UNL     1       5.210  50.600  24.604  1.00  0.00    -0.385 OA
ATOM     32  H2  UNL     1       5.570  51.469  24.469  1.00  0.00     0.210 HD
ENDBRANCH   8  31
ENDBRANCH   6   8
ENDBRANCH   1   6
TORSDOF 10
ENDMDL
MODEL 2
REMARK VINA RESULT: -6.429293166      0.175      1.653
REMARK  10 active torsions:
REMARK  status: ('A' for Active; 'I' for Inactive)
REMARK    1  A    between atoms: C2_2  and  N1_3 
REMARK    2  A    between atoms: N2_6  and  C5_7 
REMARK    3  A    between atoms: C5_7  and  C6_8 
REMARK    4  A    between atoms: C5_7  and  C12_16 
REMARK    5  A    between atoms: C12_16  and  C14_18 
REMARK    6  A    between atoms: C14_18  and  O1_19 
REMARK    7  A    between atoms: C14_18  and  C15_21 
REMARK    8  A    between atoms: C15_21  and  O2_22 
REMARK    9  A    between atoms: C15_21  and  C16_24 
REMARK   10  A    between atoms: C16_24  and  C17_26 
ROOT
HETATM    1  C17 UNL     1       2.992  49.783  27.299  1.00  0.00     0.105 C 
HETATM    2  C18 UNL     1       3.020  51.191  27.838  1.00  0.00     0.039 C 
HETATM    3  C19 UNL     1       1.509  49.416  27.259  1.00  0.00     0.039 C 
HETATM    4  C20 UNL     1       3.611  48.899  28.270  1.00  0.00     0.076 C 
HETATM    5  N3  UNL     1       4.124  48.171  29.041  1.00  0.00    -0.196 NA
ENDROOT
BRANCH   1   6
HETATM    6  C16 UNL     1       3.621  49.668  25.963  1.00  0.00     0.179 C 
HETATM    7  O3  UNL     1       3.929  48.511  25.674  1.00  0.00    -0.293 OA
BRANCH   6   8
HETATM    8  C15 UNL     1       3.899  50.723  25.002  1.00  0.00     0.218 C 
BRANCH   8   9
HETATM    9  C14 UNL     1       2.978  50.938  23.828  1.00  0.00     0.160 C 
BRANCH   9  10
HETATM   10  C12 UNL     1       1.591  51.221  24.086  1.00  0.00     0.036 C 
HETATM   11  C13 UNL     1       1.592  52.551  24.928  1.00  0.00     0.014 C 
BRANCH  10  12
HETATM   12  C5  UNL     1       0.425  51.306  23.234  1.00  0.00     0.105 C 
BRANCH  12  13
HETATM   13  N2  UNL     1       0.295  50.390  22.095  1.00  0.00    -0.281 NA
HETATM   14  C4  UNL     1       1.125  50.685  20.972  1.00  0.00     0.077 C 
HETATM   15  C3  UNL     1       0.607  50.673  19.587  1.00  0.00     0.097 C 
HETATM   16  N1  UNL     1      -0.753  50.517  19.333  1.00  0.00    -0.388 N 
HETATM   17  C22 UNL     1      -1.353  49.751  20.346  1.00  0.00     0.137 C 
HETATM   18  C21 UNL     1      -1.074  50.501  21.654  1.00  0.00     0.115 C 
BRANCH  16  19
HETATM   19  C2  UNL     1      -1.477  51.525  18.674  1.00  0.00     0.118 C 
HETATM   20  C1  UNL     1      -1.786  51.032  17.253  1.00  0.00     0.026 C 
ENDBRANCH  16  19
ENDBRANCH  12  13
BRANCH  12  21
HETATM   21  C6  UNL     1      -0.752  50.853  24.093  1.00  0.00     0.004 A 
HETATM   22  C7  UNL     1      -1.867  51.659  24.319  1.00  0.00     0.043 A 
HETATM   23 CL1  UNL     1      -1.840  53.314  23.764  1.00  0.00    -0.084 Cl
HETATM   24  C8  UNL     1      -3.000  51.186  24.996  1.00  0.00     0.024 A 
HETATM   25  C9  UNL     1      -3.037  49.912  25.455  1.00  0.00     0.003 A 
HETATM   26  C10 UNL     1      -1.968  49.070  25.261  1.00  0.00     0.024 A 
HETATM   27  C11 UNL     1      -0.857  49.582  24.575  1.00  0.00     0.043 A 
HETATM   28 CL2  UNL     1       0.324  48.342  24.208  1.00  0.00    -0.084 Cl
ENDBRANCH  12  21
ENDBRANCH  10  12
ENDBRANCH   9  10
BRANCH   9  29
HETATM   29  O1  UNL     1       3.367  49.920  22.985  1.00  0.00    -0.392 OA
ATOM     30  H1  UNL     1       3.780  50.093  22.147  1.00  0.00     0.210 HD
ENDBRANCH   9  29
ENDBRANCH   8   9
BRANCH   8  31
HETATM   31  O2  UNL     1       5.229  50.564  24.469  1.00  0.00    -0.385 OA
ATOM     32  H2  UNL     1       5.678  51.391  24.594  1.00  0.00     0.210 HD
ENDBRANCH   8  31
ENDBRANCH   6   8
ENDBRANCH   1   6
TORSDOF 10
ENDMDL
MODEL 3
REMARK VINA RESULT: -6.220463560      1.188      1.573
REMARK  10 active torsions:
REMARK  status: ('A' for Active; 'I' for Inactive)
REMARK    1  A    between atoms: C2_2  and  N1_3 
REMARK    2  A    between atoms: N2_6  and  C5_7 
REMARK    3  A    between atoms: C5_7  and  C6_8 
REMARK    4  A    between atoms: C5_7  and  C12_16 
REMARK    5  A    between atoms: C12_16  and  C14_18 
REMARK    6  A    between atoms: C14_18  and  O1_19 
REMARK    7  A    between atoms: C14_18  and  C15_21 
REMARK    8  A    between atoms: C15_21  and  O2_22 
REMARK    9  A    between atoms: C15_21  and  C16_24 
REMARK   10  A    between atoms: C16_24  and  C17_26 
ROOT
HETATM    1  C17 UNL     1       3.673  47.922  26.012  1.00  0.00     0.105 C 
HETATM    2  C18 UNL     1       3.080  46.644  25.476  1.00  0.00     0.039 C 
HETATM    3  C19 UNL     1       4.639  47.469  27.106  1.00  0.00     0.039 C 
HETATM    4  C20 UNL     1       2.626  48.681  26.673  1.00  0.00     0.076 C 
HETATM    5  N3  UNL     1       1.785  49.316  27.199  1.00  0.00    -0.196 NA
ENDROOT
BRANCH   1   6
HETATM    6  C16 UNL     1       4.361  48.718  24.969  1.00  0.00     0.179 C 
HETATM    7  O3  UNL     1       5.232  48.082  24.375  1.00  0.00    -0.293 OA
BRANCH   6   8
HETATM    8  C15 UNL     1       4.128  50.103  24.590  1.00  0.00     0.218 C 
BRANCH   8   9
HETATM    9  C14 UNL     1       3.200  50.428  23.448  1.00  0.00     0.160 C 
BRANCH   9  10
HETATM   10  C12 UNL     1       1.838  50.783  23.750  1.00  0.00     0.036 C 
HETATM   11  C13 UNL     1       1.941  52.015  24.725  1.00  0.00     0.014 C 
BRANCH  10  12
HETATM   12  C5  UNL     1       0.679  51.041  22.925  1.00  0.00     0.105 C 
BRANCH  12  13
HETATM   13  N2  UNL     1       0.444  50.220  21.731  1.00  0.00    -0.281 NA
HETATM   14  C4  UNL     1       1.121  50.647  20.549  1.00  0.00     0.077 C 
HETATM   15  C3  UNL     1       0.440  50.729  19.240  1.00  0.00     0.097 C 
HETATM   16  N1  UNL     1      -0.934  50.532  19.134  1.00  0.00    -0.388 N 
HETATM   17  C22 UNL     1      -1.380  49.656  20.138  1.00  0.00     0.137 C 
HETATM   18  C21 UNL     1      -0.971  50.305  21.466  1.00  0.00     0.115 C 
BRANCH  16  19
HETATM   19  C2  UNL     1      -1.768  51.557  18.658  1.00  0.00     0.118 C 
HETATM   20  C1  UNL     1      -2.101  51.252  17.190  1.00  0.00     0.026 C 
ENDBRANCH  16  19
ENDBRANCH  12  13
BRANCH  12  21
HETATM   21  C6  UNL     1      -0.530  50.654  23.773  1.00  0.00     0.004 A 
HETATM   22  C7  UNL     1      -0.655  49.402  24.371  1.00  0.00     0.043 A 
HETATM   23 CL1  UNL     1       0.514  48.162  23.989  1.00  0.00    -0.084 Cl
HETATM   24  C8  UNL     1      -1.701  49.102  25.255  1.00  0.00     0.024 A 
HETATM   25  C9  UNL     1      -2.632  50.039  25.551  1.00  0.00     0.003 A 
HETATM   26  C10 UNL     1      -2.561  51.294  24.992  1.00  0.00     0.024 A 
HETATM   27  C11 UNL     1      -1.495  51.552  24.118  1.00  0.00     0.043 A 
HETATM   28 CL2  UNL     1      -1.408  53.242  23.663  1.00  0.00    -0.084 Cl
ENDBRANCH  12  21
ENDBRANCH  10  12
ENDBRANCH   9  10
BRANCH   9  29
HETATM   29  O1  UNL     1       3.508  49.427  22.552  1.00  0.00    -0.392 OA
ATOM     30  H1  UNL     1       4.329  49.419  22.075  1.00  0.00     0.210 HD
ENDBRANCH   9  29
ENDBRANCH   8   9
BRANCH   8  31
HETATM   31  O2  UNL     1       5.384  50.752  24.309  1.00  0.00    -0.385 OA
ATOM     32  H2  UNL     1       6.064  50.228  24.715  1.00  0.00     0.210 HD
ENDBRANCH   8  31
ENDBRANCH   6   8
ENDBRANCH   1   6
TORSDOF 10
ENDMDL
MODEL 4
REMARK VINA RESULT: -5.970723546      1.696      2.804
REMARK  10 active torsions:
REMARK  status: ('A' for Active; 'I' for Inactive)
REMARK    1  A    between atoms: C2_2  and  N1_3 
REMARK    2  A    between atoms: N2_6  and  C5_7 
REMARK    3  A    between atoms: C5_7  and  C6_8 
REMARK    4  A    between atoms: C5_7  and  C12_16 
REMARK    5  A    between atoms: C12_16  and  C14_18 
REMARK    6  A    between atoms: C14_18  and  O1_19 
REMARK    7  A    between atoms: C14_18  and  C15_21 
REMARK    8  A    between atoms: C15_21  and  O2_22 
REMARK    9  A    between atoms: C15_21  and  C16_24 
REMARK   10  A    between atoms: C16_24  and  C17_26 
ROOT
HETATM    1  C17 UNL     1       4.896  47.872  24.331  1.00  0.00     0.105 C 
HETATM    2  C18 UNL     1       4.147  46.879  23.478  1.00  0.00     0.039 C 
HETATM    3  C19 UNL     1       6.073  47.081  24.899  1.00  0.00     0.039 C 
HETATM    4  C20 UNL     1       4.061  48.240  25.461  1.00  0.00     0.076 C 
HETATM    5  N3  UNL     1       3.390  48.559  26.374  1.00  0.00    -0.196 NA
ENDROOT
BRANCH   1   6
HETATM    6  C16 UNL     1       5.350  49.057  23.567  1.00  0.00     0.179 C 
HETATM    7  O3  UNL     1       6.350  48.836  22.884  1.00  0.00    -0.293 OA
BRANCH   6   8
HETATM    8  C15 UNL     1       4.768  50.389  23.539  1.00  0.00     0.218 C 
BRANCH   8   9
HETATM    9  C14 UNL     1       3.579  50.676  22.657  1.00  0.00     0.160 C 
BRANCH   9  10
HETATM   10  C12 UNL     1       2.270  50.702  23.255  1.00  0.00     0.036 C 
HETATM   11  C13 UNL     1       2.400  51.676  24.485  1.00  0.00     0.014 C 
BRANCH  10  12
HETATM   12  C5  UNL     1       0.946  50.930  22.723  1.00  0.00     0.105 C 
BRANCH  12  13
HETATM   13  N2  UNL     1       0.457  50.095  21.619  1.00  0.00    -0.281 NA
HETATM   14  C4  UNL     1       1.106  50.296  20.363  1.00  0.00     0.077 C 
HETATM   15  C3  UNL     1       0.349  50.426  19.100  1.00  0.00     0.097 C 
HETATM   16  N1  UNL     1      -1.041  50.504  19.103  1.00  0.00    -0.388 N 
HETATM   17  C22 UNL     1      -1.566  49.806  20.203  1.00  0.00     0.137 C 
HETATM   18  C21 UNL     1      -0.930  50.446  21.443  1.00  0.00     0.115 C 
BRANCH  16  19
HETATM   19  C2  UNL     1      -1.693  51.643  18.601  1.00  0.00     0.118 C 
HETATM   20  C1  UNL     1      -2.273  51.287  17.224  1.00  0.00     0.026 C 
ENDBRANCH  16  19
ENDBRANCH  12  13
BRANCH  12  21
HETATM   21  C6  UNL     1      -0.024  50.525  23.830  1.00  0.00     0.004 A 
HETATM   22  C7  UNL     1      -1.030  51.372  24.290  1.00  0.00     0.043 A 
HETATM   23 CL1  UNL     1      -1.072  53.022  23.721  1.00  0.00    -0.084 Cl
HETATM   24  C8  UNL     1      -1.998  50.944  25.210  1.00  0.00     0.024 A 
HETATM   25  C9  UNL     1      -1.975  49.675  25.681  1.00  0.00     0.003 A 
HETATM   26  C10 UNL     1      -1.007  48.793  25.263  1.00  0.00     0.024 A 
HETATM   27  C11 UNL     1      -0.062  49.261  24.339  1.00  0.00     0.043 A 
HETATM   28 CL2  UNL     1       0.963  47.976  23.733  1.00  0.00    -0.084 Cl
ENDBRANCH  12  21
ENDBRANCH  10  12
ENDBRANCH   9  10
BRANCH   9  29
HETATM   29  O1  UNL     1       3.859  49.894  21.557  1.00  0.00    -0.392 OA
ATOM     30  H1  UNL     1       3.392  49.086  21.386  1.00  0.00     0.210 HD
ENDBRANCH   9  29
ENDBRANCH   8   9
BRANCH   8  31
HETATM   31  O2  UNL     1       5.780  51.360  23.208  1.00  0.00    -0.385 OA
ATOM     32  H2  UNL     1       6.576  50.877  23.021  1.00  0.00     0.210 HD
ENDBRANCH   8  31
ENDBRANCH   6   8
ENDBRANCH   1   6
TORSDOF 10
ENDMDL
MODEL 5
REMARK VINA RESULT: -5.903101604      2.939      5.763
REMARK  10 active torsions:
REMARK  status: ('A' for Active; 'I' for Inactive)
REMARK    1  A    between atoms: C2_2  and  N1_3 
REMARK    2  A    between atoms: N2_6  and  C5_7 
REMARK    3  A    between atoms: C5_7  and  C6_8 
REMARK    4  A    between atoms: C5_7  and  C12_16 
REMARK    5  A    between atoms: C12_16  and  C14_18 
REMARK    6  A    between atoms: C14_18  and  O1_19 
REMARK    7  A    between atoms: C14_18  and  C15_21 
REMARK    8  A    between atoms: C15_21  and  O2_22 
REMARK    9  A    between atoms: C15_21  and  C16_24 
REMARK   10  A    between atoms: C16_24  and  C17_26 
ROOT
HETATM    1  C17 UNL     1       2.427  49.579  19.195  1.00  0.00     0.105 C 
HETATM    2  C18 UNL     1       1.623  50.803  19.553  1.00  0.00     0.039 C 
HETATM    3  C19 UNL     1       3.688  49.682  20.053  1.00  0.00     0.039 C 
HETATM    4  C20 UNL     1       2.858  49.692  17.812  1.00  0.00     0.076 C 
HETATM    5  N3  UNL     1       3.201  49.762  16.688  1.00  0.00    -0.196 NA
ENDROOT
BRANCH   1   6
HETATM    6  C16 UNL     1       1.695  48.316  19.446  1.00  0.00     0.179 C 
HETATM    7  O3  UNL     1       2.011  47.413  18.671  1.00  0.00    -0.293 OA
BRANCH   6   8
HETATM    8  C15 UNL     1       0.690  48.043  20.461  1.00  0.00     0.218 C 
BRANCH   8   9
HETATM    9  C14 UNL     1       1.086  47.383  21.758  1.00  0.00     0.160 C 
BRANCH   9  10
HETATM   10  C12 UNL     1       1.441  48.220  22.874  1.00  0.00     0.036 C 
HETATM   11  C13 UNL     1       2.937  47.856  23.202  1.00  0.00     0.014 C 
BRANCH  10  12
HETATM   12  C5  UNL     1       1.329  49.641  23.117  1.00  0.00     0.105 C 
BRANCH  12  13
HETATM   13  N2  UNL     1      -0.000  50.250  23.241  1.00  0.00    -0.281 NA
HETATM   14  C4  UNL     1      -0.973  49.800  22.298  1.00  0.00     0.077 C 
HETATM   15  C3  UNL     1      -1.856  50.738  21.572  1.00  0.00     0.097 C 
HETATM   16  N1  UNL     1      -1.675  52.114  21.671  1.00  0.00    -0.388 N 
HETATM   17  C22 UNL     1      -1.125  52.445  22.921  1.00  0.00     0.137 C 
HETATM   18  C21 UNL     1       0.190  51.662  23.016  1.00  0.00     0.115 C 
BRANCH  16  19
HETATM   19  C2  UNL     1      -1.372  52.879  20.532  1.00  0.00     0.118 C 
HETATM   20  C1  UNL     1      -2.090  52.244  19.332  1.00  0.00     0.026 C 
ENDBRANCH  16  19
ENDBRANCH  12  13
BRANCH  12  21
HETATM   21  C6  UNL     1       1.872  49.867  24.525  1.00  0.00     0.004 A 
HETATM   22  C7  UNL     1       2.982  50.671  24.779  1.00  0.00     0.043 A 
HETATM   23 CL1  UNL     1       3.902  51.292  23.432  1.00  0.00    -0.084 Cl
HETATM   24  C8  UNL     1       3.392  50.980  26.084  1.00  0.00     0.024 A 
HETATM   25  C9  UNL     1       2.707  50.494  27.146  1.00  0.00     0.003 A 
HETATM   26  C10 UNL     1       1.603  49.695  26.958  1.00  0.00     0.024 A 
HETATM   27  C11 UNL     1       1.225  49.415  25.637  1.00  0.00     0.043 A 
HETATM   28 CL2  UNL     1      -0.313  48.582  25.552  1.00  0.00    -0.084 Cl
ENDBRANCH  12  21
ENDBRANCH  10  12
ENDBRANCH   9  10
BRANCH   9  29
HETATM   29  O1  UNL     1       1.916  46.378  21.311  1.00  0.00    -0.392 OA
ATOM     30  H1  UNL     1       2.644  46.553  20.727  1.00  0.00     0.210 HD
ENDBRANCH   9  29
ENDBRANCH   8   9
BRANCH   8  31
HETATM   31  O2  UNL     1      -0.376  47.253  19.897  1.00  0.00    -0.385 OA
ATOM     32  H2  UNL     1      -1.012  47.862  19.540  1.00  0.00     0.210 HD
ENDBRANCH   8  31
ENDBRANCH   6   8
ENDBRANCH   1   6
TORSDOF 10
ENDMDL
