MODEL 1
REMARK VINA RESULT: -7.966091479      0.000      0.000
REMARK  4 active torsions:
REMARK  status: ('A' for Active; 'I' for Inactive)
REMARK    1  A    between atoms: C1_2  and  C2_4 
REMARK    2  A    between atoms: C2_4  and  N2_5 
REMARK    3  A    between atoms: C2_4  and  C3_9 
REMARK       I    between atoms: C3_9  and  N3_11 
REMARK    4  A    between atoms: C4_13  and  C5_14 
ROOT
HETATM    1  C3  UNL     1      10.044   7.345  42.070  1.00  0.00     0.274 C 
HETATM    2  O2  UNL     1      10.576   6.616  41.198  1.00  0.00    -0.269 OA
HETATM    3  N3  UNL     1       8.668   7.629  42.033  1.00  0.00    -0.252 N 
HETATM    4  S1  UNL     1       8.026   8.856  43.158  1.00  0.00    -0.035 SA
HETATM    5  C4  UNL     1       6.386   9.299  42.461  1.00  0.00     0.107 C 
HETATM    6  C11 UNL     1       6.481   9.173  40.972  1.00  0.00     0.062 C 
HETATM    7  C12 UNL     1       6.683   7.757  40.598  1.00  0.00    -0.029 A 
HETATM    8  C13 UNL     1       5.828   7.127  39.728  1.00  0.00     0.009 A 
HETATM    9  C14 UNL     1       6.009   5.796  39.376  1.00  0.00     0.001 A 
HETATM   10  C15 UNL     1       7.089   5.099  39.929  1.00  0.00     0.002 A 
HETATM   11  C16 UNL     1       7.968   5.700  40.807  1.00  0.00     0.031 A 
HETATM   12  C17 UNL     1       7.745   7.043  41.132  1.00  0.00     0.055 A 
ENDROOT
BRANCH   1  13
HETATM   13  C2  UNL     1      10.945   7.889  43.138  1.00  0.00     0.364 C 
BRANCH  13  14
HETATM   14  C1  UNL     1      11.205   6.889  44.205  1.00  0.00     0.271 C 
HETATM   15  N1  UNL     1      10.490   6.890  45.445  1.00  0.00    -0.060 NA
HETATM   16  O1  UNL     1      12.066   5.995  44.068  1.00  0.00    -0.274 OA
ENDBRANCH  13  14
BRANCH  13  17
HETATM   17  N2  UNL     1      12.246   8.132  42.493  1.00  0.00    -0.058 N 
ATOM     18  H23 UNL     1      12.657   7.297  42.074  1.00  0.00     0.275 HD
ATOM     19  H22 UNL     1      12.180   8.680  41.635  1.00  0.00     0.275 HD
ATOM     20  H21 UNL     1      12.834   8.562  43.208  1.00  0.00     0.275 HD
ENDBRANCH  13  17
ENDBRANCH   1  13
BRANCH   5  21
HETATM   21  C5  UNL     1       5.986  10.663  42.890  1.00  0.00    -0.042 A 
HETATM   22  C6  UNL     1       6.405  11.244  44.047  1.00  0.00     0.008 A 
HETATM   23  C7  UNL     1       6.014  12.514  44.417  1.00  0.00     0.001 A 
HETATM   24  C8  UNL     1       5.169  13.256  43.618  1.00  0.00     0.000 A 
HETATM   25  C9  UNL     1       4.746  12.659  42.444  1.00  0.00     0.001 A 
HETATM   26  C10 UNL     1       5.138  11.384  42.071  1.00  0.00     0.008 A 
ENDBRANCH   5  21
TORSDOF 4
ENDMDL
MODEL 2
REMARK VINA RESULT: -7.926412566      2.752      5.419
REMARK  4 active torsions:
REMARK  status: ('A' for Active; 'I' for Inactive)
REMARK    1  A    between atoms: C1_2  and  C2_4 
REMARK    2  A    between atoms: C2_4  and  N2_5 
REMARK    3  A    between atoms: C2_4  and  C3_9 
REMARK       I    between atoms: C3_9  and  N3_11 
REMARK    4  A    between atoms: C4_13  and  C5_14 
ROOT
HETATM    1  C3  UNL     1       7.201   8.629  45.318  1.00  0.00     0.274 C 
HETATM    2  O2  UNL     1       6.943   8.687  46.545  1.00  0.00    -0.269 OA
HETATM    3  N3  UNL     1       6.840   9.675  44.453  1.00  0.00    -0.252 N 
HETATM    4  S1  UNL     1       7.024   9.422  42.695  1.00  0.00    -0.035 SA
HETATM    5  C4  UNL     1       5.995  10.741  41.937  1.00  0.00     0.107 C 
HETATM    6  C11 UNL     1       4.841  10.996  42.855  1.00  0.00     0.062 C 
HETATM    7  C12 UNL     1       5.327  11.578  44.125  1.00  0.00    -0.029 A 
HETATM    8  C13 UNL     1       4.839  12.775  44.587  1.00  0.00     0.009 A 
HETATM    9  C14 UNL     1       5.294  13.329  45.776  1.00  0.00     0.001 A 
HETATM   10  C15 UNL     1       6.270  12.640  46.504  1.00  0.00     0.002 A 
HETATM   11  C16 UNL     1       6.784  11.434  46.070  1.00  0.00     0.031 A 
HETATM   12  C17 UNL     1       6.294  10.915  44.866  1.00  0.00     0.055 A 
ENDROOT
BRANCH   1  13
HETATM   13  C2  UNL     1       7.906   7.396  44.835  1.00  0.00     0.364 C 
BRANCH  13  14
HETATM   14  C1  UNL     1       9.346   7.405  45.195  1.00  0.00     0.271 C 
HETATM   15  N1  UNL     1       9.819   6.952  46.468  1.00  0.00    -0.060 NA
HETATM   16  O1  UNL     1      10.219   7.811  44.398  1.00  0.00    -0.274 OA
ENDBRANCH  13  14
BRANCH  13  17
HETATM   17  N2  UNL     1       7.316   6.269  45.574  1.00  0.00    -0.058 N 
ATOM     18  H23 UNL     1       7.806   5.385  45.432  1.00  0.00     0.275 HD
ATOM     19  H22 UNL     1       7.456   6.324  46.583  1.00  0.00     0.275 HD
ATOM     20  H21 UNL     1       6.334   6.240  45.299  1.00  0.00     0.275 HD
ENDBRANCH  13  17
ENDBRANCH   1  13
BRANCH   5  21
HETATM   21  C5  UNL     1       5.558  10.344  40.574  1.00  0.00    -0.042 A 
HETATM   22  C6  UNL     1       6.396   9.835  39.630  1.00  0.00     0.008 A 
HETATM   23  C7  UNL     1       5.958   9.476  38.373  1.00  0.00     0.001 A 
HETATM   24  C8  UNL     1       4.633   9.623  38.015  1.00  0.00     0.000 A 
HETATM   25  C9  UNL     1       3.787  10.142  38.980  1.00  0.00     0.001 A 
HETATM   26  C10 UNL     1       4.227  10.502  40.243  1.00  0.00     0.008 A 
ENDBRANCH   5  21
TORSDOF 4
ENDMDL
MODEL 3
REMARK VINA RESULT: -7.908571290      1.342      1.551
REMARK  4 active torsions:
REMARK  status: ('A' for Active; 'I' for Inactive)
REMARK    1  A    between atoms: C1_2  and  C2_4 
REMARK    2  A    between atoms: C2_4  and  N2_5 
REMARK    3  A    between atoms: C2_4  and  C3_9 
REMARK       I    between atoms: C3_9  and  N3_11 
REMARK    4  A    between atoms: C4_13  and  C5_14 
ROOT
HETATM    1  C3  UNL     1       9.519   8.239  41.357  1.00  0.00     0.274 C 
HETATM    2  O2  UNL     1      10.087   7.404  40.611  1.00  0.00    -0.269 OA
HETATM    3  N3  UNL     1       8.123   8.394  41.338  1.00  0.00    -0.252 N 
HETATM    4  S1  UNL     1       7.410   9.755  42.246  1.00  0.00    -0.035 SA
HETATM    5  C4  UNL     1       5.713   9.917  41.564  1.00  0.00     0.107 C 
HETATM    6  C11 UNL     1       5.768   9.519  40.121  1.00  0.00     0.062 C 
HETATM    7  C12 UNL     1       6.086   8.079  40.008  1.00  0.00    -0.029 A 
HETATM    8  C13 UNL     1       5.264   7.225  39.316  1.00  0.00     0.009 A 
HETATM    9  C14 UNL     1       5.555   5.872  39.210  1.00  0.00     0.001 A 
HETATM   10  C15 UNL     1       6.712   5.386  39.828  1.00  0.00     0.002 A 
HETATM   11  C16 UNL     1       7.562   6.215  40.532  1.00  0.00     0.031 A 
HETATM   12  C17 UNL     1       7.228   7.572  40.611  1.00  0.00     0.055 A 
ENDROOT
BRANCH   1  13
HETATM   13  C2  UNL     1      10.403   9.050  42.258  1.00  0.00     0.364 C 
BRANCH  13  14
HETATM   14  C1  UNL     1      11.485   8.229  42.858  1.00  0.00     0.271 C 
HETATM   15  N1  UNL     1      11.269   7.399  44.004  1.00  0.00    -0.060 NA
HETATM   16  O1  UNL     1      12.641   8.223  42.386  1.00  0.00    -0.274 OA
ENDBRANCH  13  14
BRANCH  13  17
HETATM   17  N2  UNL     1      11.080  10.031  41.393  1.00  0.00    -0.058 N 
ATOM     18  H23 UNL     1      10.691  10.972  41.462  1.00  0.00     0.275 HD
ATOM     19  H22 UNL     1      12.023  10.266  41.702  1.00  0.00     0.275 HD
ATOM     20  H21 UNL     1      11.043   9.642  40.451  1.00  0.00     0.275 HD
ENDBRANCH  13  17
ENDBRANCH   1  13
BRANCH   5  21
HETATM   21  C5  UNL     1       5.204  11.299  41.751  1.00  0.00    -0.042 A 
HETATM   22  C6  UNL     1       5.093  11.906  42.964  1.00  0.00     0.008 A 
HETATM   23  C7  UNL     1       4.616  13.192  43.103  1.00  0.00     0.001 A 
HETATM   24  C8  UNL     1       4.223  13.926  42.003  1.00  0.00     0.000 A 
HETATM   25  C9  UNL     1       4.337  13.302  40.773  1.00  0.00     0.001 A 
HETATM   26  C10 UNL     1       4.817  12.011  40.632  1.00  0.00     0.008 A 
ENDBRANCH   5  21
TORSDOF 4
ENDMDL
MODEL 4
REMARK VINA RESULT: -7.783505648      2.499      5.149
REMARK  4 active torsions:
REMARK  status: ('A' for Active; 'I' for Inactive)
REMARK    1  A    between atoms: C1_2  and  C2_4 
REMARK    2  A    between atoms: C2_4  and  N2_5 
REMARK    3  A    between atoms: C2_4  and  C3_9 
REMARK       I    between atoms: C3_9  and  N3_11 
REMARK    4  A    between atoms: C4_13  and  C5_14 
ROOT
HETATM    1  C3  UNL     1       8.889   7.318  44.386  1.00  0.00     0.274 C 
HETATM    2  O2  UNL     1       8.294   7.264  45.490  1.00  0.00    -0.269 OA
HETATM    3  N3  UNL     1       8.749   8.434  43.544  1.00  0.00    -0.252 N 
HETATM    4  S1  UNL     1       9.428   8.341  41.896  1.00  0.00    -0.035 SA
HETATM    5  C4  UNL     1       8.609   9.711  40.989  1.00  0.00     0.107 C 
HETATM    6  C11 UNL     1       7.234   9.871  41.561  1.00  0.00     0.062 C 
HETATM    7  C12 UNL     1       7.323  10.342  42.960  1.00  0.00    -0.029 A 
HETATM    8  C13 UNL     1       6.683  11.488  43.363  1.00  0.00     0.009 A 
HETATM    9  C14 UNL     1       6.765  11.938  44.674  1.00  0.00     0.001 A 
HETATM   10  C15 UNL     1       7.521  11.196  45.589  1.00  0.00     0.002 A 
HETATM   11  C16 UNL     1       8.178  10.040  45.219  1.00  0.00     0.031 A 
HETATM   12  C17 UNL     1       8.065   9.626  43.887  1.00  0.00     0.055 A 
ENDROOT
BRANCH   1  13
HETATM   13  C2  UNL     1       9.744   6.141  44.022  1.00  0.00     0.364 C 
BRANCH  13  14
HETATM   14  C1  UNL     1      11.180   6.392  44.305  1.00  0.00     0.271 C 
HETATM   15  N1  UNL     1      12.211   6.084  43.361  1.00  0.00    -0.060 NA
HETATM   16  O1  UNL     1      11.557   6.887  45.388  1.00  0.00    -0.274 OA
ENDBRANCH  13  14
BRANCH  13  17
HETATM   17  N2  UNL     1       9.344   5.048  44.923  1.00  0.00    -0.058 N 
ATOM     18  H23 UNL     1       9.979   4.249  44.903  1.00  0.00     0.275 HD
ATOM     19  H22 UNL     1       9.459   5.271  45.912  1.00  0.00     0.275 HD
ATOM     20  H21 UNL     1       8.385   4.814  44.666  1.00  0.00     0.275 HD
ENDBRANCH  13  17
ENDBRANCH   1  13
BRANCH   5  21
HETATM   21  C5  UNL     1       8.587   9.434  39.531  1.00  0.00    -0.042 A 
HETATM   22  C6  UNL     1       8.307  10.374  38.587  1.00  0.00     0.008 A 
HETATM   23  C7  UNL     1       8.295  10.084  37.239  1.00  0.00     0.001 A 
HETATM   24  C8  UNL     1       8.567   8.809  36.786  1.00  0.00     0.000 A 
HETATM   25  C9  UNL     1       8.849   7.858  37.751  1.00  0.00     0.001 A 
HETATM   26  C10 UNL     1       8.862   8.149  39.105  1.00  0.00     0.008 A 
ENDBRANCH   5  21
TORSDOF 4
ENDMDL
MODEL 5
REMARK VINA RESULT: -7.754865471      1.715      2.281
REMARK  4 active torsions:
REMARK  status: ('A' for Active; 'I' for Inactive)
REMARK    1  A    between atoms: C1_2  and  C2_4 
REMARK    2  A    between atoms: C2_4  and  N2_5 
REMARK    3  A    between atoms: C2_4  and  C3_9 
REMARK       I    between atoms: C3_9  and  N3_11 
REMARK    4  A    between atoms: C4_13  and  C5_14 
ROOT
HETATM    1  C3  UNL     1       8.729   9.021  41.726  1.00  0.00     0.274 C 
HETATM    2  O2  UNL     1       9.217   8.465  40.712  1.00  0.00    -0.269 OA
HETATM    3  N3  UNL     1       7.364   9.347  41.786  1.00  0.00    -0.252 N 
HETATM    4  S1  UNL     1       6.790  10.344  43.151  1.00  0.00    -0.035 SA
HETATM    5  C4  UNL     1       5.151  10.964  42.602  1.00  0.00     0.107 C 
HETATM    6  C11 UNL     1       5.209  11.135  41.116  1.00  0.00     0.062 C 
HETATM    7  C12 UNL     1       5.352   9.816  40.463  1.00  0.00    -0.029 A 
HETATM    8  C13 UNL     1       4.457   9.397  39.510  1.00  0.00     0.009 A 
HETATM    9  C14 UNL     1       4.585   8.159  38.895  1.00  0.00     0.001 A 
HETATM   10  C15 UNL     1       5.651   7.334  39.268  1.00  0.00     0.002 A 
HETATM   11  C16 UNL     1       6.570   7.722  40.223  1.00  0.00     0.031 A 
HETATM   12  C17 UNL     1       6.401   8.980  40.814  1.00  0.00     0.055 A 
ENDROOT
BRANCH   1  13
HETATM   13  C2  UNL     1       9.673   9.314  42.855  1.00  0.00     0.364 C 
BRANCH  13  14
HETATM   14  C1  UNL     1      10.093   8.078  43.561  1.00  0.00     0.271 C 
HETATM   15  N1  UNL     1      11.463   7.673  43.646  1.00  0.00    -0.060 NA
HETATM   16  O1  UNL     1       9.264   7.328  44.118  1.00  0.00    -0.274 OA
ENDBRANCH  13  14
BRANCH  13  17
HETATM   17  N2  UNL     1      10.895   9.856  42.238  1.00  0.00    -0.058 N 
ATOM     18  H23 UNL     1      11.677   9.943  42.888  1.00  0.00     0.275 HD
ATOM     19  H22 UNL     1      11.346   9.211  41.589  1.00  0.00     0.275 HD
ATOM     20  H21 UNL     1      10.619  10.741  41.810  1.00  0.00     0.275 HD
ENDBRANCH  13  17
ENDBRANCH   1  13
BRANCH   5  21
HETATM   21  C5  UNL     1       4.808  12.226  43.305  1.00  0.00    -0.042 A 
HETATM   22  C6  UNL     1       4.901  12.390  44.653  1.00  0.00     0.008 A 
HETATM   23  C7  UNL     1       4.574  13.577  45.275  1.00  0.00     0.001 A 
HETATM   24  C8  UNL     1       4.131  14.661  44.545  1.00  0.00     0.000 A 
HETATM   25  C9  UNL     1       4.038  14.487  43.176  1.00  0.00     0.001 A 
HETATM   26  C10 UNL     1       4.367  13.296  42.550  1.00  0.00     0.008 A 
ENDBRANCH   5  21
TORSDOF 4
ENDMDL
