MODEL 1
REMARK VINA RESULT: -8.000848223      0.000      0.000
REMARK  7 active torsions:
REMARK  status: ('A' for Active; 'I' for Inactive)
REMARK    1  A    between atoms: C2_2  and  C4_4 
REMARK    2  A    between atoms: C4_4  and  N1_5 
REMARK    3  A    between atoms: C4_4  and  C5_9 
REMARK    4  A    between atoms: C5_9  and  O1_10 
REMARK    5  A    between atoms: C5_9  and  N2_12 
REMARK       I    between atoms: N3_14  and  C7_15 
REMARK    6  A    between atoms: C7_15  and  C8_17 
REMARK    7  A    between atoms: C9_18  and  C10_19 
ROOT
HETATM    1  N2  UNL     1       8.180   9.040  45.430  1.00  0.00    -0.330 N 
HETATM    2  C6  UNL     1       7.343   9.894  46.314  1.00  0.00     0.255 C 
HETATM    3  N3  UNL     1       6.470  10.756  45.589  1.00  0.00    -0.332 N 
HETATM    4  C7  UNL     1       5.657  11.643  46.388  1.00  0.00     0.244 C 
HETATM    5  O2  UNL     1       5.737  11.631  47.649  1.00  0.00    -0.268 OA
HETATM    6  C14 UNL     1       6.301  10.853  44.175  1.00  0.00     0.131 C 
HETATM    7  C15 UNL     1       7.013   9.713  43.496  1.00  0.00     0.060 C 
HETATM    8  C16 UNL     1       8.407   9.637  44.153  1.00  0.00     0.196 C 
HETATM    9  C17 UNL     1       8.790  11.066  44.338  1.00  0.00     0.085 C 
HETATM   10  N4  UNL     1       9.105  12.166  44.485  1.00  0.00    -0.195 NA
ENDROOT
BRANCH   1  11
HETATM   11  C5  UNL     1       8.610   7.817  45.940  1.00  0.00     0.147 C 
BRANCH  11  12
HETATM   12  C4  UNL     1       8.581   6.476  45.382  1.00  0.00     0.260 C 
BRANCH  12  13
HETATM   13  C2  UNL     1       9.248   6.401  43.993  1.00  0.00     0.016 C 
HETATM   14  C1  UNL     1      10.731   6.142  44.235  1.00  0.00     0.012 C 
HETATM   15  C3  UNL     1       8.711   5.267  43.189  1.00  0.00     0.012 C 
ENDBRANCH  12  13
BRANCH  12  16
HETATM   16  N1  UNL     1       9.083   5.414  46.178  1.00  0.00    -0.067 N 
ATOM     17  H13 UNL     1       9.755   4.833  45.678  1.00  0.00     0.275 HD
ATOM     18  H12 UNL     1       9.704   5.739  46.920  1.00  0.00     0.275 HD
ATOM     19  H11 UNL     1       8.292   4.878  46.537  1.00  0.00     0.275 HD
ENDBRANCH  12  16
ENDBRANCH  11  12
BRANCH  11  20
HETATM   20  O1  UNL     1       9.135   7.874  47.128  1.00  0.00    -0.348 OA
ATOM     21  H1  UNL     1       8.964   8.693  47.580  1.00  0.00     0.219 HD
ENDBRANCH  11  20
ENDBRANCH   1  11
BRANCH   4  22
HETATM   22  C8  UNL     1       4.735  12.568  45.778  1.00  0.00     0.071 C 
HETATM   23  C9  UNL     1       5.062  13.801  45.501  1.00  0.00    -0.013 C 
BRANCH  23  24
HETATM   24  C10 UNL     1       4.093  14.741  44.871  1.00  0.00    -0.034 C 
HETATM   25  C11 UNL     1       4.751  16.095  44.651  1.00  0.00     0.018 C 
HETATM   26  C12 UNL     1       3.681  14.221  43.493  1.00  0.00     0.018 C 
HETATM   27  C13 UNL     1       2.895  14.838  45.788  1.00  0.00     0.018 C 
ENDBRANCH  23  24
ENDBRANCH   4  22
TORSDOF 7
ENDMDL
MODEL 2
REMARK VINA RESULT: -7.796359213      3.333      5.071
REMARK  7 active torsions:
REMARK  status: ('A' for Active; 'I' for Inactive)
REMARK    1  A    between atoms: C2_2  and  C4_4 
REMARK    2  A    between atoms: C4_4  and  N1_5 
REMARK    3  A    between atoms: C4_4  and  C5_9 
REMARK    4  A    between atoms: C5_9  and  O1_10 
REMARK    5  A    between atoms: C5_9  and  N2_12 
REMARK       I    between atoms: N3_14  and  C7_15 
REMARK    6  A    between atoms: C7_15  and  C8_17 
REMARK    7  A    between atoms: C9_18  and  C10_19 
ROOT
HETATM    1  N2  UNL     1       9.699   6.015  42.240  1.00  0.00    -0.330 N 
HETATM    2  C6  UNL     1       8.557   6.288  43.152  1.00  0.00     0.255 C 
HETATM    3  N3  UNL     1       8.554   7.624  43.653  1.00  0.00    -0.332 N 
HETATM    4  C7  UNL     1       7.492   7.944  44.578  1.00  0.00     0.244 C 
HETATM    5  O2  UNL     1       6.636   7.075  44.904  1.00  0.00    -0.268 OA
HETATM    6  C14 UNL     1       9.466   8.679  43.354  1.00  0.00     0.131 C 
HETATM    7  C15 UNL     1      10.351   8.280  42.202  1.00  0.00     0.060 C 
HETATM    8  C16 UNL     1      10.827   6.847  42.516  1.00  0.00     0.196 C 
HETATM    9  C17 UNL     1      11.076   6.868  43.985  1.00  0.00     0.085 C 
HETATM   10  N4  UNL     1      11.277   6.868  45.121  1.00  0.00    -0.195 NA
ENDROOT
BRANCH   1  11
HETATM   11  C5  UNL     1       9.525   5.029  41.272  1.00  0.00     0.147 C 
BRANCH  11  12
HETATM   12  C4  UNL     1       8.930   5.073  39.946  1.00  0.00     0.260 C 
BRANCH  12  13
HETATM   13  C2  UNL     1       9.583   6.140  39.044  1.00  0.00     0.016 C 
HETATM   14  C1  UNL     1       9.626   5.555  37.637  1.00  0.00     0.012 C 
HETATM   15  C3  UNL     1       8.769   7.387  38.996  1.00  0.00     0.012 C 
ENDBRANCH  12  13
BRANCH  12  16
HETATM   16  N1  UNL     1       8.845   3.859  39.216  1.00  0.00    -0.067 N 
ATOM     17  H13 UNL     1       8.064   3.276  39.516  1.00  0.00     0.275 HD
ATOM     18  H12 UNL     1       8.549   4.003  38.250  1.00  0.00     0.275 HD
ATOM     19  H11 UNL     1       9.741   3.378  39.284  1.00  0.00     0.275 HD
ENDBRANCH  12  16
ENDBRANCH  11  12
BRANCH  11  20
HETATM   20  O1  UNL     1       9.969   3.853  41.603  1.00  0.00    -0.348 OA
ATOM     21  H1  UNL     1       9.426   3.408  42.244  1.00  0.00     0.219 HD
ENDBRANCH  11  20
ENDBRANCH   1  11
BRANCH   4  22
HETATM   22  C8  UNL     1       7.377   9.259  45.160  1.00  0.00     0.071 C 
HETATM   23  C9  UNL     1       6.375  10.053  44.895  1.00  0.00    -0.013 C 
BRANCH  23  24
HETATM   24  C10 UNL     1       6.276  11.409  45.506  1.00  0.00    -0.034 C 
HETATM   25  C11 UNL     1       5.020  12.110  45.010  1.00  0.00     0.018 C 
HETATM   26  C12 UNL     1       6.143  11.288  47.025  1.00  0.00     0.018 C 
HETATM   27  C13 UNL     1       7.529  12.166  45.135  1.00  0.00     0.018 C 
ENDBRANCH  23  24
ENDBRANCH   4  22
TORSDOF 7
ENDMDL
MODEL 3
REMARK VINA RESULT: -7.751323307      3.288      5.180
REMARK  7 active torsions:
REMARK  status: ('A' for Active; 'I' for Inactive)
REMARK    1  A    between atoms: C2_2  and  C4_4 
REMARK    2  A    between atoms: C4_4  and  N1_5 
REMARK    3  A    between atoms: C4_4  and  C5_9 
REMARK    4  A    between atoms: C5_9  and  O1_10 
REMARK    5  A    between atoms: C5_9  and  N2_12 
REMARK       I    between atoms: N3_14  and  C7_15 
REMARK    6  A    between atoms: C7_15  and  C8_17 
REMARK    7  A    between atoms: C9_18  and  C10_19 
ROOT
HETATM    1  N2  UNL     1       9.945   5.988  42.218  1.00  0.00    -0.330 N 
HETATM    2  C6  UNL     1       8.761   6.228  43.085  1.00  0.00     0.255 C 
HETATM    3  N3  UNL     1       8.716   7.553  43.608  1.00  0.00    -0.332 N 
HETATM    4  C7  UNL     1       7.611   7.841  44.493  1.00  0.00     0.244 C 
HETATM    5  O2  UNL     1       6.755   6.953  44.767  1.00  0.00    -0.268 OA
HETATM    6  C14 UNL     1       9.623   8.628  43.368  1.00  0.00     0.131 C 
HETATM    7  C15 UNL     1      10.562   8.263  42.248  1.00  0.00     0.060 C 
HETATM    8  C16 UNL     1      11.047   6.831  42.556  1.00  0.00     0.196 C 
HETATM    9  C17 UNL     1      11.233   6.830  44.035  1.00  0.00     0.085 C 
HETATM   10  N4  UNL     1      11.387   6.812  45.178  1.00  0.00    -0.195 NA
ENDROOT
BRANCH   1  11
HETATM   11  C5  UNL     1       9.827   5.017  41.226  1.00  0.00     0.147 C 
BRANCH  11  12
HETATM   12  C4  UNL     1       9.721   5.123  39.780  1.00  0.00     0.260 C 
BRANCH  12  13
HETATM   13  C2  UNL     1       8.580   4.257  39.209  1.00  0.00     0.016 C 
HETATM   14  C1  UNL     1       7.279   4.991  39.516  1.00  0.00     0.012 C 
HETATM   15  C3  UNL     1       8.688   4.118  37.729  1.00  0.00     0.012 C 
ENDBRANCH  12  13
BRANCH  12  16
HETATM   16  N1  UNL     1       9.626   6.421  39.215  1.00  0.00    -0.067 N 
ATOM     17  H13 UNL     1       8.971   7.020  39.717  1.00  0.00     0.275 HD
ATOM     18  H12 UNL     1      10.468   6.978  39.366  1.00  0.00     0.275 HD
ATOM     19  H11 UNL     1       9.392   6.326  38.227  1.00  0.00     0.275 HD
ENDBRANCH  12  16
ENDBRANCH  11  12
BRANCH  11  20
HETATM   20  O1  UNL     1       9.806   3.792  41.660  1.00  0.00    -0.348 OA
ATOM     21  H1  UNL     1       9.228   3.661  42.403  1.00  0.00     0.219 HD
ENDBRANCH  11  20
ENDBRANCH   1  11
BRANCH   4  22
HETATM   22  C8  UNL     1       7.450   9.143  45.093  1.00  0.00     0.071 C 
HETATM   23  C9  UNL     1       6.413   9.898  44.854  1.00  0.00    -0.013 C 
BRANCH  23  24
HETATM   24  C10 UNL     1       6.266  11.241  45.482  1.00  0.00    -0.034 C 
HETATM   25  C11 UNL     1       4.920  11.843  45.111  1.00  0.00     0.018 C 
HETATM   26  C12 UNL     1       6.287  11.109  47.006  1.00  0.00     0.018 C 
HETATM   27  C13 UNL     1       7.418  12.094  45.001  1.00  0.00     0.018 C 
ENDBRANCH  23  24
ENDBRANCH   4  22
TORSDOF 7
ENDMDL
MODEL 4
REMARK VINA RESULT: -7.731927993      1.879      7.505
REMARK  7 active torsions:
REMARK  status: ('A' for Active; 'I' for Inactive)
REMARK    1  A    between atoms: C2_2  and  C4_4 
REMARK    2  A    between atoms: C4_4  and  N1_5 
REMARK    3  A    between atoms: C4_4  and  C5_9 
REMARK    4  A    between atoms: C5_9  and  O1_10 
REMARK    5  A    between atoms: C5_9  and  N2_12 
REMARK       I    between atoms: N3_14  and  C7_15 
REMARK    6  A    between atoms: C7_15  and  C8_17 
REMARK    7  A    between atoms: C9_18  and  C10_19 
ROOT
HETATM    1  N2  UNL     1       6.818  11.076  45.635  1.00  0.00    -0.330 N 
HETATM    2  C6  UNL     1       7.252   9.658  45.516  1.00  0.00     0.255 C 
HETATM    3  N3  UNL     1       8.332   9.484  44.602  1.00  0.00    -0.332 N 
HETATM    4  C7  UNL     1       8.777   8.124  44.408  1.00  0.00     0.244 C 
HETATM    5  O2  UNL     1       8.224   7.170  45.025  1.00  0.00    -0.268 OA
HETATM    6  C14 UNL     1       9.026  10.483  43.856  1.00  0.00     0.131 C 
HETATM    7  C15 UNL     1       8.629  11.853  44.343  1.00  0.00     0.060 C 
HETATM    8  C16 UNL     1       7.091  11.830  44.454  1.00  0.00     0.196 C 
HETATM    9  C17 UNL     1       6.661  11.048  43.260  1.00  0.00     0.085 C 
HETATM   10  N4  UNL     1       6.309  10.449  42.338  1.00  0.00    -0.195 NA
ENDROOT
BRANCH   1  11
HETATM   11  C5  UNL     1       6.230  11.467  46.836  1.00  0.00     0.147 C 
BRANCH  11  12
HETATM   12  C4  UNL     1       5.420  12.624  47.180  1.00  0.00     0.260 C 
BRANCH  12  13
HETATM   13  C2  UNL     1       4.074  12.644  46.428  1.00  0.00     0.016 C 
HETATM   14  C1  UNL     1       2.980  12.703  47.490  1.00  0.00     0.012 C 
HETATM   15  C3  UNL     1       3.944  13.857  45.572  1.00  0.00     0.012 C 
ENDBRANCH  12  13
BRANCH  12  16
HETATM   16  N1  UNL     1       5.169  12.873  48.555  1.00  0.00    -0.067 N 
ATOM     17  H13 UNL     1       5.221  12.027  49.122  1.00  0.00     0.275 HD
ATOM     18  H12 UNL     1       5.926  13.389  49.004  1.00  0.00     0.275 HD
ATOM     19  H11 UNL     1       4.270  13.346  48.638  1.00  0.00     0.275 HD
ENDBRANCH  12  16
ENDBRANCH  11  12
BRANCH  11  20
HETATM   20  O1  UNL     1       6.437  10.662  47.835  1.00  0.00    -0.348 OA
ATOM     21  H1  UNL     1       7.184  10.905  48.371  1.00  0.00     0.219 HD
ENDBRANCH  11  20
ENDBRANCH   1  11
BRANCH   4  22
HETATM   22  C8  UNL     1       9.859   7.810  43.508  1.00  0.00     0.071 C 
HETATM   23  C9  UNL     1      10.357   6.607  43.407  1.00  0.00    -0.013 C 
BRANCH  23  24
HETATM   24  C10 UNL     1      11.476   6.305  42.471  1.00  0.00    -0.034 C 
HETATM   25  C11 UNL     1      12.455   5.343  43.128  1.00  0.00     0.018 C 
HETATM   26  C12 UNL     1      10.938   5.604  41.223  1.00  0.00     0.018 C 
HETATM   27  C13 UNL     1      12.131   7.618  42.110  1.00  0.00     0.018 C 
ENDBRANCH  23  24
ENDBRANCH   4  22
TORSDOF 7
ENDMDL
MODEL 5
REMARK VINA RESULT: -7.460653641      1.884      7.534
REMARK  7 active torsions:
REMARK  status: ('A' for Active; 'I' for Inactive)
REMARK    1  A    between atoms: C2_2  and  C4_4 
REMARK    2  A    between atoms: C4_4  and  N1_5 
REMARK    3  A    between atoms: C4_4  and  C5_9 
REMARK    4  A    between atoms: C5_9  and  O1_10 
REMARK    5  A    between atoms: C5_9  and  N2_12 
REMARK       I    between atoms: N3_14  and  C7_15 
REMARK    6  A    between atoms: C7_15  and  C8_17 
REMARK    7  A    between atoms: C9_18  and  C10_19 
ROOT
HETATM    1  N2  UNL     1       6.862  10.667  45.952  1.00  0.00    -0.330 N 
HETATM    2  C6  UNL     1       7.949  10.519  44.948  1.00  0.00     0.255 C 
HETATM    3  N3  UNL     1       8.210   9.159  44.608  1.00  0.00    -0.332 N 
HETATM    4  C7  UNL     1       9.283   8.941  43.667  1.00  0.00     0.244 C 
HETATM    5  O2  UNL     1       9.931   9.916  43.191  1.00  0.00    -0.268 OA
HETATM    6  C14 UNL     1       7.545   7.989  45.082  1.00  0.00     0.131 C 
HETATM    7  C15 UNL     1       6.306   8.379  45.847  1.00  0.00     0.060 C 
HETATM    8  C16 UNL     1       6.738   9.519  46.792  1.00  0.00     0.196 C 
HETATM    9  C17 UNL     1       8.090   9.100  47.259  1.00  0.00     0.085 C 
HETATM   10  N4  UNL     1       9.136   8.790  47.634  1.00  0.00    -0.195 NA
ENDROOT
BRANCH   1  11
HETATM   11  C5  UNL     1       6.135  11.854  45.939  1.00  0.00     0.147 C 
BRANCH  11  12
HETATM   12  C4  UNL     1       4.910  12.228  45.251  1.00  0.00     0.260 C 
BRANCH  12  13
HETATM   13  C2  UNL     1       4.561  13.718  45.437  1.00  0.00     0.016 C 
HETATM   14  C1  UNL     1       4.125  14.239  44.072  1.00  0.00     0.012 C 
HETATM   15  C3  UNL     1       3.422  13.899  46.381  1.00  0.00     0.012 C 
ENDBRANCH  12  13
BRANCH  12  16
HETATM   16  N1  UNL     1       4.800  11.910  43.872  1.00  0.00    -0.067 N 
ATOM     17  H13 UNL     1       3.858  11.619  43.611  1.00  0.00     0.275 HD
ATOM     18  H12 UNL     1       4.862  12.734  43.274  1.00  0.00     0.275 HD
ATOM     19  H11 UNL     1       5.504  11.208  43.645  1.00  0.00     0.275 HD
ENDBRANCH  12  16
ENDBRANCH  11  12
BRANCH  11  20
HETATM   20  O1  UNL     1       6.631  12.808  46.670  1.00  0.00    -0.348 OA
ATOM     21  H1  UNL     1       6.781  12.556  47.574  1.00  0.00     0.219 HD
ENDBRANCH  11  20
ENDBRANCH   1  11
BRANCH   4  22
HETATM   22  C8  UNL     1       9.650   7.613  43.242  1.00  0.00     0.071 C 
HETATM   23  C9  UNL     1       9.589   7.237  41.994  1.00  0.00    -0.013 C 
BRANCH  23  24
HETATM   24  C10 UNL     1       9.972   5.859  41.576  1.00  0.00    -0.034 C 
HETATM   25  C11 UNL     1       9.972   5.758  40.058  1.00  0.00     0.018 C 
HETATM   26  C12 UNL     1      11.397   5.550  42.040  1.00  0.00     0.018 C 
HETATM   27  C13 UNL     1       8.984   4.905  42.205  1.00  0.00     0.018 C 
ENDBRANCH  23  24
ENDBRANCH   4  22
TORSDOF 7
ENDMDL
