MODEL 1
REMARK VINA RESULT: -7.097359901      0.000      0.000
REMARK  5 active torsions:
REMARK  status: ('A' for Active; 'I' for Inactive)
REMARK    1  A    between atoms: C1_2  and  N2_4 
REMARK    2  A    between atoms: N2_4  and  C2_6 
REMARK    3  A    between atoms: C6_10  and  C7_11 
REMARK    4  A    between atoms: C7_11  and  O2_13 
REMARK    5  A    between atoms: O2_13  and  C8_14 
ROOT
HETATM    1  C2  UNL     1       5.845  12.692  45.649  1.00  0.00     0.085 C 
HETATM    2  C3  UNL     1       6.102  12.628  44.187  1.00  0.00     0.029 C 
HETATM    3  C4  UNL     1       6.903  11.435  43.775  1.00  0.00    -0.010 C 
HETATM    4  C5  UNL     1       8.105  11.158  44.649  1.00  0.00     0.024 C 
HETATM    5  C6  UNL     1       7.109  10.526  45.619  1.00  0.00     0.050 C 
HETATM    6  C15 UNL     1       6.252  10.211  44.418  1.00  0.00     0.024 C 
HETATM    7  C16 UNL     1       6.554  11.630  46.445  1.00  0.00     0.045 C 
ENDROOT
BRANCH   5   8
HETATM    8  C7  UNL     1       7.604   9.395  46.392  1.00  0.00     0.268 C 
HETATM    9  O1  UNL     1       7.896   9.557  47.616  1.00  0.00    -0.264 OA
BRANCH   8  10
HETATM   10  O2  UNL     1       7.788   8.120  45.885  1.00  0.00    -0.313 OA
BRANCH  10  11
HETATM   11  C8  UNL     1       9.025   7.661  45.374  1.00  0.00     0.164 C 
HETATM   12  C9  UNL     1       9.074   6.150  45.529  1.00  0.00     0.305 C 
HETATM   13  N3  UNL     1       9.669   5.530  44.364  1.00  0.00     0.090 N 
HETATM   14  C10 UNL     1       8.703   5.604  43.292  1.00  0.00     0.273 C 
HETATM   15  C14 UNL     1      10.880   6.224  43.997  1.00  0.00     0.273 C 
HETATM   16  C11 UNL     1       8.173   7.011  43.182  1.00  0.00     0.037 C 
HETATM   17  C12 UNL     1       9.129   7.947  43.889  1.00  0.00     0.020 C 
HETATM   18  C13 UNL     1      10.538   7.602  43.463  1.00  0.00     0.037 C 
ENDBRANCH  10  11
ENDBRANCH   8  10
ENDBRANCH   5   8
BRANCH   1  19
HETATM   19  N2  UNL     1       4.420  12.599  45.970  1.00  0.00    -0.365 N 
ATOM     20  H2  UNL     1       3.874  11.812  45.620  1.00  0.00     0.162 HD
BRANCH  19  21
HETATM   21  C1  UNL     1       3.797  13.585  46.758  1.00  0.00     0.181 C 
HETATM   22  N1  UNL     1       3.712  13.435  48.153  1.00  0.00    -0.070 NA
HETATM   23  S1  UNL     1       3.179  14.902  46.051  1.00  0.00    -0.044 SA
ENDBRANCH  19  21
ENDBRANCH   1  19
TORSDOF 5
ENDMDL
MODEL 2
REMARK VINA RESULT: -6.950594244      1.733      2.142
REMARK  5 active torsions:
REMARK  status: ('A' for Active; 'I' for Inactive)
REMARK    1  A    between atoms: C1_2  and  N2_4 
REMARK    2  A    between atoms: N2_4  and  C2_6 
REMARK    3  A    between atoms: C6_10  and  C7_11 
REMARK    4  A    between atoms: C7_11  and  O2_13 
REMARK    5  A    between atoms: O2_13  and  C8_14 
ROOT
HETATM    1  C2  UNL     1       6.001  12.444  45.087  1.00  0.00     0.085 C 
HETATM    2  C3  UNL     1       4.973  11.394  44.866  1.00  0.00     0.029 C 
HETATM    3  C4  UNL     1       5.527  10.128  44.297  1.00  0.00    -0.010 C 
HETATM    4  C5  UNL     1       6.494  10.328  43.152  1.00  0.00     0.024 C 
HETATM    5  C6  UNL     1       7.526  10.647  44.231  1.00  0.00     0.050 C 
HETATM    6  C15 UNL     1       6.738   9.744  45.148  1.00  0.00     0.024 C 
HETATM    7  C16 UNL     1       7.367  12.085  44.567  1.00  0.00     0.045 C 
ENDROOT
BRANCH   5   8
HETATM    8  C7  UNL     1       8.898  10.252  43.935  1.00  0.00     0.268 C 
HETATM    9  O1  UNL     1       9.700  11.107  43.453  1.00  0.00    -0.264 OA
BRANCH   8  10
HETATM   10  O2  UNL     1       9.410   8.983  44.143  1.00  0.00    -0.313 OA
BRANCH  10  11
HETATM   11  C8  UNL     1      10.013   8.214  43.120  1.00  0.00     0.164 C 
HETATM   12  C9  UNL     1      10.529   6.923  43.735  1.00  0.00     0.305 C 
HETATM   13  N3  UNL     1      10.284   5.799  42.857  1.00  0.00     0.090 N 
HETATM   14  C10 UNL     1       8.870   5.509  42.906  1.00  0.00     0.273 C 
HETATM   15  C14 UNL     1      10.683   6.127  41.509  1.00  0.00     0.273 C 
HETATM   16  C11 UNL     1       8.084   6.780  42.705  1.00  0.00     0.037 C 
HETATM   17  C12 UNL     1       8.988   7.816  42.076  1.00  0.00     0.020 C 
HETATM   18  C13 UNL     1       9.739   7.167  40.936  1.00  0.00     0.037 C 
ENDBRANCH  10  11
ENDBRANCH   8  10
ENDBRANCH   5   8
BRANCH   1  19
HETATM   19  N2  UNL     1       6.149  12.793  46.500  1.00  0.00    -0.365 N 
ATOM     20  H2  UNL     1       7.082  12.902  46.897  1.00  0.00     0.162 HD
BRANCH  19  21
HETATM   21  C1  UNL     1       5.018  12.979  47.315  1.00  0.00     0.181 C 
HETATM   22  N1  UNL     1       4.903  12.302  48.541  1.00  0.00    -0.070 NA
HETATM   23  S1  UNL     1       3.844  13.985  46.839  1.00  0.00    -0.044 SA
ENDBRANCH  19  21
ENDBRANCH   1  19
TORSDOF 5
ENDMDL
MODEL 3
REMARK VINA RESULT: -6.928041185      2.303      3.070
REMARK  5 active torsions:
REMARK  status: ('A' for Active; 'I' for Inactive)
REMARK    1  A    between atoms: C1_2  and  N2_4 
REMARK    2  A    between atoms: N2_4  and  C2_6 
REMARK    3  A    between atoms: C6_10  and  C7_11 
REMARK    4  A    between atoms: C7_11  and  O2_13 
REMARK    5  A    between atoms: O2_13  and  C8_14 
ROOT
HETATM    1  C2  UNL     1       4.963  12.379  43.884  1.00  0.00     0.085 C 
HETATM    2  C3  UNL     1       4.550  12.470  45.308  1.00  0.00     0.029 C 
HETATM    3  C4  UNL     1       5.595  11.993  46.263  1.00  0.00    -0.010 C 
HETATM    4  C5  UNL     1       6.253  10.690  45.869  1.00  0.00     0.024 C 
HETATM    5  C6  UNL     1       7.089  11.535  44.911  1.00  0.00     0.050 C 
HETATM    6  C15 UNL     1       6.905  12.679  45.876  1.00  0.00     0.024 C 
HETATM    7  C16 UNL     1       6.287  11.698  43.670  1.00  0.00     0.045 C 
ENDROOT
BRANCH   5   8
HETATM    8  C7  UNL     1       8.453  11.076  44.683  1.00  0.00     0.268 C 
HETATM    9  O1  UNL     1       9.357  11.923  44.411  1.00  0.00    -0.264 OA
BRANCH   8  10
HETATM   10  O2  UNL     1       8.854   9.752  44.740  1.00  0.00    -0.313 OA
BRANCH  10  11
HETATM   11  C8  UNL     1       8.894   8.906  43.606  1.00  0.00     0.164 C 
HETATM   12  C9  UNL     1       9.851   7.761  43.899  1.00  0.00     0.305 C 
HETATM   13  N3  UNL     1       9.331   6.511  43.389  1.00  0.00     0.090 N 
HETATM   14  C10 UNL     1       8.244   6.107  44.251  1.00  0.00     0.273 C 
HETATM   15  C14 UNL     1       8.860   6.684  42.036  1.00  0.00     0.273 C 
HETATM   16  C11 UNL     1       7.299   7.265  44.452  1.00  0.00     0.037 C 
HETATM   17  C12 UNL     1       7.536   8.281  43.357  1.00  0.00     0.020 C 
HETATM   18  C13 UNL     1       7.615   7.550  42.036  1.00  0.00     0.037 C 
ENDBRANCH  10  11
ENDBRANCH   8  10
ENDBRANCH   5   8
BRANCH   1  19
HETATM   19  N2  UNL     1       5.038  13.691  43.239  1.00  0.00    -0.365 N 
ATOM     20  H2  UNL     1       5.695  14.388  43.588  1.00  0.00     0.162 HD
BRANCH  19  21
HETATM   21  C1  UNL     1       4.212  13.999  42.141  1.00  0.00     0.181 C 
HETATM   22  N1  UNL     1       3.239  15.008  42.243  1.00  0.00    -0.070 NA
HETATM   23  S1  UNL     1       4.390  13.189  40.753  1.00  0.00    -0.044 SA
ENDBRANCH  19  21
ENDBRANCH   1  19
TORSDOF 5
ENDMDL
MODEL 4
REMARK VINA RESULT: -6.914529087      2.592      3.728
REMARK  5 active torsions:
REMARK  status: ('A' for Active; 'I' for Inactive)
REMARK    1  A    between atoms: C1_2  and  N2_4 
REMARK    2  A    between atoms: N2_4  and  C2_6 
REMARK    3  A    between atoms: C6_10  and  C7_11 
REMARK    4  A    between atoms: C7_11  and  O2_13 
REMARK    5  A    between atoms: O2_13  and  C8_14 
ROOT
HETATM    1  C2  UNL     1       4.036  13.505  43.819  1.00  0.00     0.085 C 
HETATM    2  C3  UNL     1       3.601  14.387  44.933  1.00  0.00     0.029 C 
HETATM    3  C4  UNL     1       4.063  13.921  46.276  1.00  0.00    -0.010 C 
HETATM    4  C5  UNL     1       3.878  12.440  46.521  1.00  0.00     0.024 C 
HETATM    5  C6  UNL     1       5.147  12.262  45.692  1.00  0.00     0.050 C 
HETATM    6  C15 UNL     1       5.560  13.634  46.163  1.00  0.00     0.024 C 
HETATM    7  C16 UNL     1       4.731  12.247  44.266  1.00  0.00     0.045 C 
ENDROOT
BRANCH   5   8
HETATM    8  C7  UNL     1       6.005  11.147  46.073  1.00  0.00     0.268 C 
HETATM    9  O1  UNL     1       6.513  11.122  47.235  1.00  0.00    -0.264 OA
BRANCH   8  10
HETATM   10  O2  UNL     1       6.318  10.082  45.247  1.00  0.00    -0.313 OA
BRANCH  10  11
HETATM   11  C8  UNL     1       7.630   9.820  44.786  1.00  0.00     0.164 C 
HETATM   12  C9  UNL     1       7.761   8.325  44.543  1.00  0.00     0.305 C 
HETATM   13  N3  UNL     1       8.515   8.061  43.337  1.00  0.00     0.090 N 
HETATM   14  C10 UNL     1       7.666   8.385  42.214  1.00  0.00     0.273 C 
HETATM   15  C14 UNL     1       9.710   8.870  43.312  1.00  0.00     0.273 C 
HETATM   16  C11 UNL     1       7.059   9.751  42.415  1.00  0.00     0.037 C 
HETATM   17  C12 UNL     1       7.871  10.496  43.450  1.00  0.00     0.020 C 
HETATM   18  C13 UNL     1       9.337  10.327  43.121  1.00  0.00     0.037 C 
ENDBRANCH  10  11
ENDBRANCH   8  10
ENDBRANCH   5   8
BRANCH   1  19
HETATM   19  N2  UNL     1       4.930  14.188  42.883  1.00  0.00    -0.365 N 
ATOM     20  H2  UNL     1       5.875  14.436  43.176  1.00  0.00     0.162 HD
BRANCH  19  21
HETATM   21  C1  UNL     1       4.498  14.506  41.581  1.00  0.00     0.181 C 
HETATM   22  N1  UNL     1       4.285  15.844  41.208  1.00  0.00    -0.070 NA
HETATM   23  S1  UNL     1       4.250  13.322  40.508  1.00  0.00    -0.044 SA
ENDBRANCH  19  21
ENDBRANCH   1  19
TORSDOF 5
ENDMDL
MODEL 5
REMARK VINA RESULT: -6.902987150      1.394      1.749
REMARK  5 active torsions:
REMARK  status: ('A' for Active; 'I' for Inactive)
REMARK    1  A    between atoms: C1_2  and  N2_4 
REMARK    2  A    between atoms: N2_4  and  C2_6 
REMARK    3  A    between atoms: C6_10  and  C7_11 
REMARK    4  A    between atoms: C7_11  and  O2_13 
REMARK    5  A    between atoms: O2_13  and  C8_14 
ROOT
HETATM    1  C2  UNL     1       5.499  12.886  43.738  1.00  0.00     0.085 C 
HETATM    2  C3  UNL     1       4.842  12.028  42.717  1.00  0.00     0.029 C 
HETATM    3  C4  UNL     1       5.425  10.655  42.628  1.00  0.00    -0.010 C 
HETATM    4  C5  UNL     1       6.937  10.618  42.619  1.00  0.00     0.024 C 
HETATM    5  C6  UNL     1       6.836  10.801  44.131  1.00  0.00     0.050 C 
HETATM    6  C15 UNL     1       5.500  10.105  44.052  1.00  0.00     0.024 C 
HETATM    7  C16 UNL     1       6.707  12.261  44.380  1.00  0.00     0.045 C 
ENDROOT
BRANCH   5   8
HETATM    8  C7  UNL     1       7.874  10.152  44.921  1.00  0.00     0.268 C 
HETATM    9  O1  UNL     1       8.788  10.856  45.447  1.00  0.00    -0.264 OA
BRANCH   8  10
HETATM   10  O2  UNL     1       7.946   8.789  45.150  1.00  0.00    -0.313 OA
BRANCH  10  11
HETATM   11  C8  UNL     1       9.100   8.017  44.876  1.00  0.00     0.164 C 
HETATM   12  C9  UNL     1       8.847   6.594  45.348  1.00  0.00     0.305 C 
HETATM   13  N3  UNL     1       9.381   5.635  44.406  1.00  0.00     0.090 N 
HETATM   14  C10 UNL     1       8.516   5.634  43.249  1.00  0.00     0.273 C 
HETATM   15  C14 UNL     1      10.724   6.005  44.028  1.00  0.00     0.273 C 
HETATM   16  C11 UNL     1       8.275   7.051  42.793  1.00  0.00     0.037 C 
HETATM   17  C12 UNL     1       9.348   7.939  43.382  1.00  0.00     0.020 C 
HETATM   18  C13 UNL     1      10.688   7.266  43.186  1.00  0.00     0.037 C 
ENDBRANCH  10  11
ENDBRANCH   8  10
ENDBRANCH   5   8
BRANCH   1  19
HETATM   19  N2  UNL     1       4.586  13.275  44.812  1.00  0.00    -0.365 N 
ATOM     20  H2  UNL     1       4.272  12.577  45.486  1.00  0.00     0.162 HD
BRANCH  19  21
HETATM   21  C1  UNL     1       4.135  14.604  44.925  1.00  0.00     0.181 C 
HETATM   22  N1  UNL     1       4.448  15.550  43.933  1.00  0.00    -0.070 NA
HETATM   23  S1  UNL     1       3.247  15.043  46.204  1.00  0.00    -0.044 SA
ENDBRANCH  19  21
ENDBRANCH   1  19
TORSDOF 5
ENDMDL
