MODEL 1
REMARK VINA RESULT: -8.830008937      0.000      0.000
REMARK  4 active torsions:
REMARK  status: ('A' for Active; 'I' for Inactive)
REMARK       I    between atoms: N1_2  and  C2_3 
REMARK    1  A    between atoms: N1_2  and  C9_18 
REMARK       I    between atoms: C2_3  and  N2_5 
REMARK       I    between atoms: N2_5  and  C3_7 
REMARK    2  A    between atoms: C3_7  and  C4_9 
REMARK    3  A    between atoms: C4_9  and  N3_11 
REMARK    4  A    between atoms: C7_14  and  C8_15 
ROOT
HETATM    1  C1  UNL     1       4.685  12.621  47.618  1.00  0.00     0.161 C 
HETATM    2  N1  UNL     1       5.350  12.111  46.431  1.00  0.00    -0.304 N 
HETATM    3  C2  UNL     1       6.390  11.152  46.538  1.00  0.00     0.329 C 
HETATM    4  O1  UNL     1       6.707  10.754  47.691  1.00  0.00    -0.246 OA
HETATM    5  N2  UNL     1       7.037  10.669  45.370  1.00  0.00    -0.273 N 
ATOM      6  H2  UNL     1       6.746  11.019  44.457  1.00  0.00     0.173 HD
HETATM    7  C3  UNL     1       8.090   9.699  45.443  1.00  0.00     0.287 C 
HETATM    8  O2  UNL     1       8.407   9.299  46.570  1.00  0.00    -0.265 OA
ENDROOT
BRANCH   7   9
HETATM    9  C4  UNL     1       8.714   9.253  44.191  1.00  0.00     0.168 C 
HETATM   10  S1  UNL     1       9.320  10.367  43.169  1.00  0.00    -0.054 SA
BRANCH   9  11
HETATM   11  N3  UNL     1       8.818   7.875  43.852  1.00  0.00    -0.353 N 
HETATM   12  C5  UNL     1       7.968   7.043  43.024  1.00  0.00     0.127 C 
HETATM   13  C6  UNL     1       9.170   6.203  42.708  1.00  0.00     0.056 C 
HETATM   14  C7  UNL     1       9.634   6.726  44.084  1.00  0.00     0.188 C 
BRANCH  14  15
HETATM   15  C8  UNL     1      11.081   6.854  44.178  1.00  0.00     0.196 C 
HETATM   16  O3  UNL     1      11.605   6.811  45.345  1.00  0.00    -0.646 OA
HETATM   17  O4  UNL     1      11.952   7.014  43.139  1.00  0.00    -0.646 OA
ENDBRANCH  14  15
ENDBRANCH   9  11
ENDBRANCH   7   9
BRANCH   2  18
HETATM   18  C9  UNL     1       4.961  12.576  45.121  1.00  0.00     0.038 A 
HETATM   19  C10 UNL     1       5.112  11.820  44.002  1.00  0.00     0.030 A 
HETATM   20  C11 UNL     1       4.713  12.331  42.766  1.00  0.00     0.002 A 
HETATM   21  C12 UNL     1       4.169  13.587  42.656  1.00  0.00     0.000 A 
HETATM   22  C13 UNL     1       4.019  14.347  43.793  1.00  0.00     0.002 A 
HETATM   23  C14 UNL     1       4.416  13.840  45.034  1.00  0.00     0.030 A 
ENDBRANCH   2  18
TORSDOF 4
ENDMDL
MODEL 2
REMARK VINA RESULT: -8.670919026      0.185      1.017
REMARK  4 active torsions:
REMARK  status: ('A' for Active; 'I' for Inactive)
REMARK       I    between atoms: N1_2  and  C2_3 
REMARK    1  A    between atoms: N1_2  and  C9_18 
REMARK       I    between atoms: C2_3  and  N2_5 
REMARK       I    between atoms: N2_5  and  C3_7 
REMARK    2  A    between atoms: C3_7  and  C4_9 
REMARK    3  A    between atoms: C4_9  and  N3_11 
REMARK    4  A    between atoms: C7_14  and  C8_15 
ROOT
HETATM    1  C1  UNL     1       4.813  12.512  47.710  1.00  0.00     0.161 C 
HETATM    2  N1  UNL     1       5.465  12.044  46.498  1.00  0.00    -0.304 N 
HETATM    3  C2  UNL     1       6.481  11.056  46.558  1.00  0.00     0.329 C 
HETATM    4  O1  UNL     1       6.789  10.595  47.690  1.00  0.00    -0.246 OA
HETATM    5  N2  UNL     1       7.117  10.614  45.367  1.00  0.00    -0.273 N 
ATOM      6  H2  UNL     1       6.834  11.015  44.473  1.00  0.00     0.173 HD
HETATM    7  C3  UNL     1       8.146   9.617  45.392  1.00  0.00     0.287 C 
HETATM    8  O2  UNL     1       8.453   9.155  46.499  1.00  0.00    -0.265 OA
ENDROOT
BRANCH   7   9
HETATM    9  C4  UNL     1       8.758   9.217  44.119  1.00  0.00     0.168 C 
HETATM   10  S1  UNL     1       9.322  10.370  43.116  1.00  0.00    -0.054 SA
BRANCH   9  11
HETATM   11  N3  UNL     1       8.887   7.851  43.743  1.00  0.00    -0.353 N 
HETATM   12  C5  UNL     1       8.076   7.037  42.859  1.00  0.00     0.127 C 
HETATM   13  C6  UNL     1       9.297   6.216  42.564  1.00  0.00     0.056 C 
HETATM   14  C7  UNL     1       9.704   6.701  43.973  1.00  0.00     0.188 C 
BRANCH  14  15
HETATM   15  C8  UNL     1      11.144   6.837  44.126  1.00  0.00     0.196 C 
HETATM   16  O3  UNL     1      11.617   6.830  45.315  1.00  0.00    -0.646 OA
HETATM   17  O4  UNL     1      12.060   6.970  43.122  1.00  0.00    -0.646 OA
ENDBRANCH  14  15
ENDBRANCH   9  11
ENDBRANCH   7   9
BRANCH   2  18
HETATM   18  C9  UNL     1       5.088  12.581  45.213  1.00  0.00     0.038 A 
HETATM   19  C10 UNL     1       4.775  13.889  45.030  1.00  0.00     0.030 A 
HETATM   20  C11 UNL     1       4.419  14.343  43.759  1.00  0.00     0.002 A 
HETATM   21  C12 UNL     1       4.379  13.490  42.683  1.00  0.00     0.000 A 
HETATM   22  C13 UNL     1       4.697  12.165  42.875  1.00  0.00     0.002 A 
HETATM   23  C14 UNL     1       5.055  11.705  44.147  1.00  0.00     0.030 A 
ENDBRANCH   2  18
TORSDOF 4
ENDMDL
MODEL 3
REMARK VINA RESULT: -8.331081672      1.190      1.480
REMARK  4 active torsions:
REMARK  status: ('A' for Active; 'I' for Inactive)
REMARK       I    between atoms: N1_2  and  C2_3 
REMARK    1  A    between atoms: N1_2  and  C9_18 
REMARK       I    between atoms: C2_3  and  N2_5 
REMARK       I    between atoms: N2_5  and  C3_7 
REMARK    2  A    between atoms: C3_7  and  C4_9 
REMARK    3  A    between atoms: C4_9  and  N3_11 
REMARK    4  A    between atoms: C7_14  and  C8_15 
ROOT
HETATM    1  C1  UNL     1       4.088  13.770  46.010  1.00  0.00     0.161 C 
HETATM    2  N1  UNL     1       4.879  12.933  45.123  1.00  0.00    -0.304 N 
HETATM    3  C2  UNL     1       5.858  12.048  45.642  1.00  0.00     0.329 C 
HETATM    4  O1  UNL     1       6.009  12.007  46.894  1.00  0.00    -0.246 OA
HETATM    5  N2  UNL     1       6.630  11.243  44.763  1.00  0.00    -0.273 N 
ATOM      6  H2  UNL     1       6.472  11.310  43.758  1.00  0.00     0.173 HD
HETATM    7  C3  UNL     1       7.626  10.338  45.256  1.00  0.00     0.287 C 
HETATM    8  O2  UNL     1       7.779  10.286  46.483  1.00  0.00    -0.265 OA
ENDROOT
BRANCH   7   9
HETATM    9  C4  UNL     1       8.386   9.544  44.283  1.00  0.00     0.168 C 
HETATM   10  S1  UNL     1       9.326  10.312  43.197  1.00  0.00    -0.054 SA
BRANCH   9  11
HETATM   11  N3  UNL     1       8.339   8.122  44.273  1.00  0.00    -0.353 N 
HETATM   12  C5  UNL     1       7.764   7.206  43.306  1.00  0.00     0.127 C 
HETATM   13  C6  UNL     1       8.788   6.192  43.721  1.00  0.00     0.056 C 
HETATM   14  C7  UNL     1       8.728   6.984  45.045  1.00  0.00     0.188 C 
BRANCH  14  15
HETATM   15  C8  UNL     1       9.993   6.977  45.763  1.00  0.00     0.196 C 
HETATM   16  O3  UNL     1       9.949   6.992  47.042  1.00  0.00    -0.646 OA
HETATM   17  O4  UNL     1      11.242   6.952  45.211  1.00  0.00    -0.646 OA
ENDBRANCH  14  15
ENDBRANCH   9  11
ENDBRANCH   7   9
BRANCH   2  18
HETATM   18  C9  UNL     1       4.680  12.993  43.694  1.00  0.00     0.038 A 
HETATM   19  C10 UNL     1       4.951  11.945  42.874  1.00  0.00     0.030 A 
HETATM   20  C11 UNL     1       4.734  12.070  41.501  1.00  0.00     0.002 A 
HETATM   21  C12 UNL     1       4.249  13.235  40.959  1.00  0.00     0.000 A 
HETATM   22  C13 UNL     1       3.976  14.292  41.796  1.00  0.00     0.002 A 
HETATM   23  C14 UNL     1       4.191  14.173  43.172  1.00  0.00     0.030 A 
ENDBRANCH   2  18
TORSDOF 4
ENDMDL
MODEL 4
REMARK VINA RESULT: -8.278573738      2.178      3.127
REMARK  4 active torsions:
REMARK  status: ('A' for Active; 'I' for Inactive)
REMARK       I    between atoms: N1_2  and  C2_3 
REMARK    1  A    between atoms: N1_2  and  C9_18 
REMARK       I    between atoms: C2_3  and  N2_5 
REMARK       I    between atoms: N2_5  and  C3_7 
REMARK    2  A    between atoms: C3_7  and  C4_9 
REMARK    3  A    between atoms: C4_9  and  N3_11 
REMARK    4  A    between atoms: C7_14  and  C8_15 
ROOT
HETATM    1  C1  UNL     1       6.981   9.505  47.331  1.00  0.00     0.161 C 
HETATM    2  N1  UNL     1       7.336   9.642  45.928  1.00  0.00    -0.304 N 
HETATM    3  C2  UNL     1       8.445   8.941  45.389  1.00  0.00     0.329 C 
HETATM    4  O1  UNL     1       9.101   8.193  46.163  1.00  0.00    -0.246 OA
HETATM    5  N2  UNL     1       8.786   9.091  44.019  1.00  0.00    -0.273 N 
ATOM      6  H2  UNL     1       8.226   9.708  43.430  1.00  0.00     0.173 HD
HETATM    7  C3  UNL     1       9.900   8.397  43.443  1.00  0.00     0.287 C 
HETATM    8  O2  UNL     1      10.548   7.656  44.193  1.00  0.00    -0.265 OA
ENDROOT
BRANCH   7   9
HETATM    9  C4  UNL     1      10.192   8.609  42.020  1.00  0.00     0.168 C 
HETATM   10  S1  UNL     1      11.162   9.843  41.587  1.00  0.00    -0.054 SA
BRANCH   9  11
HETATM   11  N3  UNL     1       9.664   7.758  41.009  1.00  0.00    -0.353 N 
HETATM   12  C5  UNL     1       9.045   8.078  39.738  1.00  0.00     0.127 C 
HETATM   13  C6  UNL     1       9.538   6.761  39.215  1.00  0.00     0.056 C 
HETATM   14  C7  UNL     1       9.454   6.377  40.708  1.00  0.00     0.188 C 
BRANCH  14  15
HETATM   15  C8  UNL     1      10.444   5.380  41.087  1.00  0.00     0.196 C 
HETATM   16  O3  UNL     1      10.026   4.196  41.340  1.00  0.00    -0.646 OA
HETATM   17  O4  UNL     1      11.791   5.573  41.202  1.00  0.00    -0.646 OA
ENDBRANCH  14  15
ENDBRANCH   9  11
ENDBRANCH   7   9
BRANCH   2  18
HETATM   18  C9  UNL     1       6.563  10.498  45.060  1.00  0.00     0.038 A 
HETATM   19  C10 UNL     1       5.687  10.011  44.144  1.00  0.00     0.030 A 
HETATM   20  C11 UNL     1       4.970  10.896  43.338  1.00  0.00     0.002 A 
HETATM   21  C12 UNL     1       5.131  12.255  43.451  1.00  0.00     0.000 A 
HETATM   22  C13 UNL     1       6.020  12.742  44.381  1.00  0.00     0.002 A 
HETATM   23  C14 UNL     1       6.741  11.860  45.192  1.00  0.00     0.030 A 
ENDBRANCH   2  18
TORSDOF 4
ENDMDL
MODEL 5
REMARK VINA RESULT: -8.268035370      0.918      1.117
REMARK  4 active torsions:
REMARK  status: ('A' for Active; 'I' for Inactive)
REMARK       I    between atoms: N1_2  and  C2_3 
REMARK    1  A    between atoms: N1_2  and  C9_18 
REMARK       I    between atoms: C2_3  and  N2_5 
REMARK       I    between atoms: N2_5  and  C3_7 
REMARK    2  A    between atoms: C3_7  and  C4_9 
REMARK    3  A    between atoms: C4_9  and  N3_11 
REMARK    4  A    between atoms: C7_14  and  C8_15 
ROOT
HETATM    1  C1  UNL     1       4.550  12.613  46.153  1.00  0.00     0.161 C 
HETATM    2  N1  UNL     1       5.346  11.962  45.126  1.00  0.00    -0.304 N 
HETATM    3  C2  UNL     1       6.419  11.103  45.477  1.00  0.00     0.329 C 
HETATM    4  O1  UNL     1       6.649  10.919  46.703  1.00  0.00    -0.246 OA
HETATM    5  N2  UNL     1       7.195  10.481  44.463  1.00  0.00    -0.273 N 
ATOM      6  H2  UNL     1       6.972  10.659  43.484  1.00  0.00     0.173 HD
HETATM    7  C3  UNL     1       8.285   9.607  44.783  1.00  0.00     0.287 C 
HETATM    8  O2  UNL     1       8.517   9.416  45.984  1.00  0.00    -0.265 OA
ENDROOT
BRANCH   7   9
HETATM    9  C4  UNL     1       9.043   9.006  43.679  1.00  0.00     0.168 C 
HETATM   10  S1  UNL     1       9.863   9.978  42.661  1.00  0.00    -0.054 SA
BRANCH   9  11
HETATM   11  N3  UNL     1       9.095   7.598  43.482  1.00  0.00    -0.353 N 
HETATM   12  C5  UNL     1       8.313   6.740  42.613  1.00  0.00     0.127 C 
HETATM   13  C6  UNL     1       9.485   5.805  42.553  1.00  0.00     0.056 C 
HETATM   14  C7  UNL     1       9.786   6.431  43.932  1.00  0.00     0.188 C 
BRANCH  14  15
HETATM   15  C8  UNL     1      11.210   6.483  44.226  1.00  0.00     0.196 C 
HETATM   16  O3  UNL     1      11.559   6.842  45.405  1.00  0.00    -0.646 OA
HETATM   17  O4  UNL     1      12.230   6.183  43.369  1.00  0.00    -0.646 OA
ENDBRANCH  14  15
ENDBRANCH   9  11
ENDBRANCH   7   9
BRANCH   2  18
HETATM   18  C9  UNL     1       5.056  12.182  43.729  1.00  0.00     0.038 A 
HETATM   19  C10 UNL     1       5.095  11.184  42.808  1.00  0.00     0.030 A 
HETATM   20  C11 UNL     1       4.801  11.466  41.474  1.00  0.00     0.002 A 
HETATM   21  C12 UNL     1       4.473  12.737  41.069  1.00  0.00     0.000 A 
HETATM   22  C13 UNL     1       4.436  13.743  42.007  1.00  0.00     0.002 A 
HETATM   23  C14 UNL     1       4.728  13.466  43.346  1.00  0.00     0.030 A 
ENDBRANCH   2  18
TORSDOF 4
ENDMDL
