MODEL 1
REMARK VINA RESULT: -4.939609381      0.000      0.000
REMARK  10 active torsions:
REMARK  status: ('A' for Active; 'I' for Inactive)
REMARK    1  A    between atoms: C1_4  and  N2_5 
REMARK    2  A    between atoms: N2_5  and  C2_7 
REMARK    3  A    between atoms: C2_7  and  C3_8 
REMARK    4  A    between atoms: C3_8  and  C4_9 
REMARK    5  A    between atoms: C4_9  and  C5_10 
REMARK    6  A    between atoms: C5_10  and  C6_11 
REMARK    7  A    between atoms: C6_11  and  C7_12 
REMARK    8  A    between atoms: C7_12  and  C8_13 
REMARK    9  A    between atoms: C8_13  and  C9_14 
REMARK   10  A    between atoms: C10_15  and  C11_16 
ROOT
HETATM    1  C4  UNL     1     -31.937 -23.461 -39.973  1.00  0.00     0.002 C 
ENDROOT
BRANCH   1   2
HETATM    2  C3  UNL     1     -31.012 -23.124 -41.127  1.00  0.00     0.020 C 
BRANCH   2   3
HETATM    3  C2  UNL     1     -31.807 -23.155 -42.412  1.00  0.00     0.120 C 
BRANCH   3   4
HETATM    4  N2  UNL     1     -30.881 -23.530 -43.493  1.00  0.00    -0.387 N 
ATOM      5  H2  UNL     1     -31.167 -23.526 -44.472  1.00  0.00     0.160 HD
BRANCH   4   6
HETATM    6  C1  UNL     1     -29.586 -23.892 -43.103  1.00  0.00     0.168 C 
HETATM    7  N1  UNL     1     -28.558 -23.487 -43.782  1.00  0.00    -0.396 N 
ATOM      8  H12 UNL     1     -28.712 -22.901 -44.602  1.00  0.00     0.156 HD
ATOM      9  H11 UNL     1     -27.615 -23.751 -43.498  1.00  0.00     0.156 HD
ENDBRANCH   4   6
ENDBRANCH   3   4
ENDBRANCH   2   3
ENDBRANCH   1   2
BRANCH   1  10
HETATM   10  C5  UNL     1     -31.203 -23.889 -38.755  1.00  0.00     0.000 C 
BRANCH  10  11
HETATM   11  C6  UNL     1     -30.242 -24.994 -39.098  1.00  0.00     0.000 C 
BRANCH  11  12
HETATM   12  C7  UNL     1     -29.980 -25.858 -37.922  1.00  0.00     0.004 C 
BRANCH  12  13
HETATM   13  C8  UNL     1     -30.844 -27.101 -38.044  1.00  0.00     0.027 C 
BRANCH  13  14
HETATM   14  C9  UNL     1     -31.885 -27.129 -37.003  1.00  0.00    -0.030 C 
HETATM   15  C10 UNL     1     -33.157 -26.960 -37.292  1.00  0.00    -0.026 C 
BRANCH  15  16
HETATM   16  C11 UNL     1     -33.635 -26.726 -38.680  1.00  0.00     0.008 A 
HETATM   17  C12 UNL     1     -34.671 -25.630 -38.816  1.00  0.00     0.009 A 
HETATM   18  C13 UNL     1     -35.008 -27.059 -39.096  1.00  0.00     0.009 A 
ENDBRANCH  15  16
ENDBRANCH  13  14
ENDBRANCH  12  13
ENDBRANCH  11  12
ENDBRANCH  10  11
ENDBRANCH   1  10
TORSDOF 10
ENDMDL
MODEL 2
REMARK VINA RESULT: -4.595893779      1.124      1.916
REMARK  10 active torsions:
REMARK  status: ('A' for Active; 'I' for Inactive)
REMARK    1  A    between atoms: C1_4  and  N2_5 
REMARK    2  A    between atoms: N2_5  and  C2_7 
REMARK    3  A    between atoms: C2_7  and  C3_8 
REMARK    4  A    between atoms: C3_8  and  C4_9 
REMARK    5  A    between atoms: C4_9  and  C5_10 
REMARK    6  A    between atoms: C5_10  and  C6_11 
REMARK    7  A    between atoms: C6_11  and  C7_12 
REMARK    8  A    between atoms: C7_12  and  C8_13 
REMARK    9  A    between atoms: C8_13  and  C9_14 
REMARK   10  A    between atoms: C10_15  and  C11_16 
ROOT
HETATM    1  C4  UNL     1     -31.618 -22.782 -39.854  1.00  0.00     0.002 C 
ENDROOT
BRANCH   1   2
HETATM    2  C3  UNL     1     -30.849 -23.284 -41.060  1.00  0.00     0.020 C 
BRANCH   2   3
HETATM    3  C2  UNL     1     -31.707 -23.108 -42.292  1.00  0.00     0.120 C 
BRANCH   3   4
HETATM    4  N2  UNL     1     -30.894 -23.502 -43.454  1.00  0.00    -0.387 N 
ATOM      5  H2  UNL     1     -31.261 -23.462 -44.406  1.00  0.00     0.160 HD
BRANCH   4   6
HETATM    6  C1  UNL     1     -29.590 -23.934 -43.182  1.00  0.00     0.168 C 
HETATM    7  N1  UNL     1     -28.587 -23.453 -43.848  1.00  0.00    -0.396 N 
ATOM      8  H12 UNL     1     -28.766 -22.755 -44.570  1.00  0.00     0.156 HD
ATOM      9  H11 UNL     1     -27.637 -23.767 -43.649  1.00  0.00     0.156 HD
ENDBRANCH   4   6
ENDBRANCH   3   4
ENDBRANCH   2   3
ENDBRANCH   1   2
BRANCH   1  10
HETATM   10  C5  UNL     1     -31.255 -23.495 -38.603  1.00  0.00     0.000 C 
BRANCH  10  11
HETATM   11  C6  UNL     1     -30.471 -24.737 -38.931  1.00  0.00     0.000 C 
BRANCH  11  12
HETATM   12  C7  UNL     1     -30.190 -25.529 -37.709  1.00  0.00     0.004 C 
BRANCH  12  13
HETATM   13  C8  UNL     1     -30.773 -26.918 -37.899  1.00  0.00     0.027 C 
BRANCH  13  14
HETATM   14  C9  UNL     1     -32.216 -26.854 -38.187  1.00  0.00    -0.030 C 
HETATM   15  C10 UNL     1     -33.118 -27.030 -37.246  1.00  0.00    -0.026 C 
BRANCH  15  16
HETATM   16  C11 UNL     1     -32.751 -27.305 -35.831  1.00  0.00     0.008 A 
HETATM   17  C12 UNL     1     -33.888 -27.158 -34.843  1.00  0.00     0.009 A 
HETATM   18  C13 UNL     1     -32.710 -26.239 -34.817  1.00  0.00     0.009 A 
ENDBRANCH  15  16
ENDBRANCH  13  14
ENDBRANCH  12  13
ENDBRANCH  11  12
ENDBRANCH  10  11
ENDBRANCH   1  10
TORSDOF 10
ENDMDL
MODEL 3
REMARK VINA RESULT: -4.566342135      0.837      1.050
REMARK  10 active torsions:
REMARK  status: ('A' for Active; 'I' for Inactive)
REMARK    1  A    between atoms: C1_4  and  N2_5 
REMARK    2  A    between atoms: N2_5  and  C2_7 
REMARK    3  A    between atoms: C2_7  and  C3_8 
REMARK    4  A    between atoms: C3_8  and  C4_9 
REMARK    5  A    between atoms: C4_9  and  C5_10 
REMARK    6  A    between atoms: C5_10  and  C6_11 
REMARK    7  A    between atoms: C6_11  and  C7_12 
REMARK    8  A    between atoms: C7_12  and  C8_13 
REMARK    9  A    between atoms: C8_13  and  C9_14 
REMARK   10  A    between atoms: C10_15  and  C11_16 
ROOT
HETATM    1  C4  UNL     1     -31.884 -23.023 -38.964  1.00  0.00     0.002 C 
ENDROOT
BRANCH   1   2
HETATM    2  C3  UNL     1     -31.984 -23.577 -40.372  1.00  0.00     0.020 C 
BRANCH   2   3
HETATM    3  C2  UNL     1     -32.714 -22.576 -41.238  1.00  0.00     0.120 C 
BRANCH   3   4
HETATM    4  N2  UNL     1     -31.879 -22.331 -42.425  1.00  0.00    -0.387 N 
ATOM      5  H2  UNL     1     -31.606 -21.389 -42.706  1.00  0.00     0.160 HD
BRANCH   4   6
HETATM    6  C1  UNL     1     -31.479 -23.462 -43.147  1.00  0.00     0.168 C 
HETATM    7  N1  UNL     1     -30.268 -23.557 -43.602  1.00  0.00    -0.396 N 
ATOM      8  H12 UNL     1     -29.616 -22.794 -43.423  1.00  0.00     0.156 HD
ATOM      9  H11 UNL     1     -29.977 -24.381 -44.127  1.00  0.00     0.156 HD
ENDBRANCH   4   6
ENDBRANCH   3   4
ENDBRANCH   2   3
ENDBRANCH   1   2
BRANCH   1  10
HETATM   10  C5  UNL     1     -30.893 -23.748 -38.130  1.00  0.00     0.000 C 
BRANCH  10  11
HETATM   11  C6  UNL     1     -30.264 -24.857 -38.929  1.00  0.00     0.000 C 
BRANCH  11  12
HETATM   12  C7  UNL     1     -29.807 -25.958 -38.048  1.00  0.00     0.004 C 
BRANCH  12  13
HETATM   13  C8  UNL     1     -30.774 -27.118 -38.197  1.00  0.00     0.027 C 
BRANCH  13  14
HETATM   14  C9  UNL     1     -31.760 -27.133 -37.102  1.00  0.00    -0.030 C 
HETATM   15  C10 UNL     1     -33.033 -26.886 -37.315  1.00  0.00    -0.026 C 
BRANCH  15  16
HETATM   16  C11 UNL     1     -33.571 -26.576 -38.666  1.00  0.00     0.008 A 
HETATM   17  C12 UNL     1     -34.720 -25.590 -38.679  1.00  0.00     0.009 A 
HETATM   18  C13 UNL     1     -34.912 -27.014 -39.090  1.00  0.00     0.009 A 
ENDBRANCH  15  16
ENDBRANCH  13  14
ENDBRANCH  12  13
ENDBRANCH  11  12
ENDBRANCH  10  11
ENDBRANCH   1  10
TORSDOF 10
ENDMDL
MODEL 4
REMARK VINA RESULT: -4.473574450      2.412      2.721
REMARK  10 active torsions:
REMARK  status: ('A' for Active; 'I' for Inactive)
REMARK    1  A    between atoms: C1_4  and  N2_5 
REMARK    2  A    between atoms: N2_5  and  C2_7 
REMARK    3  A    between atoms: C2_7  and  C3_8 
REMARK    4  A    between atoms: C3_8  and  C4_9 
REMARK    5  A    between atoms: C4_9  and  C5_10 
REMARK    6  A    between atoms: C5_10  and  C6_11 
REMARK    7  A    between atoms: C6_11  and  C7_12 
REMARK    8  A    between atoms: C7_12  and  C8_13 
REMARK    9  A    between atoms: C8_13  and  C9_14 
REMARK   10  A    between atoms: C10_15  and  C11_16 
ROOT
HETATM    1  C4  UNL     1     -31.571 -23.343 -39.957  1.00  0.00     0.002 C 
ENDROOT
BRANCH   1   2
HETATM    2  C3  UNL     1     -32.207 -21.991 -39.697  1.00  0.00     0.020 C 
BRANCH   2   3
HETATM    3  C2  UNL     1     -32.018 -21.121 -40.919  1.00  0.00     0.120 C 
BRANCH   3   4
HETATM    4  N2  UNL     1     -31.069 -20.056 -40.557  1.00  0.00    -0.387 N 
ATOM      5  H2  UNL     1     -30.205 -20.254 -40.053  1.00  0.00     0.160 HD
BRANCH   4   6
HETATM    6  C1  UNL     1     -31.418 -18.756 -40.943  1.00  0.00     0.168 C 
HETATM    7  N1  UNL     1     -30.537 -17.805 -40.921  1.00  0.00    -0.396 N 
ATOM      8  H12 UNL     1     -29.588 -18.023 -40.619  1.00  0.00     0.156 HD
ATOM      9  H11 UNL     1     -30.791 -16.858 -41.203  1.00  0.00     0.156 HD
ENDBRANCH   4   6
ENDBRANCH   3   4
ENDBRANCH   2   3
ENDBRANCH   1   2
BRANCH   1  10
HETATM   10  C5  UNL     1     -30.963 -23.936 -38.739  1.00  0.00     0.000 C 
BRANCH  10  11
HETATM   11  C6  UNL     1     -30.107 -25.114 -39.115  1.00  0.00     0.000 C 
BRANCH  11  12
HETATM   12  C7  UNL     1     -29.878 -26.002 -37.950  1.00  0.00     0.004 C 
BRANCH  12  13
HETATM   13  C8  UNL     1     -30.854 -27.162 -38.039  1.00  0.00     0.027 C 
BRANCH  13  14
HETATM   14  C9  UNL     1     -31.887 -27.070 -36.993  1.00  0.00    -0.030 C 
HETATM   15  C10 UNL     1     -33.157 -26.902 -37.289  1.00  0.00    -0.026 C 
BRANCH  15  16
HETATM   16  C11 UNL     1     -33.642 -26.793 -38.690  1.00  0.00     0.008 A 
HETATM   17  C12 UNL     1     -34.485 -25.567 -38.974  1.00  0.00     0.009 A 
HETATM   18  C13 UNL     1     -35.066 -26.942 -39.035  1.00  0.00     0.009 A 
ENDBRANCH  15  16
ENDBRANCH  13  14
ENDBRANCH  12  13
ENDBRANCH  11  12
ENDBRANCH  10  11
ENDBRANCH   1  10
TORSDOF 10
ENDMDL
MODEL 5
REMARK VINA RESULT: -4.392122220      1.446      2.380
REMARK  10 active torsions:
REMARK  status: ('A' for Active; 'I' for Inactive)
REMARK    1  A    between atoms: C1_4  and  N2_5 
REMARK    2  A    between atoms: N2_5  and  C2_7 
REMARK    3  A    between atoms: C2_7  and  C3_8 
REMARK    4  A    between atoms: C3_8  and  C4_9 
REMARK    5  A    between atoms: C4_9  and  C5_10 
REMARK    6  A    between atoms: C5_10  and  C6_11 
REMARK    7  A    between atoms: C6_11  and  C7_12 
REMARK    8  A    between atoms: C7_12  and  C8_13 
REMARK    9  A    between atoms: C8_13  and  C9_14 
REMARK   10  A    between atoms: C10_15  and  C11_16 
ROOT
HETATM    1  C4  UNL     1     -33.935 -23.094 -40.310  1.00  0.00     0.002 C 
ENDROOT
BRANCH   1   2
HETATM    2  C3  UNL     1     -33.915 -23.222 -41.821  1.00  0.00     0.020 C 
BRANCH   2   3
HETATM    3  C2  UNL     1     -33.220 -22.012 -42.402  1.00  0.00     0.120 C 
BRANCH   3   4
HETATM    4  N2  UNL     1     -31.781 -22.317 -42.459  1.00  0.00    -0.387 N 
ATOM      5  H2  UNL     1     -31.088 -21.727 -41.998  1.00  0.00     0.160 HD
BRANCH   4   6
HETATM    6  C1  UNL     1     -31.416 -23.462 -43.179  1.00  0.00     0.168 C 
HETATM    7  N1  UNL     1     -30.194 -23.625 -43.577  1.00  0.00    -0.396 N 
ATOM      8  H12 UNL     1     -29.505 -22.906 -43.356  1.00  0.00     0.156 HD
ATOM      9  H11 UNL     1     -29.928 -24.458 -44.101  1.00  0.00     0.156 HD
ENDBRANCH   4   6
ENDBRANCH   3   4
ENDBRANCH   2   3
ENDBRANCH   1   2
BRANCH   1  10
HETATM   10  C5  UNL     1     -33.143 -24.151 -39.633  1.00  0.00     0.000 C 
BRANCH  10  11
HETATM   11  C6  UNL     1     -31.896 -23.555 -39.038  1.00  0.00     0.000 C 
BRANCH  11  12
HETATM   12  C7  UNL     1     -30.685 -24.271 -39.507  1.00  0.00     0.004 C 
BRANCH  12  13
HETATM   13  C8  UNL     1     -30.110 -25.048 -38.336  1.00  0.00     0.027 C 
BRANCH  13  14
HETATM   14  C9  UNL     1     -30.274 -26.499 -38.529  1.00  0.00    -0.030 C 
HETATM   15  C10 UNL     1     -31.168 -27.190 -37.856  1.00  0.00    -0.026 C 
BRANCH  15  16
HETATM   16  C11 UNL     1     -32.073 -26.563 -36.856  1.00  0.00     0.008 A 
HETATM   17  C12 UNL     1     -32.674 -27.527 -35.855  1.00  0.00     0.009 A 
HETATM   18  C13 UNL     1     -33.524 -26.813 -36.855  1.00  0.00     0.009 A 
ENDBRANCH  15  16
ENDBRANCH  13  14
ENDBRANCH  12  13
ENDBRANCH  11  12
ENDBRANCH  10  11
ENDBRANCH   1  10
TORSDOF 10
ENDMDL
