MODEL 1
REMARK VINA RESULT: -4.313292408      0.000      0.000
REMARK  10 active torsions:
REMARK  status: ('A' for Active; 'I' for Inactive)
REMARK    1  A    between atoms: N1_1  and  C1_5 
REMARK    2  A    between atoms: C1_5  and  C2_6 
REMARK    3  A    between atoms: C2_6  and  C3_7 
REMARK    4  A    between atoms: C3_7  and  C4_8 
REMARK    5  A    between atoms: C4_8  and  C5_9 
REMARK    6  A    between atoms: C6_10  and  C7_11 
REMARK    7  A    between atoms: C7_11  and  C8_12 
REMARK    8  A    between atoms: C8_12  and  C9_13 
REMARK    9  A    between atoms: C9_13  and  C10_14 
REMARK   10  A    between atoms: C10_14  and  C11_15 
ROOT
HETATM    1  C5  UNL     1     -30.314 -24.629 -39.633  1.00  0.00    -0.031 C 
HETATM    2  C6  UNL     1     -29.758 -25.650 -39.057  1.00  0.00    -0.031 C 
ENDROOT
BRANCH   1   3
HETATM    3  C4  UNL     1     -31.446 -23.868 -39.099  1.00  0.00     0.027 C 
BRANCH   3   4
HETATM    4  C3  UNL     1     -32.374 -23.408 -40.226  1.00  0.00     0.005 C 
BRANCH   4   5
HETATM    5  C2  UNL     1     -31.508 -22.772 -41.276  1.00  0.00     0.027 C 
BRANCH   5   6
HETATM    6  C1  UNL     1     -31.938 -23.140 -42.671  1.00  0.00     0.229 C 
BRANCH   6   7
HETATM    7  N1  UNL     1     -30.850 -23.478 -43.540  1.00  0.00    -0.079 N 
ATOM      8  H13 UNL     1     -30.500 -24.414 -43.330  1.00  0.00     0.274 HD
ATOM      9  H12 UNL     1     -31.182 -23.629 -44.492  1.00  0.00     0.274 HD
ATOM     10  H11 UNL     1     -30.088 -22.799 -43.528  1.00  0.00     0.274 HD
ENDBRANCH   6   7
ENDBRANCH   5   6
ENDBRANCH   4   5
ENDBRANCH   3   4
ENDBRANCH   1   3
BRANCH   2  11
HETATM   11  C7  UNL     1     -30.161 -26.216 -37.783  1.00  0.00     0.027 C 
BRANCH  11  12
HETATM   12  C8  UNL     1     -31.262 -27.278 -37.927  1.00  0.00     0.004 C 
BRANCH  12  13
HETATM   13  C9  UNL     1     -32.386 -27.036 -37.012  1.00  0.00     0.001 C 
BRANCH  13  14
HETATM   14  C10 UNL     1     -33.647 -26.584 -37.594  1.00  0.00     0.004 C 
BRANCH  14  15
HETATM   15  C11 UNL     1     -34.061 -26.892 -38.966  1.00  0.00    -0.014 A 
HETATM   16  C12 UNL     1     -35.495 -27.252 -39.274  1.00  0.00     0.005 A 
HETATM   17  C13 UNL     1     -34.915 -26.017 -39.815  1.00  0.00     0.005 A 
ENDBRANCH  14  15
ENDBRANCH  13  14
ENDBRANCH  12  13
ENDBRANCH  11  12
ENDBRANCH   2  11
TORSDOF 10
ENDMDL
MODEL 2
REMARK VINA RESULT: -4.240961077      1.793      1.878
REMARK  10 active torsions:
REMARK  status: ('A' for Active; 'I' for Inactive)
REMARK    1  A    between atoms: N1_1  and  C1_5 
REMARK    2  A    between atoms: C1_5  and  C2_6 
REMARK    3  A    between atoms: C2_6  and  C3_7 
REMARK    4  A    between atoms: C3_7  and  C4_8 
REMARK    5  A    between atoms: C4_8  and  C5_9 
REMARK    6  A    between atoms: C6_10  and  C7_11 
REMARK    7  A    between atoms: C7_11  and  C8_12 
REMARK    8  A    between atoms: C8_12  and  C9_13 
REMARK    9  A    between atoms: C9_13  and  C10_14 
REMARK   10  A    between atoms: C10_14  and  C11_15 
ROOT
HETATM    1  C5  UNL     1     -30.722 -24.187 -39.418  1.00  0.00    -0.031 C 
HETATM    2  C6  UNL     1     -30.037 -25.265 -39.193  1.00  0.00    -0.031 C 
ENDROOT
BRANCH   1   3
HETATM    3  C4  UNL     1     -31.566 -23.499 -38.438  1.00  0.00     0.027 C 
BRANCH   3   4
HETATM    4  C3  UNL     1     -31.365 -21.984 -38.513  1.00  0.00     0.005 C 
BRANCH   4   5
HETATM    5  C2  UNL     1     -31.092 -21.648 -39.951  1.00  0.00     0.027 C 
BRANCH   5   6
HETATM    6  C1  UNL     1     -31.831 -20.416 -40.402  1.00  0.00     0.229 C 
BRANCH   6   7
HETATM    7  N1  UNL     1     -30.971 -19.326 -40.758  1.00  0.00    -0.079 N 
ATOM      8  H13 UNL     1     -31.377 -18.437 -40.466  1.00  0.00     0.274 HD
ATOM      9  H12 UNL     1     -30.130 -19.328 -40.180  1.00  0.00     0.274 HD
ATOM     10  H11 UNL     1     -30.727 -19.303 -41.749  1.00  0.00     0.274 HD
ENDBRANCH   6   7
ENDBRANCH   5   6
ENDBRANCH   4   5
ENDBRANCH   3   4
ENDBRANCH   1   3
BRANCH   2  11
HETATM   11  C7  UNL     1     -29.989 -25.980 -37.931  1.00  0.00     0.027 C 
BRANCH  11  12
HETATM   12  C8  UNL     1     -30.942 -27.185 -37.895  1.00  0.00     0.004 C 
BRANCH  12  13
HETATM   13  C9  UNL     1     -31.978 -27.040 -36.863  1.00  0.00     0.001 C 
BRANCH  13  14
HETATM   14  C10 UNL     1     -33.354 -26.840 -37.310  1.00  0.00     0.004 C 
BRANCH  14  15
HETATM   15  C11 UNL     1     -33.765 -26.893 -38.716  1.00  0.00    -0.014 A 
HETATM   16  C12 UNL     1     -35.227 -26.974 -39.087  1.00  0.00     0.005 A 
HETATM   17  C13 UNL     1     -34.441 -25.788 -39.449  1.00  0.00     0.005 A 
ENDBRANCH  14  15
ENDBRANCH  13  14
ENDBRANCH  12  13
ENDBRANCH  11  12
ENDBRANCH   2  11
TORSDOF 10
ENDMDL
MODEL 3
REMARK VINA RESULT: -4.221871064      1.268      3.365
REMARK  10 active torsions:
REMARK  status: ('A' for Active; 'I' for Inactive)
REMARK    1  A    between atoms: N1_1  and  C1_5 
REMARK    2  A    between atoms: C1_5  and  C2_6 
REMARK    3  A    between atoms: C2_6  and  C3_7 
REMARK    4  A    between atoms: C3_7  and  C4_8 
REMARK    5  A    between atoms: C4_8  and  C5_9 
REMARK    6  A    between atoms: C6_10  and  C7_11 
REMARK    7  A    between atoms: C7_11  and  C8_12 
REMARK    8  A    between atoms: C8_12  and  C9_13 
REMARK    9  A    between atoms: C9_13  and  C10_14 
REMARK   10  A    between atoms: C10_14  and  C11_15 
ROOT
HETATM    1  C5  UNL     1     -33.119 -23.416 -39.347  1.00  0.00    -0.031 C 
HETATM    2  C6  UNL     1     -33.729 -24.404 -38.769  1.00  0.00    -0.031 C 
ENDROOT
BRANCH   1   3
HETATM    3  C4  UNL     1     -32.756 -23.357 -40.765  1.00  0.00     0.027 C 
BRANCH   3   4
HETATM    4  C3  UNL     1     -31.247 -23.166 -40.934  1.00  0.00     0.005 C 
BRANCH   4   5
HETATM    5  C2  UNL     1     -30.917 -23.521 -42.356  1.00  0.00     0.027 C 
BRANCH   5   6
HETATM    6  C1  UNL     1     -29.497 -23.997 -42.511  1.00  0.00     0.229 C 
BRANCH   6   7
HETATM    7  N1  UNL     1     -28.852 -23.510 -43.695  1.00  0.00    -0.079 N 
ATOM      8  H13 UNL     1     -28.345 -24.261 -44.163  1.00  0.00     0.274 HD
ATOM      9  H12 UNL     1     -29.541 -23.293 -44.416  1.00  0.00     0.274 HD
ATOM     10  H11 UNL     1     -28.240 -22.711 -43.530  1.00  0.00     0.274 HD
ENDBRANCH   6   7
ENDBRANCH   5   6
ENDBRANCH   4   5
ENDBRANCH   3   4
ENDBRANCH   1   3
BRANCH   2  11
HETATM   11  C7  UNL     1     -34.157 -25.625 -39.427  1.00  0.00     0.027 C 
BRANCH  11  12
HETATM   12  C8  UNL     1     -33.955 -26.873 -38.553  1.00  0.00     0.004 C 
BRANCH  12  13
HETATM   13  C9  UNL     1     -32.823 -26.720 -37.626  1.00  0.00     0.001 C 
BRANCH  13  14
HETATM   14  C10 UNL     1     -31.529 -27.250 -38.048  1.00  0.00     0.004 C 
BRANCH  14  15
HETATM   15  C11 UNL     1     -30.267 -26.522 -37.890  1.00  0.00    -0.014 A 
HETATM   16  C12 UNL     1     -29.592 -25.887 -39.084  1.00  0.00     0.005 A 
HETATM   17  C13 UNL     1     -30.114 -25.046 -38.000  1.00  0.00     0.005 A 
ENDBRANCH  14  15
ENDBRANCH  13  14
ENDBRANCH  12  13
ENDBRANCH  11  12
ENDBRANCH   2  11
TORSDOF 10
ENDMDL
MODEL 4
REMARK VINA RESULT: -4.179330145      0.962      1.955
REMARK  10 active torsions:
REMARK  status: ('A' for Active; 'I' for Inactive)
REMARK    1  A    between atoms: N1_1  and  C1_5 
REMARK    2  A    between atoms: C1_5  and  C2_6 
REMARK    3  A    between atoms: C2_6  and  C3_7 
REMARK    4  A    between atoms: C3_7  and  C4_8 
REMARK    5  A    between atoms: C4_8  and  C5_9 
REMARK    6  A    between atoms: C6_10  and  C7_11 
REMARK    7  A    between atoms: C7_11  and  C8_12 
REMARK    8  A    between atoms: C8_12  and  C9_13 
REMARK    9  A    between atoms: C9_13  and  C10_14 
REMARK   10  A    between atoms: C10_14  and  C11_15 
ROOT
HETATM    1  C5  UNL     1     -32.218 -23.167 -39.280  1.00  0.00    -0.031 C 
HETATM    2  C6  UNL     1     -31.057 -23.605 -38.903  1.00  0.00    -0.031 C 
ENDROOT
BRANCH   1   3
HETATM    3  C4  UNL     1     -33.038 -23.749 -40.345  1.00  0.00     0.027 C 
BRANCH   3   4
HETATM    4  C3  UNL     1     -33.501 -22.671 -41.328  1.00  0.00     0.005 C 
BRANCH   4   5
HETATM    5  C2  UNL     1     -32.322 -22.331 -42.194  1.00  0.00     0.027 C 
BRANCH   5   6
HETATM    6  C1  UNL     1     -31.952 -23.455 -43.125  1.00  0.00     0.229 C 
BRANCH   6   7
HETATM    7  N1  UNL     1     -30.585 -23.422 -43.555  1.00  0.00    -0.079 N 
ATOM      8  H13 UNL     1     -29.963 -23.256 -42.763  1.00  0.00     0.274 HD
ATOM      9  H12 UNL     1     -30.271 -24.353 -43.828  1.00  0.00     0.274 HD
ATOM     10  H11 UNL     1     -30.405 -22.748 -44.300  1.00  0.00     0.274 HD
ENDBRANCH   6   7
ENDBRANCH   5   6
ENDBRANCH   4   5
ENDBRANCH   3   4
ENDBRANCH   1   3
BRANCH   2  11
HETATM   11  C7  UNL     1     -30.365 -24.747 -39.472  1.00  0.00     0.027 C 
BRANCH  11  12
HETATM   12  C8  UNL     1     -29.805 -25.695 -38.401  1.00  0.00     0.004 C 
BRANCH  12  13
HETATM   13  C9  UNL     1     -30.662 -26.875 -38.206  1.00  0.00     0.001 C 
BRANCH  13  14
HETATM   14  C10 UNL     1     -31.651 -26.821 -37.133  1.00  0.00     0.004 C 
BRANCH  14  15
HETATM   15  C11 UNL     1     -33.079 -27.076 -37.335  1.00  0.00    -0.014 A 
HETATM   16  C12 UNL     1     -34.044 -25.930 -37.534  1.00  0.00     0.005 A 
HETATM   17  C13 UNL     1     -33.805 -26.888 -38.621  1.00  0.00     0.005 A 
ENDBRANCH  14  15
ENDBRANCH  13  14
ENDBRANCH  12  13
ENDBRANCH  11  12
ENDBRANCH   2  11
TORSDOF 10
ENDMDL
MODEL 5
REMARK VINA RESULT: -4.126336612      2.970      3.659
REMARK  10 active torsions:
REMARK  status: ('A' for Active; 'I' for Inactive)
REMARK    1  A    between atoms: N1_1  and  C1_5 
REMARK    2  A    between atoms: C1_5  and  C2_6 
REMARK    3  A    between atoms: C2_6  and  C3_7 
REMARK    4  A    between atoms: C3_7  and  C4_8 
REMARK    5  A    between atoms: C4_8  and  C5_9 
REMARK    6  A    between atoms: C6_10  and  C7_11 
REMARK    7  A    between atoms: C7_11  and  C8_12 
REMARK    8  A    between atoms: C8_12  and  C9_13 
REMARK    9  A    between atoms: C9_13  and  C10_14 
REMARK   10  A    between atoms: C10_14  and  C11_15 
ROOT
HETATM    1  C5  UNL     1     -31.012 -23.903 -39.051  1.00  0.00    -0.031 C 
HETATM    2  C6  UNL     1     -30.276 -24.967 -39.135  1.00  0.00    -0.031 C 
ENDROOT
BRANCH   1   3
HETATM    3  C4  UNL     1     -31.646 -23.405 -37.829  1.00  0.00     0.027 C 
BRANCH   3   4
HETATM    4  C3  UNL     1     -30.894 -22.189 -37.281  1.00  0.00     0.005 C 
BRANCH   4   5
HETATM    5  C2  UNL     1     -30.215 -22.626 -36.016  1.00  0.00     0.027 C 
BRANCH   5   6
HETATM    6  C1  UNL     1     -29.747 -21.460 -35.185  1.00  0.00     0.229 C 
BRANCH   6   7
HETATM    7  N1  UNL     1     -30.447 -20.240 -35.459  1.00  0.00    -0.079 N 
ATOM      8  H13 UNL     1     -31.421 -20.309 -35.163  1.00  0.00     0.274 HD
ATOM      9  H12 UNL     1     -30.131 -19.496 -34.837  1.00  0.00     0.274 HD
ATOM     10  H11 UNL     1     -30.388 -19.943 -36.434  1.00  0.00     0.274 HD
ENDBRANCH   6   7
ENDBRANCH   5   6
ENDBRANCH   4   5
ENDBRANCH   3   4
ENDBRANCH   1   3
BRANCH   2  11
HETATM   11  C7  UNL     1     -29.952 -25.852 -38.031  1.00  0.00     0.027 C 
BRANCH  11  12
HETATM   12  C8  UNL     1     -30.828 -27.115 -38.007  1.00  0.00     0.004 C 
BRANCH  12  13
HETATM   13  C9  UNL     1     -31.830 -27.071 -36.932  1.00  0.00     0.001 C 
BRANCH  13  14
HETATM   14  C10 UNL     1     -33.225 -26.876 -37.316  1.00  0.00     0.004 C 
BRANCH  14  15
HETATM   15  C11 UNL     1     -33.687 -26.858 -38.706  1.00  0.00    -0.014 A 
HETATM   16  C12 UNL     1     -35.161 -26.942 -39.028  1.00  0.00     0.005 A 
HETATM   17  C13 UNL     1     -34.406 -25.725 -39.350  1.00  0.00     0.005 A 
ENDBRANCH  14  15
ENDBRANCH  13  14
ENDBRANCH  12  13
ENDBRANCH  11  12
ENDBRANCH   2  11
TORSDOF 10
ENDMDL
