MODEL 1
REMARK VINA RESULT: -4.152247276      0.000      0.000
REMARK  10 active torsions:
REMARK  status: ('A' for Active; 'I' for Inactive)
REMARK    1  A    between atoms: C2_2  and  C3_3 
REMARK    2  A    between atoms: C3_3  and  C4_4 
REMARK    3  A    between atoms: C4_4  and  C5_5 
REMARK    4  A    between atoms: C7_7  and  C8_8 
REMARK    5  A    between atoms: C8_8  and  C9_9 
REMARK    6  A    between atoms: C9_9  and  C10_10 
REMARK    7  A    between atoms: C10_10  and  C11_11 
REMARK    8  A    between atoms: C11_11  and  C12_12 
REMARK    9  A    between atoms: C12_12  and  C13_13 
REMARK   10  A    between atoms: C13_13  and  N1_14 
ROOT
HETATM    1  C9  UNL     1     -31.989 -22.814 -39.308  1.00  0.00     0.000 C 
ENDROOT
BRANCH   1   2
HETATM    2  C8  UNL     1     -30.810 -23.465 -38.607  1.00  0.00     0.005 C 
BRANCH   2   3
HETATM    3  C7  UNL     1     -30.803 -24.923 -39.011  1.00  0.00    -0.010 A 
HETATM    4  C5  UNL     1     -30.559 -25.892 -37.915  1.00  0.00    -0.010 A 
HETATM    5  C6  UNL     1     -29.518 -25.690 -38.972  1.00  0.00     0.010 A 
BRANCH   4   6
HETATM    6  C4  UNL     1     -31.275 -27.229 -37.908  1.00  0.00     0.009 C 
BRANCH   6   7
HETATM    7  C3  UNL     1     -32.702 -26.938 -37.426  1.00  0.00     0.027 C 
BRANCH   7   8
HETATM    8  C2  UNL     1     -33.629 -26.999 -38.565  1.00  0.00    -0.037 C 
HETATM    9  C1  UNL     1     -34.504 -26.018 -38.738  1.00  0.00     0.007 C 
ENDBRANCH   7   8
ENDBRANCH   6   7
ENDBRANCH   4   6
ENDBRANCH   2   3
ENDBRANCH   1   2
BRANCH   1  10
HETATM   10  C10 UNL     1     -32.320 -23.506 -40.608  1.00  0.00     0.000 C 
BRANCH  10  11
HETATM   11  C11 UNL     1     -31.791 -22.660 -41.736  1.00  0.00     0.002 C 
BRANCH  11  12
HETATM   12  C12 UNL     1     -31.287 -23.501 -42.889  1.00  0.00     0.027 C 
BRANCH  12  13
HETATM   13  C13 UNL     1     -29.854 -23.913 -42.525  1.00  0.00     0.229 C 
BRANCH  13  14
HETATM   14  N1  UNL     1     -28.928 -23.549 -43.575  1.00  0.00    -0.079 N 
ATOM     15  H13 UNL     1     -29.390 -23.489 -44.481  1.00  0.00     0.274 HD
ATOM     16  H12 UNL     1     -28.626 -22.578 -43.490  1.00  0.00     0.274 HD
ATOM     17  H11 UNL     1     -28.134 -24.188 -43.600  1.00  0.00     0.274 HD
ENDBRANCH  13  14
ENDBRANCH  12  13
ENDBRANCH  11  12
ENDBRANCH  10  11
ENDBRANCH   1  10
TORSDOF 10
ENDMDL
MODEL 2
REMARK VINA RESULT: -4.128082502      1.048      1.515
REMARK  10 active torsions:
REMARK  status: ('A' for Active; 'I' for Inactive)
REMARK    1  A    between atoms: C2_2  and  C3_3 
REMARK    2  A    between atoms: C3_3  and  C4_4 
REMARK    3  A    between atoms: C4_4  and  C5_5 
REMARK    4  A    between atoms: C7_7  and  C8_8 
REMARK    5  A    between atoms: C8_8  and  C9_9 
REMARK    6  A    between atoms: C9_9  and  C10_10 
REMARK    7  A    between atoms: C10_10  and  C11_11 
REMARK    8  A    between atoms: C11_11  and  C12_12 
REMARK    9  A    between atoms: C12_12  and  C13_13 
REMARK   10  A    between atoms: C13_13  and  N1_14 
ROOT
HETATM    1  C9  UNL     1     -32.136 -22.798 -39.125  1.00  0.00     0.000 C 
ENDROOT
BRANCH   1   2
HETATM    2  C8  UNL     1     -30.899 -23.438 -38.521  1.00  0.00     0.005 C 
BRANCH   2   3
HETATM    3  C7  UNL     1     -30.874 -24.878 -38.981  1.00  0.00    -0.010 A 
HETATM    4  C5  UNL     1     -30.466 -25.873 -37.960  1.00  0.00    -0.010 A 
HETATM    5  C6  UNL     1     -29.561 -25.584 -39.117  1.00  0.00     0.010 A 
BRANCH   4   6
HETATM    6  C4  UNL     1     -31.118 -27.242 -37.927  1.00  0.00     0.009 C 
BRANCH   6   7
HETATM    7  C3  UNL     1     -32.627 -26.992 -38.047  1.00  0.00     0.027 C 
BRANCH   7   8
HETATM    8  C2  UNL     1     -33.205 -26.812 -36.709  1.00  0.00    -0.037 C 
HETATM    9  C1  UNL     1     -32.771 -27.569 -35.710  1.00  0.00     0.007 C 
ENDBRANCH   7   8
ENDBRANCH   6   7
ENDBRANCH   4   6
ENDBRANCH   2   3
ENDBRANCH   1   2
BRANCH   1  10
HETATM   10  C10 UNL     1     -32.981 -23.802 -39.869  1.00  0.00     0.000 C 
BRANCH  10  11
HETATM   11  C11 UNL     1     -33.309 -23.226 -41.222  1.00  0.00     0.002 C 
BRANCH  11  12
HETATM   12  C12 UNL     1     -32.092 -22.634 -41.898  1.00  0.00     0.027 C 
BRANCH  12  13
HETATM   13  C13 UNL     1     -31.861 -23.463 -43.169  1.00  0.00     0.229 C 
BRANCH  13  14
HETATM   14  N1  UNL     1     -30.462 -23.468 -43.536  1.00  0.00    -0.079 N 
ATOM     15  H13 UNL     1     -29.861 -23.282 -42.733  1.00  0.00     0.274 HD
ATOM     16  H12 UNL     1     -30.135 -24.408 -43.760  1.00  0.00     0.274 HD
ATOM     17  H11 UNL     1     -30.281 -22.815 -44.299  1.00  0.00     0.274 HD
ENDBRANCH  13  14
ENDBRANCH  12  13
ENDBRANCH  11  12
ENDBRANCH  10  11
ENDBRANCH   1  10
TORSDOF 10
ENDMDL
MODEL 3
REMARK VINA RESULT: -4.096249253      1.296      3.188
REMARK  10 active torsions:
REMARK  status: ('A' for Active; 'I' for Inactive)
REMARK    1  A    between atoms: C2_2  and  C3_3 
REMARK    2  A    between atoms: C3_3  and  C4_4 
REMARK    3  A    between atoms: C4_4  and  C5_5 
REMARK    4  A    between atoms: C7_7  and  C8_8 
REMARK    5  A    between atoms: C8_8  and  C9_9 
REMARK    6  A    between atoms: C9_9  and  C10_10 
REMARK    7  A    between atoms: C10_10  and  C11_11 
REMARK    8  A    between atoms: C11_11  and  C12_12 
REMARK    9  A    between atoms: C12_12  and  C13_13 
REMARK   10  A    between atoms: C13_13  and  N1_14 
ROOT
HETATM    1  C9  UNL     1     -34.620 -25.243 -39.948  1.00  0.00     0.000 C 
ENDROOT
BRANCH   1   2
HETATM    2  C8  UNL     1     -34.385 -26.470 -39.086  1.00  0.00     0.005 C 
BRANCH   2   3
HETATM    3  C7  UNL     1     -33.233 -26.150 -38.161  1.00  0.00    -0.010 A 
HETATM    4  C5  UNL     1     -32.251 -27.242 -37.955  1.00  0.00    -0.010 A 
HETATM    5  C6  UNL     1     -33.148 -26.830 -36.830  1.00  0.00     0.010 A 
BRANCH   4   6
HETATM    6  C4  UNL     1     -30.776 -26.922 -37.806  1.00  0.00     0.009 C 
BRANCH   6   7
HETATM    7  C3  UNL     1     -30.648 -25.410 -38.036  1.00  0.00     0.027 C 
BRANCH   7   8
HETATM    8  C2  UNL     1     -29.932 -25.161 -39.293  1.00  0.00    -0.037 C 
HETATM    9  C1  UNL     1     -28.921 -25.952 -39.629  1.00  0.00     0.007 C 
ENDBRANCH   7   8
ENDBRANCH   6   7
ENDBRANCH   4   6
ENDBRANCH   2   3
ENDBRANCH   1   2
BRANCH   1  10
HETATM   10  C10 UNL     1     -33.533 -24.212 -39.764  1.00  0.00     0.000 C 
BRANCH  10  11
HETATM   11  C11 UNL     1     -33.496 -23.347 -40.997  1.00  0.00     0.002 C 
BRANCH  11  12
HETATM   12  C12 UNL     1     -32.082 -23.093 -41.471  1.00  0.00     0.027 C 
BRANCH  12  13
HETATM   13  C13 UNL     1     -32.088 -23.334 -42.987  1.00  0.00     0.229 C 
BRANCH  13  14
HETATM   14  N1  UNL     1     -30.739 -23.396 -43.507  1.00  0.00    -0.079 N 
ATOM     15  H13 UNL     1     -30.244 -24.222 -43.171  1.00  0.00     0.274 HD
ATOM     16  H12 UNL     1     -30.730 -23.605 -44.505  1.00  0.00     0.274 HD
ATOM     17  H11 UNL     1     -30.227 -22.539 -43.297  1.00  0.00     0.274 HD
ENDBRANCH  13  14
ENDBRANCH  12  13
ENDBRANCH  11  12
ENDBRANCH  10  11
ENDBRANCH   1  10
TORSDOF 10
ENDMDL
MODEL 4
REMARK VINA RESULT: -4.065783741      1.029      2.440
REMARK  10 active torsions:
REMARK  status: ('A' for Active; 'I' for Inactive)
REMARK    1  A    between atoms: C2_2  and  C3_3 
REMARK    2  A    between atoms: C3_3  and  C4_4 
REMARK    3  A    between atoms: C4_4  and  C5_5 
REMARK    4  A    between atoms: C7_7  and  C8_8 
REMARK    5  A    between atoms: C8_8  and  C9_9 
REMARK    6  A    between atoms: C9_9  and  C10_10 
REMARK    7  A    between atoms: C10_10  and  C11_11 
REMARK    8  A    between atoms: C11_11  and  C12_12 
REMARK    9  A    between atoms: C12_12  and  C13_13 
REMARK   10  A    between atoms: C13_13  and  N1_14 
ROOT
HETATM    1  C9  UNL     1     -30.587 -25.031 -38.173  1.00  0.00     0.000 C 
ENDROOT
BRANCH   1   2
HETATM    2  C8  UNL     1     -30.356 -26.496 -37.849  1.00  0.00     0.005 C 
BRANCH   2   3
HETATM    3  C7  UNL     1     -31.716 -27.129 -37.659  1.00  0.00    -0.010 A 
HETATM    4  C5  UNL     1     -32.748 -26.264 -37.038  1.00  0.00    -0.010 A 
HETATM    5  C6  UNL     1     -32.201 -27.429 -36.275  1.00  0.00     0.010 A 
BRANCH   4   6
HETATM    6  C4  UNL     1     -34.193 -26.359 -37.490  1.00  0.00     0.009 C 
BRANCH   6   7
HETATM    7  C3  UNL     1     -34.154 -26.952 -38.904  1.00  0.00     0.027 C 
BRANCH   7   8
HETATM    8  C2  UNL     1     -34.927 -26.101 -39.817  1.00  0.00    -0.037 C 
HETATM    9  C1  UNL     1     -34.488 -24.879 -40.088  1.00  0.00     0.007 C 
ENDBRANCH   7   8
ENDBRANCH   6   7
ENDBRANCH   4   6
ENDBRANCH   2   3
ENDBRANCH   1   2
BRANCH   1  10
HETATM   10  C10 UNL     1     -30.325 -24.732 -39.629  1.00  0.00     0.000 C 
BRANCH  10  11
HETATM   11  C11 UNL     1     -31.105 -23.498 -40.001  1.00  0.00     0.002 C 
BRANCH  11  12
HETATM   12  C12 UNL     1     -31.074 -23.233 -41.490  1.00  0.00     0.027 C 
BRANCH  12  13
HETATM   13  C13 UNL     1     -29.808 -23.918 -42.022  1.00  0.00     0.229 C 
BRANCH  13  14
HETATM   14  N1  UNL     1     -29.686 -23.744 -43.452  1.00  0.00    -0.079 N 
ATOM     15  H13 UNL     1     -30.594 -23.597 -43.893  1.00  0.00     0.274 HD
ATOM     16  H12 UNL     1     -29.254 -22.850 -43.687  1.00  0.00     0.274 HD
ATOM     17  H11 UNL     1     -29.185 -24.525 -43.875  1.00  0.00     0.274 HD
ENDBRANCH  13  14
ENDBRANCH  12  13
ENDBRANCH  11  12
ENDBRANCH  10  11
ENDBRANCH   1  10
TORSDOF 10
ENDMDL
MODEL 5
REMARK VINA RESULT: -4.045969608      1.125      2.945
REMARK  10 active torsions:
REMARK  status: ('A' for Active; 'I' for Inactive)
REMARK    1  A    between atoms: C2_2  and  C3_3 
REMARK    2  A    between atoms: C3_3  and  C4_4 
REMARK    3  A    between atoms: C4_4  and  C5_5 
REMARK    4  A    between atoms: C7_7  and  C8_8 
REMARK    5  A    between atoms: C8_8  and  C9_9 
REMARK    6  A    between atoms: C9_9  and  C10_10 
REMARK    7  A    between atoms: C10_10  and  C11_11 
REMARK    8  A    between atoms: C11_11  and  C12_12 
REMARK    9  A    between atoms: C12_12  and  C13_13 
REMARK   10  A    between atoms: C13_13  and  N1_14 
ROOT
HETATM    1  C9  UNL     1     -33.630 -23.529 -39.957  1.00  0.00     0.000 C 
ENDROOT
BRANCH   1   2
HETATM    2  C8  UNL     1     -34.123 -24.947 -39.734  1.00  0.00     0.005 C 
BRANCH   2   3
HETATM    3  C7  UNL     1     -33.666 -25.366 -38.355  1.00  0.00    -0.010 A 
HETATM    4  C5  UNL     1     -33.126 -26.743 -38.247  1.00  0.00    -0.010 A 
HETATM    5  C6  UNL     1     -34.438 -26.409 -37.609  1.00  0.00     0.010 A 
BRANCH   4   6
HETATM    6  C4  UNL     1     -31.967 -27.035 -37.314  1.00  0.00     0.009 C 
BRANCH   6   7
HETATM    7  C3  UNL     1     -30.752 -27.283 -38.216  1.00  0.00     0.027 C 
BRANCH   7   8
HETATM    8  C2  UNL     1     -29.960 -26.051 -38.327  1.00  0.00    -0.037 C 
HETATM    9  C1  UNL     1     -29.185 -25.874 -39.389  1.00  0.00     0.007 C 
ENDBRANCH   7   8
ENDBRANCH   6   7
ENDBRANCH   4   6
ENDBRANCH   2   3
ENDBRANCH   1   2
BRANCH   1  10
HETATM   10  C10 UNL     1     -32.186 -23.367 -39.548  1.00  0.00     0.000 C 
BRANCH  10  11
HETATM   11  C11 UNL     1     -31.358 -23.237 -40.799  1.00  0.00     0.002 C 
BRANCH  11  12
HETATM   12  C12 UNL     1     -32.136 -22.607 -41.933  1.00  0.00     0.027 C 
BRANCH  12  13
HETATM   13  C13 UNL     1     -31.861 -23.468 -43.173  1.00  0.00     0.229 C 
BRANCH  13  14
HETATM   14  N1  UNL     1     -30.451 -23.477 -43.495  1.00  0.00    -0.079 N 
ATOM     15  H13 UNL     1     -30.280 -23.157 -44.448  1.00  0.00     0.274 HD
ATOM     16  H12 UNL     1     -29.946 -22.748 -42.993  1.00  0.00     0.274 HD
ATOM     17  H11 UNL     1     -30.044 -24.398 -43.330  1.00  0.00     0.274 HD
ENDBRANCH  13  14
ENDBRANCH  12  13
ENDBRANCH  11  12
ENDBRANCH  10  11
ENDBRANCH   1  10
TORSDOF 10
ENDMDL
