MODEL 1
REMARK VINA RESULT: -3.858764234      0.000      0.000
REMARK  10 active torsions:
REMARK  status: ('A' for Active; 'I' for Inactive)
REMARK    1  A    between atoms: C2_2  and  C3_3 
REMARK    2  A    between atoms: C3_3  and  C4_4 
REMARK    3  A    between atoms: C4_4  and  N1_5 
REMARK    4  A    between atoms: N1_5  and  C5_8 
REMARK    5  A    between atoms: C5_8  and  C6_9 
REMARK    6  A    between atoms: C6_9  and  C7_10 
REMARK    7  A    between atoms: C7_10  and  C8_11 
REMARK    8  A    between atoms: C8_11  and  C9_12 
REMARK    9  A    between atoms: C9_12  and  C10_13 
REMARK   10  A    between atoms: C10_13  and  C11_14 
ROOT
HETATM    1  C6  UNL     1     -31.403 -23.929 -38.811  1.00  0.00     0.027 C 
ENDROOT
BRANCH   1   2
HETATM    2  C5  UNL     1     -31.157 -22.586 -39.413  1.00  0.00     0.232 C 
BRANCH   2   3
HETATM    3  N1  UNL     1     -30.835 -21.552 -38.465  1.00  0.00    -0.075 N 
ATOM      4  H12 UNL     1     -31.193 -20.640 -38.746  1.00  0.00     0.277 HD
ATOM      5  H11 UNL     1     -29.842 -21.319 -38.464  1.00  0.00     0.277 HD
BRANCH   3   6
HETATM    6  C4  UNL     1     -31.313 -21.957 -37.156  1.00  0.00     0.236 C 
BRANCH   6   7
HETATM    7  C3  UNL     1     -30.283 -21.730 -36.073  1.00  0.00     0.054 C 
BRANCH   7   8
HETATM    8  C2  UNL     1     -29.930 -23.037 -35.480  1.00  0.00    -0.035 C 
HETATM    9  C1  UNL     1     -30.846 -23.820 -34.977  1.00  0.00     0.007 C 
ENDBRANCH   7   8
ENDBRANCH   6   7
ENDBRANCH   3   6
ENDBRANCH   2   3
ENDBRANCH   1   2
BRANCH   1  10
HETATM   10  C7  UNL     1     -30.291 -24.908 -39.110  1.00  0.00     0.002 C 
BRANCH  10  11
HETATM   11  C8  UNL     1     -30.073 -25.875 -37.971  1.00  0.00     0.000 C 
BRANCH  11  12
HETATM   12  C9  UNL     1     -30.945 -27.103 -38.079  1.00  0.00     0.001 C 
BRANCH  12  13
HETATM   13  C10 UNL     1     -31.845 -27.110 -36.865  1.00  0.00     0.009 C 
BRANCH  13  14
HETATM   14  C11 UNL     1     -33.255 -26.686 -37.203  1.00  0.00    -0.044 A 
HETATM   15  C12 UNL     1     -33.763 -26.890 -38.599  1.00  0.00     0.015 C 
HETATM   16  C13 UNL     1     -34.259 -26.799 -36.064  1.00  0.00     0.010 A 
HETATM   17  C14 UNL     1     -33.811 -25.453 -36.486  1.00  0.00     0.010 A 
ENDBRANCH  13  14
ENDBRANCH  12  13
ENDBRANCH  11  12
ENDBRANCH  10  11
ENDBRANCH   1  10
TORSDOF 10
ENDMDL
MODEL 2
REMARK VINA RESULT: -3.802099557      2.092      3.821
REMARK  10 active torsions:
REMARK  status: ('A' for Active; 'I' for Inactive)
REMARK    1  A    between atoms: C2_2  and  C3_3 
REMARK    2  A    between atoms: C3_3  and  C4_4 
REMARK    3  A    between atoms: C4_4  and  N1_5 
REMARK    4  A    between atoms: N1_5  and  C5_8 
REMARK    5  A    between atoms: C5_8  and  C6_9 
REMARK    6  A    between atoms: C6_9  and  C7_10 
REMARK    7  A    between atoms: C7_10  and  C8_11 
REMARK    8  A    between atoms: C8_11  and  C9_12 
REMARK    9  A    between atoms: C9_12  and  C10_13 
REMARK   10  A    between atoms: C10_13  and  C11_14 
ROOT
HETATM    1  C6  UNL     1     -31.026 -23.142 -39.017  1.00  0.00     0.027 C 
ENDROOT
BRANCH   1   2
HETATM    2  C5  UNL     1     -31.379 -21.936 -39.823  1.00  0.00     0.232 C 
BRANCH   2   3
HETATM    3  N1  UNL     1     -31.156 -22.072 -41.238  1.00  0.00    -0.075 N 
ATOM      4  H12 UNL     1     -30.731 -22.965 -41.483  1.00  0.00     0.277 HD
ATOM      5  H11 UNL     1     -30.411 -21.464 -41.576  1.00  0.00     0.277 HD
BRANCH   3   6
HETATM    6  C4  UNL     1     -32.414 -21.847 -41.928  1.00  0.00     0.236 C 
BRANCH   6   7
HETATM    7  C3  UNL     1     -32.922 -23.094 -42.616  1.00  0.00     0.054 C 
BRANCH   7   8
HETATM    8  C2  UNL     1     -34.207 -23.480 -41.996  1.00  0.00    -0.035 C 
HETATM    9  C1  UNL     1     -34.243 -24.122 -40.860  1.00  0.00     0.007 C 
ENDBRANCH   7   8
ENDBRANCH   6   7
ENDBRANCH   3   6
ENDBRANCH   2   3
ENDBRANCH   1   2
BRANCH   1  10
HETATM   10  C7  UNL     1     -30.641 -24.320 -39.881  1.00  0.00     0.002 C 
BRANCH  10  11
HETATM   11  C8  UNL     1     -29.763 -25.298 -39.137  1.00  0.00     0.000 C 
BRANCH  11  12
HETATM   12  C9  UNL     1     -30.306 -25.640 -37.770  1.00  0.00     0.001 C 
BRANCH  12  13
HETATM   13  C10 UNL     1     -31.050 -26.948 -37.907  1.00  0.00     0.009 C 
BRANCH  13  14
HETATM   14  C11 UNL     1     -32.416 -26.893 -37.263  1.00  0.00    -0.044 A 
HETATM   15  C12 UNL     1     -32.616 -27.535 -35.923  1.00  0.00     0.015 C 
HETATM   16  C13 UNL     1     -33.233 -25.648 -37.577  1.00  0.00     0.010 A 
HETATM   17  C14 UNL     1     -33.634 -26.936 -38.189  1.00  0.00     0.010 A 
ENDBRANCH  13  14
ENDBRANCH  12  13
ENDBRANCH  11  12
ENDBRANCH  10  11
ENDBRANCH   1  10
TORSDOF 10
ENDMDL
MODEL 3
REMARK VINA RESULT: -3.773473156      2.009      3.827
REMARK  10 active torsions:
REMARK  status: ('A' for Active; 'I' for Inactive)
REMARK    1  A    between atoms: C2_2  and  C3_3 
REMARK    2  A    between atoms: C3_3  and  C4_4 
REMARK    3  A    between atoms: C4_4  and  N1_5 
REMARK    4  A    between atoms: N1_5  and  C5_8 
REMARK    5  A    between atoms: C5_8  and  C6_9 
REMARK    6  A    between atoms: C6_9  and  C7_10 
REMARK    7  A    between atoms: C7_10  and  C8_11 
REMARK    8  A    between atoms: C8_11  and  C9_12 
REMARK    9  A    between atoms: C9_12  and  C10_13 
REMARK   10  A    between atoms: C10_13  and  C11_14 
ROOT
HETATM    1  C6  UNL     1     -33.760 -25.023 -36.256  1.00  0.00     0.027 C 
ENDROOT
BRANCH   1   2
HETATM    2  C5  UNL     1     -34.629 -24.076 -35.499  1.00  0.00     0.232 C 
BRANCH   2   3
HETATM    3  N1  UNL     1     -34.051 -23.569 -34.283  1.00  0.00    -0.075 N 
ATOM      4  H12 UNL     1     -33.393 -24.224 -33.860  1.00  0.00     0.277 HD
ATOM      5  H11 UNL     1     -34.723 -23.531 -33.517  1.00  0.00     0.277 HD
BRANCH   3   6
HETATM    6  C4  UNL     1     -33.449 -22.277 -34.559  1.00  0.00     0.236 C 
BRANCH   6   7
HETATM    7  C3  UNL     1     -31.990 -22.228 -34.163  1.00  0.00     0.054 C 
BRANCH   7   8
HETATM    8  C2  UNL     1     -31.172 -22.559 -35.349  1.00  0.00    -0.035 C 
HETATM    9  C1  UNL     1     -30.282 -23.515 -35.310  1.00  0.00     0.007 C 
ENDBRANCH   7   8
ENDBRANCH   6   7
ENDBRANCH   3   6
ENDBRANCH   2   3
ENDBRANCH   1   2
BRANCH   1  10
HETATM   10  C7  UNL     1     -33.053 -26.006 -35.352  1.00  0.00     0.002 C 
BRANCH  10  11
HETATM   11  C8  UNL     1     -32.434 -27.142 -36.131  1.00  0.00     0.000 C 
BRANCH  11  12
HETATM   12  C9  UNL     1     -32.467 -26.906 -37.623  1.00  0.00     0.001 C 
BRANCH  12  13
HETATM   13  C10 UNL     1     -31.070 -27.160 -38.138  1.00  0.00     0.009 C 
BRANCH  13  14
HETATM   14  C11 UNL     1     -30.382 -25.883 -38.562  1.00  0.00    -0.044 A 
HETATM   15  C12 UNL     1     -31.210 -24.661 -38.824  1.00  0.00     0.015 C 
HETATM   16  C13 UNL     1     -28.984 -25.679 -37.995  1.00  0.00     0.010 A 
HETATM   17  C14 UNL     1     -29.127 -26.013 -39.430  1.00  0.00     0.010 A 
ENDBRANCH  13  14
ENDBRANCH  12  13
ENDBRANCH  11  12
ENDBRANCH  10  11
ENDBRANCH   1  10
TORSDOF 10
ENDMDL
MODEL 4
REMARK VINA RESULT: -3.701267746      2.006      3.654
REMARK  10 active torsions:
REMARK  status: ('A' for Active; 'I' for Inactive)
REMARK    1  A    between atoms: C2_2  and  C3_3 
REMARK    2  A    between atoms: C3_3  and  C4_4 
REMARK    3  A    between atoms: C4_4  and  N1_5 
REMARK    4  A    between atoms: N1_5  and  C5_8 
REMARK    5  A    between atoms: C5_8  and  C6_9 
REMARK    6  A    between atoms: C6_9  and  C7_10 
REMARK    7  A    between atoms: C7_10  and  C8_11 
REMARK    8  A    between atoms: C8_11  and  C9_12 
REMARK    9  A    between atoms: C9_12  and  C10_13 
REMARK   10  A    between atoms: C10_13  and  C11_14 
ROOT
HETATM    1  C6  UNL     1     -31.655 -23.576 -38.986  1.00  0.00     0.027 C 
ENDROOT
BRANCH   1   2
HETATM    2  C5  UNL     1     -31.312 -22.208 -39.474  1.00  0.00     0.232 C 
BRANCH   2   3
HETATM    3  N1  UNL     1     -30.959 -22.137 -40.867  1.00  0.00    -0.075 N 
ATOM      4  H12 UNL     1     -30.389 -22.927 -41.167  1.00  0.00     0.277 HD
ATOM      5  H11 UNL     1     -30.287 -21.396 -41.063  1.00  0.00     0.277 HD
BRANCH   3   6
HETATM    6  C4  UNL     1     -32.177 -22.004 -41.648  1.00  0.00     0.236 C 
BRANCH   6   7
HETATM    7  C3  UNL     1     -32.298 -23.073 -42.710  1.00  0.00     0.054 C 
BRANCH   7   8
HETATM    8  C2  UNL     1     -33.685 -23.584 -42.704  1.00  0.00    -0.035 C 
HETATM    9  C1  UNL     1     -34.305 -23.842 -41.584  1.00  0.00     0.007 C 
ENDBRANCH   7   8
ENDBRANCH   6   7
ENDBRANCH   3   6
ENDBRANCH   2   3
ENDBRANCH   1   2
BRANCH   1  10
HETATM   10  C7  UNL     1     -30.576 -24.587 -39.296  1.00  0.00     0.002 C 
BRANCH  10  11
HETATM   11  C8  UNL     1     -30.249 -25.445 -38.097  1.00  0.00     0.000 C 
BRANCH  11  12
HETATM   12  C9  UNL     1     -30.805 -26.844 -38.218  1.00  0.00     0.001 C 
BRANCH  12  13
HETATM   13  C10 UNL     1     -31.666 -27.082 -36.999  1.00  0.00     0.009 C 
BRANCH  13  14
HETATM   14  C11 UNL     1     -33.106 -26.690 -37.239  1.00  0.00    -0.044 A 
HETATM   15  C12 UNL     1     -33.688 -26.856 -38.610  1.00  0.00     0.015 C 
HETATM   16  C13 UNL     1     -34.037 -26.879 -36.049  1.00  0.00     0.010 A 
HETATM   17  C14 UNL     1     -33.654 -25.503 -36.442  1.00  0.00     0.010 A 
ENDBRANCH  13  14
ENDBRANCH  12  13
ENDBRANCH  11  12
ENDBRANCH  10  11
ENDBRANCH   1  10
TORSDOF 10
ENDMDL
MODEL 5
REMARK VINA RESULT: -3.690189378      2.695      4.676
REMARK  10 active torsions:
REMARK  status: ('A' for Active; 'I' for Inactive)
REMARK    1  A    between atoms: C2_2  and  C3_3 
REMARK    2  A    between atoms: C3_3  and  C4_4 
REMARK    3  A    between atoms: C4_4  and  N1_5 
REMARK    4  A    between atoms: N1_5  and  C5_8 
REMARK    5  A    between atoms: C5_8  and  C6_9 
REMARK    6  A    between atoms: C6_9  and  C7_10 
REMARK    7  A    between atoms: C7_10  and  C8_11 
REMARK    8  A    between atoms: C8_11  and  C9_12 
REMARK    9  A    between atoms: C9_12  and  C10_13 
REMARK   10  A    between atoms: C10_13  and  C11_14 
ROOT
HETATM    1  C6  UNL     1     -31.948 -26.842 -36.812  1.00  0.00     0.027 C 
ENDROOT
BRANCH   1   2
HETATM    2  C5  UNL     1     -31.106 -27.308 -37.953  1.00  0.00     0.232 C 
BRANCH   2   3
HETATM    3  N1  UNL     1     -29.875 -26.584 -38.127  1.00  0.00    -0.075 N 
ATOM      4  H12 UNL     1     -29.387 -26.845 -38.984  1.00  0.00     0.277 HD
ATOM      5  H11 UNL     1     -29.156 -26.871 -37.463  1.00  0.00     0.277 HD
BRANCH   3   6
HETATM    6  C4  UNL     1     -30.160 -25.162 -38.061  1.00  0.00     0.236 C 
BRANCH   6   7
HETATM    7  C3  UNL     1     -30.454 -24.571 -39.421  1.00  0.00     0.054 C 
BRANCH   7   8
HETATM    8  C2  UNL     1     -31.671 -23.738 -39.316  1.00  0.00    -0.035 C 
HETATM    9  C1  UNL     1     -32.152 -23.389 -38.154  1.00  0.00     0.007 C 
ENDBRANCH   7   8
ENDBRANCH   6   7
ENDBRANCH   3   6
ENDBRANCH   2   3
ENDBRANCH   1   2
BRANCH   1  10
HETATM   10  C7  UNL     1     -33.423 -26.858 -37.140  1.00  0.00     0.002 C 
BRANCH  10  11
HETATM   11  C8  UNL     1     -33.667 -26.927 -38.629  1.00  0.00     0.000 C 
BRANCH  11  12
HETATM   12  C9  UNL     1     -34.733 -25.960 -39.086  1.00  0.00     0.001 C 
BRANCH  12  13
HETATM   13  C10 UNL     1     -35.454 -26.615 -40.241  1.00  0.00     0.009 C 
BRANCH  13  14
HETATM   14  C11 UNL     1     -35.447 -25.747 -41.478  1.00  0.00    -0.044 A 
HETATM   15  C12 UNL     1     -34.748 -24.422 -41.435  1.00  0.00     0.015 C 
HETATM   16  C13 UNL     1     -35.449 -26.501 -42.801  1.00  0.00     0.010 A 
HETATM   17  C14 UNL     1     -36.683 -25.798 -42.381  1.00  0.00     0.010 A 
ENDBRANCH  13  14
ENDBRANCH  12  13
ENDBRANCH  11  12
ENDBRANCH  10  11
ENDBRANCH   1  10
TORSDOF 10
ENDMDL
