MODEL 1
REMARK VINA RESULT: -4.097612406      0.000      0.000
REMARK  9 active torsions:
REMARK  status: ('A' for Active; 'I' for Inactive)
REMARK    1  A    between atoms: C2_2  and  C3_3 
REMARK    2  A    between atoms: C3_3  and  N1_4 
REMARK    3  A    between atoms: N1_4  and  C4_6 
REMARK    4  A    between atoms: C4_6  and  C5_7 
REMARK    5  A    between atoms: C5_7  and  C6_8 
REMARK    6  A    between atoms: C6_8  and  C7_9 
REMARK    7  A    between atoms: C7_9  and  C8_10 
REMARK    8  A    between atoms: C8_10  and  C9_11 
REMARK    9  A    between atoms: C9_11  and  C10_12 
ROOT
HETATM    1  C6  UNL     1     -30.216 -24.990 -39.211  1.00  0.00     0.002 C 
ENDROOT
BRANCH   1   2
HETATM    2  C5  UNL     1     -30.939 -23.702 -38.910  1.00  0.00     0.019 C 
BRANCH   2   3
HETATM    3  C4  UNL     1     -31.769 -23.243 -40.060  1.00  0.00     0.113 C 
BRANCH   3   4
HETATM    4  N1  UNL     1     -31.070 -22.757 -41.189  1.00  0.00    -0.421 N 
ATOM      5  H1  UNL     1     -30.231 -22.188 -41.083  1.00  0.00     0.153 HD
BRANCH   4   6
HETATM    6  C3  UNL     1     -31.575 -23.087 -42.473  1.00  0.00     0.113 C 
BRANCH   6   7
HETATM    7  C2  UNL     1     -30.626 -23.897 -43.329  1.00  0.00     0.015 C 
HETATM    8  C1  UNL     1     -29.273 -23.920 -42.648  1.00  0.00     0.006 C 
ENDBRANCH   6   7
ENDBRANCH   4   6
ENDBRANCH   3   4
ENDBRANCH   2   3
ENDBRANCH   1   2
BRANCH   1   9
HETATM    9  C7  UNL     1     -30.018 -25.812 -37.930  1.00  0.00     0.001 C 
BRANCH   9  10
HETATM   10  C8  UNL     1     -30.875 -27.027 -38.047  1.00  0.00     0.009 C 
BRANCH  10  11
HETATM   11  C9  UNL     1     -32.198 -26.967 -37.371  1.00  0.00    -0.041 A 
HETATM   12  C12 UNL     1     -32.284 -26.005 -36.198  1.00  0.00     0.010 A 
HETATM   13  C13 UNL     1     -32.373 -27.528 -36.010  1.00  0.00     0.010 A 
BRANCH  11  14
HETATM   14  C10 UNL     1     -33.379 -27.000 -38.330  1.00  0.00     0.005 C 
HETATM   15  C11 UNL     1     -34.094 -25.677 -38.380  1.00  0.00     0.006 C 
ENDBRANCH  11  14
ENDBRANCH  10  11
ENDBRANCH   9  10
ENDBRANCH   1   9
TORSDOF 9
ENDMDL
MODEL 2
REMARK VINA RESULT: -4.047354489      1.500      2.788
REMARK  9 active torsions:
REMARK  status: ('A' for Active; 'I' for Inactive)
REMARK    1  A    between atoms: C2_2  and  C3_3 
REMARK    2  A    between atoms: C3_3  and  N1_4 
REMARK    3  A    between atoms: N1_4  and  C4_6 
REMARK    4  A    between atoms: C4_6  and  C5_7 
REMARK    5  A    between atoms: C5_7  and  C6_8 
REMARK    6  A    between atoms: C6_8  and  C7_9 
REMARK    7  A    between atoms: C7_9  and  C8_10 
REMARK    8  A    between atoms: C8_10  and  C9_11 
REMARK    9  A    between atoms: C9_11  and  C10_12 
ROOT
HETATM    1  C6  UNL     1     -31.604 -22.407 -39.055  1.00  0.00     0.002 C 
ENDROOT
BRANCH   1   2
HETATM    2  C5  UNL     1     -31.029 -21.293 -39.890  1.00  0.00     0.019 C 
BRANCH   2   3
HETATM    3  C4  UNL     1     -32.061 -20.650 -40.753  1.00  0.00     0.113 C 
BRANCH   3   4
HETATM    4  N1  UNL     1     -32.186 -21.151 -42.069  1.00  0.00    -0.421 N 
ATOM      5  H1  UNL     1     -31.466 -20.973 -42.770  1.00  0.00     0.153 HD
BRANCH   4   6
HETATM    6  C3  UNL     1     -33.344 -21.908 -42.383  1.00  0.00     0.113 C 
BRANCH   6   7
HETATM    7  C2  UNL     1     -33.066 -23.342 -42.776  1.00  0.00     0.015 C 
HETATM    8  C1  UNL     1     -31.611 -23.450 -43.187  1.00  0.00     0.006 C 
ENDBRANCH   6   7
ENDBRANCH   4   6
ENDBRANCH   3   4
ENDBRANCH   2   3
ENDBRANCH   1   2
BRANCH   1   9
HETATM    9  C7  UNL     1     -31.084 -23.769 -39.535  1.00  0.00     0.001 C 
BRANCH   9  10
HETATM   10  C8  UNL     1     -31.285 -24.738 -38.421  1.00  0.00     0.009 C 
BRANCH  10  11
HETATM   11  C9  UNL     1     -30.431 -25.956 -38.445  1.00  0.00    -0.041 A 
HETATM   12  C12 UNL     1     -29.022 -25.770 -37.906  1.00  0.00     0.010 A 
HETATM   13  C13 UNL     1     -29.294 -26.059 -39.392  1.00  0.00     0.010 A 
BRANCH  11  14
HETATM   14  C10 UNL     1     -31.165 -27.228 -38.047  1.00  0.00     0.005 C 
HETATM   15  C11 UNL     1     -32.648 -27.001 -37.926  1.00  0.00     0.006 C 
ENDBRANCH  11  14
ENDBRANCH  10  11
ENDBRANCH   9  10
ENDBRANCH   1   9
TORSDOF 9
ENDMDL
MODEL 3
REMARK VINA RESULT: -3.978389087      0.867      1.504
REMARK  9 active torsions:
REMARK  status: ('A' for Active; 'I' for Inactive)
REMARK    1  A    between atoms: C2_2  and  C3_3 
REMARK    2  A    between atoms: C3_3  and  N1_4 
REMARK    3  A    between atoms: N1_4  and  C4_6 
REMARK    4  A    between atoms: C4_6  and  C5_7 
REMARK    5  A    between atoms: C5_7  and  C6_8 
REMARK    6  A    between atoms: C6_8  and  C7_9 
REMARK    7  A    between atoms: C7_9  and  C8_10 
REMARK    8  A    between atoms: C8_10  and  C9_11 
REMARK    9  A    between atoms: C9_11  and  C10_12 
ROOT
HETATM    1  C6  UNL     1     -30.385 -24.752 -39.367  1.00  0.00     0.002 C 
ENDROOT
BRANCH   1   2
HETATM    2  C5  UNL     1     -31.066 -23.434 -39.107  1.00  0.00     0.019 C 
BRANCH   2   3
HETATM    3  C4  UNL     1     -31.391 -22.711 -40.370  1.00  0.00     0.113 C 
BRANCH   3   4
HETATM    4  N1  UNL     1     -30.814 -23.222 -41.556  1.00  0.00    -0.421 N 
ATOM      5  H1  UNL     1     -29.862 -23.588 -41.563  1.00  0.00     0.153 HD
BRANCH   4   6
HETATM    6  C3  UNL     1     -31.603 -23.209 -42.734  1.00  0.00     0.113 C 
BRANCH   6   7
HETATM    7  C2  UNL     1     -33.022 -22.724 -42.533  1.00  0.00     0.015 C 
HETATM    8  C1  UNL     1     -33.965 -23.865 -42.858  1.00  0.00     0.006 C 
ENDBRANCH   6   7
ENDBRANCH   4   6
ENDBRANCH   3   4
ENDBRANCH   2   3
ENDBRANCH   1   2
BRANCH   1   9
HETATM    9  C7  UNL     1     -30.152 -25.511 -38.054  1.00  0.00     0.001 C 
BRANCH   9  10
HETATM   10  C8  UNL     1     -30.886 -26.805 -38.153  1.00  0.00     0.009 C 
BRANCH  10  11
HETATM   11  C9  UNL     1     -32.213 -26.862 -37.483  1.00  0.00    -0.041 A 
HETATM   12  C12 UNL     1     -32.401 -25.887 -36.333  1.00  0.00     0.010 A 
HETATM   13  C13 UNL     1     -32.339 -27.407 -36.110  1.00  0.00     0.010 A 
BRANCH  11  14
HETATM   14  C10 UNL     1     -33.379 -27.034 -38.446  1.00  0.00     0.005 C 
HETATM   15  C11 UNL     1     -33.943 -25.708 -38.882  1.00  0.00     0.006 C 
ENDBRANCH  11  14
ENDBRANCH  10  11
ENDBRANCH   9  10
ENDBRANCH   1   9
TORSDOF 9
ENDMDL
MODEL 4
REMARK VINA RESULT: -3.953014489      2.540      3.714
REMARK  9 active torsions:
REMARK  status: ('A' for Active; 'I' for Inactive)
REMARK    1  A    between atoms: C2_2  and  C3_3 
REMARK    2  A    between atoms: C3_3  and  N1_4 
REMARK    3  A    between atoms: N1_4  and  C4_6 
REMARK    4  A    between atoms: C4_6  and  C5_7 
REMARK    5  A    between atoms: C5_7  and  C6_8 
REMARK    6  A    between atoms: C6_8  and  C7_9 
REMARK    7  A    between atoms: C7_9  and  C8_10 
REMARK    8  A    between atoms: C8_10  and  C9_11 
REMARK    9  A    between atoms: C9_11  and  C10_12 
ROOT
HETATM    1  C6  UNL     1     -31.085 -22.223 -38.402  1.00  0.00     0.002 C 
ENDROOT
BRANCH   1   2
HETATM    2  C5  UNL     1     -31.256 -22.466 -39.879  1.00  0.00     0.019 C 
BRANCH   2   3
HETATM    3  C4  UNL     1     -31.790 -21.268 -40.587  1.00  0.00     0.113 C 
BRANCH   3   4
HETATM    4  N1  UNL     1     -30.988 -20.104 -40.552  1.00  0.00    -0.421 N 
ATOM      5  H1  UNL     1     -30.024 -20.139 -40.220  1.00  0.00     0.153 HD
BRANCH   4   6
HETATM    6  C3  UNL     1     -31.567 -18.888 -40.995  1.00  0.00     0.113 C 
BRANCH   6   7
HETATM    7  C2  UNL     1     -32.780 -19.059 -41.883  1.00  0.00     0.015 C 
HETATM    8  C1  UNL     1     -33.905 -18.214 -41.319  1.00  0.00     0.006 C 
ENDBRANCH   6   7
ENDBRANCH   4   6
ENDBRANCH   3   4
ENDBRANCH   2   3
ENDBRANCH   1   2
BRANCH   1   9
HETATM    9  C7  UNL     1     -30.916 -23.550 -37.650  1.00  0.00     0.001 C 
BRANCH   9  10
HETATM   10  C8  UNL     1     -31.259 -24.645 -38.601  1.00  0.00     0.009 C 
BRANCH  10  11
HETATM   11  C9  UNL     1     -30.408 -25.864 -38.537  1.00  0.00    -0.041 A 
HETATM   12  C12 UNL     1     -29.026 -25.659 -37.939  1.00  0.00     0.010 A 
HETATM   13  C13 UNL     1     -29.228 -26.005 -39.424  1.00  0.00     0.010 A 
BRANCH  11  14
HETATM   14  C10 UNL     1     -31.164 -27.118 -38.126  1.00  0.00     0.005 C 
HETATM   15  C11 UNL     1     -32.642 -26.862 -37.996  1.00  0.00     0.006 C 
ENDBRANCH  11  14
ENDBRANCH  10  11
ENDBRANCH   9  10
ENDBRANCH   1   9
TORSDOF 9
ENDMDL
MODEL 5
REMARK VINA RESULT: -3.942616317      2.203      3.513
REMARK  9 active torsions:
REMARK  status: ('A' for Active; 'I' for Inactive)
REMARK    1  A    between atoms: C2_2  and  C3_3 
REMARK    2  A    between atoms: C3_3  and  N1_4 
REMARK    3  A    between atoms: N1_4  and  C4_6 
REMARK    4  A    between atoms: C4_6  and  C5_7 
REMARK    5  A    between atoms: C5_7  and  C6_8 
REMARK    6  A    between atoms: C6_8  and  C7_9 
REMARK    7  A    between atoms: C7_9  and  C8_10 
REMARK    8  A    between atoms: C8_10  and  C9_11 
REMARK    9  A    between atoms: C9_11  and  C10_12 
ROOT
HETATM    1  C6  UNL     1     -30.728 -24.916 -38.992  1.00  0.00     0.002 C 
ENDROOT
BRANCH   1   2
HETATM    2  C5  UNL     1     -31.681 -23.806 -38.631  1.00  0.00     0.019 C 
BRANCH   2   3
HETATM    3  C4  UNL     1     -31.160 -22.468 -39.031  1.00  0.00     0.113 C 
BRANCH   3   4
HETATM    4  N1  UNL     1     -30.811 -21.586 -37.983  1.00  0.00    -0.421 N 
ATOM      5  H1  UNL     1     -30.326 -20.709 -38.172  1.00  0.00     0.153 HD
BRANCH   4   6
HETATM    6  C3  UNL     1     -31.158 -21.961 -36.659  1.00  0.00     0.113 C 
BRANCH   6   7
HETATM    7  C2  UNL     1     -30.027 -21.848 -35.661  1.00  0.00     0.015 C 
HETATM    8  C1  UNL     1     -29.555 -23.247 -35.317  1.00  0.00     0.006 C 
ENDBRANCH   6   7
ENDBRANCH   4   6
ENDBRANCH   3   4
ENDBRANCH   2   3
ENDBRANCH   1   2
BRANCH   1   9
HETATM    9  C7  UNL     1     -30.562 -25.892 -37.819  1.00  0.00     0.001 C 
BRANCH   9  10
HETATM   10  C8  UNL     1     -31.642 -26.913 -37.936  1.00  0.00     0.009 C 
BRANCH  10  11
HETATM   11  C9  UNL     1     -32.736 -26.834 -36.931  1.00  0.00    -0.041 A 
HETATM   12  C12 UNL     1     -32.383 -26.106 -35.645  1.00  0.00     0.010 A 
HETATM   13  C13 UNL     1     -32.660 -27.618 -35.675  1.00  0.00     0.010 A 
BRANCH  11  14
HETATM   14  C10 UNL     1     -34.104 -26.556 -37.534  1.00  0.00     0.005 C 
HETATM   15  C11 UNL     1     -34.149 -26.902 -38.999  1.00  0.00     0.006 C 
ENDBRANCH  11  14
ENDBRANCH  10  11
ENDBRANCH   9  10
ENDBRANCH   1   9
TORSDOF 9
ENDMDL
