MODEL 1
REMARK VINA RESULT: -6.456317805      0.000      0.000
REMARK  5 active torsions:
REMARK  status: ('A' for Active; 'I' for Inactive)
REMARK    1  A    between atoms: C1_2  and  C2_4 
REMARK    2  A    between atoms: C2_4  and  C3_5 
REMARK    3  A    between atoms: C3_5  and  N2_6 
REMARK    4  A    between atoms: C3_5  and  C4_10 
REMARK    5  A    between atoms: C4_10  and  C5_12 
ROOT
HETATM    1  C3  UNL     1      17.313  14.145  18.824  1.00  0.00     0.263 C 
ENDROOT
BRANCH   1   2
HETATM    2  C2  UNL     1      17.108  12.906  17.972  1.00  0.00     0.140 C 
BRANCH   2   3
HETATM    3  C1  UNL     1      16.202  11.962  18.675  1.00  0.00     0.233 C 
HETATM    4  N1  UNL     1      14.804  12.198  18.564  1.00  0.00    -0.062 NA
HETATM    5  O1  UNL     1      16.608  10.987  19.351  1.00  0.00    -0.277 OA
ENDBRANCH   2   3
ENDBRANCH   1   2
BRANCH   1   6
HETATM    6  N2  UNL     1      16.337  15.116  18.393  1.00  0.00    -0.068 N 
ATOM      7  H23 UNL     1      15.468  14.694  18.066  1.00  0.00     0.275 HD
ATOM      8  H22 UNL     1      15.938  15.654  19.163  1.00  0.00     0.275 HD
ATOM      9  H21 UNL     1      16.789  15.698  17.688  1.00  0.00     0.275 HD
ENDBRANCH   1   6
BRANCH   1  10
HETATM   10  C4  UNL     1      18.704  14.632  18.770  1.00  0.00     0.188 C 
HETATM   11  O2  UNL     1      19.471  14.341  19.651  1.00  0.00    -0.293 OA
BRANCH  10  12
HETATM   12  C5  UNL     1      19.145  15.469  17.644  1.00  0.00     0.257 C 
HETATM   13  C6  UNL     1      20.653  15.487  17.512  1.00  0.00     0.042 C 
HETATM   14  C7  UNL     1      21.026  16.928  17.250  1.00  0.00     0.030 C 
HETATM   15  C8  UNL     1      19.742  17.678  17.263  1.00  0.00     0.233 C 
HETATM   16  N3  UNL     1      18.747  16.837  17.893  1.00  0.00    -0.064 N 
ATOM     17  H32 UNL     1      17.795  17.042  17.589  1.00  0.00     0.278 HD
ATOM     18  H31 UNL     1      18.612  17.045  18.883  1.00  0.00     0.278 HD
ENDBRANCH  10  12
ENDBRANCH   1  10
TORSDOF 5
ENDMDL
MODEL 2
REMARK VINA RESULT: -6.372983962      1.080      1.122
REMARK  5 active torsions:
REMARK  status: ('A' for Active; 'I' for Inactive)
REMARK    1  A    between atoms: C1_2  and  C2_4 
REMARK    2  A    between atoms: C2_4  and  C3_5 
REMARK    3  A    between atoms: C3_5  and  N2_6 
REMARK    4  A    between atoms: C3_5  and  C4_10 
REMARK    5  A    between atoms: C4_10  and  C5_12 
ROOT
HETATM    1  C3  UNL     1      18.005  13.900  18.162  1.00  0.00     0.263 C 
ENDROOT
BRANCH   1   2
HETATM    2  C2  UNL     1      17.432  13.271  19.419  1.00  0.00     0.140 C 
BRANCH   2   3
HETATM    3  C1  UNL     1      16.541  12.141  19.050  1.00  0.00     0.233 C 
HETATM    4  N1  UNL     1      15.330  12.462  18.377  1.00  0.00    -0.062 NA
HETATM    5  O1  UNL     1      16.804  10.942  19.302  1.00  0.00    -0.277 OA
ENDBRANCH   2   3
ENDBRANCH   1   2
BRANCH   1   6
HETATM    6  N2  UNL     1      18.214  12.830  17.217  1.00  0.00    -0.068 N 
ATOM      7  H23 UNL     1      17.346  12.464  16.825  1.00  0.00     0.275 HD
ATOM      8  H22 UNL     1      18.629  13.145  16.339  1.00  0.00     0.275 HD
ATOM      9  H21 UNL     1      18.770  12.120  17.693  1.00  0.00     0.275 HD
ENDBRANCH   1   6
BRANCH   1  10
HETATM   10  C4  UNL     1      19.214  14.697  18.440  1.00  0.00     0.188 C 
HETATM   11  O2  UNL     1      19.757  14.599  19.510  1.00  0.00    -0.293 OA
BRANCH  10  12
HETATM   12  C5  UNL     1      19.747  15.605  17.414  1.00  0.00     0.257 C 
HETATM   13  C6  UNL     1      21.232  15.844  17.589  1.00  0.00     0.042 C 
HETATM   14  C7  UNL     1      21.436  17.327  17.385  1.00  0.00     0.030 C 
HETATM   15  C8  UNL     1      20.081  17.882  17.125  1.00  0.00     0.233 C 
HETATM   16  N3  UNL     1      19.112  16.896  17.555  1.00  0.00    -0.064 N 
ATOM     17  H32 UNL     1      18.222  16.965  17.061  1.00  0.00     0.278 HD
ATOM     18  H31 UNL     1      18.750  17.068  18.493  1.00  0.00     0.278 HD
ENDBRANCH  10  12
ENDBRANCH   1  10
TORSDOF 5
ENDMDL
MODEL 3
REMARK VINA RESULT: -6.221307140      1.978      2.301
REMARK  5 active torsions:
REMARK  status: ('A' for Active; 'I' for Inactive)
REMARK    1  A    between atoms: C1_2  and  C2_4 
REMARK    2  A    between atoms: C2_4  and  C3_5 
REMARK    3  A    between atoms: C3_5  and  N2_6 
REMARK    4  A    between atoms: C3_5  and  C4_10 
REMARK    5  A    between atoms: C4_10  and  C5_12 
ROOT
HETATM    1  C3  UNL     1      17.335  12.497  18.758  1.00  0.00     0.263 C 
ENDROOT
BRANCH   1   2
HETATM    2  C2  UNL     1      15.906  12.082  18.456  1.00  0.00     0.140 C 
BRANCH   2   3
HETATM    3  C1  UNL     1      15.430  11.137  19.499  1.00  0.00     0.233 C 
HETATM    4  N1  UNL     1      16.224   9.982  19.741  1.00  0.00    -0.062 NA
HETATM    5  O1  UNL     1      14.379  11.309  20.160  1.00  0.00    -0.277 OA
ENDBRANCH   2   3
ENDBRANCH   1   2
BRANCH   1   6
HETATM    6  N2  UNL     1      17.359  12.943  20.130  1.00  0.00    -0.068 N 
ATOM      7  H23 UNL     1      16.863  13.822  20.276  1.00  0.00     0.275 HD
ATOM      8  H22 UNL     1      16.788  12.367  20.750  1.00  0.00     0.275 HD
ATOM      9  H21 UNL     1      18.339  12.984  20.410  1.00  0.00     0.275 HD
ENDBRANCH   1   6
BRANCH   1  10
HETATM   10  C4  UNL     1      17.839  13.494  17.797  1.00  0.00     0.188 C 
HETATM   11  O2  UNL     1      17.529  13.411  16.636  1.00  0.00    -0.293 OA
BRANCH  10  12
HETATM   12  C5  UNL     1      18.715  14.582  18.258  1.00  0.00     0.257 C 
HETATM   13  C6  UNL     1      17.958  15.882  18.426  1.00  0.00     0.042 C 
HETATM   14  C7  UNL     1      18.845  16.952  17.832  1.00  0.00     0.030 C 
HETATM   15  C8  UNL     1      20.049  16.237  17.332  1.00  0.00     0.233 C 
HETATM   16  N3  UNL     1      19.724  14.829  17.253  1.00  0.00    -0.064 N 
ATOM     17  H32 UNL     1      20.539  14.222  17.340  1.00  0.00     0.278 HD
ATOM     18  H31 UNL     1      19.444  14.532  16.318  1.00  0.00     0.278 HD
ENDBRANCH  10  12
ENDBRANCH   1  10
TORSDOF 5
ENDMDL
MODEL 4
REMARK VINA RESULT: -6.213676694      1.571      1.571
REMARK  5 active torsions:
REMARK  status: ('A' for Active; 'I' for Inactive)
REMARK    1  A    between atoms: C1_2  and  C2_4 
REMARK    2  A    between atoms: C2_4  and  C3_5 
REMARK    3  A    between atoms: C3_5  and  N2_6 
REMARK    4  A    between atoms: C3_5  and  C4_10 
REMARK    5  A    between atoms: C4_10  and  C5_12 
ROOT
HETATM    1  C3  UNL     1      18.583  13.847  18.786  1.00  0.00     0.263 C 
ENDROOT
BRANCH   1   2
HETATM    2  C2  UNL     1      17.844  12.881  17.878  1.00  0.00     0.140 C 
BRANCH   2   3
HETATM    3  C1  UNL     1      16.615  12.397  18.559  1.00  0.00     0.233 C 
HETATM    4  N1  UNL     1      16.701  11.158  19.252  1.00  0.00    -0.062 NA
HETATM    5  O1  UNL     1      15.528  13.020  18.548  1.00  0.00    -0.277 OA
ENDBRANCH   2   3
ENDBRANCH   1   2
BRANCH   1   6
HETATM    6  N2  UNL     1      18.151  13.566  20.134  1.00  0.00    -0.068 N 
ATOM      7  H23 UNL     1      17.814  12.612  20.258  1.00  0.00     0.275 HD
ATOM      8  H22 UNL     1      18.923  13.518  20.801  1.00  0.00     0.275 HD
ATOM      9  H21 UNL     1      17.456  14.272  20.375  1.00  0.00     0.275 HD
ENDBRANCH   1   6
BRANCH   1  10
HETATM   10  C4  UNL     1      18.391  15.250  18.377  1.00  0.00     0.188 C 
HETATM   11  O2  UNL     1      17.478  15.885  18.840  1.00  0.00    -0.293 OA
BRANCH  10  12
HETATM   12  C5  UNL     1      19.311  15.865  17.409  1.00  0.00     0.257 C 
HETATM   13  C6  UNL     1      20.749  15.463  17.664  1.00  0.00     0.042 C 
HETATM   14  C7  UNL     1      21.561  16.730  17.520  1.00  0.00     0.030 C 
HETATM   15  C8  UNL     1      20.575  17.800  17.214  1.00  0.00     0.233 C 
HETATM   16  N3  UNL     1      19.262  17.302  17.562  1.00  0.00    -0.064 N 
ATOM     17  H32 UNL     1      18.511  17.739  17.028  1.00  0.00     0.278 HD
ATOM     18  H31 UNL     1      18.950  17.599  18.487  1.00  0.00     0.278 HD
ENDBRANCH  10  12
ENDBRANCH   1  10
TORSDOF 5
ENDMDL
MODEL 5
REMARK VINA RESULT: -6.144453309      2.190      5.445
REMARK  5 active torsions:
REMARK  status: ('A' for Active; 'I' for Inactive)
REMARK    1  A    between atoms: C1_2  and  C2_4 
REMARK    2  A    between atoms: C2_4  and  C3_5 
REMARK    3  A    between atoms: C3_5  and  N2_6 
REMARK    4  A    between atoms: C3_5  and  C4_10 
REMARK    5  A    between atoms: C4_10  and  C5_12 
ROOT
HETATM    1  C3  UNL     1      18.642  14.964  18.862  1.00  0.00     0.263 C 
ENDROOT
BRANCH   1   2
HETATM    2  C2  UNL     1      19.311  14.918  17.500  1.00  0.00     0.140 C 
BRANCH   2   3
HETATM    3  C1  UNL     1      20.337  15.989  17.413  1.00  0.00     0.233 C 
HETATM    4  N1  UNL     1      21.671  15.641  17.762  1.00  0.00    -0.062 NA
HETATM    5  O1  UNL     1      20.083  17.163  17.054  1.00  0.00    -0.277 OA
ENDBRANCH   2   3
ENDBRANCH   1   2
BRANCH   1   6
HETATM    6  N2  UNL     1      19.519  14.282  19.782  1.00  0.00    -0.068 N 
ATOM      7  H23 UNL     1      20.499  14.311  19.500  1.00  0.00     0.275 HD
ATOM      8  H22 UNL     1      19.626  14.770  20.672  1.00  0.00     0.275 HD
ATOM      9  H21 UNL     1      19.160  13.333  19.885  1.00  0.00     0.275 HD
ENDBRANCH   1   6
BRANCH   1  10
HETATM   10  C4  UNL     1      17.273  14.418  18.826  1.00  0.00     0.188 C 
HETATM   11  O2  UNL     1      16.333  15.160  18.954  1.00  0.00    -0.293 OA
BRANCH  10  12
HETATM   12  C5  UNL     1      17.062  12.975  18.635  1.00  0.00     0.257 C 
HETATM   13  C6  UNL     1      15.809  12.689  17.836  1.00  0.00     0.042 C 
HETATM   14  C7  UNL     1      15.125  11.541  18.542  1.00  0.00     0.030 C 
HETATM   15  C8  UNL     1      15.983  11.229  19.715  1.00  0.00     0.233 C 
HETATM   16  N3  UNL     1      16.866  12.356  19.927  1.00  0.00    -0.064 N 
ATOM     17  H32 UNL     1      17.739  12.102  20.390  1.00  0.00     0.278 HD
ATOM     18  H31 UNL     1      16.529  13.004  20.639  1.00  0.00     0.278 HD
ENDBRANCH  10  12
ENDBRANCH   1  10
TORSDOF 5
ENDMDL
