MODEL 1
REMARK VINA RESULT: -6.964930312      0.000      0.000
REMARK  5 active torsions:
REMARK  status: ('A' for Active; 'I' for Inactive)
REMARK    1  A    between atoms: C2_3  and  N2_4 
REMARK    2  A    between atoms: N2_4  and  C3_7 
REMARK    3  A    between atoms: C3_7  and  C4_8 
REMARK    4  A    between atoms: C4_8  and  N3_9 
REMARK    5  A    between atoms: C4_8  and  C5_13 
ROOT
HETATM    1  N1  UNL     1      15.361  16.147  18.750  1.00  0.00    -0.195 NA
HETATM    2  C1  UNL     1      16.415  15.656  18.713  1.00  0.00     0.099 C 
HETATM    3  C2  UNL     1      17.715  15.022  18.668  1.00  0.00     0.212 C 
HETATM    4  C6  UNL     1      18.055  14.268  19.963  1.00  0.00     0.055 C 
HETATM    5  C7  UNL     1      17.369  13.070  19.335  1.00  0.00     0.007 C 
HETATM    6  C8  UNL     1      17.702  13.689  17.983  1.00  0.00     0.055 C 
ENDROOT
BRANCH   3   7
HETATM    7  N2  UNL     1      18.809  15.897  18.356  1.00  0.00    -0.051 N 
ATOM      8  H22 UNL     1      18.461  16.794  18.018  1.00  0.00     0.279 HD
ATOM      9  H21 UNL     1      19.275  16.201  19.211  1.00  0.00     0.279 HD
BRANCH   7  10
HETATM   10  C3  UNL     1      19.769  15.350  17.429  1.00  0.00     0.276 C 
BRANCH  10  11
HETATM   11  C4  UNL     1      20.809  16.445  17.202  1.00  0.00     0.297 C 
BRANCH  11  12
HETATM   12  N3  UNL     1      20.215  17.668  17.686  1.00  0.00    -0.065 N 
ATOM     13  H33 UNL     1      19.272  17.543  18.055  1.00  0.00     0.275 HD
ATOM     14  H32 UNL     1      20.641  18.013  18.547  1.00  0.00     0.275 HD
ATOM     15  H31 UNL     1      20.265  18.332  16.914  1.00  0.00     0.275 HD
ENDBRANCH  11  12
BRANCH  11  16
HETATM   16  C5  UNL     1      22.062  16.206  17.909  1.00  0.00     0.263 C 
HETATM   17  N4  UNL     1      23.265  16.878  17.562  1.00  0.00    -0.060 NA
HETATM   18  O1  UNL     1      22.109  15.388  18.857  1.00  0.00    -0.275 OA
ENDBRANCH  11  16
ENDBRANCH  10  11
ENDBRANCH   7  10
ENDBRANCH   3   7
TORSDOF 5
ENDMDL
MODEL 2
REMARK VINA RESULT: -6.358888139      1.255      2.009
REMARK  5 active torsions:
REMARK  status: ('A' for Active; 'I' for Inactive)
REMARK    1  A    between atoms: C2_3  and  N2_4 
REMARK    2  A    between atoms: N2_4  and  C3_7 
REMARK    3  A    between atoms: C3_7  and  C4_8 
REMARK    4  A    between atoms: C4_8  and  N3_9 
REMARK    5  A    between atoms: C4_8  and  C5_13 
ROOT
HETATM    1  N1  UNL     1      19.498  13.244  20.577  1.00  0.00    -0.195 NA
HETATM    2  C1  UNL     1      18.992  13.787  19.681  1.00  0.00     0.099 C 
HETATM    3  C2  UNL     1      18.343  14.448  18.569  1.00  0.00     0.212 C 
HETATM    4  C6  UNL     1      18.116  13.513  17.370  1.00  0.00     0.055 C 
HETATM    5  C7  UNL     1      16.795  13.152  18.022  1.00  0.00     0.007 C 
HETATM    6  C8  UNL     1      16.851  14.513  18.706  1.00  0.00     0.055 C 
ENDROOT
BRANCH   3   7
HETATM    7  N2  UNL     1      18.999  15.634  18.098  1.00  0.00    -0.051 N 
ATOM      8  H22 UNL     1      18.312  16.311  17.765  1.00  0.00     0.279 HD
ATOM      9  H21 UNL     1      19.395  16.155  18.880  1.00  0.00     0.279 HD
BRANCH   7  10
HETATM   10  C3  UNL     1      20.004  15.403  17.089  1.00  0.00     0.276 C 
BRANCH  10  11
HETATM   11  C4  UNL     1      20.985  16.567  17.195  1.00  0.00     0.297 C 
BRANCH  11  12
HETATM   12  N3  UNL     1      20.269  17.637  17.848  1.00  0.00    -0.065 N 
ATOM     13  H33 UNL     1      19.261  17.485  17.890  1.00  0.00     0.275 HD
ATOM     14  H32 UNL     1      20.430  17.677  18.855  1.00  0.00     0.275 HD
ATOM     15  H31 UNL     1      20.531  18.493  17.360  1.00  0.00     0.275 HD
ENDBRANCH  11  12
BRANCH  11  16
HETATM   16  C5  UNL     1      22.180  16.247  17.967  1.00  0.00     0.263 C 
HETATM   17  N4  UNL     1      23.435  16.860  17.706  1.00  0.00    -0.060 NA
HETATM   18  O1  UNL     1      22.128  15.409  18.896  1.00  0.00    -0.275 OA
ENDBRANCH  11  16
ENDBRANCH  10  11
ENDBRANCH   7  10
ENDBRANCH   3   7
TORSDOF 5
ENDMDL
MODEL 3
REMARK VINA RESULT: -6.281950721      1.191      1.708
REMARK  5 active torsions:
REMARK  status: ('A' for Active; 'I' for Inactive)
REMARK    1  A    between atoms: C2_3  and  N2_4 
REMARK    2  A    between atoms: N2_4  and  C3_7 
REMARK    3  A    between atoms: C3_7  and  C4_8 
REMARK    4  A    between atoms: C4_8  and  N3_9 
REMARK    5  A    between atoms: C4_8  and  C5_13 
ROOT
HETATM    1  N1  UNL     1      15.313  16.139  18.738  1.00  0.00    -0.195 NA
HETATM    2  C1  UNL     1      16.386  15.693  18.698  1.00  0.00     0.099 C 
HETATM    3  C2  UNL     1      17.712  15.114  18.648  1.00  0.00     0.212 C 
HETATM    4  C6  UNL     1      18.103  14.410  19.957  1.00  0.00     0.055 C 
HETATM    5  C7  UNL     1      17.460  13.168  19.371  1.00  0.00     0.007 C 
HETATM    6  C8  UNL     1      17.747  13.765  17.998  1.00  0.00     0.055 C 
ENDROOT
BRANCH   3   7
HETATM    7  N2  UNL     1      18.763  16.027  18.297  1.00  0.00    -0.051 N 
ATOM      8  H22 UNL     1      18.377  16.849  17.832  1.00  0.00     0.279 HD
ATOM      9  H21 UNL     1      19.149  16.463  19.134  1.00  0.00     0.279 HD
BRANCH   7  10
HETATM   10  C3  UNL     1      19.817  15.450  17.500  1.00  0.00     0.276 C 
BRANCH  10  11
HETATM   11  C4  UNL     1      21.060  16.295  17.766  1.00  0.00     0.297 C 
BRANCH  11  12
HETATM   12  N3  UNL     1      22.190  15.425  17.545  1.00  0.00    -0.065 N 
ATOM     13  H33 UNL     1      21.940  14.535  17.114  1.00  0.00     0.275 HD
ATOM     14  H32 UNL     1      22.814  15.750  16.805  1.00  0.00     0.275 HD
ATOM     15  H31 UNL     1      22.651  15.324  18.449  1.00  0.00     0.275 HD
ENDBRANCH  11  12
BRANCH  11  16
HETATM   16  C5  UNL     1      21.167  17.456  16.889  1.00  0.00     0.263 C 
HETATM   17  N4  UNL     1      20.067  18.319  16.641  1.00  0.00    -0.060 NA
HETATM   18  O1  UNL     1      22.252  17.724  16.323  1.00  0.00    -0.275 OA
ENDBRANCH  11  16
ENDBRANCH  10  11
ENDBRANCH   7  10
ENDBRANCH   3   7
TORSDOF 5
ENDMDL
MODEL 4
REMARK VINA RESULT: -6.221650062      3.748      6.044
REMARK  5 active torsions:
REMARK  status: ('A' for Active; 'I' for Inactive)
REMARK    1  A    between atoms: C2_3  and  N2_4 
REMARK    2  A    between atoms: N2_4  and  C3_7 
REMARK    3  A    between atoms: C3_7  and  C4_8 
REMARK    4  A    between atoms: C4_8  and  N3_9 
REMARK    5  A    between atoms: C4_8  and  C5_13 
ROOT
HETATM    1  N1  UNL     1      15.751  16.130  18.694  1.00  0.00    -0.195 NA
HETATM    2  C1  UNL     1      16.558  15.299  18.794  1.00  0.00     0.099 C 
HETATM    3  C2  UNL     1      17.580  14.279  18.907  1.00  0.00     0.212 C 
HETATM    4  C6  UNL     1      18.027  13.732  17.542  1.00  0.00     0.055 C 
HETATM    5  C7  UNL     1      19.046  14.855  17.530  1.00  0.00     0.007 C 
HETATM    6  C8  UNL     1      18.962  14.839  19.052  1.00  0.00     0.055 C 
ENDROOT
BRANCH   3   7
HETATM    7  N2  UNL     1      17.241  13.168  19.749  1.00  0.00    -0.051 N 
ATOM      8  H22 UNL     1      18.002  12.970  20.399  1.00  0.00     0.279 HD
ATOM      9  H21 UNL     1      16.511  13.433  20.410  1.00  0.00     0.279 HD
BRANCH   7  10
HETATM   10  C3  UNL     1      16.865  11.970  19.039  1.00  0.00     0.276 C 
BRANCH  10  11
HETATM   11  C4  UNL     1      15.397  11.721  19.378  1.00  0.00     0.297 C 
BRANCH  11  12
HETATM   12  N3  UNL     1      14.660  11.953  18.160  1.00  0.00    -0.065 N 
ATOM     13  H33 UNL     1      14.905  12.828  17.696  1.00  0.00     0.275 HD
ATOM     14  H32 UNL     1      14.928  11.329  17.398  1.00  0.00     0.275 HD
ATOM     15  H31 UNL     1      13.673  11.888  18.409  1.00  0.00     0.275 HD
ENDBRANCH  11  12
BRANCH  11  16
HETATM   16  C5  UNL     1      15.135  10.365  19.848  1.00  0.00     0.263 C 
HETATM   17  N4  UNL     1      14.063   9.584  19.340  1.00  0.00    -0.060 NA
HETATM   18  O1  UNL     1      15.863   9.847  20.727  1.00  0.00    -0.275 OA
ENDBRANCH  11  16
ENDBRANCH  10  11
ENDBRANCH   7  10
ENDBRANCH   3   7
TORSDOF 5
ENDMDL
MODEL 5
REMARK VINA RESULT: -6.043423673      1.824      2.421
REMARK  5 active torsions:
REMARK  status: ('A' for Active; 'I' for Inactive)
REMARK    1  A    between atoms: C2_3  and  N2_4 
REMARK    2  A    between atoms: N2_4  and  C3_7 
REMARK    3  A    between atoms: C3_7  and  C4_8 
REMARK    4  A    between atoms: C4_8  and  N3_9 
REMARK    5  A    between atoms: C4_8  and  C5_13 
ROOT
HETATM    1  N1  UNL     1      19.288  13.319  20.554  1.00  0.00    -0.195 NA
HETATM    2  C1  UNL     1      18.809  13.807  19.614  1.00  0.00     0.099 C 
HETATM    3  C2  UNL     1      18.194  14.399  18.445  1.00  0.00     0.212 C 
HETATM    4  C6  UNL     1      18.169  13.446  17.239  1.00  0.00     0.055 C 
HETATM    5  C7  UNL     1      16.840  12.951  17.777  1.00  0.00     0.007 C 
HETATM    6  C8  UNL     1      16.698  14.310  18.452  1.00  0.00     0.055 C 
ENDROOT
BRANCH   3   7
HETATM    7  N2  UNL     1      18.764  15.646  18.021  1.00  0.00    -0.051 N 
ATOM      8  H22 UNL     1      18.085  16.181  17.479  1.00  0.00     0.279 HD
ATOM      9  H21 UNL     1      18.882  16.271  18.819  1.00  0.00     0.279 HD
BRANCH   7  10
HETATM   10  C3  UNL     1      20.002  15.523  17.292  1.00  0.00     0.276 C 
BRANCH  10  11
HETATM   11  C4  UNL     1      20.992  16.461  17.979  1.00  0.00     0.297 C 
BRANCH  11  12
HETATM   12  N3  UNL     1      21.906  15.614  18.708  1.00  0.00    -0.065 N 
ATOM     13  H33 UNL     1      22.038  14.697  18.281  1.00  0.00     0.275 HD
ATOM     14  H32 UNL     1      22.877  15.920  18.650  1.00  0.00     0.275 HD
ATOM     15  H31 UNL     1      21.549  15.570  19.663  1.00  0.00     0.275 HD
ENDBRANCH  11  12
BRANCH  11  16
HETATM   16  C5  UNL     1      21.747  17.288  17.044  1.00  0.00     0.263 C 
HETATM   17  N4  UNL     1      23.137  17.100  16.822  1.00  0.00    -0.060 NA
HETATM   18  O1  UNL     1      21.176  18.200  16.402  1.00  0.00    -0.275 OA
ENDBRANCH  11  16
ENDBRANCH  10  11
ENDBRANCH   7  10
ENDBRANCH   3   7
TORSDOF 5
ENDMDL
