MODEL 1
REMARK VINA RESULT: -6.249955272      0.000      0.000
REMARK  3 active torsions:
REMARK  status: ('A' for Active; 'I' for Inactive)
REMARK    1  A    between atoms: C1_2  and  C2_4 
REMARK    2  A    between atoms: C2_4  and  S1_5 
REMARK    3  A    between atoms: S1_5  and  C3_6 
ROOT
HETATM    1  C3  UNL     1      19.153  15.818  18.161  1.00  0.00     0.147 A 
HETATM    2  N2  UNL     1      18.925  17.034  17.638  1.00  0.00    -0.346 N 
ATOM      3  H2  UNL     1      17.980  17.418  17.627  1.00  0.00     0.167 HD
HETATM    4  C4  UNL     1      19.938  17.737  17.132  1.00  0.00     0.096 A 
HETATM    5  C5  UNL     1      21.232  17.252  17.126  1.00  0.00     0.091 A 
HETATM    6  C6  UNL     1      21.413  15.993  17.676  1.00  0.00     0.248 A 
HETATM    7  O2  UNL     1      22.578  15.479  17.708  1.00  0.00    -0.268 OA
HETATM    8  N3  UNL     1      20.383  15.289  18.186  1.00  0.00    -0.304 N 
ATOM      9  H3  UNL     1      20.539  14.364  18.586  1.00  0.00     0.171 HD
ENDROOT
BRANCH   1  10
HETATM   10  S1  UNL     1      17.794  14.863  18.860  1.00  0.00    -0.085 SA
BRANCH  10  11
HETATM   11  C2  UNL     1      17.844  13.185  18.211  1.00  0.00     0.181 C 
BRANCH  11  12
HETATM   12  C1  UNL     1      16.632  12.418  18.610  1.00  0.00     0.240 C 
HETATM   13  N1  UNL     1      16.785  11.155  19.248  1.00  0.00    -0.061 NA
HETATM   14  O1  UNL     1      15.455  12.813  18.419  1.00  0.00    -0.276 OA
ENDBRANCH  11  12
ENDBRANCH  10  11
ENDBRANCH   1  10
TORSDOF 3
ENDMDL
MODEL 2
REMARK VINA RESULT: -6.187261070      1.081      1.118
REMARK  3 active torsions:
REMARK  status: ('A' for Active; 'I' for Inactive)
REMARK    1  A    between atoms: C1_2  and  C2_4 
REMARK    2  A    between atoms: C2_4  and  S1_5 
REMARK    3  A    between atoms: S1_5  and  C3_6 
ROOT
HETATM    1  C3  UNL     1      19.018  16.128  18.109  1.00  0.00     0.147 A 
HETATM    2  N2  UNL     1      18.991  17.390  17.649  1.00  0.00    -0.346 N 
ATOM      3  H2  UNL     1      18.121  17.923  17.666  1.00  0.00     0.167 HD
HETATM    4  C4  UNL     1      20.104  17.944  17.171  1.00  0.00     0.096 A 
HETATM    5  C5  UNL     1      21.302  17.256  17.129  1.00  0.00     0.091 A 
HETATM    6  C6  UNL     1      21.276  15.958  17.615  1.00  0.00     0.248 A 
HETATM    7  O2  UNL     1      22.342  15.261  17.610  1.00  0.00    -0.268 OA
HETATM    8  N3  UNL     1      20.146  15.406  18.098  1.00  0.00    -0.304 N 
ATOM      9  H3  UNL     1      20.149  14.449  18.450  1.00  0.00     0.171 HD
ENDROOT
BRANCH   1  10
HETATM   10  S1  UNL     1      17.522  15.373  18.773  1.00  0.00    -0.085 SA
BRANCH  10  11
HETATM   11  C2  UNL     1      17.951  13.856  19.641  1.00  0.00     0.181 C 
BRANCH  11  12
HETATM   12  C1  UNL     1      17.830  12.672  18.747  1.00  0.00     0.240 C 
HETATM   13  N1  UNL     1      16.920  11.632  19.088  1.00  0.00    -0.061 NA
HETATM   14  O1  UNL     1      18.488  12.520  17.688  1.00  0.00    -0.276 OA
ENDBRANCH  11  12
ENDBRANCH  10  11
ENDBRANCH   1  10
TORSDOF 3
ENDMDL
MODEL 3
REMARK VINA RESULT: -6.182370215      1.094      1.094
REMARK  3 active torsions:
REMARK  status: ('A' for Active; 'I' for Inactive)
REMARK    1  A    between atoms: C1_2  and  C2_4 
REMARK    2  A    between atoms: C2_4  and  S1_5 
REMARK    3  A    between atoms: S1_5  and  C3_6 
ROOT
HETATM    1  C3  UNL     1      19.057  16.119  18.102  1.00  0.00     0.147 A 
HETATM    2  N2  UNL     1      19.013  17.371  17.616  1.00  0.00    -0.346 N 
ATOM      3  H2  UNL     1      18.134  17.889  17.615  1.00  0.00     0.167 HD
HETATM    4  C4  UNL     1      20.121  17.933  17.134  1.00  0.00     0.096 A 
HETATM    5  C5  UNL     1      21.330  17.264  17.115  1.00  0.00     0.091 A 
HETATM    6  C6  UNL     1      21.321  15.976  17.627  1.00  0.00     0.248 A 
HETATM    7  O2  UNL     1      22.398  15.297  17.645  1.00  0.00    -0.268 OA
HETATM    8  N3  UNL     1      20.196  15.415  18.113  1.00  0.00    -0.304 N 
ATOM      9  H3  UNL     1      20.212  14.466  18.485  1.00  0.00     0.171 HD
ENDROOT
BRANCH   1  10
HETATM   10  S1  UNL     1      17.568  15.353  18.769  1.00  0.00    -0.085 SA
BRANCH  10  11
HETATM   11  C2  UNL     1      17.308  13.758  17.977  1.00  0.00     0.181 C 
BRANCH  11  12
HETATM   12  C1  UNL     1      17.707  12.640  18.876  1.00  0.00     0.240 C 
HETATM   13  N1  UNL     1      18.875  12.774  19.679  1.00  0.00    -0.061 NA
HETATM   14  O1  UNL     1      17.072  11.561  18.980  1.00  0.00    -0.276 OA
ENDBRANCH  11  12
ENDBRANCH  10  11
ENDBRANCH   1  10
TORSDOF 3
ENDMDL
MODEL 4
REMARK VINA RESULT: -6.112021093      1.665      2.143
REMARK  3 active torsions:
REMARK  status: ('A' for Active; 'I' for Inactive)
REMARK    1  A    between atoms: C1_2  and  C2_4 
REMARK    2  A    between atoms: C2_4  and  S1_5 
REMARK    3  A    between atoms: S1_5  and  C3_6 
ROOT
HETATM    1  C3  UNL     1      18.993  16.027  18.201  1.00  0.00     0.147 A 
HETATM    2  N2  UNL     1      20.102  15.270  18.268  1.00  0.00    -0.346 N 
ATOM      3  H2  UNL     1      20.071  14.355  18.716  1.00  0.00     0.167 HD
HETATM    4  C4  UNL     1      21.242  15.721  17.746  1.00  0.00     0.096 A 
HETATM    5  C5  UNL     1      21.326  16.956  17.132  1.00  0.00     0.091 A 
HETATM    6  C6  UNL     1      20.155  17.696  17.090  1.00  0.00     0.248 A 
HETATM    7  O2  UNL     1      20.154  18.844  16.539  1.00  0.00    -0.268 OA
HETATM    8  N3  UNL     1      19.006  17.233  17.619  1.00  0.00    -0.304 N 
ATOM      9  H3  UNL     1      18.156  17.794  17.577  1.00  0.00     0.171 HD
ENDROOT
BRANCH   1  10
HETATM   10  S1  UNL     1      17.441  15.422  18.889  1.00  0.00    -0.085 SA
BRANCH  10  11
HETATM   11  C2  UNL     1      17.032  13.837  18.142  1.00  0.00     0.181 C 
BRANCH  11  12
HETATM   12  C1  UNL     1      17.580  12.707  18.942  1.00  0.00     0.240 C 
HETATM   13  N1  UNL     1      16.806  11.523  19.098  1.00  0.00    -0.061 NA
HETATM   14  O1  UNL     1      18.703  12.724  19.505  1.00  0.00    -0.276 OA
ENDBRANCH  11  12
ENDBRANCH  10  11
ENDBRANCH   1  10
TORSDOF 3
ENDMDL
MODEL 5
REMARK VINA RESULT: -5.902153463      4.777      5.897
REMARK  3 active torsions:
REMARK  status: ('A' for Active; 'I' for Inactive)
REMARK    1  A    between atoms: C1_2  and  C2_4 
REMARK    2  A    between atoms: C2_4  and  S1_5 
REMARK    3  A    between atoms: S1_5  and  C3_6 
ROOT
HETATM    1  C3  UNL     1      20.512  19.160  15.995  1.00  0.00     0.147 A 
HETATM    2  N2  UNL     1      20.531  20.401  16.512  1.00  0.00    -0.346 N 
ATOM      3  H2  UNL     1      20.689  20.538  17.510  1.00  0.00     0.167 HD
HETATM    4  C4  UNL     1      20.343  21.452  15.715  1.00  0.00     0.096 A 
HETATM    5  C5  UNL     1      20.125  21.309  14.358  1.00  0.00     0.091 A 
HETATM    6  C6  UNL     1      20.114  20.010  13.876  1.00  0.00     0.248 A 
HETATM    7  O2  UNL     1      19.920  19.799  12.635  1.00  0.00    -0.268 OA
HETATM    8  N3  UNL     1      20.305  18.952  14.688  1.00  0.00    -0.304 N 
ATOM      9  H3  UNL     1      20.293  18.005  14.313  1.00  0.00     0.171 HD
ENDROOT
BRANCH   1  10
HETATM   10  S1  UNL     1      20.779  17.731  17.060  1.00  0.00    -0.085 SA
BRANCH  10  11
HETATM   11  C2  UNL     1      22.537  17.351  17.122  1.00  0.00     0.181 C 
BRANCH  11  12
HETATM   12  C1  UNL     1      22.770  15.960  17.600  1.00  0.00     0.240 C 
HETATM   13  N1  UNL     1      23.678  15.123  16.893  1.00  0.00    -0.061 NA
HETATM   14  O1  UNL     1      22.208  15.459  18.605  1.00  0.00    -0.276 OA
ENDBRANCH  11  12
ENDBRANCH  10  11
ENDBRANCH   1  10
TORSDOF 3
ENDMDL
