MODEL 1
REMARK VINA RESULT: -5.854031727      0.000      0.000
REMARK  5 active torsions:
REMARK  status: ('A' for Active; 'I' for Inactive)
REMARK    1  A    between atoms: C1_2  and  C2_4 
REMARK    2  A    between atoms: C2_4  and  C3_5 
REMARK    3  A    between atoms: C3_5  and  N2_6 
REMARK    4  A    between atoms: C3_5  and  C4_10 
REMARK    5  A    between atoms: C4_10  and  C5_12 
ROOT
HETATM    1  C4  UNL     1      16.074  12.292  18.803  1.00  0.00     0.161 C 
HETATM    2  O2  UNL     1      15.284  13.104  18.396  1.00  0.00    -0.295 OA
ENDROOT
BRANCH   1   3
HETATM    3  C3  UNL     1      15.689  10.911  19.168  1.00  0.00     0.261 C 
BRANCH   3   4
HETATM    4  C2  UNL     1      14.278  10.575  18.754  1.00  0.00     0.140 C 
BRANCH   4   5
HETATM    5  C1  UNL     1      13.920   9.166  18.925  1.00  0.00     0.233 C 
HETATM    6  N1  UNL     1      13.390   8.711  20.156  1.00  0.00    -0.062 NA
HETATM    7  O1  UNL     1      14.074   8.340  17.997  1.00  0.00    -0.277 OA
ENDBRANCH   4   5
ENDBRANCH   3   4
BRANCH   3   8
HETATM    8  N2  UNL     1      15.719  10.730  20.626  1.00  0.00    -0.068 N 
ATOM      9  H23 UNL     1      15.155   9.946  20.955  1.00  0.00     0.275 HD
ATOM     10  H22 UNL     1      16.613  10.390  20.979  1.00  0.00     0.275 HD
ATOM     11  H21 UNL     1      15.439  11.630  21.017  1.00  0.00     0.275 HD
ENDBRANCH   3   8
ENDBRANCH   1   3
BRANCH   1  12
HETATM   12  C5  UNL     1      17.485  12.704  18.937  1.00  0.00     0.060 C 
HETATM   13  C6  UNL     1      18.071  13.327  17.718  1.00  0.00     0.040 C 
HETATM   14  C7  UNL     1      18.683  14.681  17.962  1.00  0.00     0.233 C 
HETATM   15  N3  UNL     1      19.568  14.733  19.073  1.00  0.00    -0.075 N 
HETATM   16  C8  UNL     1      19.181  13.903  20.187  1.00  0.00     0.233 C 
ATOM     17  H32 UNL     1      20.519  14.512  18.779  1.00  0.00     0.277 HD
ATOM     18  H31 UNL     1      19.698  15.698  19.379  1.00  0.00     0.277 HD
HETATM   19  C9  UNL     1      17.689  13.670  20.095  1.00  0.00     0.040 C 
ENDBRANCH   1  12
TORSDOF 5
ENDMDL
MODEL 2
REMARK VINA RESULT: -5.777717909      2.690      4.465
REMARK  5 active torsions:
REMARK  status: ('A' for Active; 'I' for Inactive)
REMARK    1  A    between atoms: C1_2  and  C2_4 
REMARK    2  A    between atoms: C2_4  and  C3_5 
REMARK    3  A    between atoms: C3_5  and  N2_6 
REMARK    4  A    between atoms: C3_5  and  C4_10 
REMARK    5  A    between atoms: C4_10  and  C5_12 
ROOT
HETATM    1  C4  UNL     1      18.962  15.238  18.122  1.00  0.00     0.161 C 
HETATM    2  O2  UNL     1      18.080  15.995  18.435  1.00  0.00    -0.295 OA
ENDROOT
BRANCH   1   3
HETATM    3  C3  UNL     1      18.930  13.794  18.438  1.00  0.00     0.261 C 
BRANCH   3   4
HETATM    4  C2  UNL     1      17.884  13.051  17.646  1.00  0.00     0.140 C 
BRANCH   4   5
HETATM    5  C1  UNL     1      16.739  12.597  18.437  1.00  0.00     0.233 C 
HETATM    6  N1  UNL     1      16.778  11.343  19.092  1.00  0.00    -0.062 NA
HETATM    7  O1  UNL     1      15.710  13.301  18.551  1.00  0.00    -0.277 OA
ENDBRANCH   4   5
ENDBRANCH   3   4
BRANCH   3   8
HETATM    8  N2  UNL     1      18.576  13.577  19.848  1.00  0.00    -0.068 N 
ATOM      9  H23 UNL     1      18.329  14.432  20.346  1.00  0.00     0.275 HD
ATOM     10  H22 UNL     1      17.685  13.100  19.979  1.00  0.00     0.275 HD
ATOM     11  H21 UNL     1      19.371  13.081  20.253  1.00  0.00     0.275 HD
ENDBRANCH   3   8
ENDBRANCH   1   3
BRANCH   1  12
HETATM   12  C5  UNL     1      20.119  15.788  17.389  1.00  0.00     0.060 C 
HETATM   13  C6  UNL     1      20.001  17.229  17.028  1.00  0.00     0.040 C 
HETATM   14  C7  UNL     1      21.158  18.070  17.501  1.00  0.00     0.233 C 
HETATM   15  N3  UNL     1      22.437  17.537  17.185  1.00  0.00    -0.075 N 
HETATM   16  C8  UNL     1      22.518  16.099  17.241  1.00  0.00     0.233 C 
ATOM     17  H32 UNL     1      22.746  17.875  16.273  1.00  0.00     0.277 HD
ATOM     18  H31 UNL     1      23.153  17.957  17.779  1.00  0.00     0.277 HD
HETATM   19  C9  UNL     1      21.419  15.608  18.158  1.00  0.00     0.040 C 
ENDBRANCH   1  12
TORSDOF 5
ENDMDL
MODEL 3
REMARK VINA RESULT: -5.587663201      3.958      5.278
REMARK  5 active torsions:
REMARK  status: ('A' for Active; 'I' for Inactive)
REMARK    1  A    between atoms: C1_2  and  C2_4 
REMARK    2  A    between atoms: C2_4  and  C3_5 
REMARK    3  A    between atoms: C3_5  and  N2_6 
REMARK    4  A    between atoms: C3_5  and  C4_10 
REMARK    5  A    between atoms: C4_10  and  C5_12 
ROOT
HETATM    1  C4  UNL     1      19.067  15.229  17.828  1.00  0.00     0.161 C 
HETATM    2  O2  UNL     1      19.262  14.330  17.051  1.00  0.00    -0.295 OA
ENDROOT
BRANCH   1   3
HETATM    3  C3  UNL     1      17.811  15.366  18.597  1.00  0.00     0.261 C 
BRANCH   3   4
HETATM    4  C2  UNL     1      17.926  14.812  19.995  1.00  0.00     0.140 C 
BRANCH   4   5
HETATM    5  C1  UNL     1      18.449  13.446  20.059  1.00  0.00     0.233 C 
HETATM    6  N1  UNL     1      19.734  13.200  20.599  1.00  0.00    -0.062 NA
HETATM    7  O1  UNL     1      17.779  12.475  19.642  1.00  0.00    -0.277 OA
ENDBRANCH   4   5
ENDBRANCH   3   4
BRANCH   3   8
HETATM    8  N2  UNL     1      16.726  14.604  17.964  1.00  0.00    -0.068 N 
ATOM      9  H23 UNL     1      17.023  13.706  17.582  1.00  0.00     0.275 HD
ATOM     10  H22 UNL     1      16.045  14.232  18.626  1.00  0.00     0.275 HD
ATOM     11  H21 UNL     1      16.323  15.233  17.269  1.00  0.00     0.275 HD
ENDBRANCH   3   8
ENDBRANCH   1   3
BRANCH   1  12
HETATM   12  C5  UNL     1      20.135  16.231  18.011  1.00  0.00     0.060 C 
HETATM   13  C6  UNL     1      21.513  15.667  18.084  1.00  0.00     0.040 C 
HETATM   14  C7  UNL     1      22.471  16.277  17.095  1.00  0.00     0.233 C 
HETATM   15  N3  UNL     1      22.470  17.699  17.078  1.00  0.00    -0.075 N 
HETATM   16  C8  UNL     1      21.178  18.300  17.297  1.00  0.00     0.233 C 
ATOM     17  H32 UNL     1      23.149  18.062  17.747  1.00  0.00     0.277 HD
ATOM     18  H31 UNL     1      22.879  18.043  16.208  1.00  0.00     0.277 HD
HETATM   19  C9  UNL     1      20.124  17.284  16.913  1.00  0.00     0.040 C 
ENDBRANCH   1  12
TORSDOF 5
ENDMDL
MODEL 4
REMARK VINA RESULT: -5.454167346      3.116      4.779
REMARK  5 active torsions:
REMARK  status: ('A' for Active; 'I' for Inactive)
REMARK    1  A    between atoms: C1_2  and  C2_4 
REMARK    2  A    between atoms: C2_4  and  C3_5 
REMARK    3  A    between atoms: C3_5  and  N2_6 
REMARK    4  A    between atoms: C3_5  and  C4_10 
REMARK    5  A    between atoms: C4_10  and  C5_12 
ROOT
HETATM    1  C4  UNL     1      19.472  14.979  18.278  1.00  0.00     0.161 C 
HETATM    2  O2  UNL     1      19.818  14.663  19.387  1.00  0.00    -0.295 OA
ENDROOT
BRANCH   1   3
HETATM    3  C3  UNL     1      18.122  14.690  17.746  1.00  0.00     0.261 C 
BRANCH   3   4
HETATM    4  C2  UNL     1      17.150  14.283  18.825  1.00  0.00     0.140 C 
BRANCH   4   5
HETATM    5  C1  UNL     1      16.801  12.861  18.814  1.00  0.00     0.233 C 
HETATM    6  N1  UNL     1      15.556  12.438  18.291  1.00  0.00    -0.062 NA
HETATM    7  O1  UNL     1      17.588  11.997  19.263  1.00  0.00    -0.277 OA
ENDBRANCH   4   5
ENDBRANCH   3   4
BRANCH   3   8
HETATM    8  N2  UNL     1      18.162  13.558  16.810  1.00  0.00    -0.068 N 
ATOM      9  H23 UNL     1      17.313  13.455  16.254  1.00  0.00     0.275 HD
ATOM     10  H22 UNL     1      18.801  13.694  16.028  1.00  0.00     0.275 HD
ATOM     11  H21 UNL     1      18.380  12.742  17.382  1.00  0.00     0.275 HD
ENDBRANCH   3   8
ENDBRANCH   1   3
BRANCH   1  12
HETATM   12  C5  UNL     1      20.445  15.686  17.423  1.00  0.00     0.060 C 
HETATM   13  C6  UNL     1      20.074  17.088  17.083  1.00  0.00     0.040 C 
HETATM   14  C7  UNL     1      21.138  18.097  17.428  1.00  0.00     0.233 C 
HETATM   15  N3  UNL     1      22.440  17.757  16.969  1.00  0.00    -0.075 N 
HETATM   16  C8  UNL     1      22.741  16.348  17.011  1.00  0.00     0.233 C 
ATOM     17  H32 UNL     1      22.593  18.126  16.031  1.00  0.00     0.277 HD
ATOM     18  H31 UNL     1      23.146  18.286  17.483  1.00  0.00     0.277 HD
HETATM   19  C9  UNL     1      21.835  15.711  18.042  1.00  0.00     0.040 C 
ENDBRANCH   1  12
TORSDOF 5
ENDMDL
MODEL 5
REMARK VINA RESULT: -5.422205489      6.689      7.796
REMARK  5 active torsions:
REMARK  status: ('A' for Active; 'I' for Inactive)
REMARK    1  A    between atoms: C1_2  and  C2_4 
REMARK    2  A    between atoms: C2_4  and  C3_5 
REMARK    3  A    between atoms: C3_5  and  N2_6 
REMARK    4  A    between atoms: C3_5  and  C4_10 
REMARK    5  A    between atoms: C4_10  and  C5_12 
ROOT
HETATM    1  C4  UNL     1      15.664   4.704  16.836  1.00  0.00     0.161 C 
HETATM    2  O2  UNL     1      16.061   4.223  17.866  1.00  0.00    -0.295 OA
ENDROOT
BRANCH   1   3
HETATM    3  C3  UNL     1      14.251   4.624  16.405  1.00  0.00     0.261 C 
BRANCH   3   4
HETATM    4  C2  UNL     1      13.747   5.924  15.831  1.00  0.00     0.140 C 
BRANCH   4   5
HETATM    5  C1  UNL     1      13.187   6.844  16.825  1.00  0.00     0.233 C 
HETATM    6  N1  UNL     1      14.032   7.739  17.523  1.00  0.00    -0.062 NA
HETATM    7  O1  UNL     1      11.961   6.858  17.076  1.00  0.00    -0.277 OA
ENDBRANCH   4   5
ENDBRANCH   3   4
BRANCH   3   8
HETATM    8  N2  UNL     1      13.374   4.337  17.549  1.00  0.00    -0.068 N 
ATOM      9  H23 UNL     1      13.424   3.372  17.873  1.00  0.00     0.275 HD
ATOM     10  H22 UNL     1      13.678   4.772  18.419  1.00  0.00     0.275 HD
ATOM     11  H21 UNL     1      12.440   4.623  17.252  1.00  0.00     0.275 HD
ENDBRANCH   3   8
ENDBRANCH   1   3
BRANCH   1  12
HETATM   12  C5  UNL     1      16.639   5.403  15.976  1.00  0.00     0.060 C 
HETATM   13  C6  UNL     1      17.954   5.679  16.621  1.00  0.00     0.040 C 
HETATM   14  C7  UNL     1      19.133   5.156  15.842  1.00  0.00     0.233 C 
HETATM   15  N3  UNL     1      19.124   5.502  14.463  1.00  0.00    -0.075 N 
HETATM   16  C8  UNL     1      17.815   5.531  13.860  1.00  0.00     0.233 C 
ATOM     17  H32 UNL     1      19.602   6.392  14.318  1.00  0.00     0.277 HD
ATOM     18  H31 UNL     1      19.743   4.883  13.938  1.00  0.00     0.277 HD
HETATM   19  C9  UNL     1      16.906   4.645  14.684  1.00  0.00     0.040 C 
ENDBRANCH   1  12
TORSDOF 5
ENDMDL
