MODEL 1
REMARK VINA RESULT: -5.770555176      0.000      0.000
REMARK  5 active torsions:
REMARK  status: ('A' for Active; 'I' for Inactive)
REMARK    1  A    between atoms: N1_1  and  C1_5 
REMARK    2  A    between atoms: C1_5  and  C2_6 
REMARK    3  A    between atoms: C1_5  and  C3_8 
REMARK    4  A    between atoms: C3_8  and  C4_10 
REMARK    5  A    between atoms: C4_10  and  C5_11 
ROOT
HETATM    1  C3  UNL     1      17.780  13.806  17.959  1.00  0.00     0.166 C 
HETATM    2  O2  UNL     1      18.342  13.298  17.006  1.00  0.00    -0.295 OA
ENDROOT
BRANCH   1   3
HETATM    3  C1  UNL     1      18.487  14.787  18.842  1.00  0.00     0.313 C 
BRANCH   3   4
HETATM    4  N1  UNL     1      19.778  15.147  18.304  1.00  0.00    -0.062 N 
ATOM      5  H13 UNL     1      20.532  14.950  18.961  1.00  0.00     0.275 HD
ATOM      6  H12 UNL     1      20.064  14.521  17.551  1.00  0.00     0.275 HD
ATOM      7  H11 UNL     1      19.779  16.123  18.006  1.00  0.00     0.275 HD
ENDBRANCH   3   4
BRANCH   3   8
HETATM    8  C2  UNL     1      18.640  14.178  20.195  1.00  0.00     0.271 C 
HETATM    9  O1  UNL     1      19.140  13.088  20.289  1.00  0.00    -0.304 OA
ENDBRANCH   3   8
ENDBRANCH   1   3
BRANCH   1  10
HETATM   10  C4  UNL     1      16.366  13.454  18.261  1.00  0.00     0.106 C 
BRANCH  10  11
HETATM   11  C5  UNL     1      16.242  11.968  18.327  1.00  0.00     0.091 C 
HETATM   12  C6  UNL     1      14.826  11.484  18.219  1.00  0.00     0.035 C 
HETATM   13  C7  UNL     1      14.411  11.004  19.592  1.00  0.00     0.105 C 
HETATM   14  C8  UNL     1      15.712  10.560  20.152  1.00  0.00     0.217 C 
HETATM   15  O3  UNL     1      15.928   9.605  20.965  1.00  0.00    -0.274 OA
HETATM   16  N2  UNL     1      16.689  11.431  19.590  1.00  0.00    -0.356 N 
ATOM     17  H2  UNL     1      17.587  11.647  20.024  1.00  0.00     0.162 HD
ENDBRANCH  10  11
ENDBRANCH   1  10
TORSDOF 5
ENDMDL
MODEL 2
REMARK VINA RESULT: -5.640537145      1.848      2.237
REMARK  5 active torsions:
REMARK  status: ('A' for Active; 'I' for Inactive)
REMARK    1  A    between atoms: N1_1  and  C1_5 
REMARK    2  A    between atoms: C1_5  and  C2_6 
REMARK    3  A    between atoms: C1_5  and  C3_8 
REMARK    4  A    between atoms: C3_8  and  C4_10 
REMARK    5  A    between atoms: C4_10  and  C5_11 
ROOT
HETATM    1  C3  UNL     1      18.232  14.447  18.997  1.00  0.00     0.166 C 
HETATM    2  O2  UNL     1      19.434  14.293  18.881  1.00  0.00    -0.295 OA
ENDROOT
BRANCH   1   3
HETATM    3  C1  UNL     1      17.526  15.575  18.311  1.00  0.00     0.313 C 
BRANCH   3   4
HETATM    4  N1  UNL     1      18.405  16.704  18.110  1.00  0.00    -0.062 N 
ATOM      5  H13 UNL     1      17.890  17.584  18.078  1.00  0.00     0.275 HD
ATOM      6  H12 UNL     1      18.977  16.891  18.934  1.00  0.00     0.275 HD
ATOM      7  H11 UNL     1      18.975  16.567  17.276  1.00  0.00     0.275 HD
ENDBRANCH   3   4
BRANCH   3   8
HETATM    8  C2  UNL     1      16.352  15.971  19.142  1.00  0.00     0.271 C 
HETATM    9  O1  UNL     1      15.259  15.967  18.642  1.00  0.00    -0.304 OA
ENDBRANCH   3   8
ENDBRANCH   1   3
BRANCH   1  10
HETATM   10  C4  UNL     1      17.440  13.503  19.831  1.00  0.00     0.106 C 
BRANCH  10  11
HETATM   11  C5  UNL     1      17.170  12.268  19.036  1.00  0.00     0.091 C 
HETATM   12  C6  UNL     1      16.212  12.489  17.902  1.00  0.00     0.035 C 
HETATM   13  C7  UNL     1      14.905  11.833  18.287  1.00  0.00     0.105 C 
HETATM   14  C8  UNL     1      15.377  10.731  19.164  1.00  0.00     0.217 C 
HETATM   15  O3  UNL     1      14.864   9.576  19.312  1.00  0.00    -0.274 OA
HETATM   16  N2  UNL     1      16.538  11.233  19.818  1.00  0.00    -0.356 N 
ATOM     17  H2  UNL     1      16.878  10.904  20.722  1.00  0.00     0.162 HD
ENDBRANCH  10  11
ENDBRANCH   1  10
TORSDOF 5
ENDMDL
MODEL 3
REMARK VINA RESULT: -5.537540887      2.511      5.123
REMARK  5 active torsions:
REMARK  status: ('A' for Active; 'I' for Inactive)
REMARK    1  A    between atoms: N1_1  and  C1_5 
REMARK    2  A    between atoms: C1_5  and  C2_6 
REMARK    3  A    between atoms: C1_5  and  C3_8 
REMARK    4  A    between atoms: C3_8  and  C4_10 
REMARK    5  A    between atoms: C4_10  and  C5_11 
ROOT
HETATM    1  C3  UNL     1      15.255  11.331  18.900  1.00  0.00     0.166 C 
HETATM    2  O2  UNL     1      14.502  11.609  17.984  1.00  0.00    -0.295 OA
ENDROOT
BRANCH   1   3
HETATM    3  C1  UNL     1      14.783  10.526  20.072  1.00  0.00     0.313 C 
BRANCH   3   4
HETATM    4  N1  UNL     1      15.879  10.170  20.943  1.00  0.00    -0.062 N 
ATOM      5  H13 UNL     1      15.581  10.093  21.916  1.00  0.00     0.275 HD
ATOM      6  H12 UNL     1      16.179   9.205  20.800  1.00  0.00     0.275 HD
ATOM      7  H11 UNL     1      16.650  10.828  20.832  1.00  0.00     0.275 HD
ENDBRANCH   3   4
BRANCH   3   8
HETATM    8  C2  UNL     1      14.106   9.300  19.560  1.00  0.00     0.271 C 
HETATM    9  O1  UNL     1      13.325   8.727  20.272  1.00  0.00    -0.304 OA
ENDBRANCH   3   8
ENDBRANCH   1   3
BRANCH   1  10
HETATM   10  C4  UNL     1      16.669  11.791  18.865  1.00  0.00     0.106 C 
BRANCH  10  11
HETATM   11  C5  UNL     1      16.738  13.077  18.110  1.00  0.00     0.091 C 
HETATM   12  C6  UNL     1      17.986  13.863  18.389  1.00  0.00     0.035 C 
HETATM   13  C7  UNL     1      17.587  15.049  19.239  1.00  0.00     0.105 C 
HETATM   14  C8  UNL     1      16.190  15.277  18.787  1.00  0.00     0.217 C 
HETATM   15  O3  UNL     1      15.568  16.382  18.697  1.00  0.00    -0.274 OA
HETATM   16  N2  UNL     1      15.676  13.987  18.467  1.00  0.00    -0.356 N 
ATOM     17  H2  UNL     1      14.687  13.739  18.488  1.00  0.00     0.162 HD
ENDBRANCH  10  11
ENDBRANCH   1  10
TORSDOF 5
ENDMDL
MODEL 4
REMARK VINA RESULT: -5.440810642      3.518      4.456
REMARK  5 active torsions:
REMARK  status: ('A' for Active; 'I' for Inactive)
REMARK    1  A    between atoms: N1_1  and  C1_5 
REMARK    2  A    between atoms: C1_5  and  C2_6 
REMARK    3  A    between atoms: C1_5  and  C3_8 
REMARK    4  A    between atoms: C3_8  and  C4_10 
REMARK    5  A    between atoms: C4_10  and  C5_11 
ROOT
HETATM    1  C3  UNL     1      20.196  16.596  17.443  1.00  0.00     0.166 C 
HETATM    2  O2  UNL     1      19.513  17.536  17.078  1.00  0.00    -0.295 OA
ENDROOT
BRANCH   1   3
HETATM    3  C1  UNL     1      21.641  16.777  17.790  1.00  0.00     0.313 C 
BRANCH   3   4
HETATM    4  N1  UNL     1      22.328  17.567  16.796  1.00  0.00    -0.062 N 
ATOM      5  H13 UNL     1      22.073  17.290  15.848  1.00  0.00     0.275 HD
ATOM      6  H12 UNL     1      21.985  18.528  16.771  1.00  0.00     0.275 HD
ATOM      7  H11 UNL     1      23.337  17.528  16.946  1.00  0.00     0.275 HD
ENDBRANCH   3   4
BRANCH   3   8
HETATM    8  C2  UNL     1      22.269  15.429  17.908  1.00  0.00     0.271 C 
HETATM    9  O1  UNL     1      22.597  15.034  18.996  1.00  0.00    -0.304 OA
ENDBRANCH   3   8
ENDBRANCH   1   3
BRANCH   1  10
HETATM   10  C4  UNL     1      19.593  15.240  17.551  1.00  0.00     0.106 C 
BRANCH  10  11
HETATM   11  C5  UNL     1      18.610  15.237  18.674  1.00  0.00     0.091 C 
HETATM   12  C6  UNL     1      17.953  13.904  18.885  1.00  0.00     0.035 C 
HETATM   13  C7  UNL     1      16.526  14.026  18.399  1.00  0.00     0.105 C 
HETATM   14  C8  UNL     1      16.256  15.466  18.643  1.00  0.00     0.217 C 
HETATM   15  O3  UNL     1      15.152  16.009  18.966  1.00  0.00    -0.274 OA
HETATM   16  N2  UNL     1      17.499  16.129  18.440  1.00  0.00    -0.356 N 
ATOM     17  H2  UNL     1      17.593  17.107  18.166  1.00  0.00     0.162 HD
ENDBRANCH  10  11
ENDBRANCH   1  10
TORSDOF 5
ENDMDL
MODEL 5
REMARK VINA RESULT: -5.311772183      1.584      2.184
REMARK  5 active torsions:
REMARK  status: ('A' for Active; 'I' for Inactive)
REMARK    1  A    between atoms: N1_1  and  C1_5 
REMARK    2  A    between atoms: C1_5  and  C2_6 
REMARK    3  A    between atoms: C1_5  and  C3_8 
REMARK    4  A    between atoms: C3_8  and  C4_10 
REMARK    5  A    between atoms: C4_10  and  C5_11 
ROOT
HETATM    1  C3  UNL     1      18.644  14.426  18.937  1.00  0.00     0.166 C 
HETATM    2  O2  UNL     1      19.196  14.019  19.943  1.00  0.00    -0.295 OA
ENDROOT
BRANCH   1   3
HETATM    3  C1  UNL     1      19.393  15.212  17.906  1.00  0.00     0.313 C 
BRANCH   3   4
HETATM    4  N1  UNL     1      20.802  15.280  18.215  1.00  0.00    -0.062 N 
ATOM      5  H13 UNL     1      21.374  14.886  17.468  1.00  0.00     0.275 HD
ATOM      6  H12 UNL     1      21.152  16.238  18.185  1.00  0.00     0.275 HD
ATOM      7  H11 UNL     1      20.991  14.836  19.113  1.00  0.00     0.275 HD
ENDBRANCH   3   4
BRANCH   3   8
HETATM    8  C2  UNL     1      18.807  16.582  17.842  1.00  0.00     0.271 C 
HETATM    9  O1  UNL     1      19.451  17.466  17.341  1.00  0.00    -0.304 OA
ENDBRANCH   3   8
ENDBRANCH   1   3
BRANCH   1  10
HETATM   10  C4  UNL     1      17.199  14.142  18.718  1.00  0.00     0.106 C 
BRANCH  10  11
HETATM   11  C5  UNL     1      17.047  12.717  18.300  1.00  0.00     0.091 C 
HETATM   12  C6  UNL     1      15.678  12.396  17.773  1.00  0.00     0.035 C 
HETATM   13  C7  UNL     1      14.979  11.562  18.823  1.00  0.00     0.105 C 
HETATM   14  C8  UNL     1      16.128  10.874  19.464  1.00  0.00     0.217 C 
HETATM   15  O3  UNL     1      16.157   9.707  19.970  1.00  0.00    -0.274 OA
HETATM   16  N2  UNL     1      17.212  11.796  19.399  1.00  0.00    -0.356 N 
ATOM     17  H2  UNL     1      18.001  11.805  20.045  1.00  0.00     0.162 HD
ENDBRANCH  10  11
ENDBRANCH   1  10
TORSDOF 5
ENDMDL
