MODEL 1
REMARK VINA RESULT: -4.991709125      0.000      0.000
REMARK  4 active torsions:
REMARK  status: ('A' for Active; 'I' for Inactive)
REMARK    1  A    between atoms: N1_1  and  C1_5 
REMARK    2  A    between atoms: C1_5  and  C2_6 
REMARK    3  A    between atoms: C1_5  and  C3_8 
REMARK       I    between atoms: C3_8  and  N2_10 
REMARK    4  A    between atoms: N2_10  and  C4_12 
ROOT
HETATM    1  C3  UNL     1      18.389  14.128  17.995  1.00  0.00     0.249 C 
HETATM    2  O1  UNL     1      18.522  13.720  16.783  1.00  0.00    -0.271 OA
HETATM    3  N2  UNL     1      19.140  15.250  18.447  1.00  0.00    -0.353 N 
ATOM      4  H2  UNL     1      19.056  15.591  19.405  1.00  0.00     0.163 HD
ENDROOT
BRANCH   1   5
HETATM    5  C1  UNL     1      17.434  13.367  18.838  1.00  0.00     0.284 C 
BRANCH   5   6
HETATM    6  N1  UNL     1      18.218  12.315  19.529  1.00  0.00    -0.066 N 
ATOM      7  H13 UNL     1      19.129  12.148  19.101  1.00  0.00     0.275 HD
ATOM      8  H12 UNL     1      18.557  12.605  20.447  1.00  0.00     0.275 HD
ATOM      9  H11 UNL     1      17.633  11.480  19.565  1.00  0.00     0.275 HD
ENDBRANCH   5   6
BRANCH   5  10
HETATM   10  C2  UNL     1      16.394  12.655  17.972  1.00  0.00     0.128 C 
HETATM   11  S1  UNL     1      15.533  11.439  18.982  1.00  0.00    -0.095 SA
ENDBRANCH   5  10
ENDBRANCH   1   5
BRANCH   3  12
HETATM   12  C4  UNL     1      20.021  15.884  17.507  1.00  0.00     0.110 C 
HETATM   13  C5  UNL     1      19.700  17.365  17.320  1.00  0.00     0.053 C 
HETATM   14  C6  UNL     1      21.051  17.813  16.771  1.00  0.00     0.169 C 
HETATM   15  O2  UNL     1      22.000  17.118  17.492  1.00  0.00    -0.389 OA
HETATM   16  C7  UNL     1      21.444  15.952  17.946  1.00  0.00     0.192 C 
ENDBRANCH   3  12
TORSDOF 4
ENDMDL
MODEL 2
REMARK VINA RESULT: -4.988111200      3.108      5.409
REMARK  4 active torsions:
REMARK  status: ('A' for Active; 'I' for Inactive)
REMARK    1  A    between atoms: N1_1  and  C1_5 
REMARK    2  A    between atoms: C1_5  and  C2_6 
REMARK    3  A    between atoms: C1_5  and  C3_8 
REMARK       I    between atoms: C3_8  and  N2_10 
REMARK    4  A    between atoms: N2_10  and  C4_12 
ROOT
HETATM    1  C3  UNL     1      20.208  16.321  17.758  1.00  0.00     0.249 C 
HETATM    2  O1  UNL     1      19.341  17.173  17.343  1.00  0.00    -0.271 OA
HETATM    3  N2  UNL     1      19.777  15.041  18.212  1.00  0.00    -0.353 N 
ATOM      4  H2  UNL     1      20.445  14.348  18.551  1.00  0.00     0.163 HD
ENDROOT
BRANCH   1   5
HETATM    5  C1  UNL     1      21.625  16.762  17.725  1.00  0.00     0.284 C 
BRANCH   5   6
HETATM    6  N1  UNL     1      21.757  17.695  16.580  1.00  0.00    -0.066 N 
ATOM      7  H13 UNL     1      22.520  18.362  16.693  1.00  0.00     0.275 HD
ATOM      8  H12 UNL     1      22.102  17.243  15.733  1.00  0.00     0.275 HD
ATOM      9  H11 UNL     1      20.849  18.142  16.453  1.00  0.00     0.275 HD
ENDBRANCH   5   6
BRANCH   5  10
HETATM   10  C2  UNL     1      22.554  15.580  17.451  1.00  0.00     0.128 C 
HETATM   11  S1  UNL     1      23.443  15.178  18.964  1.00  0.00    -0.095 SA
ENDBRANCH   5  10
ENDBRANCH   1   5
BRANCH   3  12
HETATM   12  C4  UNL     1      18.370  14.763  18.177  1.00  0.00     0.110 C 
HETATM   13  C5  UNL     1      18.045  13.512  17.364  1.00  0.00     0.053 C 
HETATM   14  C6  UNL     1      16.678  13.208  17.967  1.00  0.00     0.169 C 
HETATM   15  O2  UNL     1      16.792  13.475  19.316  1.00  0.00    -0.389 OA
HETATM   16  C7  UNL     1      17.779  14.406  19.500  1.00  0.00     0.192 C 
ENDBRANCH   3  12
TORSDOF 4
ENDMDL
MODEL 3
REMARK VINA RESULT: -4.904605063      4.578      5.811
REMARK  4 active torsions:
REMARK  status: ('A' for Active; 'I' for Inactive)
REMARK    1  A    between atoms: N1_1  and  C1_5 
REMARK    2  A    between atoms: C1_5  and  C2_6 
REMARK    3  A    between atoms: C1_5  and  C3_8 
REMARK       I    between atoms: C3_8  and  N2_10 
REMARK    4  A    between atoms: N2_10  and  C4_12 
ROOT
HETATM    1  C3  UNL     1      20.921  18.032  16.606  1.00  0.00     0.249 C 
HETATM    2  O1  UNL     1      19.717  17.634  16.815  1.00  0.00    -0.271 OA
HETATM    3  N2  UNL     1      21.170  19.038  15.628  1.00  0.00    -0.353 N 
ATOM      4  H2  UNL     1      22.116  19.368  15.439  1.00  0.00     0.163 HD
ENDROOT
BRANCH   1   5
HETATM    5  C1  UNL     1      21.974  17.386  17.427  1.00  0.00     0.284 C 
BRANCH   5   6
HETATM    6  N1  UNL     1      23.145  17.184  16.540  1.00  0.00    -0.066 N 
ATOM      7  H13 UNL     1      23.068  17.686  15.655  1.00  0.00     0.275 HD
ATOM      8  H12 UNL     1      23.989  17.645  16.879  1.00  0.00     0.275 HD
ATOM      9  H11 UNL     1      23.259  16.177  16.421  1.00  0.00     0.275 HD
ENDBRANCH   5   6
BRANCH   5  10
HETATM   10  C2  UNL     1      21.523  16.003  17.898  1.00  0.00     0.128 C 
HETATM   11  S1  UNL     1      22.850  15.255  18.856  1.00  0.00    -0.095 SA
ENDBRANCH   5  10
ENDBRANCH   1   5
BRANCH   3  12
HETATM   12  C4  UNL     1      20.041  19.569  14.918  1.00  0.00     0.110 C 
HETATM   13  C5  UNL     1      20.059  21.094  14.857  1.00  0.00     0.053 C 
HETATM   14  C6  UNL     1      19.140  21.275  13.654  1.00  0.00     0.169 C 
HETATM   15  O2  UNL     1      19.478  20.274  12.767  1.00  0.00    -0.389 OA
HETATM   16  C7  UNL     1      20.009  19.224  13.467  1.00  0.00     0.192 C 
ENDBRANCH   3  12
TORSDOF 4
ENDMDL
MODEL 4
REMARK VINA RESULT: -4.695897308      1.494      1.777
REMARK  4 active torsions:
REMARK  status: ('A' for Active; 'I' for Inactive)
REMARK    1  A    between atoms: N1_1  and  C1_5 
REMARK    2  A    between atoms: C1_5  and  C2_6 
REMARK    3  A    between atoms: C1_5  and  C3_8 
REMARK       I    between atoms: C3_8  and  N2_10 
REMARK    4  A    between atoms: N2_10  and  C4_12 
ROOT
HETATM    1  C3  UNL     1      18.508  14.051  18.130  1.00  0.00     0.249 C 
HETATM    2  O1  UNL     1      18.682  14.187  19.396  1.00  0.00    -0.271 OA
HETATM    3  N2  UNL     1      19.143  14.954  17.230  1.00  0.00    -0.353 N 
ATOM      4  H2  UNL     1      19.017  14.870  16.221  1.00  0.00     0.163 HD
ENDROOT
BRANCH   1   5
HETATM    5  C1  UNL     1      17.631  12.930  17.709  1.00  0.00     0.284 C 
BRANCH   5   6
HETATM    6  N1  UNL     1      17.374  13.108  16.260  1.00  0.00    -0.066 N 
ATOM      7  H13 UNL     1      17.487  14.073  15.949  1.00  0.00     0.275 HD
ATOM      8  H12 UNL     1      18.099  12.696  15.671  1.00  0.00     0.275 HD
ATOM      9  H11 UNL     1      16.445  12.733  16.072  1.00  0.00     0.275 HD
ENDBRANCH   5   6
BRANCH   5  10
HETATM   10  C2  UNL     1      16.277  13.006  18.417  1.00  0.00     0.128 C 
HETATM   11  S1  UNL     1      15.950  11.425  19.212  1.00  0.00    -0.095 SA
ENDBRANCH   5  10
ENDBRANCH   1   5
BRANCH   3  12
HETATM   12  C4  UNL     1      19.967  15.985  17.793  1.00  0.00     0.110 C 
HETATM   13  C5  UNL     1      21.455  15.720  17.582  1.00  0.00     0.053 C 
HETATM   14  C6  UNL     1      21.959  17.148  17.759  1.00  0.00     0.169 C 
HETATM   15  O2  UNL     1      21.029  17.956  17.137  1.00  0.00    -0.389 OA
HETATM   16  C7  UNL     1      19.818  17.317  17.140  1.00  0.00     0.192 C 
ENDBRANCH   3  12
TORSDOF 4
ENDMDL
MODEL 5
REMARK VINA RESULT: -4.658853180      1.099      1.212
REMARK  4 active torsions:
REMARK  status: ('A' for Active; 'I' for Inactive)
REMARK    1  A    between atoms: N1_1  and  C1_5 
REMARK    2  A    between atoms: C1_5  and  C2_6 
REMARK    3  A    between atoms: C1_5  and  C3_8 
REMARK       I    between atoms: C3_8  and  N2_10 
REMARK    4  A    between atoms: N2_10  and  C4_12 
ROOT
HETATM    1  C3  UNL     1      19.068  14.617  18.164  1.00  0.00     0.249 C 
HETATM    2  O1  UNL     1      19.007  14.265  16.930  1.00  0.00    -0.271 OA
HETATM    3  N2  UNL     1      20.195  15.354  18.632  1.00  0.00    -0.353 N 
ATOM      4  H2  UNL     1      20.270  15.641  19.608  1.00  0.00     0.163 HD
ENDROOT
BRANCH   1   5
HETATM    5  C1  UNL     1      17.925  14.208  19.017  1.00  0.00     0.284 C 
BRANCH   5   6
HETATM    6  N1  UNL     1      18.447  13.216  19.987  1.00  0.00    -0.066 N 
ATOM      7  H13 UNL     1      17.949  13.225  20.877  1.00  0.00     0.275 HD
ATOM      8  H12 UNL     1      18.234  12.252  19.729  1.00  0.00     0.275 HD
ATOM      9  H11 UNL     1      19.447  13.391  20.086  1.00  0.00     0.275 HD
ENDBRANCH   5   6
BRANCH   5  10
HETATM   10  C2  UNL     1      16.854  13.502  18.185  1.00  0.00     0.128 C 
HETATM   11  S1  UNL     1      16.496  11.906  18.936  1.00  0.00    -0.095 SA
ENDBRANCH   5  10
ENDBRANCH   1   5
BRANCH   3  12
HETATM   12  C4  UNL     1      21.219  15.677  17.680  1.00  0.00     0.110 C 
HETATM   13  C5  UNL     1      21.241  17.164  17.334  1.00  0.00     0.053 C 
HETATM   14  C6  UNL     1      22.672  17.245  16.813  1.00  0.00     0.169 C 
HETATM   15  O2  UNL     1      23.423  16.441  17.645  1.00  0.00    -0.389 OA
HETATM   16  C7  UNL     1      22.610  15.479  18.181  1.00  0.00     0.192 C 
ENDBRANCH   3  12
TORSDOF 4
ENDMDL
