MODEL 1
REMARK VINA RESULT: -5.505498192      0.000      0.000
REMARK  5 active torsions:
REMARK  status: ('A' for Active; 'I' for Inactive)
REMARK    1  A    between atoms: C1_2  and  C2_3 
REMARK    2  A    between atoms: C2_3  and  N1_4 
REMARK    3  A    between atoms: C2_3  and  C8_12 
REMARK    4  A    between atoms: N1_4  and  N2_6 
REMARK    5  A    between atoms: N2_6  and  C3_7 
ROOT
HETATM    1  N1  UNL     1      18.437  14.324  17.786  1.00  0.00    -0.295 N 
ATOM      2  H1  UNL     1      18.482  13.817  16.901  1.00  0.00     0.182 HD
ENDROOT
BRANCH   1   3
HETATM    3  C2  UNL     1      17.342  14.304  18.712  1.00  0.00     0.159 C 
BRANCH   3   4
HETATM    4  C1  UNL     1      16.697  15.586  18.957  1.00  0.00     0.296 C 
HETATM    5  O1  UNL     1      15.471  15.826  18.874  1.00  0.00    -0.300 OA
ENDBRANCH   3   4
BRANCH   3   6
HETATM    6  C8  UNL     1      17.361  13.308  19.747  1.00  0.00     0.231 C 
HETATM    7  O2  UNL     1      18.131  13.458  20.796  1.00  0.00    -0.643 OA
HETATM    8  O3  UNL     1      16.547  12.165  19.685  1.00  0.00    -0.643 OA
ENDBRANCH   3   6
ENDBRANCH   1   3
BRANCH   1   9
HETATM    9  N2  UNL     1      19.464  15.185  18.321  1.00  0.00    -0.132 NA
BRANCH   9  10
HETATM   10  C3  UNL     1      20.151  15.734  17.183  1.00  0.00     0.122 C 
HETATM   11  C4  UNL     1      20.111  17.209  17.203  1.00  0.00    -0.008 C 
HETATM   12  C5  UNL     1      21.182  17.739  17.633  1.00  0.00    -0.029 C 
HETATM   13  C6  UNL     1      22.194  16.720  18.023  1.00  0.00     0.029 C 
HETATM   14  C7  UNL     1      21.655  15.512  17.328  1.00  0.00     0.031 C 
ENDBRANCH   9  10
ENDBRANCH   1   9
TORSDOF 5
ENDMDL
MODEL 2
REMARK VINA RESULT: -5.436119270     10.354     11.429
REMARK  5 active torsions:
REMARK  status: ('A' for Active; 'I' for Inactive)
REMARK    1  A    between atoms: C1_2  and  C2_3 
REMARK    2  A    between atoms: C2_3  and  N1_4 
REMARK    3  A    between atoms: C2_3  and  C8_12 
REMARK    4  A    between atoms: N1_4  and  N2_6 
REMARK    5  A    between atoms: N2_6  and  C3_7 
ROOT
HETATM    1  N1  UNL     1      13.733   4.264  15.842  1.00  0.00    -0.295 N 
ATOM      2  H1  UNL     1      12.973   3.705  15.456  1.00  0.00     0.182 HD
ENDROOT
BRANCH   1   3
HETATM    3  C2  UNL     1      13.733   4.916  17.120  1.00  0.00     0.159 C 
BRANCH   3   4
HETATM    4  C1  UNL     1      13.549   4.047  18.274  1.00  0.00     0.296 C 
HETATM    5  O1  UNL     1      14.330   3.928  19.245  1.00  0.00    -0.300 OA
ENDBRANCH   3   4
BRANCH   3   6
HETATM    6  C8  UNL     1      13.279   6.277  17.176  1.00  0.00     0.231 C 
HETATM    7  O2  UNL     1      12.002   6.553  17.078  1.00  0.00    -0.643 OA
HETATM    8  O3  UNL     1      14.172   7.346  17.360  1.00  0.00    -0.643 OA
ENDBRANCH   3   6
ENDBRANCH   1   3
BRANCH   1   9
HETATM    9  N2  UNL     1      14.995   4.537  15.199  1.00  0.00    -0.132 NA
BRANCH   9  10
HETATM   10  C3  UNL     1      14.678   5.278  14.007  1.00  0.00     0.122 C 
HETATM   11  C4  UNL     1      15.377   6.577  13.991  1.00  0.00    -0.008 C 
HETATM   12  C5  UNL     1      16.419   6.582  13.265  1.00  0.00    -0.029 C 
HETATM   13  C6  UNL     1      16.670   5.259  12.634  1.00  0.00     0.029 C 
HETATM   14  C7  UNL     1      15.331   4.616  12.795  1.00  0.00     0.031 C 
ENDBRANCH   9  10
ENDBRANCH   1   9
TORSDOF 5
ENDMDL
MODEL 3
REMARK VINA RESULT: -5.408599974      1.444      2.013
REMARK  5 active torsions:
REMARK  status: ('A' for Active; 'I' for Inactive)
REMARK    1  A    between atoms: C1_2  and  C2_3 
REMARK    2  A    between atoms: C2_3  and  N1_4 
REMARK    3  A    between atoms: C2_3  and  C8_12 
REMARK    4  A    between atoms: N1_4  and  N2_6 
REMARK    5  A    between atoms: N2_6  and  C3_7 
ROOT
HETATM    1  N1  UNL     1      18.836  15.505  18.134  1.00  0.00    -0.295 N 
ATOM      2  H1  UNL     1      18.358  16.404  18.196  1.00  0.00     0.182 HD
ENDROOT
BRANCH   1   3
HETATM    3  C2  UNL     1      18.358  14.260  18.661  1.00  0.00     0.159 C 
BRANCH   3   4
HETATM    4  C1  UNL     1      17.190  13.697  17.997  1.00  0.00     0.296 C 
HETATM    5  O1  UNL     1      16.053  13.547  18.498  1.00  0.00    -0.300 OA
ENDBRANCH   3   4
BRANCH   3   6
HETATM    6  C8  UNL     1      18.578  13.996  20.055  1.00  0.00     0.231 C 
HETATM    7  O2  UNL     1      17.868  14.615  20.966  1.00  0.00    -0.643 OA
HETATM    8  O3  UNL     1      19.532  13.060  20.488  1.00  0.00    -0.643 OA
ENDBRANCH   3   6
ENDBRANCH   1   3
BRANCH   1   9
HETATM    9  N2  UNL     1      20.110  15.266  17.500  1.00  0.00    -0.132 NA
BRANCH   9  10
HETATM   10  C3  UNL     1      21.069  16.047  18.235  1.00  0.00     0.122 C 
HETATM   11  C4  UNL     1      22.398  15.408  18.213  1.00  0.00    -0.008 C 
HETATM   12  C5  UNL     1      23.192  15.920  17.365  1.00  0.00    -0.029 C 
HETATM   13  C6  UNL     1      22.558  17.026  16.599  1.00  0.00     0.029 C 
HETATM   14  C7  UNL     1      21.384  17.332  17.472  1.00  0.00     0.031 C 
ENDBRANCH   9  10
ENDBRANCH   1   9
TORSDOF 5
ENDMDL
MODEL 4
REMARK VINA RESULT: -5.404665444      2.884      3.895
REMARK  5 active torsions:
REMARK  status: ('A' for Active; 'I' for Inactive)
REMARK    1  A    between atoms: C1_2  and  C2_3 
REMARK    2  A    between atoms: C2_3  and  N1_4 
REMARK    3  A    between atoms: C2_3  and  C8_12 
REMARK    4  A    between atoms: N1_4  and  N2_6 
REMARK    5  A    between atoms: N2_6  and  C3_7 
ROOT
HETATM    1  N1  UNL     1      17.122  11.935  19.714  1.00  0.00    -0.295 N 
ATOM      2  H1  UNL     1      17.342  11.982  20.709  1.00  0.00     0.182 HD
ENDROOT
BRANCH   1   3
HETATM    3  C2  UNL     1      16.022  11.225  19.128  1.00  0.00     0.159 C 
BRANCH   3   4
HETATM    4  C1  UNL     1      15.212  11.982  18.183  1.00  0.00     0.296 C 
HETATM    5  O1  UNL     1      14.136  12.569  18.433  1.00  0.00    -0.300 OA
ENDBRANCH   3   4
BRANCH   3   6
HETATM    6  C8  UNL     1      15.418  10.174  19.898  1.00  0.00     0.231 C 
HETATM    7  O2  UNL     1      15.985   9.753  21.002  1.00  0.00    -0.643 OA
HETATM    8  O3  UNL     1      14.202   9.584  19.515  1.00  0.00    -0.643 OA
ENDBRANCH   3   6
ENDBRANCH   1   3
BRANCH   1   9
HETATM    9  N2  UNL     1      17.864  12.569  18.652  1.00  0.00    -0.132 NA
BRANCH   9  10
HETATM   10  C3  UNL     1      18.506  13.712  19.247  1.00  0.00     0.122 C 
HETATM   11  C4  UNL     1      18.779  14.750  18.235  1.00  0.00    -0.008 C 
HETATM   12  C5  UNL     1      17.932  15.696  18.239  1.00  0.00    -0.029 C 
HETATM   13  C6  UNL     1      16.868  15.492  19.258  1.00  0.00     0.029 C 
HETATM   14  C7  UNL     1      17.512  14.463  20.130  1.00  0.00     0.031 C 
ENDBRANCH   9  10
ENDBRANCH   1   9
TORSDOF 5
ENDMDL
MODEL 5
REMARK VINA RESULT: -5.352542800      1.408      2.051
REMARK  5 active torsions:
REMARK  status: ('A' for Active; 'I' for Inactive)
REMARK    1  A    between atoms: C1_2  and  C2_3 
REMARK    2  A    between atoms: C2_3  and  N1_4 
REMARK    3  A    between atoms: C2_3  and  C8_12 
REMARK    4  A    between atoms: N1_4  and  N2_6 
REMARK    5  A    between atoms: N2_6  and  C3_7 
ROOT
HETATM    1  N1  UNL     1      19.574  14.788  18.941  1.00  0.00    -0.295 N 
ATOM      2  H1  UNL     1      19.965  14.706  19.880  1.00  0.00     0.182 HD
ENDROOT
BRANCH   1   3
HETATM    3  C2  UNL     1      18.214  14.522  18.569  1.00  0.00     0.159 C 
BRANCH   3   4
HETATM    4  C1  UNL     1      17.247  15.548  18.931  1.00  0.00     0.296 C 
HETATM    5  O1  UNL     1      16.001  15.429  18.920  1.00  0.00    -0.300 OA
ENDBRANCH   3   4
BRANCH   3   6
HETATM    6  C8  UNL     1      17.799  13.149  18.493  1.00  0.00     0.231 C 
HETATM    7  O2  UNL     1      17.870  12.498  17.358  1.00  0.00    -0.643 OA
HETATM    8  O3  UNL     1      17.330  12.456  19.621  1.00  0.00    -0.643 OA
ENDBRANCH   3   6
ENDBRANCH   1   3
BRANCH   1   9
HETATM    9  N2  UNL     1      20.293  15.193  17.758  1.00  0.00    -0.132 NA
BRANCH   9  10
HETATM   10  C3  UNL     1      21.376  16.020  18.218  1.00  0.00     0.122 C 
HETATM   11  C4  UNL     1      22.306  15.249  19.065  1.00  0.00    -0.008 C 
HETATM   12  C5  UNL     1      23.352  14.870  18.454  1.00  0.00    -0.029 C 
HETATM   13  C6  UNL     1      23.352  15.291  17.027  1.00  0.00     0.029 C 
HETATM   14  C7  UNL     1      22.304  16.355  17.052  1.00  0.00     0.031 C 
ENDBRANCH   9  10
ENDBRANCH   1   9
TORSDOF 5
ENDMDL
