MODEL 1
REMARK VINA RESULT: -6.493065589      0.000      0.000
REMARK  5 active torsions:
REMARK  status: ('A' for Active; 'I' for Inactive)
REMARK    1  A    between atoms: N1_1  and  C1_5 
REMARK    2  A    between atoms: C1_5  and  N2_6 
REMARK    3  A    between atoms: C1_5  and  C2_10 
REMARK       I    between atoms: C2_10  and  N3_12 
REMARK    4  A    between atoms: N3_12  and  C3_14 
REMARK    5  A    between atoms: C3_14  and  C4_15 
ROOT
HETATM    1  C2  UNL     1      21.788  16.265  18.020  1.00  0.00     0.276 C 
HETATM    2  O1  UNL     1      22.695  15.841  18.769  1.00  0.00    -0.269 OA
HETATM    3  N3  UNL     1      20.511  15.690  18.097  1.00  0.00    -0.353 N 
ATOM      4  H3  UNL     1      19.765  16.030  17.490  1.00  0.00     0.162 HD
ENDROOT
BRANCH   1   5
HETATM    5  C1  UNL     1      22.031  17.352  17.063  1.00  0.00     0.468 C 
BRANCH   5   6
HETATM    6  N1  UNL     1      21.569  18.595  17.630  1.00  0.00    -0.042 N 
ATOM      7  H13 UNL     1      22.311  19.076  18.138  1.00  0.00     0.277 HD
ATOM      8  H12 UNL     1      21.395  19.296  16.909  1.00  0.00     0.277 HD
ATOM      9  H11 UNL     1      20.747  18.446  18.216  1.00  0.00     0.277 HD
ENDBRANCH   5   6
BRANCH   5  10
HETATM   10  N2  UNL     1      23.423  17.448  16.666  1.00  0.00    -0.042 N 
ATOM     11  H23 UNL     1      23.521  17.531  15.654  1.00  0.00     0.277 HD
ATOM     12  H22 UNL     1      23.830  18.343  16.935  1.00  0.00     0.277 HD
ATOM     13  H21 UNL     1      23.962  16.663  17.033  1.00  0.00     0.277 HD
ENDBRANCH   5  10
ENDBRANCH   1   5
BRANCH   3  14
HETATM   14  C3  UNL     1      20.246  14.620  19.030  1.00  0.00     0.162 C 
BRANCH  14  15
HETATM   15  C4  UNL     1      18.893  14.063  18.702  1.00  0.00    -0.025 A 
HETATM   16  C5  UNL     1      18.471  13.901  17.400  1.00  0.00     0.011 A 
HETATM   17  C6  UNL     1      17.195  13.370  17.198  1.00  0.00     0.018 A 
HETATM   18  C7  UNL     1      16.370  13.011  18.245  1.00  0.00     0.087 A 
HETATM   19  N4  UNL     1      16.818  13.184  19.500  1.00  0.00    -0.375 N 
HETATM   20  C8  UNL     1      18.048  13.697  19.718  1.00  0.00     0.096 A 
ATOM     21  H4  UNL     1      16.226  12.927  20.291  1.00  0.00     0.164 HD
ENDBRANCH  14  15
ENDBRANCH   3  14
TORSDOF 5
ENDMDL
MODEL 2
REMARK VINA RESULT: -6.184575376      1.891      5.872
REMARK  5 active torsions:
REMARK  status: ('A' for Active; 'I' for Inactive)
REMARK    1  A    between atoms: N1_1  and  C1_5 
REMARK    2  A    between atoms: C1_5  and  N2_6 
REMARK    3  A    between atoms: C1_5  and  C2_10 
REMARK       I    between atoms: C2_10  and  N3_12 
REMARK    4  A    between atoms: N3_12  and  C3_14 
REMARK    5  A    between atoms: C3_14  and  C4_15 
ROOT
HETATM    1  C2  UNL     1      18.769  14.377  18.564  1.00  0.00     0.276 C 
HETATM    2  O1  UNL     1      18.493  13.847  17.465  1.00  0.00    -0.269 OA
HETATM    3  N3  UNL     1      19.518  15.562  18.585  1.00  0.00    -0.353 N 
ATOM      4  H3  UNL     1      19.748  16.002  19.476  1.00  0.00     0.162 HD
ENDROOT
BRANCH   1   5
HETATM    5  C1  UNL     1      18.325  13.785  19.833  1.00  0.00     0.468 C 
BRANCH   5   6
HETATM    6  N1  UNL     1      18.169  14.830  20.815  1.00  0.00    -0.042 N 
ATOM      7  H13 UNL     1      17.368  14.659  21.422  1.00  0.00     0.277 HD
ATOM      8  H12 UNL     1      18.907  14.798  21.518  1.00  0.00     0.277 HD
ATOM      9  H11 UNL     1      18.114  15.745  20.368  1.00  0.00     0.277 HD
ENDBRANCH   5   6
BRANCH   5  10
HETATM   10  N2  UNL     1      17.104  13.016  19.695  1.00  0.00    -0.042 N 
ATOM     11  H23 UNL     1      17.297  12.029  19.524  1.00  0.00     0.277 HD
ATOM     12  H22 UNL     1      16.613  12.926  20.584  1.00  0.00     0.277 HD
ATOM     13  H21 UNL     1      16.503  13.411  18.971  1.00  0.00     0.277 HD
ENDBRANCH   5  10
ENDBRANCH   1   5
BRANCH   3  14
HETATM   14  C3  UNL     1      19.967  16.166  17.352  1.00  0.00     0.162 C 
BRANCH  14  15
HETATM   15  C4  UNL     1      21.436  16.434  17.490  1.00  0.00    -0.025 A 
HETATM   16  C5  UNL     1      22.233  15.686  18.330  1.00  0.00     0.011 A 
HETATM   17  C6  UNL     1      23.590  16.011  18.385  1.00  0.00     0.018 A 
HETATM   18  C7  UNL     1      24.137  17.035  17.638  1.00  0.00     0.087 A 
HETATM   19  N4  UNL     1      23.326  17.740  16.830  1.00  0.00    -0.375 N 
HETATM   20  C8  UNL     1      22.010  17.444  16.762  1.00  0.00     0.096 A 
ATOM     21  H4  UNL     1      23.705  18.502  16.268  1.00  0.00     0.164 HD
ENDBRANCH  14  15
ENDBRANCH   3  14
TORSDOF 5
ENDMDL
MODEL 3
REMARK VINA RESULT: -6.124849903      0.799      1.314
REMARK  5 active torsions:
REMARK  status: ('A' for Active; 'I' for Inactive)
REMARK    1  A    between atoms: N1_1  and  C1_5 
REMARK    2  A    between atoms: C1_5  and  N2_6 
REMARK    3  A    between atoms: C1_5  and  C2_10 
REMARK       I    between atoms: C2_10  and  N3_12 
REMARK    4  A    between atoms: N3_12  and  C3_14 
REMARK    5  A    between atoms: C3_14  and  C4_15 
ROOT
HETATM    1  C2  UNL     1      21.836  16.285  18.017  1.00  0.00     0.276 C 
HETATM    2  O1  UNL     1      22.739  15.837  18.757  1.00  0.00    -0.269 OA
HETATM    3  N3  UNL     1      20.547  15.739  18.100  1.00  0.00    -0.353 N 
ATOM      4  H3  UNL     1      19.805  16.098  17.500  1.00  0.00     0.162 HD
ENDROOT
BRANCH   1   5
HETATM    5  C1  UNL     1      22.097  17.371  17.063  1.00  0.00     0.468 C 
BRANCH   5   6
HETATM    6  N1  UNL     1      21.629  18.616  17.622  1.00  0.00    -0.042 N 
ATOM      7  H13 UNL     1      20.689  18.844  17.299  1.00  0.00     0.277 HD
ATOM      8  H12 UNL     1      21.433  18.530  18.620  1.00  0.00     0.277 HD
ATOM      9  H11 UNL     1      22.286  19.372  17.431  1.00  0.00     0.277 HD
ENDBRANCH   5   6
BRANCH   5  10
HETATM   10  N2  UNL     1      23.494  17.463  16.687  1.00  0.00    -0.042 N 
ATOM     11  H23 UNL     1      23.893  18.369  16.938  1.00  0.00     0.277 HD
ATOM     12  H22 UNL     1      24.081  16.869  17.272  1.00  0.00     0.277 HD
ATOM     13  H21 UNL     1      23.621  17.259  15.696  1.00  0.00     0.277 HD
ENDBRANCH   5  10
ENDBRANCH   1   5
BRANCH   3  14
HETATM   14  C3  UNL     1      20.264  14.671  19.030  1.00  0.00     0.162 C 
BRANCH  14  15
HETATM   15  C4  UNL     1      18.926  14.101  18.667  1.00  0.00    -0.025 A 
HETATM   16  C5  UNL     1      18.070  13.595  19.622  1.00  0.00     0.011 A 
HETATM   17  C6  UNL     1      16.844  13.090  19.184  1.00  0.00     0.018 A 
HETATM   18  C7  UNL     1      16.479  13.086  17.853  1.00  0.00     0.087 A 
HETATM   19  N4  UNL     1      17.341  13.588  16.952  1.00  0.00    -0.375 N 
HETATM   20  C8  UNL     1      18.533  14.082  17.354  1.00  0.00     0.096 A 
ATOM     21  H4  UNL     1      17.095  13.597  15.962  1.00  0.00     0.164 HD
ENDBRANCH  14  15
ENDBRANCH   3  14
TORSDOF 5
ENDMDL
MODEL 4
REMARK VINA RESULT: -6.054394033      2.152      5.875
REMARK  5 active torsions:
REMARK  status: ('A' for Active; 'I' for Inactive)
REMARK    1  A    between atoms: N1_1  and  C1_5 
REMARK    2  A    between atoms: C1_5  and  N2_6 
REMARK    3  A    between atoms: C1_5  and  C2_10 
REMARK       I    between atoms: C2_10  and  N3_12 
REMARK    4  A    between atoms: N3_12  and  C3_14 
REMARK    5  A    between atoms: C3_14  and  C4_15 
ROOT
HETATM    1  C2  UNL     1      18.249  15.054  19.096  1.00  0.00     0.276 C 
HETATM    2  O1  UNL     1      17.321  15.753  18.634  1.00  0.00    -0.269 OA
HETATM    3  N3  UNL     1      19.548  15.220  18.593  1.00  0.00    -0.353 N 
ATOM      4  H3  UNL     1      20.311  14.654  18.963  1.00  0.00     0.162 HD
ENDROOT
BRANCH   1   5
HETATM    5  C1  UNL     1      18.009  14.064  20.154  1.00  0.00     0.468 C 
BRANCH   5   6
HETATM    6  N1  UNL     1      17.108  13.051  19.659  1.00  0.00    -0.042 N 
ATOM      7  H13 UNL     1      17.390  12.118  19.959  1.00  0.00     0.277 HD
ATOM      8  H12 UNL     1      16.201  13.096  20.124  1.00  0.00     0.277 HD
ATOM      9  H11 UNL     1      17.015  13.109  18.645  1.00  0.00     0.277 HD
ENDBRANCH   5   6
BRANCH   5  10
HETATM   10  N2  UNL     1      19.234  13.470  20.654  1.00  0.00    -0.042 N 
ATOM     11  H23 UNL     1      20.025  13.665  20.039  1.00  0.00     0.277 HD
ATOM     12  H22 UNL     1      19.568  13.945  21.492  1.00  0.00     0.277 HD
ATOM     13  H21 UNL     1      19.117  12.469  20.810  1.00  0.00     0.277 HD
ENDBRANCH   5  10
ENDBRANCH   1   5
BRANCH   3  14
HETATM   14  C3  UNL     1      19.811  16.186  17.553  1.00  0.00     0.162 C 
BRANCH  14  15
HETATM   15  C4  UNL     1      21.287  16.452  17.549  1.00  0.00    -0.025 A 
HETATM   16  C5  UNL     1      22.176  15.618  18.192  1.00  0.00     0.011 A 
HETATM   17  C6  UNL     1      23.531  15.949  18.127  1.00  0.00     0.018 A 
HETATM   18  C7  UNL     1      23.989  17.062  17.451  1.00  0.00     0.087 A 
HETATM   19  N4  UNL     1      23.090  17.851  16.836  1.00  0.00    -0.375 N 
HETATM   20  C8  UNL     1      21.775  17.550  16.887  1.00  0.00     0.096 A 
ATOM     21  H4  UNL     1      23.403  18.680  16.330  1.00  0.00     0.164 HD
ENDBRANCH  14  15
ENDBRANCH   3  14
TORSDOF 5
ENDMDL
MODEL 5
REMARK VINA RESULT: -6.052545009      0.828      1.244
REMARK  5 active torsions:
REMARK  status: ('A' for Active; 'I' for Inactive)
REMARK    1  A    between atoms: N1_1  and  C1_5 
REMARK    2  A    between atoms: C1_5  and  N2_6 
REMARK    3  A    between atoms: C1_5  and  C2_10 
REMARK       I    between atoms: C2_10  and  N3_12 
REMARK    4  A    between atoms: N3_12  and  C3_14 
REMARK    5  A    between atoms: C3_14  and  C4_15 
ROOT
HETATM    1  C2  UNL     1      22.002  16.419  18.117  1.00  0.00     0.276 C 
HETATM    2  O1  UNL     1      22.885  15.761  18.710  1.00  0.00    -0.269 OA
HETATM    3  N3  UNL     1      20.692  15.921  18.069  1.00  0.00    -0.353 N 
ATOM      4  H3  UNL     1      19.965  16.452  17.588  1.00  0.00     0.162 HD
ENDROOT
BRANCH   1   5
HETATM    5  C1  UNL     1      22.308  17.702  17.472  1.00  0.00     0.468 C 
BRANCH   5   6
HETATM    6  N1  UNL     1      23.198  17.472  16.359  1.00  0.00    -0.042 N 
ATOM      7  H13 UNL     1      22.781  17.768  15.477  1.00  0.00     0.277 HD
ATOM      8  H12 UNL     1      23.993  18.110  16.376  1.00  0.00     0.277 HD
ATOM      9  H11 UNL     1      23.496  16.498  16.326  1.00  0.00     0.277 HD
ENDBRANCH   5   6
BRANCH   5  10
HETATM   10  N2  UNL     1      21.118  18.413  17.046  1.00  0.00    -0.042 N 
ATOM     11  H23 UNL     1      20.632  17.920  16.297  1.00  0.00     0.277 HD
ATOM     12  H22 UNL     1      20.385  18.377  17.755  1.00  0.00     0.277 HD
ATOM     13  H21 UNL     1      21.340  19.373  16.783  1.00  0.00     0.277 HD
ENDBRANCH   5  10
ENDBRANCH   1   5
BRANCH   3  14
HETATM   14  C3  UNL     1      20.364  14.662  18.697  1.00  0.00     0.162 C 
BRANCH  14  15
HETATM   15  C4  UNL     1      18.900  14.419  18.480  1.00  0.00    -0.025 A 
HETATM   16  C5  UNL     1      18.448  13.476  17.583  1.00  0.00     0.011 A 
HETATM   17  C6  UNL     1      17.065  13.320  17.456  1.00  0.00     0.018 A 
HETATM   18  C7  UNL     1      16.166  14.070  18.188  1.00  0.00     0.087 A 
HETATM   19  N4  UNL     1      16.648  14.980  19.053  1.00  0.00    -0.375 N 
HETATM   20  C8  UNL     1      17.981  15.147  19.191  1.00  0.00     0.096 A 
ATOM     21  H4  UNL     1      16.005  15.546  19.606  1.00  0.00     0.164 HD
ENDBRANCH  14  15
ENDBRANCH   3  14
TORSDOF 5
ENDMDL
