MODEL 1
REMARK VINA RESULT: -7.042934852      0.000      0.000
REMARK  5 active torsions:
REMARK  status: ('A' for Active; 'I' for Inactive)
REMARK    1  A    between atoms: N1_1  and  C1_5 
REMARK    2  A    between atoms: C1_5  and  C2_6 
REMARK       I    between atoms: C2_6  and  N2_8 
REMARK    3  A    between atoms: N2_8  and  N3_10 
REMARK    4  A    between atoms: C3_12  and  C4_13 
REMARK    5  A    between atoms: C7_18  and  C8_19 
ROOT
HETATM    1  N3  UNL     1      19.910  16.180  18.099  1.00  0.00    -0.307 N 
ATOM      2  H3  UNL     1      19.403  16.496  18.926  1.00  0.00     0.186 HD
HETATM    3  C3  UNL     1      19.552  15.124  17.510  1.00  0.00     0.137 C 
ENDROOT
BRANCH   1   4
HETATM    4  N2  UNL     1      20.991  16.914  17.629  1.00  0.00    -0.269 N 
HETATM    5  C2  UNL     1      22.297  16.555  18.011  1.00  0.00     0.261 C 
HETATM    6  O1  UNL     1      22.496  15.588  18.766  1.00  0.00    -0.270 OA
ATOM      7  H2  UNL     1      20.839  17.709  17.010  1.00  0.00     0.190 HD
BRANCH   5   8
HETATM    8  C1  UNL     1      23.452  17.322  17.522  1.00  0.00     0.333 C 
BRANCH   8   9
HETATM    9  N1  UNL     1      23.270  17.612  16.139  1.00  0.00    -0.071 N 
ATOM     10  H13 UNL     1      22.299  17.507  15.846  1.00  0.00     0.274 HD
ATOM     11  H12 UNL     1      23.375  18.606  15.935  1.00  0.00     0.274 HD
ATOM     12  H11 UNL     1      23.905  17.034  15.589  1.00  0.00     0.274 HD
ENDBRANCH   8   9
ENDBRANCH   5   8
ENDBRANCH   1   4
BRANCH   3  13
HETATM   13  C4  UNL     1      18.422  14.277  17.926  1.00  0.00     0.062 A 
HETATM   14  N4  UNL     1      17.370  13.923  17.162  1.00  0.00    -0.364 N 
HETATM   15  C5  UNL     1      16.517  13.149  17.832  1.00  0.00     0.089 A 
ATOM     16  H4  UNL     1      17.243  14.212  16.192  1.00  0.00     0.165 HD
HETATM   17  C6  UNL     1      17.045  13.000  19.082  1.00  0.00     0.034 A 
HETATM   18  C7  UNL     1      18.256  13.707  19.164  1.00  0.00     0.031 A 
BRANCH  18  19
HETATM   19  C8  UNL     1      19.106  13.777  20.356  1.00  0.00     0.272 C 
HETATM   20  O2  UNL     1      20.111  13.008  20.391  1.00  0.00    -0.301 OA
ENDBRANCH  18  19
ENDBRANCH   3  13
TORSDOF 5
ENDMDL
MODEL 2
REMARK VINA RESULT: -6.503477624      1.961      2.096
REMARK  5 active torsions:
REMARK  status: ('A' for Active; 'I' for Inactive)
REMARK    1  A    between atoms: N1_1  and  C1_5 
REMARK    2  A    between atoms: C1_5  and  C2_6 
REMARK       I    between atoms: C2_6  and  N2_8 
REMARK    3  A    between atoms: N2_8  and  N3_10 
REMARK    4  A    between atoms: C3_12  and  C4_13 
REMARK    5  A    between atoms: C7_18  and  C8_19 
ROOT
HETATM    1  N3  UNL     1      20.346  15.672  18.362  1.00  0.00    -0.307 N 
ATOM      2  H3  UNL     1      20.505  15.151  19.224  1.00  0.00     0.186 HD
HETATM    3  C3  UNL     1      19.298  15.467  17.690  1.00  0.00     0.137 C 
ENDROOT
BRANCH   1   4
HETATM    4  N2  UNL     1      21.284  16.602  17.934  1.00  0.00    -0.269 N 
HETATM    5  C2  UNL     1      22.656  16.303  18.030  1.00  0.00     0.261 C 
HETATM    6  O1  UNL     1      23.039  15.216  18.494  1.00  0.00    -0.270 OA
ATOM      7  H2  UNL     1      20.980  17.497  17.553  1.00  0.00     0.190 HD
BRANCH   5   8
HETATM    8  C1  UNL     1      23.662  17.277  17.582  1.00  0.00     0.333 C 
BRANCH   8   9
HETATM    9  N1  UNL     1      23.407  17.623  16.224  1.00  0.00    -0.071 N 
ATOM     10  H13 UNL     1      22.412  17.731  16.032  1.00  0.00     0.274 HD
ATOM     11  H12 UNL     1      23.701  18.575  16.004  1.00  0.00     0.274 HD
ATOM     12  H11 UNL     1      23.845  16.932  15.614  1.00  0.00     0.274 HD
ENDBRANCH   8   9
ENDBRANCH   5   8
ENDBRANCH   1   4
BRANCH   3  13
HETATM   13  C4  UNL     1      18.245  14.507  18.056  1.00  0.00     0.062 A 
HETATM   14  N4  UNL     1      18.325  13.166  17.963  1.00  0.00    -0.364 N 
HETATM   15  C5  UNL     1      17.202  12.578  18.375  1.00  0.00     0.089 A 
ATOM     16  H4  UNL     1      19.143  12.663  17.620  1.00  0.00     0.165 HD
HETATM   17  C6  UNL     1      16.364  13.588  18.749  1.00  0.00     0.034 A 
HETATM   18  C7  UNL     1      17.005  14.823  18.556  1.00  0.00     0.031 A 
BRANCH  18  19
HETATM   19  C8  UNL     1      16.412  16.131  18.848  1.00  0.00     0.272 C 
HETATM   20  O2  UNL     1      15.148  16.201  18.851  1.00  0.00    -0.301 OA
ENDBRANCH  18  19
ENDBRANCH   3  13
TORSDOF 5
ENDMDL
MODEL 3
REMARK VINA RESULT: -6.398313620      2.119      5.794
REMARK  5 active torsions:
REMARK  status: ('A' for Active; 'I' for Inactive)
REMARK    1  A    between atoms: N1_1  and  C1_5 
REMARK    2  A    between atoms: C1_5  and  C2_6 
REMARK       I    between atoms: C2_6  and  N2_8 
REMARK    3  A    between atoms: N2_8  and  N3_10 
REMARK    4  A    between atoms: C3_12  and  C4_13 
REMARK    5  A    between atoms: C7_18  and  C8_19 
ROOT
HETATM    1  N3  UNL     1      18.541  14.545  17.217  1.00  0.00    -0.307 N 
ATOM      2  H3  UNL     1      18.265  14.953  16.323  1.00  0.00     0.186 HD
HETATM    3  C3  UNL     1      19.424  15.109  17.918  1.00  0.00     0.137 C 
ENDROOT
BRANCH   1   4
HETATM    4  N2  UNL     1      17.942  13.371  17.653  1.00  0.00    -0.269 N 
HETATM    5  C2  UNL     1      16.682  13.422  18.280  1.00  0.00     0.261 C 
HETATM    6  O1  UNL     1      16.099  14.506  18.449  1.00  0.00    -0.270 OA
ATOM      7  H2  UNL     1      18.412  12.476  17.520  1.00  0.00     0.190 HD
BRANCH   5   8
HETATM    8  C1  UNL     1      16.034  12.188  18.748  1.00  0.00     0.333 C 
BRANCH   8   9
HETATM    9  N1  UNL     1      16.472  11.904  20.074  1.00  0.00    -0.071 N 
ATOM     10  H13 UNL     1      17.480  12.013  20.181  1.00  0.00     0.274 HD
ATOM     11  H12 UNL     1      16.177  12.618  20.741  1.00  0.00     0.274 HD
ATOM     12  H11 UNL     1      16.154  10.971  20.339  1.00  0.00     0.274 HD
ENDBRANCH   8   9
ENDBRANCH   5   8
ENDBRANCH   1   4
BRANCH   3  13
HETATM   13  C4  UNL     1      20.116  16.354  17.547  1.00  0.00     0.062 A 
HETATM   14  N4  UNL     1      19.533  17.492  17.123  1.00  0.00    -0.364 N 
HETATM   15  C5  UNL     1      20.435  18.439  16.867  1.00  0.00     0.089 A 
ATOM     16  H4  UNL     1      18.526  17.613  17.012  1.00  0.00     0.165 HD
HETATM   17  C6  UNL     1      21.652  17.883  17.139  1.00  0.00     0.034 A 
HETATM   18  C7  UNL     1      21.474  16.559  17.573  1.00  0.00     0.031 A 
BRANCH  18  19
HETATM   19  C8  UNL     1      22.557  15.649  17.955  1.00  0.00     0.272 C 
HETATM   20  O2  UNL     1      23.329  16.030  18.884  1.00  0.00    -0.301 OA
ENDBRANCH  18  19
ENDBRANCH   3  13
TORSDOF 5
ENDMDL
MODEL 4
REMARK VINA RESULT: -6.252347641      2.727      6.350
REMARK  5 active torsions:
REMARK  status: ('A' for Active; 'I' for Inactive)
REMARK    1  A    between atoms: N1_1  and  C1_5 
REMARK    2  A    between atoms: C1_5  and  C2_6 
REMARK       I    between atoms: C2_6  and  N2_8 
REMARK    3  A    between atoms: N2_8  and  N3_10 
REMARK    4  A    between atoms: C3_12  and  C4_13 
REMARK    5  A    between atoms: C7_18  and  C8_19 
ROOT
HETATM    1  N3  UNL     1      16.514  13.262  18.900  1.00  0.00    -0.307 N 
ATOM      2  H3  UNL     1      16.536  13.974  19.630  1.00  0.00     0.186 HD
HETATM    3  C3  UNL     1      17.446  13.205  18.052  1.00  0.00     0.137 C 
ENDROOT
BRANCH   1   4
HETATM    4  N2  UNL     1      15.458  12.362  18.844  1.00  0.00    -0.269 N 
HETATM    5  C2  UNL     1      15.594  11.091  19.435  1.00  0.00     0.261 C 
HETATM    6  O1  UNL     1      16.648  10.764  20.006  1.00  0.00    -0.270 OA
ATOM      7  H2  UNL     1      14.589  12.620  18.378  1.00  0.00     0.190 HD
BRANCH   5   8
HETATM    8  C1  UNL     1      14.486  10.126  19.385  1.00  0.00     0.333 C 
BRANCH   8   9
HETATM    9  N1  UNL     1      14.095   9.793  20.714  1.00  0.00    -0.071 N 
ATOM     10  H13 UNL     1      14.466  10.448  21.402  1.00  0.00     0.274 HD
ATOM     11  H12 UNL     1      13.102   9.958  20.879  1.00  0.00     0.274 HD
ATOM     12  H11 UNL     1      14.366   8.830  20.912  1.00  0.00     0.274 HD
ENDBRANCH   8   9
ENDBRANCH   5   8
ENDBRANCH   1   4
BRANCH   3  13
HETATM   13  C4  UNL     1      18.607  14.109  18.025  1.00  0.00     0.062 A 
HETATM   14  N4  UNL     1      18.975  14.899  16.997  1.00  0.00    -0.364 N 
HETATM   15  C5  UNL     1      20.072  15.599  17.286  1.00  0.00     0.089 A 
ATOM     16  H4  UNL     1      18.478  14.953  16.109  1.00  0.00     0.165 HD
HETATM   17  C6  UNL     1      20.423  15.242  18.557  1.00  0.00     0.034 A 
HETATM   18  C7  UNL     1      19.506  14.298  19.046  1.00  0.00     0.031 A 
BRANCH  18  19
HETATM   19  C8  UNL     1      19.562  13.685  20.376  1.00  0.00     0.272 C 
HETATM   20  O2  UNL     1      18.503  13.716  21.069  1.00  0.00    -0.301 OA
ENDBRANCH  18  19
ENDBRANCH   3  13
TORSDOF 5
ENDMDL
MODEL 5
REMARK VINA RESULT: -6.230983073      2.213      6.075
REMARK  5 active torsions:
REMARK  status: ('A' for Active; 'I' for Inactive)
REMARK    1  A    between atoms: N1_1  and  C1_5 
REMARK    2  A    between atoms: C1_5  and  C2_6 
REMARK       I    between atoms: C2_6  and  N2_8 
REMARK    3  A    between atoms: N2_8  and  N3_10 
REMARK    4  A    between atoms: C3_12  and  C4_13 
REMARK    5  A    between atoms: C7_18  and  C8_19 
ROOT
HETATM    1  N3  UNL     1      18.701  15.414  18.354  1.00  0.00    -0.307 N 
ATOM      2  H3  UNL     1      18.734  16.082  19.125  1.00  0.00     0.186 HD
HETATM    3  C3  UNL     1      19.670  15.333  17.552  1.00  0.00     0.137 C 
ENDROOT
BRANCH   1   4
HETATM    4  N2  UNL     1      17.587  14.600  18.194  1.00  0.00    -0.269 N 
HETATM    5  C2  UNL     1      17.493  13.397  18.918  1.00  0.00     0.261 C 
HETATM    6  O1  UNL     1      18.396  13.052  19.700  1.00  0.00    -0.270 OA
ATOM      7  H2  UNL     1      16.841  14.873  17.555  1.00  0.00     0.190 HD
BRANCH   5   8
HETATM    8  C1  UNL     1      16.321  12.523  18.760  1.00  0.00     0.333 C 
BRANCH   8   9
HETATM    9  N1  UNL     1      16.189  11.703  19.918  1.00  0.00    -0.071 N 
ATOM     10  H13 UNL     1      16.867  10.943  19.933  1.00  0.00     0.274 HD
ATOM     11  H12 UNL     1      16.489  12.181  20.768  1.00  0.00     0.274 HD
ATOM     12  H11 UNL     1      15.228  11.366  19.982  1.00  0.00     0.274 HD
ENDBRANCH   8   9
ENDBRANCH   5   8
ENDBRANCH   1   4
BRANCH   3  13
HETATM   13  C4  UNL     1      20.894  16.147  17.635  1.00  0.00     0.062 A 
HETATM   14  N4  UNL     1      22.094  15.734  18.086  1.00  0.00    -0.364 N 
HETATM   15  C5  UNL     1      23.000  16.711  18.033  1.00  0.00     0.089 A 
ATOM     16  H4  UNL     1      22.285  14.792  18.426  1.00  0.00     0.165 HD
HETATM   17  C6  UNL     1      22.350  17.799  17.525  1.00  0.00     0.034 A 
HETATM   18  C7  UNL     1      21.012  17.464  17.264  1.00  0.00     0.031 A 
BRANCH  18  19
HETATM   19  C8  UNL     1      20.010  18.381  16.714  1.00  0.00     0.272 C 
HETATM   20  O2  UNL     1      20.440  19.390  16.081  1.00  0.00    -0.301 OA
ENDBRANCH  18  19
ENDBRANCH   3  13
TORSDOF 5
ENDMDL
