MODEL 1
REMARK VINA RESULT: -7.882807721      0.000      0.000
REMARK  4 active torsions:
REMARK  status: ('A' for Active; 'I' for Inactive)
REMARK       I    between atoms: C1_2  and  N2_3 
REMARK       I    between atoms: N3_5  and  C2_7 
REMARK       I    between atoms: C2_7  and  N4_9 
REMARK    1  A    between atoms: N4_9  and  C3_11 
REMARK    2  A    between atoms: N5_17  and  C9_19 
REMARK    3  A    between atoms: C9_19  and  C10_20 
REMARK    4  A    between atoms: C11_21  and  C12_22 
ROOT
HETATM    1  N1  UNL     1       2.438  16.923  44.927  1.00  0.00    -0.062 NA
HETATM    2  C1  UNL     1       2.970  17.049  43.638  1.00  0.00     0.203 C 
HETATM    3  N2  UNL     1       4.170  17.763  43.438  1.00  0.00    -0.270 N 
ATOM      4  H2  UNL     1       5.053  17.274  43.295  1.00  0.00     0.189 HD
HETATM    5  N3  UNL     1       4.120  19.021  43.442  1.00  0.00    -0.249 N 
ATOM      6  H3  UNL     1       3.208  19.451  43.591  1.00  0.00     0.192 HD
HETATM    7  C2  UNL     1       5.215  19.885  43.259  1.00  0.00     0.335 C 
HETATM    8  O1  UNL     1       6.339  19.568  43.680  1.00  0.00    -0.246 OA
HETATM    9  N4  UNL     1       5.021  21.109  42.595  1.00  0.00    -0.337 N 
ATOM     10  H4  UNL     1       4.083  21.336  42.264  1.00  0.00     0.164 HD
HETATM   11  N5  UNL     1       2.378  16.521  42.636  1.00  0.00    -0.360 N 
ATOM     12  H5  UNL     1       2.779  16.623  41.704  1.00  0.00     0.162 HD
ENDROOT
BRANCH   9  13
HETATM   13  C3  UNL     1       6.091  22.074  42.355  1.00  0.00     0.086 C 
HETATM   14  C4  UNL     1       6.813  21.689  41.116  1.00  0.00     0.025 C 
HETATM   15  C5  UNL     1       7.425  22.792  40.339  1.00  0.00     0.002 C 
HETATM   16  C6  UNL     1       7.541  24.057  41.200  1.00  0.00     0.000 C 
HETATM   17  C7  UNL     1       6.074  24.428  41.456  1.00  0.00     0.002 C 
HETATM   18  C8  UNL     1       5.524  23.436  42.411  1.00  0.00     0.025 C 
ENDBRANCH   9  13
BRANCH  11  19
HETATM   19  C9  UNL     1       1.122  15.767  42.810  1.00  0.00     0.149 C 
BRANCH  19  20
HETATM   20  C10 UNL     1       0.693  15.333  41.476  1.00  0.00    -0.010 C 
HETATM   21  C11 UNL     1       0.026  16.081  40.660  1.00  0.00    -0.014 C 
BRANCH  21  22
HETATM   22  C12 UNL     1      -0.411  17.460  40.908  1.00  0.00     0.141 C 
HETATM   23 CL1  UNL     1      -0.037  18.516  39.499  1.00  0.00    -0.126 Cl
ENDBRANCH  21  22
ENDBRANCH  19  20
ENDBRANCH  11  19
TORSDOF 4
ENDMDL
MODEL 2
REMARK VINA RESULT: -7.737311385      0.959      1.136
REMARK  4 active torsions:
REMARK  status: ('A' for Active; 'I' for Inactive)
REMARK       I    between atoms: C1_2  and  N2_3 
REMARK       I    between atoms: N3_5  and  C2_7 
REMARK       I    between atoms: C2_7  and  N4_9 
REMARK    1  A    between atoms: N4_9  and  C3_11 
REMARK    2  A    between atoms: N5_17  and  C9_19 
REMARK    3  A    between atoms: C9_19  and  C10_20 
REMARK    4  A    between atoms: C11_21  and  C12_22 
ROOT
HETATM    1  N1  UNL     1       1.922  16.718  43.996  1.00  0.00    -0.062 NA
HETATM    2  C1  UNL     1       2.517  17.056  42.774  1.00  0.00     0.203 C 
HETATM    3  N2  UNL     1       3.751  17.738  42.757  1.00  0.00    -0.270 N 
ATOM      4  H2  UNL     1       4.620  17.244  42.558  1.00  0.00     0.189 HD
HETATM    5  N3  UNL     1       3.750  18.975  42.994  1.00  0.00    -0.249 N 
ATOM      6  H3  UNL     1       2.849  19.412  43.186  1.00  0.00     0.192 HD
HETATM    7  C2  UNL     1       4.884  19.806  43.017  1.00  0.00     0.335 C 
HETATM    8  O1  UNL     1       5.975  19.365  43.414  1.00  0.00    -0.246 OA
HETATM    9  N4  UNL     1       4.767  21.140  42.587  1.00  0.00    -0.337 N 
ATOM     10  H4  UNL     1       3.855  21.467  42.269  1.00  0.00     0.164 HD
HETATM   11  N5  UNL     1       1.952  16.751  41.669  1.00  0.00    -0.360 N 
ATOM     12  H5  UNL     1       2.399  17.004  40.788  1.00  0.00     0.162 HD
ENDROOT
BRANCH   9  13
HETATM   13  C3  UNL     1       5.884  22.082  42.573  1.00  0.00     0.086 C 
HETATM   14  C4  UNL     1       6.750  21.780  41.405  1.00  0.00     0.025 C 
HETATM   15  C5  UNL     1       7.485  22.922  40.815  1.00  0.00     0.002 C 
HETATM   16  C6  UNL     1       7.520  24.102  41.795  1.00  0.00     0.000 C 
HETATM   17  C7  UNL     1       6.042  24.504  41.896  1.00  0.00     0.002 C 
HETATM   18  C8  UNL     1       5.349  23.453  42.680  1.00  0.00     0.025 C 
ENDBRANCH   9  13
BRANCH  11  19
HETATM   19  C9  UNL     1       0.662  16.036  41.652  1.00  0.00     0.149 C 
BRANCH  19  20
HETATM   20  C10 UNL     1      -0.347  16.983  41.163  1.00  0.00    -0.010 C 
HETATM   21  C11 UNL     1      -0.392  17.417  39.947  1.00  0.00    -0.014 C 
BRANCH  21  22
HETATM   22  C12 UNL     1       0.529  17.055  38.863  1.00  0.00     0.141 C 
HETATM   23 CL1  UNL     1      -0.016  17.755  37.296  1.00  0.00    -0.126 Cl
ENDBRANCH  21  22
ENDBRANCH  19  20
ENDBRANCH  11  19
TORSDOF 4
ENDMDL
MODEL 3
REMARK VINA RESULT: -7.675754334      2.899      7.764
REMARK  4 active torsions:
REMARK  status: ('A' for Active; 'I' for Inactive)
REMARK       I    between atoms: C1_2  and  N2_3 
REMARK       I    between atoms: N3_5  and  C2_7 
REMARK       I    between atoms: C2_7  and  N4_9 
REMARK    1  A    between atoms: N4_9  and  C3_11 
REMARK    2  A    between atoms: N5_17  and  C9_19 
REMARK    3  A    between atoms: C9_19  and  C10_20 
REMARK    4  A    between atoms: C11_21  and  C12_22 
ROOT
HETATM    1  N1  UNL     1       6.723  19.621  43.764  1.00  0.00    -0.062 NA
HETATM    2  C1  UNL     1       5.837  20.275  42.899  1.00  0.00     0.203 C 
HETATM    3  N2  UNL     1       4.555  19.738  42.665  1.00  0.00    -0.270 N 
ATOM      4  H2  UNL     1       3.731  20.132  43.120  1.00  0.00     0.189 HD
HETATM    5  N3  UNL     1       4.454  18.759  41.880  1.00  0.00    -0.249 N 
ATOM      6  H3  UNL     1       5.314  18.410  41.457  1.00  0.00     0.192 HD
HETATM    7  C2  UNL     1       3.258  18.104  41.536  1.00  0.00     0.335 C 
HETATM    8  O1  UNL     1       2.344  17.992  42.369  1.00  0.00    -0.246 OA
HETATM    9  N4  UNL     1       3.112  17.577  40.240  1.00  0.00    -0.337 N 
ATOM     10  H4  UNL     1       3.884  17.687  39.584  1.00  0.00     0.164 HD
HETATM   11  N5  UNL     1       6.180  21.360  42.316  1.00  0.00    -0.360 N 
ATOM     12  H5  UNL     1       5.524  21.823  41.688  1.00  0.00     0.162 HD
ENDROOT
BRANCH   9  13
HETATM   13  C3  UNL     1       1.911  16.880  39.785  1.00  0.00     0.086 C 
HETATM   14  C4  UNL     1       0.934  17.883  39.291  1.00  0.00     0.025 C 
HETATM   15  C5  UNL     1       0.012  17.436  38.222  1.00  0.00     0.002 C 
HETATM   16  C6  UNL     1      -0.016  15.903  38.142  1.00  0.00     0.000 C 
HETATM   17  C7  UNL     1       1.412  15.560  37.697  1.00  0.00     0.002 C 
HETATM   18  C8  UNL     1       2.309  15.809  38.851  1.00  0.00     0.025 C 
ENDBRANCH   9  13
BRANCH  11  19
HETATM   19  C9  UNL     1       7.514  21.949  42.539  1.00  0.00     0.149 C 
BRANCH  19  20
HETATM   20  C10 UNL     1       7.307  23.348  42.928  1.00  0.00    -0.010 C 
HETATM   21  C11 UNL     1       7.268  24.327  42.085  1.00  0.00    -0.014 C 
BRANCH  21  22
HETATM   22  C12 UNL     1       7.420  24.224  40.629  1.00  0.00     0.141 C 
HETATM   23 CL1  UNL     1       5.847  23.835  39.844  1.00  0.00    -0.126 Cl
ENDBRANCH  21  22
ENDBRANCH  19  20
ENDBRANCH  11  19
TORSDOF 4
ENDMDL
MODEL 4
REMARK VINA RESULT: -7.669091566      2.648      8.149
REMARK  4 active torsions:
REMARK  status: ('A' for Active; 'I' for Inactive)
REMARK       I    between atoms: C1_2  and  N2_3 
REMARK       I    between atoms: N3_5  and  C2_7 
REMARK       I    between atoms: C2_7  and  N4_9 
REMARK    1  A    between atoms: N4_9  and  C3_11 
REMARK    2  A    between atoms: N5_17  and  C9_19 
REMARK    3  A    between atoms: C9_19  and  C10_20 
REMARK    4  A    between atoms: C11_21  and  C12_22 
ROOT
HETATM    1  N1  UNL     1       7.248  19.797  43.838  1.00  0.00    -0.062 NA
HETATM    2  C1  UNL     1       6.116  20.074  43.062  1.00  0.00     0.203 C 
HETATM    3  N2  UNL     1       4.851  19.605  43.470  1.00  0.00    -0.270 N 
ATOM      4  H2  UNL     1       4.177  20.232  43.910  1.00  0.00     0.189 HD
HETATM    5  N3  UNL     1       4.574  18.392  43.276  1.00  0.00    -0.249 N 
ATOM      6  H3  UNL     1       5.289  17.817  42.831  1.00  0.00     0.192 HD
HETATM    7  C2  UNL     1       3.365  17.762  43.619  1.00  0.00     0.335 C 
HETATM    8  O1  UNL     1       2.742  18.114  44.633  1.00  0.00    -0.246 OA
HETATM    9  N4  UNL     1       2.873  16.728  42.802  1.00  0.00    -0.337 N 
ATOM     10  H4  UNL     1       3.412  16.465  41.977  1.00  0.00     0.164 HD
HETATM   11  N5  UNL     1       6.218  20.749  41.982  1.00  0.00    -0.360 N 
ATOM     12  H5  UNL     1       5.384  20.942  41.428  1.00  0.00     0.162 HD
ENDROOT
BRANCH   9  13
HETATM   13  C3  UNL     1       1.628  16.012  43.071  1.00  0.00     0.086 C 
HETATM   14  C4  UNL     1       0.920  15.782  41.787  1.00  0.00     0.025 C 
HETATM   15  C5  UNL     1       0.069  14.573  41.709  1.00  0.00     0.002 C 
HETATM   16  C6  UNL     1      -0.232  14.036  43.115  1.00  0.00     0.000 C 
HETATM   17  C7  UNL     1       1.151  13.598  43.614  1.00  0.00     0.002 C 
HETATM   18  C8  UNL     1       1.932  14.827  43.896  1.00  0.00     0.025 C 
ENDBRANCH   9  13
BRANCH  11  19
HETATM   19  C9  UNL     1       7.527  21.255  41.527  1.00  0.00     0.149 C 
BRANCH  19  20
HETATM   20  C10 UNL     1       7.266  22.425  40.681  1.00  0.00    -0.010 C 
HETATM   21  C11 UNL     1       7.302  23.642  41.114  1.00  0.00    -0.014 C 
BRANCH  21  22
HETATM   22  C12 UNL     1       7.599  24.067  42.487  1.00  0.00     0.141 C 
HETATM   23 CL1  UNL     1       6.086  24.256  43.443  1.00  0.00    -0.126 Cl
ENDBRANCH  21  22
ENDBRANCH  19  20
ENDBRANCH  11  19
TORSDOF 4
ENDMDL
MODEL 5
REMARK VINA RESULT: -7.642354319      2.282      2.582
REMARK  4 active torsions:
REMARK  status: ('A' for Active; 'I' for Inactive)
REMARK       I    between atoms: C1_2  and  N2_3 
REMARK       I    between atoms: N3_5  and  C2_7 
REMARK       I    between atoms: C2_7  and  N4_9 
REMARK    1  A    between atoms: N4_9  and  C3_11 
REMARK    2  A    between atoms: N5_17  and  C9_19 
REMARK    3  A    between atoms: C9_19  and  C10_20 
REMARK    4  A    between atoms: C11_21  and  C12_22 
ROOT
HETATM    1  N1  UNL     1       2.438  17.162  42.300  1.00  0.00    -0.062 NA
HETATM    2  C1  UNL     1       3.198  17.660  43.366  1.00  0.00     0.203 C 
HETATM    3  N2  UNL     1       3.669  18.988  43.336  1.00  0.00    -0.270 N 
ATOM      4  H2  UNL     1       3.209  19.719  43.878  1.00  0.00     0.189 HD
HETATM    5  N3  UNL     1       4.672  19.247  42.620  1.00  0.00    -0.249 N 
ATOM      6  H3  UNL     1       5.086  18.474  42.101  1.00  0.00     0.192 HD
HETATM    7  C2  UNL     1       5.270  20.512  42.474  1.00  0.00     0.335 C 
HETATM    8  O1  UNL     1       4.575  21.540  42.504  1.00  0.00    -0.246 OA
HETATM    9  N4  UNL     1       6.662  20.596  42.293  1.00  0.00    -0.337 N 
ATOM     10  H4  UNL     1       7.200  19.730  42.272  1.00  0.00     0.164 HD
HETATM   11  N5  UNL     1       3.470  16.919  44.372  1.00  0.00    -0.360 N 
ATOM     12  H5  UNL     1       4.024  17.297  45.140  1.00  0.00     0.162 HD
ENDROOT
BRANCH   9  13
HETATM   13  C3  UNL     1       7.378  21.860  42.132  1.00  0.00     0.086 C 
HETATM   14  C4  UNL     1       7.194  22.341  40.740  1.00  0.00     0.025 C 
HETATM   15  C5  UNL     1       7.221  23.808  40.539  1.00  0.00     0.002 C 
HETATM   16  C6  UNL     1       7.852  24.504  41.752  1.00  0.00     0.000 C 
HETATM   17  C7  UNL     1       6.847  24.209  42.874  1.00  0.00     0.002 C 
HETATM   18  C8  UNL     1       6.979  22.773  43.221  1.00  0.00     0.025 C 
ENDBRANCH   9  13
BRANCH  11  19
HETATM   19  C9  UNL     1       2.992  15.525  44.435  1.00  0.00     0.149 C 
BRANCH  19  20
HETATM   20  C10 UNL     1       1.718  15.540  45.162  1.00  0.00    -0.010 C 
HETATM   21  C11 UNL     1       0.730  14.752  44.891  1.00  0.00    -0.014 C 
BRANCH  21  22
HETATM   22  C12 UNL     1       0.700  13.729  43.839  1.00  0.00     0.141 C 
HETATM   23 CL1  UNL     1       0.036  14.402  42.307  1.00  0.00    -0.126 Cl
ENDBRANCH  21  22
ENDBRANCH  19  20
ENDBRANCH  11  19
TORSDOF 4
ENDMDL
