MODEL 1
REMARK VINA RESULT: -8.562864961      0.000      0.000
REMARK  4 active torsions:
REMARK  status: ('A' for Active; 'I' for Inactive)
REMARK    1  A    between atoms: C2_2  and  C5_5 
REMARK    2  A    between atoms: C5_5  and  N1_6 
REMARK       I    between atoms: N1_6  and  C6_8 
REMARK       I    between atoms: C6_8  and  N2_10 
REMARK    3  A    between atoms: N2_10  and  C7_12 
REMARK    4  A    between atoms: C7_12  and  C8_13 
ROOT
HETATM    1  N1  UNL     1       5.397  21.290  42.312  1.00  0.00    -0.322 N 
ATOM      2  H1  UNL     1       4.601  21.650  41.785  1.00  0.00     0.169 HD
HETATM    3  C6  UNL     1       5.207  20.035  42.852  1.00  0.00     0.319 C 
HETATM    4  O1  UNL     1       6.001  19.326  43.519  1.00  0.00    -0.247 OA
HETATM    5  N2  UNL     1       3.912  19.390  42.647  1.00  0.00    -0.342 N 
ATOM      6  H2  UNL     1       3.193  19.882  42.116  1.00  0.00     0.164 HD
ENDROOT
BRANCH   5   7
HETATM    7  C7  UNL     1       3.616  18.078  43.173  1.00  0.00     0.133 C 
BRANCH   7   8
HETATM    8  C8  UNL     1       2.758  17.350  42.176  1.00  0.00    -0.023 C 
HETATM    9  C9  UNL     1       3.298  17.652  40.795  1.00  0.00     0.015 C 
HETATM   10  C10 UNL     1       2.442  17.008  39.731  1.00  0.00    -0.013 C 
HETATM   11  C11 UNL     1       1.026  17.513  39.872  1.00  0.00     0.009 C 
HETATM   12  C15 UNL     1       2.443  15.522  39.914  1.00  0.00     0.009 C 
HETATM   13  C12 UNL     1       0.495  17.128  41.216  1.00  0.00    -0.013 C 
HETATM   14  C13 UNL     1       0.589  15.658  41.493  1.00  0.00     0.009 C 
HETATM   15  C17 UNL     1       1.347  17.841  42.273  1.00  0.00     0.015 C 
HETATM   16  C14 UNL     1       2.020  15.172  41.319  1.00  0.00    -0.013 C 
HETATM   17  C16 UNL     1       2.853  15.845  42.362  1.00  0.00     0.015 C 
ENDBRANCH   7   8
ENDBRANCH   5   7
BRANCH   1  18
HETATM   18  C5  UNL     1       6.502  22.156  42.365  1.00  0.00     0.074 C 
BRANCH  18  19
HETATM   19  C2  UNL     1       6.334  23.452  41.657  1.00  0.00    -0.019 C 
HETATM   20  C1  UNL     1       7.295  23.462  40.475  1.00  0.00     0.020 C 
HETATM   21  C3  UNL     1       6.920  24.499  42.698  1.00  0.00     0.020 C 
HETATM   22  C4  UNL     1       4.958  23.847  41.336  1.00  0.00     0.020 C 
ENDBRANCH  18  19
ENDBRANCH   1  18
TORSDOF 4
ENDMDL
MODEL 2
REMARK VINA RESULT: -8.502679724      0.154      1.014
REMARK  4 active torsions:
REMARK  status: ('A' for Active; 'I' for Inactive)
REMARK    1  A    between atoms: C2_2  and  C5_5 
REMARK    2  A    between atoms: C5_5  and  N1_6 
REMARK       I    between atoms: N1_6  and  C6_8 
REMARK       I    between atoms: C6_8  and  N2_10 
REMARK    3  A    between atoms: N2_10  and  C7_12 
REMARK    4  A    between atoms: C7_12  and  C8_13 
ROOT
HETATM    1  N1  UNL     1       5.434  21.221  42.284  1.00  0.00    -0.322 N 
ATOM      2  H1  UNL     1       4.639  21.596  41.766  1.00  0.00     0.169 HD
HETATM    3  C6  UNL     1       5.218  19.978  42.843  1.00  0.00     0.319 C 
HETATM    4  O1  UNL     1       6.004  19.256  43.506  1.00  0.00    -0.247 OA
HETATM    5  N2  UNL     1       3.903  19.367  42.669  1.00  0.00    -0.342 N 
ATOM      6  H2  UNL     1       3.189  19.873  42.143  1.00  0.00     0.164 HD
ENDROOT
BRANCH   5   7
HETATM    7  C7  UNL     1       3.580  18.071  43.216  1.00  0.00     0.133 C 
BRANCH   7   8
HETATM    8  C8  UNL     1       2.733  17.332  42.218  1.00  0.00    -0.023 C 
HETATM    9  C9  UNL     1       3.269  17.643  40.838  1.00  0.00     0.015 C 
HETATM   10  C10 UNL     1       2.422  16.988  39.773  1.00  0.00    -0.013 C 
HETATM   11  C11 UNL     1       0.999  17.474  39.913  1.00  0.00     0.009 C 
HETATM   12  C15 UNL     1       2.444  15.502  39.954  1.00  0.00     0.009 C 
HETATM   13  C12 UNL     1       0.473  17.080  41.256  1.00  0.00    -0.013 C 
HETATM   14  C13 UNL     1       0.587  15.611  41.531  1.00  0.00     0.009 C 
HETATM   15  C17 UNL     1       1.314  17.803  42.314  1.00  0.00     0.015 C 
HETATM   16  C14 UNL     1       2.025  15.145  41.358  1.00  0.00    -0.013 C 
HETATM   17  C16 UNL     1       2.848  15.828  42.403  1.00  0.00     0.015 C 
ENDBRANCH   7   8
ENDBRANCH   5   7
BRANCH   1  18
HETATM   18  C5  UNL     1       6.563  22.056  42.307  1.00  0.00     0.074 C 
BRANCH  18  19
HETATM   19  C2  UNL     1       6.333  23.457  41.866  1.00  0.00    -0.019 C 
HETATM   20  C1  UNL     1       4.829  23.654  41.717  1.00  0.00     0.020 C 
HETATM   21  C3  UNL     1       6.916  23.460  40.389  1.00  0.00     0.020 C 
HETATM   22  C4  UNL     1       7.019  24.503  42.632  1.00  0.00     0.020 C 
ENDBRANCH  18  19
ENDBRANCH   1  18
TORSDOF 4
ENDMDL
MODEL 3
REMARK VINA RESULT: -8.501913615      0.094      1.653
REMARK  4 active torsions:
REMARK  status: ('A' for Active; 'I' for Inactive)
REMARK    1  A    between atoms: C2_2  and  C5_5 
REMARK    2  A    between atoms: C5_5  and  N1_6 
REMARK       I    between atoms: N1_6  and  C6_8 
REMARK       I    between atoms: C6_8  and  N2_10 
REMARK    3  A    between atoms: N2_10  and  C7_12 
REMARK    4  A    between atoms: C7_12  and  C8_13 
ROOT
HETATM    1  N1  UNL     1       5.394  21.281  42.302  1.00  0.00    -0.322 N 
ATOM      2  H1  UNL     1       4.599  21.645  41.775  1.00  0.00     0.169 HD
HETATM    3  C6  UNL     1       5.202  20.022  42.832  1.00  0.00     0.319 C 
HETATM    4  O1  UNL     1       5.993  19.307  43.495  1.00  0.00    -0.247 OA
HETATM    5  N2  UNL     1       3.907  19.378  42.618  1.00  0.00    -0.342 N 
ATOM      6  H2  UNL     1       3.190  19.875  42.088  1.00  0.00     0.164 HD
ENDROOT
BRANCH   5   7
HETATM    7  C7  UNL     1       3.609  18.063  43.132  1.00  0.00     0.133 C 
BRANCH   7   8
HETATM    8  C8  UNL     1       2.772  17.335  42.118  1.00  0.00    -0.023 C 
HETATM    9  C9  UNL     1       1.350  17.833  42.251  1.00  0.00     0.015 C 
HETATM   10  C10 UNL     1       0.431  17.095  41.307  1.00  0.00    -0.013 C 
HETATM   11  C11 UNL     1       0.508  15.616  41.607  1.00  0.00     0.009 C 
HETATM   12  C15 UNL     1       0.871  17.322  39.894  1.00  0.00     0.009 C 
HETATM   13  C12 UNL     1       1.909  15.140  41.388  1.00  0.00    -0.013 C 
HETATM   14  C13 UNL     1       2.437  15.457  40.021  1.00  0.00     0.009 C 
HETATM   15  C17 UNL     1       2.808  15.864  42.397  1.00  0.00     0.015 C 
HETATM   16  C14 UNL     1       2.324  16.947  39.736  1.00  0.00    -0.013 C 
HETATM   17  C16 UNL     1       3.217  17.658  40.701  1.00  0.00     0.015 C 
ENDBRANCH   7   8
ENDBRANCH   5   7
BRANCH   1  18
HETATM   18  C5  UNL     1       6.499  22.146  42.365  1.00  0.00     0.074 C 
BRANCH  18  19
HETATM   19  C2  UNL     1       6.336  23.445  41.663  1.00  0.00    -0.019 C 
HETATM   20  C1  UNL     1       7.304  23.461  40.486  1.00  0.00     0.020 C 
HETATM   21  C3  UNL     1       6.915  24.487  42.712  1.00  0.00     0.020 C 
HETATM   22  C4  UNL     1       4.961  23.842  41.335  1.00  0.00     0.020 C 
ENDBRANCH  18  19
ENDBRANCH   1  18
TORSDOF 4
ENDMDL
MODEL 4
REMARK VINA RESULT: -8.422860382      0.107      1.644
REMARK  4 active torsions:
REMARK  status: ('A' for Active; 'I' for Inactive)
REMARK    1  A    between atoms: C2_2  and  C5_5 
REMARK    2  A    between atoms: C5_5  and  N1_6 
REMARK       I    between atoms: N1_6  and  C6_8 
REMARK       I    between atoms: C6_8  and  N2_10 
REMARK    3  A    between atoms: N2_10  and  C7_12 
REMARK    4  A    between atoms: C7_12  and  C8_13 
ROOT
HETATM    1  N1  UNL     1       5.468  21.285  42.307  1.00  0.00    -0.322 N 
ATOM      2  H1  UNL     1       4.687  21.655  41.765  1.00  0.00     0.169 HD
HETATM    3  C6  UNL     1       5.256  20.028  42.834  1.00  0.00     0.319 C 
HETATM    4  O1  UNL     1       6.028  19.308  43.514  1.00  0.00    -0.247 OA
HETATM    5  N2  UNL     1       3.960  19.395  42.595  1.00  0.00    -0.342 N 
ATOM      6  H2  UNL     1       3.258  19.897  42.051  1.00  0.00     0.164 HD
ENDROOT
BRANCH   5   7
HETATM    7  C7  UNL     1       3.642  18.082  43.104  1.00  0.00     0.133 C 
BRANCH   7   8
HETATM    8  C8  UNL     1       2.739  17.397  42.118  1.00  0.00    -0.023 C 
HETATM    9  C9  UNL     1       2.814  15.908  42.380  1.00  0.00     0.015 C 
HETATM   10  C10 UNL     1       1.983  15.143  41.378  1.00  0.00    -0.013 C 
HETATM   11  C11 UNL     1       2.476  15.464  39.987  1.00  0.00     0.009 C 
HETATM   12  C15 UNL     1       0.550  15.560  41.489  1.00  0.00     0.009 C 
HETATM   13  C12 UNL     1       2.311  16.929  39.731  1.00  0.00    -0.013 C 
HETATM   14  C13 UNL     1       0.911  17.417  39.951  1.00  0.00     0.009 C 
HETATM   15  C17 UNL     1       3.210  17.677  40.724  1.00  0.00     0.015 C 
HETATM   16  C14 UNL     1       0.433  17.058  41.348  1.00  0.00    -0.013 C 
HETATM   17  C16 UNL     1       1.289  17.802  42.322  1.00  0.00     0.015 C 
ENDBRANCH   7   8
ENDBRANCH   5   7
BRANCH   1  18
HETATM   18  C5  UNL     1       6.578  22.142  42.392  1.00  0.00     0.074 C 
BRANCH  18  19
HETATM   19  C2  UNL     1       6.447  23.434  41.671  1.00  0.00    -0.019 C 
HETATM   20  C1  UNL     1       7.443  23.425  40.518  1.00  0.00     0.020 C 
HETATM   21  C3  UNL     1       7.012  24.482  42.721  1.00  0.00     0.020 C 
HETATM   22  C4  UNL     1       5.085  23.841  41.305  1.00  0.00     0.020 C 
ENDBRANCH  18  19
ENDBRANCH   1  18
TORSDOF 4
ENDMDL
MODEL 5
REMARK VINA RESULT: -8.417208402      0.290      1.981
REMARK  4 active torsions:
REMARK  status: ('A' for Active; 'I' for Inactive)
REMARK    1  A    between atoms: C2_2  and  C5_5 
REMARK    2  A    between atoms: C5_5  and  N1_6 
REMARK       I    between atoms: N1_6  and  C6_8 
REMARK       I    between atoms: C6_8  and  N2_10 
REMARK    3  A    between atoms: N2_10  and  C7_12 
REMARK    4  A    between atoms: C7_12  and  C8_13 
ROOT
HETATM    1  N1  UNL     1       5.393  21.261  42.282  1.00  0.00    -0.322 N 
ATOM      2  H1  UNL     1       4.581  21.648  41.801  1.00  0.00     0.169 HD
HETATM    3  C6  UNL     1       5.192  20.010  42.828  1.00  0.00     0.319 C 
HETATM    4  O1  UNL     1       5.998  19.273  43.449  1.00  0.00    -0.247 OA
HETATM    5  N2  UNL     1       3.868  19.407  42.692  1.00  0.00    -0.342 N 
ATOM      6  H2  UNL     1       3.138  19.925  42.203  1.00  0.00     0.164 HD
ENDROOT
BRANCH   5   7
HETATM    7  C7  UNL     1       3.559  18.104  43.229  1.00  0.00     0.133 C 
BRANCH   7   8
HETATM    8  C8  UNL     1       2.759  17.347  42.207  1.00  0.00    -0.023 C 
HETATM    9  C9  UNL     1       1.312  17.766  42.350  1.00  0.00     0.015 C 
HETATM   10  C10 UNL     1       0.432  16.992  41.398  1.00  0.00    -0.013 C 
HETATM   11  C11 UNL     1       0.589  15.516  41.676  1.00  0.00     0.009 C 
HETATM   12  C15 UNL     1       0.854  17.264  39.988  1.00  0.00     0.009 C 
HETATM   13  C12 UNL     1       2.013  15.120  41.446  1.00  0.00    -0.013 C 
HETATM   14  C13 UNL     1       2.518  15.484  40.083  1.00  0.00     0.009 C 
HETATM   15  C17 UNL     1       2.875  15.876  42.464  1.00  0.00     0.015 C 
HETATM   16  C14 UNL     1       2.324  16.969  39.820  1.00  0.00    -0.013 C 
HETATM   17  C16 UNL     1       3.181  17.714  40.793  1.00  0.00     0.015 C 
ENDBRANCH   7   8
ENDBRANCH   5   7
BRANCH   1  18
HETATM   18  C5  UNL     1       6.526  22.091  42.277  1.00  0.00     0.074 C 
BRANCH  18  19
HETATM   19  C2  UNL     1       6.276  23.515  41.935  1.00  0.00    -0.019 C 
HETATM   20  C1  UNL     1       4.782  23.773  42.090  1.00  0.00     0.020 C 
HETATM   21  C3  UNL     1       6.561  23.555  40.373  1.00  0.00     0.020 C 
HETATM   22  C4  UNL     1       7.143  24.504  42.585  1.00  0.00     0.020 C 
ENDBRANCH  18  19
ENDBRANCH   1  18
TORSDOF 4
ENDMDL
