MODEL 1
REMARK VINA RESULT: -8.092850882      0.000      0.000
REMARK  4 active torsions:
REMARK  status: ('A' for Active; 'I' for Inactive)
REMARK    1  A    between atoms: C2_2  and  C3_4 
REMARK    2  A    between atoms: C3_4  and  C4_5 
REMARK    3  A    between atoms: C4_5  and  N1_6 
REMARK       I    between atoms: N1_6  and  C5_8 
REMARK    4  A    between atoms: C5_8  and  C6_10 
ROOT
HETATM    1  C6  UNL     1       6.165  21.624  42.306  1.00  0.00     0.044 C 
HETATM    2  C7  UNL     1       7.208  22.349  43.129  1.00  0.00     0.024 C 
HETATM    3  C8  UNL     1       7.388  23.717  42.539  1.00  0.00    -0.011 C 
HETATM    4  C9  UNL     1       7.761  23.720  41.097  1.00  0.00     0.029 C 
HETATM    5  C10 UNL     1       6.965  22.782  40.251  1.00  0.00     0.078 C 
HETATM    6  C11 UNL     1       6.749  21.468  40.919  1.00  0.00     0.044 C 
HETATM    7  N2  UNL     1       5.713  23.294  39.798  1.00  0.00    -0.416 N 
ATOM      8  H2  UNL     1       5.274  22.976  38.933  1.00  0.00     0.153 HD
HETATM    9  C12 UNL     1       5.117  24.279  40.636  1.00  0.00     0.123 C 
HETATM   10  C13 UNL     1       5.001  23.859  42.087  1.00  0.00    -0.027 C 
HETATM   11  C14 UNL     1       3.704  24.504  42.601  1.00  0.00     0.017 C 
HETATM   12  C15 UNL     1       6.133  24.504  42.834  1.00  0.00     0.015 C 
HETATM   13  C16 UNL     1       4.867  22.396  42.284  1.00  0.00     0.030 C 
ENDROOT
BRANCH   1  14
HETATM   14  C5  UNL     1       5.853  20.292  42.839  1.00  0.00     0.226 C 
HETATM   15  N1  UNL     1       4.554  19.769  42.679  1.00  0.00    -0.360 N 
ATOM     16  H1  UNL     1       3.863  20.339  42.192  1.00  0.00     0.162 HD
HETATM   17  O1  UNL     1       6.723  19.630  43.425  1.00  0.00    -0.273 OA
BRANCH  15  18
HETATM   18  C4  UNL     1       4.150  18.479  43.162  1.00  0.00     0.128 C 
BRANCH  18  19
HETATM   19  C3  UNL     1       2.723  18.116  42.843  1.00  0.00     0.070 C 
BRANCH  19  20
HETATM   20  C2  UNL     1       2.749  17.037  41.837  1.00  0.00     0.004 C 
HETATM   21  C1  UNL     1       2.607  17.306  40.562  1.00  0.00     0.032 C 
HETATM   22 CL1  UNL     1       2.972  15.386  42.347  1.00  0.00    -0.090 Cl
ENDBRANCH  19  20
ENDBRANCH  18  19
ENDBRANCH  15  18
ENDBRANCH   1  14
TORSDOF 4
ENDMDL
MODEL 2
REMARK VINA RESULT: -7.492125639      5.840      8.541
REMARK  4 active torsions:
REMARK  status: ('A' for Active; 'I' for Inactive)
REMARK    1  A    between atoms: C2_2  and  C3_4 
REMARK    2  A    between atoms: C3_4  and  C4_5 
REMARK    3  A    between atoms: C4_5  and  N1_6 
REMARK       I    between atoms: N1_6  and  C5_8 
REMARK    4  A    between atoms: C5_8  and  C6_10 
ROOT
HETATM    1  C6  UNL     1       0.989  16.376  39.673  1.00  0.00     0.044 C 
HETATM    2  C7  UNL     1      -0.023  17.218  40.419  1.00  0.00     0.024 C 
HETATM    3  C8  UNL     1       0.327  17.172  41.877  1.00  0.00    -0.011 C 
HETATM    4  C9  UNL     1       0.393  15.799  42.450  1.00  0.00     0.029 C 
HETATM    5  C10 UNL     1       1.130  14.811  41.605  1.00  0.00     0.078 C 
HETATM    6  C11 UNL     1       0.804  14.955  40.159  1.00  0.00     0.044 C 
HETATM    7  N2  UNL     1       2.546  14.814  41.773  1.00  0.00    -0.416 N 
ATOM      8  H2  UNL     1       3.116  13.984  41.608  1.00  0.00     0.153 HD
HETATM    9  C12 UNL     1       3.111  16.053  42.189  1.00  0.00     0.123 C 
HETATM   10  C13 UNL     1       2.698  17.231  41.330  1.00  0.00    -0.027 C 
HETATM   11  C14 UNL     1       3.914  18.170  41.304  1.00  0.00     0.017 C 
HETATM   12  C15 UNL     1       1.604  17.958  42.059  1.00  0.00     0.015 C 
HETATM   13  C16 UNL     1       2.391  16.877  39.924  1.00  0.00     0.030 C 
ENDROOT
BRANCH   1  14
HETATM   14  C5  UNL     1       0.785  16.407  38.219  1.00  0.00     0.226 C 
HETATM   15  N1  UNL     1      -0.400  16.964  37.697  1.00  0.00    -0.360 N 
ATOM     16  H1  UNL     1      -1.088  17.332  38.353  1.00  0.00     0.162 HD
HETATM   17  O1  UNL     1       1.647  15.949  37.454  1.00  0.00    -0.273 OA
BRANCH  15  18
HETATM   18  C4  UNL     1      -0.692  17.042  36.294  1.00  0.00     0.128 C 
BRANCH  18  19
HETATM   19  C3  UNL     1      -2.048  16.505  35.912  1.00  0.00     0.070 C 
BRANCH  19  20
HETATM   20  C2  UNL     1      -1.838  15.257  35.153  1.00  0.00     0.004 C 
HETATM   21  C1  UNL     1      -1.362  14.188  35.741  1.00  0.00     0.032 C 
HETATM   22 CL1  UNL     1      -2.228  15.203  33.456  1.00  0.00    -0.090 Cl
ENDBRANCH  19  20
ENDBRANCH  18  19
ENDBRANCH  15  18
ENDBRANCH   1  14
TORSDOF 4
ENDMDL
MODEL 3
REMARK VINA RESULT: -7.413134766      6.600      8.591
REMARK  4 active torsions:
REMARK  status: ('A' for Active; 'I' for Inactive)
REMARK    1  A    between atoms: C2_2  and  C3_4 
REMARK    2  A    between atoms: C3_4  and  C4_5 
REMARK    3  A    between atoms: C4_5  and  N1_6 
REMARK       I    between atoms: N1_6  and  C5_8 
REMARK    4  A    between atoms: C5_8  and  C6_10 
ROOT
HETATM    1  C6  UNL     1       2.125  15.694  42.442  1.00  0.00     0.044 C 
HETATM    2  C7  UNL     1       2.649  16.523  43.594  1.00  0.00     0.024 C 
HETATM    3  C8  UNL     1       2.405  15.757  44.860  1.00  0.00    -0.011 C 
HETATM    4  C9  UNL     1       0.982  15.381  45.087  1.00  0.00     0.029 C 
HETATM    5  C10 UNL     1       0.289  14.827  43.885  1.00  0.00     0.078 C 
HETATM    6  C11 UNL     1       0.630  15.578  42.644  1.00  0.00     0.044 C 
HETATM    7  N2  UNL     1       0.490  13.432  43.664  1.00  0.00    -0.416 N 
ATOM      8  H2  UNL     1      -0.195  12.853  43.178  1.00  0.00     0.153 HD
HETATM    9  C12 UNL     1       1.712  12.903  44.168  1.00  0.00     0.123 C 
HETATM   10  C13 UNL     1       2.940  13.671  43.724  1.00  0.00    -0.027 C 
HETATM   11  C14 UNL     1       4.053  12.622  43.574  1.00  0.00     0.017 C 
HETATM   12  C15 UNL     1       3.342  14.571  44.857  1.00  0.00     0.015 C 
HETATM   13  C16 UNL     1       2.793  14.340  42.409  1.00  0.00     0.030 C 
ENDROOT
BRANCH   1  14
HETATM   14  C5  UNL     1       2.377  16.319  41.137  1.00  0.00     0.226 C 
HETATM   15  N1  UNL     1       2.018  15.633  39.960  1.00  0.00    -0.360 N 
ATOM     16  H1  UNL     1       1.589  14.712  40.052  1.00  0.00     0.162 HD
HETATM   17  O1  UNL     1       2.902  17.441  41.068  1.00  0.00    -0.273 OA
BRANCH  15  18
HETATM   18  C4  UNL     1       2.222  16.156  38.639  1.00  0.00     0.128 C 
BRANCH  18  19
HETATM   19  C3  UNL     1       1.035  16.010  37.723  1.00  0.00     0.070 C 
BRANCH  19  20
HETATM   20  C2  UNL     1       0.335  17.309  37.685  1.00  0.00     0.004 C 
HETATM   21  C1  UNL     1      -0.055  17.826  36.546  1.00  0.00     0.032 C 
HETATM   22 CL1  UNL     1       0.024  18.166  39.169  1.00  0.00    -0.090 Cl
ENDBRANCH  19  20
ENDBRANCH  18  19
ENDBRANCH  15  18
ENDBRANCH   1  14
TORSDOF 4
ENDMDL
MODEL 4
REMARK VINA RESULT: -7.355321666      3.028      7.399
REMARK  4 active torsions:
REMARK  status: ('A' for Active; 'I' for Inactive)
REMARK    1  A    between atoms: C2_2  and  C3_4 
REMARK    2  A    between atoms: C3_4  and  C4_5 
REMARK    3  A    between atoms: C4_5  and  N1_6 
REMARK       I    between atoms: N1_6  and  C5_8 
REMARK    4  A    between atoms: C5_8  and  C6_10 
ROOT
HETATM    1  C6  UNL     1       2.380  17.391  41.537  1.00  0.00     0.044 C 
HETATM    2  C7  UNL     1       1.164  18.277  41.388  1.00  0.00     0.024 C 
HETATM    3  C8  UNL     1       0.204  17.590  40.462  1.00  0.00    -0.011 C 
HETATM    4  C9  UNL     1       0.774  17.251  39.128  1.00  0.00     0.029 C 
HETATM    5  C10 UNL     1       2.136  16.638  39.175  1.00  0.00     0.078 C 
HETATM    6  C11 UNL     1       3.020  17.310  40.168  1.00  0.00     0.044 C 
HETATM    7  N2  UNL     1       2.155  15.230  39.401  1.00  0.00    -0.416 N 
ATOM      8  H2  UNL     1       2.912  14.634  39.064  1.00  0.00     0.153 HD
HETATM    9  C12 UNL     1       1.046  14.712  40.129  1.00  0.00     0.123 C 
HETATM   10  C13 UNL     1       0.781  15.434  41.434  1.00  0.00    -0.027 C 
HETATM   11  C14 UNL     1       0.258  14.360  42.401  1.00  0.00     0.017 C 
HETATM   12  C15 UNL     1      -0.351  16.392  41.197  1.00  0.00     0.015 C 
HETATM   13  C16 UNL     1       1.989  16.027  42.054  1.00  0.00     0.030 C 
ENDROOT
BRANCH   1  14
HETATM   14  C5  UNL     1       3.362  17.934  42.485  1.00  0.00     0.226 C 
HETATM   15  N1  UNL     1       4.204  18.989  42.081  1.00  0.00    -0.360 N 
ATOM     16  H1  UNL     1       4.105  19.347  41.131  1.00  0.00     0.162 HD
HETATM   17  O1  UNL     1       3.450  17.471  43.632  1.00  0.00    -0.273 OA
BRANCH  15  18
HETATM   18  C4  UNL     1       5.193  19.589  42.931  1.00  0.00     0.128 C 
BRANCH  18  19
HETATM   19  C3  UNL     1       5.673  20.940  42.468  1.00  0.00     0.070 C 
BRANCH  19  20
HETATM   20  C2  UNL     1       7.110  20.823  42.155  1.00  0.00     0.004 C 
HETATM   21  C1  UNL     1       7.537  20.928  40.921  1.00  0.00     0.032 C 
HETATM   22 CL1  UNL     1       8.253  20.543  43.439  1.00  0.00    -0.090 Cl
ENDBRANCH  19  20
ENDBRANCH  18  19
ENDBRANCH  15  18
ENDBRANCH   1  14
TORSDOF 4
ENDMDL
MODEL 5
REMARK VINA RESULT: -7.322115854      3.073      7.360
REMARK  4 active torsions:
REMARK  status: ('A' for Active; 'I' for Inactive)
REMARK    1  A    between atoms: C2_2  and  C3_4 
REMARK    2  A    between atoms: C3_4  and  C4_5 
REMARK    3  A    between atoms: C4_5  and  N1_6 
REMARK       I    between atoms: N1_6  and  C5_8 
REMARK    4  A    between atoms: C5_8  and  C6_10 
ROOT
HETATM    1  C6  UNL     1       2.476  16.998  42.099  1.00  0.00     0.044 C 
HETATM    2  C7  UNL     1       2.980  15.578  41.965  1.00  0.00     0.024 C 
HETATM    3  C8  UNL     1       2.063  14.852  41.026  1.00  0.00    -0.011 C 
HETATM    4  C9  UNL     1       0.630  14.865  41.433  1.00  0.00     0.029 C 
HETATM    5  C10 UNL     1       0.127  16.199  41.882  1.00  0.00     0.078 C 
HETATM    6  C11 UNL     1       1.111  16.909  42.746  1.00  0.00     0.044 C 
HETATM    7  N2  UNL     1      -0.293  17.068  40.832  1.00  0.00    -0.416 N 
ATOM      8  H2  UNL     1      -1.003  17.788  40.972  1.00  0.00     0.153 HD
HETATM    9  C12 UNL     1       0.343  16.861  39.575  1.00  0.00     0.123 C 
HETATM   10  C13 UNL     1       1.857  16.850  39.651  1.00  0.00    -0.027 C 
HETATM   11  C14 UNL     1       2.341  17.470  38.331  1.00  0.00     0.017 C 
HETATM   12  C15 UNL     1       2.296  15.414  39.643  1.00  0.00     0.015 C 
HETATM   13  C16 UNL     1       2.413  17.674  40.750  1.00  0.00     0.030 C 
ENDROOT
BRANCH   1  14
HETATM   14  C5  UNL     1       3.345  17.827  42.944  1.00  0.00     0.226 C 
HETATM   15  N1  UNL     1       4.219  18.753  42.341  1.00  0.00    -0.360 N 
ATOM     16  H1  UNL     1       4.222  18.819  41.323  1.00  0.00     0.162 HD
HETATM   17  O1  UNL     1       3.312  17.717  44.179  1.00  0.00    -0.273 OA
BRANCH  15  18
HETATM   18  C4  UNL     1       5.106  19.608  43.077  1.00  0.00     0.128 C 
BRANCH  18  19
HETATM   19  C3  UNL     1       5.523  20.854  42.339  1.00  0.00     0.070 C 
BRANCH  19  20
HETATM   20  C2  UNL     1       6.968  20.749  42.062  1.00  0.00     0.004 C 
HETATM   21  C1  UNL     1       7.420  20.796  40.833  1.00  0.00     0.032 C 
HETATM   22 CL1  UNL     1       8.089  20.561  43.382  1.00  0.00    -0.090 Cl
ENDBRANCH  19  20
ENDBRANCH  18  19
ENDBRANCH  15  18
ENDBRANCH   1  14
TORSDOF 4
ENDMDL
