MODEL 1
REMARK VINA RESULT: -3.449178659      0.000      0.000
REMARK  1 active torsions:
REMARK  status: ('A' for Active; 'I' for Inactive)
REMARK    1  A    between atoms: C2_2  and  C3_3 
ROOT
HETATM    1  C3  UNL     1     -38.380 -25.734 -46.724  1.00  0.00     0.047 A 
HETATM    2  C4  UNL     1     -37.297 -25.001 -46.299  1.00  0.00     0.118 A 
HETATM    3  N1  UNL     1     -36.290 -25.087 -47.170  1.00  0.00    -0.360 N 
ATOM      4  H1  UNL     1     -35.376 -24.640 -47.097  1.00  0.00     0.166 HD
HETATM    5  C5  UNL     1     -36.719 -25.875 -48.158  1.00  0.00     0.180 A 
HETATM    6  N2  UNL     1     -37.999 -26.277 -47.895  1.00  0.00    -0.351 N 
ATOM      7  H2  UNL     1     -38.567 -26.884 -48.485  1.00  0.00     0.166 HD
ENDROOT
BRANCH   1   8
HETATM    8  C2  UNL     1     -39.652 -25.871 -46.030  1.00  0.00     0.021 C 
HETATM    9  C1  UNL     1     -40.781 -25.744 -46.702  1.00  0.00     0.013 C 
ENDBRANCH   1   8
TORSDOF 1
ENDMDL
MODEL 2
REMARK VINA RESULT: -3.390251840      1.250      1.731
REMARK  1 active torsions:
REMARK  status: ('A' for Active; 'I' for Inactive)
REMARK    1  A    between atoms: C2_2  and  C3_3 
ROOT
HETATM    1  C3  UNL     1     -37.694 -25.556 -47.206  1.00  0.00     0.047 A 
HETATM    2  C4  UNL     1     -37.304 -25.979 -48.455  1.00  0.00     0.118 A 
HETATM    3  N1  UNL     1     -35.994 -25.796 -48.634  1.00  0.00    -0.360 N 
ATOM      4  H1  UNL     1     -35.452 -26.023 -49.467  1.00  0.00     0.166 HD
HETATM    5  C5  UNL     1     -35.536 -25.255 -47.502  1.00  0.00     0.180 A 
HETATM    6  N2  UNL     1     -36.570 -25.105 -46.621  1.00  0.00    -0.351 N 
ATOM      7  H2  UNL     1     -36.501 -24.717 -45.680  1.00  0.00     0.166 HD
ENDROOT
BRANCH   1   8
HETATM    8  C2  UNL     1     -39.045 -25.604 -46.664  1.00  0.00     0.021 C 
HETATM    9  C1  UNL     1     -39.291 -26.320 -45.583  1.00  0.00     0.013 C 
ENDBRANCH   1   8
TORSDOF 1
ENDMDL
MODEL 3
REMARK VINA RESULT: -3.371629472      0.699      1.041
REMARK  1 active torsions:
REMARK  status: ('A' for Active; 'I' for Inactive)
REMARK    1  A    between atoms: C2_2  and  C3_3 
ROOT
HETATM    1  C3  UNL     1     -38.187 -25.821 -46.633  1.00  0.00     0.047 A 
HETATM    2  C4  UNL     1     -37.082 -25.056 -46.343  1.00  0.00     0.118 A 
HETATM    3  N1  UNL     1     -36.213 -25.070 -47.356  1.00  0.00    -0.360 N 
ATOM      4  H1  UNL     1     -35.316 -24.587 -47.401  1.00  0.00     0.166 HD
HETATM    5  C5  UNL     1     -36.754 -25.843 -48.301  1.00  0.00     0.180 A 
HETATM    6  N2  UNL     1     -37.965 -26.308 -47.867  1.00  0.00    -0.351 N 
ATOM      7  H2  UNL     1     -38.592 -26.919 -48.390  1.00  0.00     0.166 HD
ENDROOT
BRANCH   1   8
HETATM    8  C2  UNL     1     -39.336 -26.036 -45.765  1.00  0.00     0.021 C 
HETATM    9  C1  UNL     1     -39.289 -26.971 -44.835  1.00  0.00     0.013 C 
ENDBRANCH   1   8
TORSDOF 1
ENDMDL
MODEL 4
REMARK VINA RESULT: -3.285446154      1.985      2.875
REMARK  1 active torsions:
REMARK  status: ('A' for Active; 'I' for Inactive)
REMARK    1  A    between atoms: C2_2  and  C3_3 
ROOT
HETATM    1  C3  UNL     1     -40.756 -25.691 -46.280  1.00  0.00     0.047 A 
HETATM    2  C4  UNL     1     -40.466 -26.790 -45.506  1.00  0.00     0.118 A 
HETATM    3  N1  UNL     1     -39.154 -27.038 -45.500  1.00  0.00    -0.360 N 
ATOM      4  H1  UNL     1     -38.675 -27.791 -45.007  1.00  0.00     0.166 HD
HETATM    5  C5  UNL     1     -38.595 -26.100 -46.269  1.00  0.00     0.180 A 
HETATM    6  N2  UNL     1     -39.568 -25.270 -46.751  1.00  0.00    -0.351 N 
ATOM      7  H2  UNL     1     -39.419 -24.468 -47.363  1.00  0.00     0.166 HD
ENDROOT
BRANCH   1   8
HETATM    8  C2  UNL     1     -42.078 -25.129 -46.516  1.00  0.00     0.021 C 
HETATM    9  C1  UNL     1     -42.715 -25.404 -47.639  1.00  0.00     0.013 C 
ENDBRANCH   1   8
TORSDOF 1
ENDMDL
MODEL 5
REMARK VINA RESULT: -3.272671656      8.603      9.268
REMARK  1 active torsions:
REMARK  status: ('A' for Active; 'I' for Inactive)
REMARK    1  A    between atoms: C2_2  and  C3_3 
ROOT
HETATM    1  C3  UNL     1     -29.952 -28.383 -49.263  1.00  0.00     0.047 A 
HETATM    2  C4  UNL     1     -30.573 -27.228 -49.679  1.00  0.00     0.118 A 
HETATM    3  N1  UNL     1     -29.809 -26.560 -50.546  1.00  0.00    -0.360 N 
ATOM      4  H1  UNL     1     -30.031 -25.677 -51.005  1.00  0.00     0.166 HD
HETATM    5  C5  UNL     1     -28.695 -27.281 -50.692  1.00  0.00     0.180 A 
HETATM    6  N2  UNL     1     -28.773 -28.400 -49.910  1.00  0.00    -0.351 N 
ATOM      7  H2  UNL     1     -28.060 -29.125 -49.832  1.00  0.00     0.166 HD
ENDROOT
BRANCH   1   8
HETATM    8  C2  UNL     1     -30.488 -29.357 -48.323  1.00  0.00     0.021 C 
HETATM    9  C1  UNL     1     -30.583 -30.625 -48.677  1.00  0.00     0.013 C 
ENDBRANCH   1   8
TORSDOF 1
ENDMDL
