MODEL 1
REMARK VINA RESULT: -3.472248934      0.000      0.000
REMARK  1 active torsions:
REMARK  status: ('A' for Active; 'I' for Inactive)
REMARK    1  A    between atoms: C2_2  and  C3_3 
ROOT
HETATM    1  C3  UNL     1     -38.340 -25.730 -46.712  1.00  0.00     0.047 A 
HETATM    2  C4  UNL     1     -37.264 -24.987 -46.274  1.00  0.00     0.118 A 
HETATM    3  N1  UNL     1     -36.313 -25.105 -47.211  1.00  0.00    -0.360 N 
ATOM      4  H1  UNL     1     -35.396 -24.661 -47.160  1.00  0.00     0.166 HD
HETATM    5  C5  UNL     1     -36.720 -25.877 -48.217  1.00  0.00     0.180 A 
HETATM    6  N2  UNL     1     -37.976 -26.258 -47.895  1.00  0.00    -0.351 N 
ATOM      7  H2  UNL     1     -38.566 -26.860 -48.469  1.00  0.00     0.166 HD
ENDROOT
BRANCH   1   8
HETATM    8  C2  UNL     1     -39.614 -25.903 -46.023  1.00  0.00     0.021 C 
HETATM    9  C1  UNL     1     -40.747 -25.750 -46.690  1.00  0.00     0.013 C 
ENDBRANCH   1   8
TORSDOF 1
ENDMDL
MODEL 2
REMARK VINA RESULT: -3.387851793      0.681      1.044
REMARK  1 active torsions:
REMARK  status: ('A' for Active; 'I' for Inactive)
REMARK    1  A    between atoms: C2_2  and  C3_3 
ROOT
HETATM    1  C3  UNL     1     -38.182 -25.829 -46.601  1.00  0.00     0.047 A 
HETATM    2  C4  UNL     1     -37.102 -25.032 -46.283  1.00  0.00     0.118 A 
HETATM    3  N1  UNL     1     -36.277 -25.071 -47.337  1.00  0.00    -0.360 N 
ATOM      4  H1  UNL     1     -35.389 -24.573 -47.392  1.00  0.00     0.166 HD
HETATM    5  C5  UNL     1     -36.767 -25.844 -48.305  1.00  0.00     0.180 A 
HETATM    6  N2  UNL     1     -37.946 -26.307 -47.836  1.00  0.00    -0.351 N 
ATOM      7  H2  UNL     1     -38.570 -26.932 -48.347  1.00  0.00     0.166 HD
ENDROOT
BRANCH   1   8
HETATM    8  C2  UNL     1     -39.343 -26.096 -45.759  1.00  0.00     0.021 C 
HETATM    9  C1  UNL     1     -39.265 -27.009 -44.804  1.00  0.00     0.013 C 
ENDBRANCH   1   8
TORSDOF 1
ENDMDL
MODEL 3
REMARK VINA RESULT: -3.364189987      1.254      1.751
REMARK  1 active torsions:
REMARK  status: ('A' for Active; 'I' for Inactive)
REMARK    1  A    between atoms: C2_2  and  C3_3 
ROOT
HETATM    1  C3  UNL     1     -37.650 -25.569 -47.249  1.00  0.00     0.047 A 
HETATM    2  C4  UNL     1     -37.286 -26.005 -48.506  1.00  0.00     0.118 A 
HETATM    3  N1  UNL     1     -35.967 -25.800 -48.613  1.00  0.00    -0.360 N 
ATOM      4  H1  UNL     1     -35.414 -26.027 -49.440  1.00  0.00     0.166 HD
HETATM    5  C5  UNL     1     -35.470 -25.260 -47.502  1.00  0.00     0.180 A 
HETATM    6  N2  UNL     1     -36.523 -25.122 -46.665  1.00  0.00    -0.351 N 
ATOM      7  H2  UNL     1     -36.470 -24.734 -45.724  1.00  0.00     0.166 HD
ENDROOT
BRANCH   1   8
HETATM    8  C2  UNL     1     -38.991 -25.591 -46.677  1.00  0.00     0.021 C 
HETATM    9  C1  UNL     1     -39.232 -26.319 -45.598  1.00  0.00     0.013 C 
ENDBRANCH   1   8
TORSDOF 1
ENDMDL
MODEL 4
REMARK VINA RESULT: -3.281567692      1.966      2.865
REMARK  1 active torsions:
REMARK  status: ('A' for Active; 'I' for Inactive)
REMARK    1  A    between atoms: C2_2  and  C3_3 
ROOT
HETATM    1  C3  UNL     1     -40.741 -25.713 -46.273  1.00  0.00     0.047 A 
HETATM    2  C4  UNL     1     -40.445 -26.814 -45.496  1.00  0.00     0.118 A 
HETATM    3  N1  UNL     1     -39.117 -26.979 -45.562  1.00  0.00    -0.360 N 
ATOM      4  H1  UNL     1     -38.605 -27.721 -45.083  1.00  0.00     0.166 HD
HETATM    5  C5  UNL     1     -38.552 -26.051 -46.332  1.00  0.00     0.180 A 
HETATM    6  N2  UNL     1     -39.569 -25.274 -46.766  1.00  0.00    -0.351 N 
ATOM      7  H2  UNL     1     -39.462 -24.468 -47.381  1.00  0.00     0.166 HD
ENDROOT
BRANCH   1   8
HETATM    8  C2  UNL     1     -42.065 -25.147 -46.507  1.00  0.00     0.021 C 
HETATM    9  C1  UNL     1     -42.696 -25.401 -47.642  1.00  0.00     0.013 C 
ENDBRANCH   1   8
TORSDOF 1
ENDMDL
MODEL 5
REMARK VINA RESULT: -3.276959013      1.246      2.955
REMARK  1 active torsions:
REMARK  status: ('A' for Active; 'I' for Inactive)
REMARK    1  A    between atoms: C2_2  and  C3_3 
ROOT
HETATM    1  C3  UNL     1     -36.943 -25.112 -46.106  1.00  0.00     0.047 A 
HETATM    2  C4  UNL     1     -38.156 -25.727 -46.338  1.00  0.00     0.118 A 
HETATM    3  N1  UNL     1     -38.136 -26.135 -47.614  1.00  0.00    -0.360 N 
ATOM      4  H1  UNL     1     -38.904 -26.626 -48.073  1.00  0.00     0.166 HD
HETATM    5  C5  UNL     1     -36.986 -25.817 -48.205  1.00  0.00     0.180 A 
HETATM    6  N2  UNL     1     -36.257 -25.184 -47.261  1.00  0.00    -0.351 N 
ATOM      7  H2  UNL     1     -35.317 -24.813 -47.403  1.00  0.00     0.166 HD
ENDROOT
BRANCH   1   8
HETATM    8  C2  UNL     1     -36.503 -24.506 -44.854  1.00  0.00     0.021 C 
HETATM    9  C1  UNL     1     -35.423 -24.970 -44.245  1.00  0.00     0.013 C 
ENDBRANCH   1   8
TORSDOF 1
ENDMDL
