MODEL 1
REMARK VINA RESULT: -2.961182472      0.000      0.000
REMARK  2 active torsions:
REMARK  status: ('A' for Active; 'I' for Inactive)
REMARK    1  A    between atoms: C2_2  and  C3_3 
REMARK    2  A    between atoms: C5_5  and  N1_6 
ROOT
HETATM    1  C3  UNL     1     -31.145 -27.145 -37.618  1.00  0.00     0.040 A 
HETATM    2  C4  UNL     1     -32.606 -26.895 -37.836  1.00  0.00     0.044 A 
HETATM    3  C5  UNL     1     -32.088 -26.870 -36.458  1.00  0.00     0.191 A 
ENDROOT
BRANCH   3   4
HETATM    4  N1  UNL     1     -32.346 -28.004 -35.587  1.00  0.00    -0.074 N 
ATOM      5  H13 UNL     1     -32.642 -28.809 -36.138  1.00  0.00     0.274 HD
ATOM      6  H12 UNL     1     -31.469 -28.359 -35.206  1.00  0.00     0.274 HD
ATOM      7  H11 UNL     1     -33.010 -27.831 -34.833  1.00  0.00     0.274 HD
ENDBRANCH   3   4
BRANCH   1   8
HETATM    8  C2  UNL     1     -30.216 -26.054 -38.024  1.00  0.00    -0.030 C 
HETATM    9  C1  UNL     1     -29.521 -26.158 -39.133  1.00  0.00     0.007 C 
ENDBRANCH   1   8
TORSDOF 2
ENDMDL
MODEL 2
REMARK VINA RESULT: -2.933938670     10.743     11.444
REMARK  2 active torsions:
REMARK  status: ('A' for Active; 'I' for Inactive)
REMARK    1  A    between atoms: C2_2  and  C3_3 
REMARK    2  A    between atoms: C5_5  and  N1_6 
ROOT
HETATM    1  C3  UNL     1     -37.009 -24.819 -46.777  1.00  0.00     0.040 A 
HETATM    2  C4  UNL     1     -38.154 -25.711 -47.150  1.00  0.00     0.044 A 
HETATM    3  C5  UNL     1     -36.851 -25.934 -47.797  1.00  0.00     0.191 A 
ENDROOT
BRANCH   3   4
HETATM    4  N1  UNL     1     -36.660 -25.496 -49.170  1.00  0.00    -0.074 N 
ATOM      5  H13 UNL     1     -37.558 -25.454 -49.652  1.00  0.00     0.274 HD
ATOM      6  H12 UNL     1     -36.399 -24.510 -49.190  1.00  0.00     0.274 HD
ATOM      7  H11 UNL     1     -35.996 -26.045 -49.714  1.00  0.00     0.274 HD
ENDBRANCH   3   4
BRANCH   1   8
HETATM    8  C2  UNL     1     -36.414 -25.030 -45.428  1.00  0.00    -0.030 C 
HETATM    9  C1  UNL     1     -37.190 -25.220 -44.386  1.00  0.00     0.007 C 
ENDBRANCH   1   8
TORSDOF 2
ENDMDL
MODEL 3
REMARK VINA RESULT: -2.913656346     12.138     13.136
REMARK  2 active torsions:
REMARK  status: ('A' for Active; 'I' for Inactive)
REMARK    1  A    between atoms: C2_2  and  C3_3 
REMARK    2  A    between atoms: C5_5  and  N1_6 
ROOT
HETATM    1  C3  UNL     1     -40.359 -26.126 -46.544  1.00  0.00     0.040 A 
HETATM    2  C4  UNL     1     -39.402 -26.154 -45.392  1.00  0.00     0.044 A 
HETATM    3  C5  UNL     1     -38.971 -25.515 -46.646  1.00  0.00     0.191 A 
ENDROOT
BRANCH   3   4
HETATM    4  N1  UNL     1     -38.046 -26.222 -47.516  1.00  0.00    -0.074 N 
ATOM      5  H13 UNL     1     -38.365 -26.169 -48.484  1.00  0.00     0.274 HD
ATOM      6  H12 UNL     1     -37.169 -25.707 -47.588  1.00  0.00     0.274 HD
ATOM      7  H11 UNL     1     -37.863 -27.191 -47.260  1.00  0.00     0.274 HD
ENDBRANCH   3   4
BRANCH   1   8
HETATM    8  C2  UNL     1     -41.515 -25.193 -46.425  1.00  0.00    -0.030 C 
HETATM    9  C1  UNL     1     -42.544 -25.312 -47.232  1.00  0.00     0.007 C 
ENDBRANCH   1   8
TORSDOF 2
ENDMDL
MODEL 4
REMARK VINA RESULT: -2.906909025     11.642     12.103
REMARK  2 active torsions:
REMARK  status: ('A' for Active; 'I' for Inactive)
REMARK    1  A    between atoms: C2_2  and  C3_3 
REMARK    2  A    between atoms: C5_5  and  N1_6 
ROOT
HETATM    1  C3  UNL     1     -38.469 -25.324 -46.780  1.00  0.00     0.040 A 
HETATM    2  C4  UNL     1     -38.891 -26.156 -45.607  1.00  0.00     0.044 A 
HETATM    3  C5  UNL     1     -39.854 -25.945 -46.700  1.00  0.00     0.191 A 
ENDROOT
BRANCH   3   4
HETATM    4  N1  UNL     1     -40.944 -25.004 -46.508  1.00  0.00    -0.074 N 
ATOM      5  H13 UNL     1     -40.697 -24.323 -45.790  1.00  0.00     0.274 HD
ATOM      6  H12 UNL     1     -41.024 -24.389 -47.318  1.00  0.00     0.274 HD
ATOM      7  H11 UNL     1     -41.849 -25.424 -46.297  1.00  0.00     0.274 HD
ENDBRANCH   3   4
BRANCH   1   8
HETATM    8  C2  UNL     1     -37.489 -25.943 -47.716  1.00  0.00    -0.030 C 
HETATM    9  C1  UNL     1     -36.292 -25.423 -47.856  1.00  0.00     0.007 C 
ENDBRANCH   1   8
TORSDOF 2
ENDMDL
MODEL 5
REMARK VINA RESULT: -2.810968681      3.135      3.870
REMARK  2 active torsions:
REMARK  status: ('A' for Active; 'I' for Inactive)
REMARK    1  A    between atoms: C2_2  and  C3_3 
REMARK    2  A    between atoms: C5_5  and  N1_6 
ROOT
HETATM    1  C3  UNL     1     -30.395 -25.228 -38.840  1.00  0.00     0.040 A 
HETATM    2  C4  UNL     1     -29.296 -25.265 -37.823  1.00  0.00     0.044 A 
HETATM    3  C5  UNL     1     -28.956 -25.519 -39.233  1.00  0.00     0.191 A 
ENDROOT
BRANCH   3   4
HETATM    4  N1  UNL     1     -28.695 -26.883 -39.660  1.00  0.00    -0.074 N 
ATOM      5  H13 UNL     1     -29.183 -27.541 -39.053  1.00  0.00     0.274 HD
ATOM      6  H12 UNL     1     -29.167 -27.070 -40.544  1.00  0.00     0.274 HD
ATOM      7  H11 UNL     1     -27.709 -27.136 -39.729  1.00  0.00     0.274 HD
ENDBRANCH   3   4
BRANCH   1   8
HETATM    8  C2  UNL     1     -30.943 -23.884 -39.179  1.00  0.00    -0.030 C 
HETATM    9  C1  UNL     1     -32.240 -23.706 -39.276  1.00  0.00     0.007 C 
ENDBRANCH   1   8
TORSDOF 2
ENDMDL
