MODEL 1
REMARK VINA RESULT: -3.588536442      0.000      0.000
REMARK  1 active torsions:
REMARK  status: ('A' for Active; 'I' for Inactive)
REMARK    1  A    between atoms: C2_2  and  C3_3 
ROOT
HETATM    1  C3  UNL     1     -37.549 -25.696 -47.214  1.00  0.00    -0.003 A 
HETATM    2  C4  UNL     1     -37.645 -26.028 -48.549  1.00  0.00     0.119 A 
HETATM    3  N1  UNL     1     -36.478 -25.686 -49.123  1.00  0.00    -0.311 N 
ATOM      4  H1  UNL     1     -36.267 -25.819 -50.112  1.00  0.00     0.186 HD
HETATM    5  N2  UNL     1     -35.645 -25.162 -48.258  1.00  0.00    -0.311 N 
ATOM      6  H2  UNL     1     -34.701 -24.825 -48.446  1.00  0.00     0.186 HD
HETATM    7  C5  UNL     1     -36.289 -25.157 -47.057  1.00  0.00     0.119 A 
ENDROOT
BRANCH   1   8
HETATM    8  C2  UNL     1     -38.573 -25.881 -46.192  1.00  0.00     0.004 C 
HETATM    9  C1  UNL     1     -39.853 -25.707 -46.476  1.00  0.00     0.012 C 
ENDBRANCH   1   8
TORSDOF 1
ENDMDL
MODEL 2
REMARK VINA RESULT: -3.575988018     10.547     11.239
REMARK  1 active torsions:
REMARK  status: ('A' for Active; 'I' for Inactive)
REMARK    1  A    between atoms: C2_2  and  C3_3 
ROOT
HETATM    1  C3  UNL     1     -30.236 -24.978 -39.163  1.00  0.00    -0.003 A 
HETATM    2  C4  UNL     1     -30.468 -26.147 -38.471  1.00  0.00     0.119 A 
HETATM    3  N1  UNL     1     -29.516 -27.020 -38.846  1.00  0.00    -0.311 N 
ATOM      4  H1  UNL     1     -29.441 -27.973 -38.490  1.00  0.00     0.186 HD
HETATM    5  N2  UNL     1     -28.695 -26.498 -39.725  1.00  0.00    -0.311 N 
ATOM      6  H2  UNL     1     -27.895 -26.955 -40.161  1.00  0.00     0.186 HD
HETATM    7  C5  UNL     1     -29.123 -25.221 -39.941  1.00  0.00     0.119 A 
ENDROOT
BRANCH   1   8
HETATM    8  C2  UNL     1     -31.014 -23.746 -39.083  1.00  0.00     0.004 C 
HETATM    9  C1  UNL     1     -31.326 -23.070 -40.177  1.00  0.00     0.012 C 
ENDBRANCH   1   8
TORSDOF 1
ENDMDL
MODEL 3
REMARK VINA RESULT: -3.574439055      0.053      1.368
REMARK  1 active torsions:
REMARK  status: ('A' for Active; 'I' for Inactive)
REMARK    1  A    between atoms: C2_2  and  C3_3 
ROOT
HETATM    1  C3  UNL     1     -37.558 -25.691 -47.176  1.00  0.00    -0.003 A 
HETATM    2  C4  UNL     1     -36.302 -25.146 -47.022  1.00  0.00     0.119 A 
HETATM    3  N1  UNL     1     -35.713 -25.169 -48.232  1.00  0.00    -0.311 N 
ATOM      4  H1  UNL     1     -34.771 -24.825 -48.416  1.00  0.00     0.186 HD
HETATM    5  N2  UNL     1     -36.498 -25.688 -49.144  1.00  0.00    -0.311 N 
ATOM      6  H2  UNL     1     -36.283 -25.815 -50.134  1.00  0.00     0.186 HD
HETATM    7  C5  UNL     1     -37.658 -26.022 -48.512  1.00  0.00     0.119 A 
ENDROOT
BRANCH   1   8
HETATM    8  C2  UNL     1     -38.564 -25.874 -46.136  1.00  0.00     0.004 C 
HETATM    9  C1  UNL     1     -39.852 -25.734 -46.406  1.00  0.00     0.012 C 
ENDBRANCH   1   8
TORSDOF 1
ENDMDL
MODEL 4
REMARK VINA RESULT: -3.547782620     10.538     11.229
REMARK  1 active torsions:
REMARK  status: ('A' for Active; 'I' for Inactive)
REMARK    1  A    between atoms: C2_2  and  C3_3 
ROOT
HETATM    1  C3  UNL     1     -30.224 -24.942 -39.218  1.00  0.00    -0.003 A 
HETATM    2  C4  UNL     1     -29.115 -25.193 -39.997  1.00  0.00     0.119 A 
HETATM    3  N1  UNL     1     -28.730 -26.456 -39.736  1.00  0.00    -0.311 N 
ATOM      4  H1  UNL     1     -27.930 -26.911 -40.175  1.00  0.00     0.186 HD
HETATM    5  N2  UNL     1     -29.508 -27.028 -38.850  1.00  0.00    -0.311 N 
ATOM      6  H2  UNL     1     -29.425 -27.978 -38.487  1.00  0.00     0.186 HD
HETATM    7  C5  UNL     1     -30.450 -26.104 -38.510  1.00  0.00     0.119 A 
ENDROOT
BRANCH   1   8
HETATM    8  C2  UNL     1     -30.990 -23.702 -39.162  1.00  0.00     0.004 C 
HETATM    9  C1  UNL     1     -31.253 -23.018 -40.264  1.00  0.00     0.012 C 
ENDBRANCH   1   8
TORSDOF 1
ENDMDL
MODEL 5
REMARK VINA RESULT: -3.473503666      2.880      3.896
REMARK  1 active torsions:
REMARK  status: ('A' for Active; 'I' for Inactive)
REMARK    1  A    between atoms: C2_2  and  C3_3 
ROOT
HETATM    1  C3  UNL     1     -40.776 -25.882 -46.195  1.00  0.00    -0.003 A 
HETATM    2  C4  UNL     1     -39.521 -25.625 -46.702  1.00  0.00     0.119 A 
HETATM    3  N1  UNL     1     -38.692 -26.551 -46.187  1.00  0.00    -0.311 N 
ATOM      4  H1  UNL     1     -37.694 -26.603 -46.392  1.00  0.00     0.186 HD
HETATM    5  N2  UNL     1     -39.323 -27.379 -45.390  1.00  0.00    -0.311 N 
ATOM      6  H2  UNL     1     -38.918 -28.164 -44.881  1.00  0.00     0.186 HD
HETATM    7  C5  UNL     1     -40.628 -26.983 -45.378  1.00  0.00     0.119 A 
ENDROOT
BRANCH   1   8
HETATM    8  C2  UNL     1     -42.000 -25.137 -46.472  1.00  0.00     0.004 C 
HETATM    9  C1  UNL     1     -42.689 -25.355 -47.581  1.00  0.00     0.012 C 
ENDBRANCH   1   8
TORSDOF 1
ENDMDL
