MODEL 1
REMARK VINA RESULT: -8.441537992      0.000      0.000
REMARK  8 active torsions:
REMARK  status: ('A' for Active; 'I' for Inactive)
REMARK    1  A    between atoms: C2_2  and  C3_3 
REMARK    2  A    between atoms: C3_3  and  C4_4 
REMARK    3  A    between atoms: C3_3  and  N1_10 
REMARK    4  A    between atoms: C4_4  and  C5_5 
REMARK    5  A    between atoms: N1_10  and  C10_12 
REMARK    6  A    between atoms: C13_15  and  N2_16 
REMARK    7  A    between atoms: C14_17  and  O1_18 
REMARK    8  A    between atoms: C17_22  and  O2_23 
ROOT
HETATM    1  C10 UNL     1      10.263  27.551   4.904  1.00  0.00     0.077 C 
HETATM    2  C11 UNL     1       9.930  28.732   5.749  1.00  0.00     0.027 C 
HETATM    3  C12 UNL     1       8.703  29.489   5.354  1.00  0.00     0.028 C 
HETATM    4  C13 UNL     1       7.494  28.636   5.291  1.00  0.00     0.094 C 
HETATM    5  C22 UNL     1       7.880  27.201   5.582  1.00  0.00     0.028 C 
HETATM    6  C23 UNL     1       8.942  26.846   4.559  1.00  0.00     0.027 C 
ENDROOT
BRANCH   4   7
HETATM    7  N2  UNL     1       6.402  29.054   6.140  1.00  0.00    -0.303 N 
HETATM    8  C14 UNL     1       6.250  28.792   7.444  1.00  0.00     0.151 A 
HETATM    9  C15 UNL     1       5.080  29.359   7.910  1.00  0.00     0.004 A 
HETATM   10  C16 UNL     1       4.521  29.986   6.818  1.00  0.00     0.004 A 
HETATM   11  C21 UNL     1       4.345  29.450   9.197  1.00  0.00     0.044 C 
HETATM   12  C17 UNL     1       5.356  29.788   5.718  1.00  0.00     0.151 A 
HETATM   13  C18 UNL     1       3.231  30.700   6.993  1.00  0.00     0.044 C 
HETATM   14  C19 UNL     1       3.219  31.501   8.248  1.00  0.00     0.005 C 
HETATM   15  C20 UNL     1       4.021  30.937   9.364  1.00  0.00     0.005 C 
BRANCH   8  16
HETATM   16  O1  UNL     1       7.083  28.068   8.296  1.00  0.00    -0.345 OA
ATOM     17  H1  UNL     1       8.031  27.998   8.288  1.00  0.00     0.219 HD
ENDBRANCH   8  16
BRANCH  12  18
HETATM   18  O2  UNL     1       5.098  30.287   4.444  1.00  0.00    -0.345 OA
ATOM     19  H2  UNL     1       5.364  29.936   3.603  1.00  0.00     0.219 HD
ENDBRANCH  12  18
ENDBRANCH   4   7
BRANCH   1  20
HETATM   20  N1  UNL     1      10.928  27.824   3.694  1.00  0.00    -0.413 N 
ATOM     21  H1  UNL     1      11.864  28.230   3.708  1.00  0.00     0.154 HD
BRANCH  20  22
HETATM   22  C3  UNL     1      10.308  27.540   2.470  1.00  0.00     0.077 C 
BRANCH  22  23
HETATM   23  C2  UNL     1      10.055  28.693   1.553  1.00  0.00     0.020 C 
HETATM   24  C1  UNL     1       8.633  29.212   1.644  1.00  0.00     0.007 C 
ENDBRANCH  22  23
BRANCH  22  25
HETATM   25  C4  UNL     1      11.110  26.438   1.804  1.00  0.00     0.029 C 
BRANCH  25  26
HETATM   26  C5  UNL     1      12.562  26.445   2.212  1.00  0.00    -0.013 C 
HETATM   27  C6  UNL     1      13.186  25.081   2.274  1.00  0.00     0.005 C 
HETATM   28  C7  UNL     1      13.376  24.747   0.803  1.00  0.00     0.000 C 
HETATM   29  C8  UNL     1      13.885  26.037   0.236  1.00  0.00     0.000 C 
HETATM   30  C9  UNL     1      13.386  27.128   1.137  1.00  0.00     0.005 C 
ENDBRANCH  25  26
ENDBRANCH  22  25
ENDBRANCH  20  22
ENDBRANCH   1  20
TORSDOF 8
ENDMDL
MODEL 2
REMARK VINA RESULT: -8.297939766      2.381      8.895
REMARK  8 active torsions:
REMARK  status: ('A' for Active; 'I' for Inactive)
REMARK    1  A    between atoms: C2_2  and  C3_3 
REMARK    2  A    between atoms: C3_3  and  C4_4 
REMARK    3  A    between atoms: C3_3  and  N1_10 
REMARK    4  A    between atoms: C4_4  and  C5_5 
REMARK    5  A    between atoms: N1_10  and  C10_12 
REMARK    6  A    between atoms: C13_15  and  N2_16 
REMARK    7  A    between atoms: C14_17  and  O1_18 
REMARK    8  A    between atoms: C17_22  and  O2_23 
ROOT
HETATM    1  C10 UNL     1       5.240  29.070   5.741  1.00  0.00     0.077 C 
HETATM    2  C11 UNL     1       5.626  29.264   4.315  1.00  0.00     0.027 C 
HETATM    3  C12 UNL     1       7.066  29.578   4.068  1.00  0.00     0.028 C 
HETATM    4  C13 UNL     1       7.984  28.566   4.641  1.00  0.00     0.094 C 
HETATM    5  C22 UNL     1       7.175  27.525   5.386  1.00  0.00     0.028 C 
HETATM    6  C23 UNL     1       6.376  28.291   6.423  1.00  0.00     0.027 C 
ENDROOT
BRANCH   4   7
HETATM    7  N2  UNL     1       8.875  27.939   3.691  1.00  0.00    -0.303 N 
HETATM    8  C14 UNL     1       8.536  27.341   2.543  1.00  0.00     0.151 A 
HETATM    9  C15 UNL     1       9.664  26.859   1.907  1.00  0.00     0.004 A 
HETATM   10  C16 UNL     1      10.716  27.196   2.730  1.00  0.00     0.004 A 
HETATM   11  C21 UNL     1       9.987  26.130   0.654  1.00  0.00     0.044 C 
HETATM   12  C17 UNL     1      10.210  27.870   3.842  1.00  0.00     0.151 A 
HETATM   13  C18 UNL     1      12.089  26.808   2.321  1.00  0.00     0.044 C 
HETATM   14  C19 UNL     1      12.319  27.070   0.873  1.00  0.00     0.005 C 
HETATM   15  C20 UNL     1      11.118  26.934   0.008  1.00  0.00     0.005 C 
BRANCH   8  16
HETATM   16  O1  UNL     1       7.271  27.173   1.981  1.00  0.00    -0.345 OA
ATOM     17  H1  UNL     1       7.014  26.642   1.236  1.00  0.00     0.219 HD
ENDBRANCH   8  16
BRANCH  12  18
HETATM   18  O2  UNL     1      10.997  28.357   4.881  1.00  0.00    -0.345 OA
ATOM     19  H2  UNL     1      11.883  28.113   5.122  1.00  0.00     0.219 HD
ENDBRANCH  12  18
ENDBRANCH   4   7
BRANCH   1  20
HETATM   20  N1  UNL     1       5.021  30.243   6.488  1.00  0.00    -0.413 N 
ATOM     21  H1  UNL     1       5.813  30.809   6.791  1.00  0.00     0.154 HD
BRANCH  20  22
HETATM   22  C3  UNL     1       3.716  30.635   6.815  1.00  0.00     0.077 C 
BRANCH  22  23
HETATM   23  C2  UNL     1       3.563  31.639   7.913  1.00  0.00     0.020 C 
HETATM   24  C1  UNL     1       3.808  31.046   9.286  1.00  0.00     0.007 C 
ENDBRANCH  22  23
BRANCH  22  25
HETATM   25  C4  UNL     1       3.044  31.079   5.530  1.00  0.00     0.029 C 
BRANCH  25  26
HETATM   26  C5  UNL     1       3.310  32.526   5.201  1.00  0.00    -0.013 C 
HETATM   27  C6  UNL     1       3.961  32.739   3.865  1.00  0.00     0.005 C 
HETATM   28  C7  UNL     1       2.807  32.509   2.904  1.00  0.00     0.000 C 
HETATM   29  C8  UNL     1       1.674  33.226   3.573  1.00  0.00     0.000 C 
HETATM   30  C9  UNL     1       1.993  33.259   5.038  1.00  0.00     0.005 C 
ENDBRANCH  25  26
ENDBRANCH  22  25
ENDBRANCH  20  22
ENDBRANCH   1  20
TORSDOF 8
ENDMDL
MODEL 3
REMARK VINA RESULT: -8.138726541      2.365      8.790
REMARK  8 active torsions:
REMARK  status: ('A' for Active; 'I' for Inactive)
REMARK    1  A    between atoms: C2_2  and  C3_3 
REMARK    2  A    between atoms: C3_3  and  C4_4 
REMARK    3  A    between atoms: C3_3  and  N1_10 
REMARK    4  A    between atoms: C4_4  and  C5_5 
REMARK    5  A    between atoms: N1_10  and  C10_12 
REMARK    6  A    between atoms: C13_15  and  N2_16 
REMARK    7  A    between atoms: C14_17  and  O1_18 
REMARK    8  A    between atoms: C17_22  and  O2_23 
ROOT
HETATM    1  C10 UNL     1       5.262  29.117   5.619  1.00  0.00     0.077 C 
HETATM    2  C11 UNL     1       5.746  29.440   4.247  1.00  0.00     0.027 C 
HETATM    3  C12 UNL     1       7.209  29.715   4.121  1.00  0.00     0.028 C 
HETATM    4  C13 UNL     1       8.051  28.611   4.637  1.00  0.00     0.094 C 
HETATM    5  C22 UNL     1       7.158  27.535   5.219  1.00  0.00     0.028 C 
HETATM    6  C23 UNL     1       6.323  28.224   6.281  1.00  0.00     0.027 C 
ENDROOT
BRANCH   4   7
HETATM    7  N2  UNL     1       8.977  28.046   3.682  1.00  0.00    -0.303 N 
HETATM    8  C14 UNL     1      10.309  27.971   3.800  1.00  0.00     0.151 A 
HETATM    9  C15 UNL     1      10.851  27.366   2.683  1.00  0.00     0.004 A 
HETATM   10  C16 UNL     1       9.777  27.072   1.871  1.00  0.00     0.004 A 
HETATM   11  C21 UNL     1      12.199  26.985   2.190  1.00  0.00     0.044 C 
HETATM   12  C17 UNL     1       8.612  27.503   2.507  1.00  0.00     0.151 A 
HETATM   13  C18 UNL     1      10.032  26.408   0.569  1.00  0.00     0.044 C 
HETATM   14  C19 UNL     1      11.031  25.312   0.704  1.00  0.00     0.005 C 
HETATM   15  C20 UNL     1      12.063  25.525   1.752  1.00  0.00     0.005 C 
BRANCH   8  16
HETATM   16  O1  UNL     1      11.123  28.405   4.845  1.00  0.00    -0.345 OA
ATOM     17  H1  UNL     1      11.024  28.262   5.779  1.00  0.00     0.219 HD
ENDBRANCH   8  16
BRANCH  12  18
HETATM   18  O2  UNL     1       7.335  27.365   1.969  1.00  0.00    -0.345 OA
ATOM     19  H2  UNL     1       7.012  26.708   1.365  1.00  0.00     0.219 HD
ENDBRANCH  12  18
ENDBRANCH   4   7
BRANCH   1  20
HETATM   20  N1  UNL     1       5.040  30.216   6.471  1.00  0.00    -0.413 N 
ATOM     21  H1  UNL     1       5.832  30.744   6.838  1.00  0.00     0.154 HD
BRANCH  20  22
HETATM   22  C3  UNL     1       3.733  30.585   6.816  1.00  0.00     0.077 C 
BRANCH  22  23
HETATM   23  C2  UNL     1       3.576  31.558   7.940  1.00  0.00     0.020 C 
HETATM   24  C1  UNL     1       3.914  30.952   9.288  1.00  0.00     0.007 C 
ENDBRANCH  22  23
BRANCH  22  25
HETATM   25  C4  UNL     1       3.049  31.056   5.546  1.00  0.00     0.029 C 
BRANCH  25  26
HETATM   26  C5  UNL     1       3.314  32.509   5.244  1.00  0.00    -0.013 C 
HETATM   27  C6  UNL     1       3.948  32.749   3.904  1.00  0.00     0.005 C 
HETATM   28  C7  UNL     1       2.780  32.540   2.954  1.00  0.00     0.000 C 
HETATM   29  C8  UNL     1       1.658  33.247   3.653  1.00  0.00     0.000 C 
HETATM   30  C9  UNL     1       1.997  33.248   5.114  1.00  0.00     0.005 C 
ENDBRANCH  25  26
ENDBRANCH  22  25
ENDBRANCH  20  22
ENDBRANCH   1  20
TORSDOF 8
ENDMDL
MODEL 4
REMARK VINA RESULT: -8.065950715      2.258      8.780
REMARK  8 active torsions:
REMARK  status: ('A' for Active; 'I' for Inactive)
REMARK    1  A    between atoms: C2_2  and  C3_3 
REMARK    2  A    between atoms: C3_3  and  C4_4 
REMARK    3  A    between atoms: C3_3  and  N1_10 
REMARK    4  A    between atoms: C4_4  and  C5_5 
REMARK    5  A    between atoms: N1_10  and  C10_12 
REMARK    6  A    between atoms: C13_15  and  N2_16 
REMARK    7  A    between atoms: C14_17  and  O1_18 
REMARK    8  A    between atoms: C17_22  and  O2_23 
ROOT
HETATM    1  C10 UNL     1       6.713  28.817   6.199  1.00  0.00     0.077 C 
HETATM    2  C11 UNL     1       7.290  27.555   5.654  1.00  0.00     0.027 C 
HETATM    3  C12 UNL     1       7.375  27.469   4.164  1.00  0.00     0.028 C 
HETATM    4  C13 UNL     1       8.127  28.595   3.563  1.00  0.00     0.094 C 
HETATM    5  C22 UNL     1       8.536  29.561   4.655  1.00  0.00     0.028 C 
HETATM    6  C23 UNL     1       7.248  29.975   5.341  1.00  0.00     0.027 C 
ENDROOT
BRANCH   4   7
HETATM    7  N2  UNL     1       9.269  28.213   2.764  1.00  0.00    -0.303 N 
HETATM    8  C14 UNL     1      10.457  27.786   3.210  1.00  0.00     0.151 A 
HETATM    9  C15 UNL     1      11.295  27.518   2.145  1.00  0.00     0.004 A 
HETATM   10  C16 UNL     1      10.555  27.803   1.019  1.00  0.00     0.004 A 
HETATM   11  C21 UNL     1      12.684  27.033   1.941  1.00  0.00     0.044 C 
HETATM   12  C17 UNL     1       9.290  28.237   1.419  1.00  0.00     0.151 A 
HETATM   13  C18 UNL     1      11.186  27.617  -0.312  1.00  0.00     0.044 C 
HETATM   14  C19 UNL     1      11.954  26.343  -0.375  1.00  0.00     0.005 C 
HETATM   15  C20 UNL     1      12.564  25.909   0.909  1.00  0.00     0.005 C 
BRANCH   8  16
HETATM   16  O1  UNL     1      10.887  27.604   4.523  1.00  0.00    -0.345 OA
ATOM     17  H1  UNL     1      11.638  27.119   4.844  1.00  0.00     0.219 HD
ENDBRANCH   8  16
BRANCH  12  18
HETATM   18  O2  UNL     1       8.280  28.611   0.537  1.00  0.00    -0.345 OA
ATOM     19  H2  UNL     1       7.348  28.689   0.699  1.00  0.00     0.219 HD
ENDBRANCH  12  18
ENDBRANCH   4   7
BRANCH   1  20
HETATM   20  N1  UNL     1       5.307  28.904   6.201  1.00  0.00    -0.413 N 
ATOM     21  H1  UNL     1       4.765  28.352   6.866  1.00  0.00     0.154 HD
BRANCH  20  22
HETATM   22  C3  UNL     1       4.654  29.747   5.293  1.00  0.00     0.077 C 
BRANCH  22  23
HETATM   23  C2  UNL     1       4.204  29.139   4.004  1.00  0.00     0.020 C 
HETATM   24  C1  UNL     1       4.767  29.855   2.792  1.00  0.00     0.007 C 
ENDBRANCH  22  23
BRANCH  22  25
HETATM   25  C4  UNL     1       3.517  30.418   6.042  1.00  0.00     0.029 C 
BRANCH  25  26
HETATM   26  C5  UNL     1       3.722  31.903   6.208  1.00  0.00    -0.013 C 
HETATM   27  C6  UNL     1       3.703  32.670   4.917  1.00  0.00     0.005 C 
HETATM   28  C7  UNL     1       2.222  32.694   4.579  1.00  0.00     0.000 C 
HETATM   29  C8  UNL     1       1.587  32.982   5.905  1.00  0.00     0.000 C 
HETATM   30  C9  UNL     1       2.543  32.497   6.953  1.00  0.00     0.005 C 
ENDBRANCH  25  26
ENDBRANCH  22  25
ENDBRANCH  20  22
ENDBRANCH   1  20
TORSDOF 8
ENDMDL
MODEL 5
REMARK VINA RESULT: -8.061587433      2.496      9.138
REMARK  8 active torsions:
REMARK  status: ('A' for Active; 'I' for Inactive)
REMARK    1  A    between atoms: C2_2  and  C3_3 
REMARK    2  A    between atoms: C3_3  and  C4_4 
REMARK    3  A    between atoms: C3_3  and  N1_10 
REMARK    4  A    between atoms: C4_4  and  C5_5 
REMARK    5  A    between atoms: N1_10  and  C10_12 
REMARK    6  A    between atoms: C13_15  and  N2_16 
REMARK    7  A    between atoms: C14_17  and  O1_18 
REMARK    8  A    between atoms: C17_22  and  O2_23 
ROOT
HETATM    1  C10 UNL     1       6.648  29.220   4.399  1.00  0.00     0.077 C 
HETATM    2  C11 UNL     1       7.564  28.128   4.834  1.00  0.00     0.027 C 
HETATM    3  C12 UNL     1       7.795  27.037   3.839  1.00  0.00     0.028 C 
HETATM    4  C13 UNL     1       8.293  27.539   2.537  1.00  0.00     0.094 C 
HETATM    5  C22 UNL     1       8.355  29.052   2.577  1.00  0.00     0.028 C 
HETATM    6  C23 UNL     1       6.951  29.511   2.920  1.00  0.00     0.027 C 
ENDROOT
BRANCH   4   7
HETATM    7  N2  UNL     1       9.558  26.987   2.110  1.00  0.00    -0.303 N 
HETATM    8  C14 UNL     1      10.755  27.181   2.678  1.00  0.00     0.151 A 
HETATM    9  C15 UNL     1      11.729  26.488   1.984  1.00  0.00     0.004 A 
HETATM   10  C16 UNL     1      11.062  25.856   0.957  1.00  0.00     0.004 A 
HETATM   11  C21 UNL     1      13.195  26.277   2.074  1.00  0.00     0.044 C 
HETATM   12  C17 UNL     1       9.707  26.176   1.047  1.00  0.00     0.151 A 
HETATM   13  C18 UNL     1      11.844  25.019   0.014  1.00  0.00     0.044 C 
HETATM   14  C19 UNL     1      12.834  24.170   0.732  1.00  0.00     0.005 C 
HETATM   15  C20 UNL     1      13.384  24.761   1.979  1.00  0.00     0.005 C 
BRANCH   8  16
HETATM   16  O1  UNL     1      11.081  27.945   3.797  1.00  0.00    -0.345 OA
ATOM     17  H1  UNL     1      11.917  28.326   4.038  1.00  0.00     0.219 HD
ENDBRANCH   8  16
BRANCH  12  18
HETATM   18  O2  UNL     1       8.736  25.707   0.165  1.00  0.00    -0.345 OA
ATOM     19  H2  UNL     1       8.684  24.864  -0.268  1.00  0.00     0.219 HD
ENDBRANCH  12  18
ENDBRANCH   4   7
BRANCH   1  20
HETATM   20  N1  UNL     1       5.270  28.951   4.506  1.00  0.00    -0.413 N 
ATOM     21  H1  UNL     1       4.779  28.493   3.737  1.00  0.00     0.154 HD
BRANCH  20  22
HETATM   22  C3  UNL     1       4.571  29.310   5.665  1.00  0.00     0.077 C 
BRANCH  22  23
HETATM   23  C2  UNL     1       5.380  29.815   6.817  1.00  0.00     0.020 C 
HETATM   24  C1  UNL     1       5.354  28.876   8.007  1.00  0.00     0.007 C 
ENDBRANCH  22  23
BRANCH  22  25
HETATM   25  C4  UNL     1       3.485  30.286   5.252  1.00  0.00     0.029 C 
BRANCH  25  26
HETATM   26  C5  UNL     1       3.874  31.725   5.481  1.00  0.00    -0.013 C 
HETATM   27  C6  UNL     1       3.882  32.561   4.234  1.00  0.00     0.005 C 
HETATM   28  C7  UNL     1       2.399  32.776   3.981  1.00  0.00     0.000 C 
HETATM   29  C8  UNL     1       1.869  33.060   5.354  1.00  0.00     0.000 C 
HETATM   30  C9  UNL     1       2.812  32.408   6.321  1.00  0.00     0.005 C 
ENDBRANCH  25  26
ENDBRANCH  22  25
ENDBRANCH  20  22
ENDBRANCH   1  20
TORSDOF 8
ENDMDL
