MODEL 1
REMARK VINA RESULT: -7.836736477      0.000      0.000
REMARK  5 active torsions:
REMARK  status: ('A' for Active; 'I' for Inactive)
REMARK    1  A    between atoms: C2_5  and  S1_6 
REMARK    2  A    between atoms: S1_6  and  C3_7 
REMARK    3  A    between atoms: C3_7  and  C4_8 
REMARK    4  A    between atoms: C4_8  and  C5_9 
REMARK    5  A    between atoms: C11_18  and  N3_19 
ROOT
HETATM    1  S1  UNL     1       3.660  32.281   5.397  1.00  0.00    -0.109 SA
ENDROOT
BRANCH   1   2
HETATM    2  C2  UNL     1       2.931  32.884   3.863  1.00  0.00     0.106 A 
HETATM    3  N2  UNL     1       3.258  32.551   2.603  1.00  0.00    -0.336 N 
HETATM    4  C1  UNL     1       2.447  33.254   1.758  1.00  0.00     0.144 A 
ATOM      5  H2  UNL     1       3.984  31.890   2.327  1.00  0.00     0.168 HD
HETATM    6  N1  UNL     1       2.486  33.173   0.339  1.00  0.00    -0.081 NA
HETATM    7  C12 UNL     1       1.591  34.046   2.505  1.00  0.00     0.123 A 
HETATM    8  C11 UNL     1       1.910  33.801   3.816  1.00  0.00     0.163 A 
HETATM    9  N4  UNL     1       0.591  34.928   2.024  1.00  0.00    -0.096 NA
BRANCH   8  10
HETATM   10  N3  UNL     1       1.293  34.400   4.939  1.00  0.00    -0.111 N 
HETATM   11  O1  UNL     1       1.707  35.480   5.407  1.00  0.00    -0.532 OA
HETATM   12  O2  UNL     1       0.217  33.826   5.571  1.00  0.00    -0.532 OA
ENDBRANCH   8  10
ENDBRANCH   1   2
BRANCH   1  13
HETATM   13  C3  UNL     1       4.939  31.102   4.945  1.00  0.00     0.085 C 
BRANCH  13  14
HETATM   14  C4  UNL     1       4.749  29.783   5.604  1.00  0.00     0.053 C 
BRANCH  14  15
HETATM   15  C5  UNL     1       5.794  29.340   6.507  1.00  0.00    -0.014 A 
HETATM   16  C6  UNL     1       6.975  28.731   6.205  1.00  0.00     0.043 A 
HETATM   17 CL1  UNL     1       7.408  28.547   4.507  1.00  0.00    -0.084 Cl
HETATM   18  C7  UNL     1       7.901  28.280   7.130  1.00  0.00     0.048 A 
HETATM   19  C8  UNL     1       7.628  28.455   8.477  1.00  0.00     0.037 A 
HETATM   20 CL2  UNL     1       8.730  27.913   9.724  1.00  0.00    -0.084 Cl
HETATM   21  C9  UNL     1       6.446  29.070   8.819  1.00  0.00     0.048 A 
HETATM   22  C10 UNL     1       5.540  29.509   7.881  1.00  0.00     0.043 A 
HETATM   23 CL3  UNL     1       4.057  30.263   8.405  1.00  0.00    -0.084 Cl
ENDBRANCH  14  15
ENDBRANCH  13  14
ENDBRANCH   1  13
TORSDOF 5
ENDMDL
MODEL 2
REMARK VINA RESULT: -7.808368163      0.279      1.931
REMARK  5 active torsions:
REMARK  status: ('A' for Active; 'I' for Inactive)
REMARK    1  A    between atoms: C2_5  and  S1_6 
REMARK    2  A    between atoms: S1_6  and  C3_7 
REMARK    3  A    between atoms: C3_7  and  C4_8 
REMARK    4  A    between atoms: C4_8  and  C5_9 
REMARK    5  A    between atoms: C11_18  and  N3_19 
ROOT
HETATM    1  S1  UNL     1       3.626  32.228   5.306  1.00  0.00    -0.109 SA
ENDROOT
BRANCH   1   2
HETATM    2  C2  UNL     1       2.885  32.874   3.796  1.00  0.00     0.106 A 
HETATM    3  N2  UNL     1       3.194  32.566   2.524  1.00  0.00    -0.336 N 
HETATM    4  C1  UNL     1       2.381  33.298   1.705  1.00  0.00     0.144 A 
ATOM      5  H2  UNL     1       3.908  31.903   2.224  1.00  0.00     0.168 HD
HETATM    6  N1  UNL     1       2.403  33.249   0.285  1.00  0.00    -0.081 NA
HETATM    7  C12 UNL     1       1.544  34.082   2.480  1.00  0.00     0.123 A 
HETATM    8  C11 UNL     1       1.875  33.804   3.781  1.00  0.00     0.163 A 
HETATM    9  N4  UNL     1       0.549  34.988   2.032  1.00  0.00    -0.096 NA
BRANCH   8  10
HETATM   10  N3  UNL     1       1.279  34.385   4.926  1.00  0.00    -0.111 N 
HETATM   11  O1  UNL     1       1.692  35.464   5.395  1.00  0.00    -0.532 OA
HETATM   12  O2  UNL     1       0.225  33.792   5.577  1.00  0.00    -0.532 OA
ENDBRANCH   8  10
ENDBRANCH   1   2
BRANCH   1  13
HETATM   13  C3  UNL     1       4.992  31.170   4.813  1.00  0.00     0.085 C 
BRANCH  13  14
HETATM   14  C4  UNL     1       4.823  29.771   5.287  1.00  0.00     0.053 C 
BRANCH  14  15
HETATM   15  C5  UNL     1       5.747  29.302   6.301  1.00  0.00    -0.014 A 
HETATM   16  C6  UNL     1       5.683  29.471   7.652  1.00  0.00     0.043 A 
HETATM   17 CL1  UNL     1       4.247  30.236   8.329  1.00  0.00    -0.084 Cl
HETATM   18  C7  UNL     1       6.640  29.044   8.557  1.00  0.00     0.048 A 
HETATM   19  C8  UNL     1       7.759  28.386   8.074  1.00  0.00     0.037 A 
HETATM   20 CL2  UNL     1       9.029  27.814   9.135  1.00  0.00    -0.084 Cl
HETATM   21  C9  UNL     1       7.856  28.194   6.715  1.00  0.00     0.048 A 
HETATM   22  C10 UNL     1       6.891  28.629   5.834  1.00  0.00     0.043 A 
HETATM   23 CL3  UNL     1       7.105  28.359   4.124  1.00  0.00    -0.084 Cl
ENDBRANCH  14  15
ENDBRANCH  13  14
ENDBRANCH   1  13
TORSDOF 5
ENDMDL
MODEL 3
REMARK VINA RESULT: -7.796429322      1.782      3.157
REMARK  5 active torsions:
REMARK  status: ('A' for Active; 'I' for Inactive)
REMARK    1  A    between atoms: C2_5  and  S1_6 
REMARK    2  A    between atoms: S1_6  and  C3_7 
REMARK    3  A    between atoms: C3_7  and  C4_8 
REMARK    4  A    between atoms: C4_8  and  C5_9 
REMARK    5  A    between atoms: C11_18  and  N3_19 
ROOT
HETATM    1  S1  UNL     1       4.449  31.756   3.667  1.00  0.00    -0.109 SA
ENDROOT
BRANCH   1   2
HETATM    2  C2  UNL     1       3.073  32.905   3.845  1.00  0.00     0.106 A 
HETATM    3  N2  UNL     1       2.358  33.177   4.949  1.00  0.00    -0.336 N 
HETATM    4  C1  UNL     1       1.412  34.107   4.620  1.00  0.00     0.144 A 
ATOM      5  H2  UNL     1       2.496  32.762   5.870  1.00  0.00     0.168 HD
HETATM    6  N1  UNL     1       0.459  34.651   5.524  1.00  0.00    -0.081 NA
HETATM    7  C12 UNL     1       1.538  34.426   3.279  1.00  0.00     0.123 A 
HETATM    8  C11 UNL     1       2.579  33.666   2.813  1.00  0.00     0.163 A 
HETATM    9  N4  UNL     1       0.758  35.346   2.534  1.00  0.00    -0.096 NA
BRANCH   8  10
HETATM   10  N3  UNL     1       3.063  33.657   1.484  1.00  0.00    -0.111 N 
HETATM   11  O1  UNL     1       2.486  33.010   0.587  1.00  0.00    -0.532 OA
HETATM   12  O2  UNL     1       4.189  34.352   1.115  1.00  0.00    -0.532 OA
ENDBRANCH   8  10
ENDBRANCH   1   2
BRANCH   1  13
HETATM   13  C3  UNL     1       5.022  31.358   5.323  1.00  0.00     0.085 C 
BRANCH  13  14
HETATM   14  C4  UNL     1       4.867  29.915   5.644  1.00  0.00     0.053 C 
BRANCH  14  15
HETATM   15  C5  UNL     1       5.704  29.381   6.700  1.00  0.00    -0.014 A 
HETATM   16  C6  UNL     1       5.547  29.495   8.049  1.00  0.00     0.043 A 
HETATM   17 CL1  UNL     1       4.083  30.268   8.654  1.00  0.00    -0.084 Cl
HETATM   18  C7  UNL     1       6.424  29.006   9.001  1.00  0.00     0.048 A 
HETATM   19  C8  UNL     1       7.561  28.340   8.572  1.00  0.00     0.037 A 
HETATM   20 CL2  UNL     1       8.737  27.693   9.695  1.00  0.00    -0.084 Cl
HETATM   21  C9  UNL     1       7.752  28.203   7.216  1.00  0.00     0.048 A 
HETATM   22  C10 UNL     1       6.865  28.699   6.288  1.00  0.00     0.043 A 
HETATM   23 CL3  UNL     1       7.196  28.494   4.588  1.00  0.00    -0.084 Cl
ENDBRANCH  14  15
ENDBRANCH  13  14
ENDBRANCH   1  13
TORSDOF 5
ENDMDL
MODEL 4
REMARK VINA RESULT: -7.701606832      1.826      2.531
REMARK  5 active torsions:
REMARK  status: ('A' for Active; 'I' for Inactive)
REMARK    1  A    between atoms: C2_5  and  S1_6 
REMARK    2  A    between atoms: S1_6  and  C3_7 
REMARK    3  A    between atoms: C3_7  and  C4_8 
REMARK    4  A    between atoms: C4_8  and  C5_9 
REMARK    5  A    between atoms: C11_18  and  N3_19 
ROOT
HETATM    1  S1  UNL     1       4.529  31.642   3.540  1.00  0.00    -0.109 SA
ENDROOT
BRANCH   1   2
HETATM    2  C2  UNL     1       3.132  32.769   3.695  1.00  0.00     0.106 A 
HETATM    3  N2  UNL     1       2.431  33.073   4.800  1.00  0.00    -0.336 N 
HETATM    4  C1  UNL     1       1.460  33.968   4.450  1.00  0.00     0.144 A 
ATOM      5  H2  UNL     1       2.595  32.701   5.736  1.00  0.00     0.168 HD
HETATM    6  N1  UNL     1       0.512  34.531   5.348  1.00  0.00    -0.081 NA
HETATM    7  C12 UNL     1       1.554  34.232   3.095  1.00  0.00     0.123 A 
HETATM    8  C11 UNL     1       2.603  33.474   2.642  1.00  0.00     0.163 A 
HETATM    9  N4  UNL     1       0.740  35.103   2.326  1.00  0.00    -0.096 NA
BRANCH   8  10
HETATM   10  N3  UNL     1       3.062  33.418   1.305  1.00  0.00    -0.111 N 
HETATM   11  O1  UNL     1       2.504  32.694   0.456  1.00  0.00    -0.532 OA
HETATM   12  O2  UNL     1       4.141  34.151   0.875  1.00  0.00    -0.532 OA
ENDBRANCH   8  10
ENDBRANCH   1   2
BRANCH   1  13
HETATM   13  C3  UNL     1       5.153  31.343   5.198  1.00  0.00     0.085 C 
BRANCH  13  14
HETATM   14  C4  UNL     1       4.912  29.948   5.650  1.00  0.00     0.053 C 
BRANCH  14  15
HETATM   15  C5  UNL     1       5.889  29.369   6.552  1.00  0.00    -0.014 A 
HETATM   16  C6  UNL     1       7.026  28.685   6.246  1.00  0.00     0.043 A 
HETATM   17 CL1  UNL     1       7.499  28.568   4.552  1.00  0.00    -0.084 Cl
HETATM   18  C7  UNL     1       7.884  28.106   7.166  1.00  0.00     0.048 A 
HETATM   19  C8  UNL     1       7.582  28.222   8.514  1.00  0.00     0.037 A 
HETATM   20 CL2  UNL     1       8.597  27.519   9.755  1.00  0.00    -0.084 Cl
HETATM   21  C9  UNL     1       6.442  28.910   8.861  1.00  0.00     0.048 A 
HETATM   22  C10 UNL     1       5.604  29.476   7.926  1.00  0.00     0.043 A 
HETATM   23 CL3  UNL     1       4.169  30.315   8.455  1.00  0.00    -0.084 Cl
ENDBRANCH  14  15
ENDBRANCH  13  14
ENDBRANCH   1  13
TORSDOF 5
ENDMDL
MODEL 5
REMARK VINA RESULT: -7.546531898      1.578      2.763
REMARK  5 active torsions:
REMARK  status: ('A' for Active; 'I' for Inactive)
REMARK    1  A    between atoms: C2_5  and  S1_6 
REMARK    2  A    between atoms: S1_6  and  C3_7 
REMARK    3  A    between atoms: C3_7  and  C4_8 
REMARK    4  A    between atoms: C4_8  and  C5_9 
REMARK    5  A    between atoms: C11_18  and  N3_19 
ROOT
HETATM    1  S1  UNL     1       2.672  32.906   5.191  1.00  0.00    -0.109 SA
ENDROOT
BRANCH   1   2
HETATM    2  C2  UNL     1       3.304  32.832   3.506  1.00  0.00     0.106 A 
HETATM    3  N2  UNL     1       4.299  32.066   3.027  1.00  0.00    -0.336 N 
HETATM    4  C1  UNL     1       4.438  32.341   1.695  1.00  0.00     0.144 A 
ATOM      5  H2  UNL     1       4.852  31.397   3.562  1.00  0.00     0.168 HD
HETATM    6  N1  UNL     1       5.389  31.729   0.835  1.00  0.00    -0.081 NA
HETATM    7  C12 UNL     1       3.510  33.301   1.331  1.00  0.00     0.123 A 
HETATM    8  C11 UNL     1       2.812  33.594   2.475  1.00  0.00     0.163 A 
HETATM    9  N4  UNL     1       3.313  33.868   0.047  1.00  0.00    -0.096 NA
BRANCH   8  10
HETATM   10  N3  UNL     1       1.761  34.536   2.580  1.00  0.00    -0.111 N 
HETATM   11  O1  UNL     1       0.692  34.387   1.955  1.00  0.00    -0.532 OA
HETATM   12  O2  UNL     1       1.864  35.656   3.368  1.00  0.00    -0.532 OA
ENDBRANCH   8  10
ENDBRANCH   1   2
BRANCH   1  13
HETATM   13  C3  UNL     1       3.943  32.221   6.262  1.00  0.00     0.085 C 
BRANCH  13  14
HETATM   14  C4  UNL     1       3.970  30.735   6.227  1.00  0.00     0.053 C 
BRANCH  14  15
HETATM   15  C5  UNL     1       4.860  30.070   7.158  1.00  0.00    -0.014 A 
HETATM   16  C6  UNL     1       4.852  30.114   8.520  1.00  0.00     0.043 A 
HETATM   17 CL1  UNL     1       3.532  30.967   9.318  1.00  0.00    -0.084 Cl
HETATM   18  C7  UNL     1       5.776  29.497   9.346  1.00  0.00     0.048 A 
HETATM   19  C8  UNL     1       6.800  28.767   8.762  1.00  0.00     0.037 A 
HETATM   20 CL2  UNL     1       8.022  27.957   9.718  1.00  0.00    -0.084 Cl
HETATM   21  C9  UNL     1       6.837  28.698   7.389  1.00  0.00     0.048 A 
HETATM   22  C10 UNL     1       5.907  29.321   6.588  1.00  0.00     0.043 A 
HETATM   23 CL3  UNL     1       6.042  29.194   4.854  1.00  0.00    -0.084 Cl
ENDBRANCH  14  15
ENDBRANCH  13  14
ENDBRANCH   1  13
TORSDOF 5
ENDMDL
