MODEL 1
REMARK VINA RESULT: -7.197070563      0.000      0.000
REMARK  9 active torsions:
REMARK  status: ('A' for Active; 'I' for Inactive)
REMARK    1  A    between atoms: C2_2  and  C4_4 
REMARK    2  A    between atoms: C4_4  and  C5_5 
REMARK    3  A    between atoms: C5_5  and  C6_6 
REMARK    4  A    between atoms: C7_8  and  C8_9 
REMARK    5  A    between atoms: C8_9  and  O2_10 
REMARK    6  A    between atoms: C9_12  and  O3_13 
REMARK    7  A    between atoms: C10_15  and  O4_16 
REMARK    8  A    between atoms: O4_16  and  C11_17 
REMARK    9  A    between atoms: C14_21  and  O5_22 
ROOT
HETATM    1  C6  UNL     1       8.229  28.813   5.866  1.00  0.00     0.112 A 
HETATM    2  O1  UNL     1       9.317  28.534   5.210  1.00  0.00    -0.307 OA
HETATM    3  C7  UNL     1       9.096  28.071   4.025  1.00  0.00     0.113 A 
HETATM    4  C9  UNL     1       7.739  28.032   3.858  1.00  0.00     0.134 A 
HETATM    5  C10 UNL     1       7.163  28.505   4.991  1.00  0.00     0.145 A 
ENDROOT
BRANCH   5   6
HETATM    6  O4  UNL     1       5.845  28.694   5.344  1.00  0.00    -0.300 OA
BRANCH   6   7
HETATM    7  C11 UNL     1       5.178  29.888   5.407  1.00  0.00     0.138 A 
HETATM    8  C12 UNL     1       4.906  30.737   4.398  1.00  0.00     0.073 A 
HETATM    9 CL1  UNL     1       5.438  30.362   2.771  1.00  0.00    -0.081 Cl
HETATM   10  C13 UNL     1       4.202  31.956   4.611  1.00  0.00     0.065 A 
HETATM   11  C14 UNL     1       3.778  32.310   5.880  1.00  0.00     0.092 A 
HETATM   12  C15 UNL     1       4.060  31.432   6.924  1.00  0.00     0.108 A 
HETATM   13 CL2  UNL     1       3.540  31.885   8.523  1.00  0.00    -0.078 Cl
HETATM   14  C16 UNL     1       4.745  30.237   6.711  1.00  0.00     0.176 A 
HETATM   15  F1  UNL     1       4.993  29.434   7.772  1.00  0.00    -0.201 F 
BRANCH  11  16
HETATM   16  O5  UNL     1       3.103  33.488   6.178  1.00  0.00    -0.359 OA
ATOM     17  H5  UNL     1       2.222  33.524   6.532  1.00  0.00     0.217 HD
ENDBRANCH  11  16
ENDBRANCH   6   7
ENDBRANCH   5   6
BRANCH   1  18
HETATM   18  C5  UNL     1       8.158  29.297   7.211  1.00  0.00     0.040 C 
BRANCH  18  19
HETATM   19  C4  UNL     1       8.176  28.811   8.508  1.00  0.00     0.005 C 
BRANCH  19  20
HETATM   20  C2  UNL     1       8.073  27.636   9.068  1.00  0.00    -0.088 C 
HETATM   21  C1  UNL     1       9.005  27.125  10.112  1.00  0.00     0.043 C 
HETATM   22  C3  UNL     1       7.085  26.658   8.462  1.00  0.00     0.043 C 
ENDBRANCH  19  20
ENDBRANCH  18  19
ENDBRANCH   1  18
BRANCH   4  23
HETATM   23  O3  UNL     1       7.068  27.555   2.707  1.00  0.00    -0.356 OA
ATOM     24  H3  UNL     1       6.142  27.350   2.656  1.00  0.00     0.218 HD
ENDBRANCH   4  23
BRANCH   3  25
HETATM   25  C8  UNL     1      10.066  27.622   3.017  1.00  0.00     0.232 C 
BRANCH  25  26
HETATM   26  O2  UNL     1      11.398  27.971   3.375  1.00  0.00    -0.394 OA
ATOM     27  H2  UNL     1      12.037  27.539   2.819  1.00  0.00     0.209 HD
ENDBRANCH  25  26
ENDBRANCH   3  25
TORSDOF 9
ENDMDL
MODEL 2
REMARK VINA RESULT: -7.193892289      2.244      2.817
REMARK  9 active torsions:
REMARK  status: ('A' for Active; 'I' for Inactive)
REMARK    1  A    between atoms: C2_2  and  C4_4 
REMARK    2  A    between atoms: C4_4  and  C5_5 
REMARK    3  A    between atoms: C5_5  and  C6_6 
REMARK    4  A    between atoms: C7_8  and  C8_9 
REMARK    5  A    between atoms: C8_9  and  O2_10 
REMARK    6  A    between atoms: C9_12  and  O3_13 
REMARK    7  A    between atoms: C10_15  and  O4_16 
REMARK    8  A    between atoms: O4_16  and  C11_17 
REMARK    9  A    between atoms: C14_21  and  O5_22 
ROOT
HETATM    1  C6  UNL     1       8.715  26.938   5.760  1.00  0.00     0.112 A 
HETATM    2  O1  UNL     1       8.576  25.645   5.723  1.00  0.00    -0.307 OA
HETATM    3  C7  UNL     1       8.027  25.220   4.633  1.00  0.00     0.113 A 
HETATM    4  C9  UNL     1       7.771  26.319   3.860  1.00  0.00     0.134 A 
HETATM    5  C10 UNL     1       8.204  27.415   4.531  1.00  0.00     0.145 A 
ENDROOT
BRANCH   5   6
HETATM    6  O4  UNL     1       8.204  28.754   4.206  1.00  0.00    -0.300 OA
BRANCH   6   7
HETATM    7  C11 UNL     1       7.130  29.495   3.793  1.00  0.00     0.138 A 
HETATM    8  C12 UNL     1       6.779  29.809   2.532  1.00  0.00     0.073 A 
HETATM    9 CL1  UNL     1       7.758  29.258   1.187  1.00  0.00    -0.081 Cl
HETATM   10  C13 UNL     1       5.629  30.599   2.246  1.00  0.00     0.065 A 
HETATM   11  C14 UNL     1       4.833  31.076   3.273  1.00  0.00     0.092 A 
HETATM   12  C15 UNL     1       5.196  30.752   4.577  1.00  0.00     0.108 A 
HETATM   13 CL2  UNL     1       4.203  31.367   5.869  1.00  0.00    -0.078 Cl
HETATM   14  C16 UNL     1       6.320  29.975   4.853  1.00  0.00     0.176 A 
HETATM   15  F1  UNL     1       6.620  29.705   6.144  1.00  0.00    -0.201 F 
BRANCH  11  16
HETATM   16  O5  UNL     1       3.706  31.869   3.083  1.00  0.00    -0.359 OA
ATOM     17  H5  UNL     1       3.367  32.477   3.728  1.00  0.00     0.217 HD
ENDBRANCH  11  16
ENDBRANCH   6   7
ENDBRANCH   5   6
BRANCH   1  18
HETATM   18  C5  UNL     1       9.247  27.695   6.851  1.00  0.00     0.040 C 
BRANCH  18  19
HETATM   19  C4  UNL     1       8.805  28.406   7.955  1.00  0.00     0.005 C 
BRANCH  19  20
HETATM   20  C2  UNL     1       8.191  28.117   9.070  1.00  0.00    -0.088 C 
HETATM   21  C1  UNL     1       8.769  27.259  10.142  1.00  0.00     0.043 C 
HETATM   22  C3  UNL     1       6.726  28.494   9.177  1.00  0.00     0.043 C 
ENDBRANCH  19  20
ENDBRANCH  18  19
ENDBRANCH   1  18
BRANCH   4  23
HETATM   23  O3  UNL     1       7.141  26.301   2.593  1.00  0.00    -0.356 OA
ATOM     24  H3  UNL     1       6.721  27.045   2.178  1.00  0.00     0.218 HD
ENDBRANCH   4  23
BRANCH   3  25
HETATM   25  C8  UNL     1       7.685  23.843   4.253  1.00  0.00     0.232 C 
BRANCH  25  26
HETATM   26  O2  UNL     1       6.446  23.779   3.556  1.00  0.00    -0.394 OA
ATOM     27  H2  UNL     1       6.574  23.682   2.619  1.00  0.00     0.209 HD
ENDBRANCH  25  26
ENDBRANCH   3  25
TORSDOF 9
ENDMDL
MODEL 3
REMARK VINA RESULT: -7.019457223      3.090      4.451
REMARK  9 active torsions:
REMARK  status: ('A' for Active; 'I' for Inactive)
REMARK    1  A    between atoms: C2_2  and  C4_4 
REMARK    2  A    between atoms: C4_4  and  C5_5 
REMARK    3  A    between atoms: C5_5  and  C6_6 
REMARK    4  A    between atoms: C7_8  and  C8_9 
REMARK    5  A    between atoms: C8_9  and  O2_10 
REMARK    6  A    between atoms: C9_12  and  O3_13 
REMARK    7  A    between atoms: C10_15  and  O4_16 
REMARK    8  A    between atoms: O4_16  and  C11_17 
REMARK    9  A    between atoms: C14_21  and  O5_22 
ROOT
HETATM    1  C6  UNL     1       6.329  29.702   5.878  1.00  0.00     0.112 A 
HETATM    2  O1  UNL     1       7.474  29.686   6.494  1.00  0.00    -0.307 OA
HETATM    3  C7  UNL     1       8.487  29.657   5.692  1.00  0.00     0.113 A 
HETATM    4  C9  UNL     1       7.987  29.654   4.419  1.00  0.00     0.134 A 
HETATM    5  C10 UNL     1       6.634  29.696   4.498  1.00  0.00     0.145 A 
ENDROOT
BRANCH   5   6
HETATM    6  O4  UNL     1       5.655  29.727   3.529  1.00  0.00    -0.300 OA
BRANCH   6   7
HETATM    7  C11 UNL     1       5.393  30.755   2.665  1.00  0.00     0.138 A 
HETATM    8  C12 UNL     1       4.702  31.885   2.909  1.00  0.00     0.073 A 
HETATM    9 CL1  UNL     1       4.004  32.159   4.493  1.00  0.00    -0.081 Cl
HETATM   10  C13 UNL     1       4.501  32.874   1.906  1.00  0.00     0.065 A 
HETATM   11  C14 UNL     1       5.013  32.698   0.632  1.00  0.00     0.092 A 
HETATM   12  C15 UNL     1       5.727  31.529   0.379  1.00  0.00     0.108 A 
HETATM   13 CL2  UNL     1       6.357  31.300  -1.228  1.00  0.00    -0.078 Cl
HETATM   14  C16 UNL     1       5.926  30.564   1.365  1.00  0.00     0.176 A 
HETATM   15  F1  UNL     1       6.623  29.448   1.048  1.00  0.00    -0.201 F 
BRANCH  11  16
HETATM   16  O5  UNL     1       4.847  33.604  -0.409  1.00  0.00    -0.359 OA
ATOM     17  H5  UNL     1       5.087  33.430  -1.312  1.00  0.00     0.217 HD
ENDBRANCH  11  16
ENDBRANCH   6   7
ENDBRANCH   5   6
BRANCH   1  18
HETATM   18  C5  UNL     1       5.040  29.689   6.500  1.00  0.00     0.040 C 
BRANCH  18  19
HETATM   19  C4  UNL     1       4.409  30.185   7.629  1.00  0.00     0.005 C 
BRANCH  19  20
HETATM   20  C2  UNL     1       4.642  30.168   8.914  1.00  0.00    -0.088 C 
HETATM   21  C1  UNL     1       4.290  31.280   9.841  1.00  0.00     0.043 C 
HETATM   22  C3  UNL     1       5.516  29.050   9.449  1.00  0.00     0.043 C 
ENDBRANCH  19  20
ENDBRANCH  18  19
ENDBRANCH   1  18
BRANCH   4  23
HETATM   23  O3  UNL     1       8.760  29.592   3.235  1.00  0.00    -0.356 OA
ATOM     24  H3  UNL     1       9.242  30.316   2.854  1.00  0.00     0.218 HD
ENDBRANCH   4  23
BRANCH   3  25
HETATM   25  C8  UNL     1       9.917  29.602   6.020  1.00  0.00     0.232 C 
BRANCH  25  26
HETATM   26  O2  UNL     1      10.624  28.721   5.155  1.00  0.00    -0.394 OA
ATOM     27  H2  UNL     1      10.559  27.818   5.443  1.00  0.00     0.209 HD
ENDBRANCH  25  26
ENDBRANCH   3  25
TORSDOF 9
ENDMDL
MODEL 4
REMARK VINA RESULT: -7.018218429      3.130      5.910
REMARK  9 active torsions:
REMARK  status: ('A' for Active; 'I' for Inactive)
REMARK    1  A    between atoms: C2_2  and  C4_4 
REMARK    2  A    between atoms: C4_4  and  C5_5 
REMARK    3  A    between atoms: C5_5  and  C6_6 
REMARK    4  A    between atoms: C7_8  and  C8_9 
REMARK    5  A    between atoms: C8_9  and  O2_10 
REMARK    6  A    between atoms: C9_12  and  O3_13 
REMARK    7  A    between atoms: C10_15  and  O4_16 
REMARK    8  A    between atoms: O4_16  and  C11_17 
REMARK    9  A    between atoms: C14_21  and  O5_22 
ROOT
HETATM    1  C6  UNL     1       6.856  29.039   6.322  1.00  0.00     0.112 A 
HETATM    2  O1  UNL     1       7.411  29.092   7.497  1.00  0.00    -0.307 OA
HETATM    3  C7  UNL     1       8.322  28.194   7.675  1.00  0.00     0.113 A 
HETATM    4  C9  UNL     1       8.395  27.466   6.519  1.00  0.00     0.134 A 
HETATM    5  C10 UNL     1       7.497  27.978   5.642  1.00  0.00     0.145 A 
ENDROOT
BRANCH   5   6
HETATM    6  O4  UNL     1       7.176  27.637   4.347  1.00  0.00    -0.300 OA
BRANCH   6   7
HETATM    7  C11 UNL     1       8.019  27.641   3.267  1.00  0.00     0.138 A 
HETATM    8  C12 UNL     1       8.703  26.603   2.749  1.00  0.00     0.073 A 
HETATM    9 CL1  UNL     1       8.574  25.016   3.481  1.00  0.00    -0.081 Cl
HETATM   10  C13 UNL     1       9.553  26.754   1.618  1.00  0.00     0.065 A 
HETATM   11  C14 UNL     1       9.706  27.990   1.014  1.00  0.00     0.092 A 
HETATM   12  C15 UNL     1       9.000  29.063   1.550  1.00  0.00     0.108 A 
HETATM   13 CL2  UNL     1       9.206  30.621   0.801  1.00  0.00    -0.078 Cl
HETATM   14  C16 UNL     1       8.165  28.911   2.656  1.00  0.00     0.176 A 
HETATM   15  F1  UNL     1       7.513  29.998   3.131  1.00  0.00    -0.201 F 
BRANCH  11  16
HETATM   16  O5  UNL     1      10.530  28.228  -0.081  1.00  0.00    -0.359 OA
ATOM     17  H5  UNL     1      10.425  28.959  -0.679  1.00  0.00     0.217 HD
ENDBRANCH  11  16
ENDBRANCH   6   7
ENDBRANCH   5   6
BRANCH   1  18
HETATM   18  C5  UNL     1       5.791  29.873   5.856  1.00  0.00     0.040 C 
BRANCH  18  19
HETATM   19  C4  UNL     1       4.636  30.472   6.333  1.00  0.00     0.005 C 
BRANCH  19  20
HETATM   20  C2  UNL     1       4.269  31.042   7.449  1.00  0.00    -0.088 C 
HETATM   21  C1  UNL     1       4.367  30.395   8.787  1.00  0.00     0.043 C 
HETATM   22  C3  UNL     1       3.498  32.344   7.347  1.00  0.00     0.043 C 
ENDBRANCH  19  20
ENDBRANCH  18  19
ENDBRANCH   1  18
BRANCH   4  23
HETATM   23  O3  UNL     1       9.247  26.357   6.301  1.00  0.00    -0.356 OA
ATOM     24  H3  UNL     1       9.419  25.664   6.928  1.00  0.00     0.218 HD
ENDBRANCH   4  23
BRANCH   3  25
HETATM   25  C8  UNL     1       9.133  27.931   8.871  1.00  0.00     0.232 C 
BRANCH  25  26
HETATM   26  O2  UNL     1       8.926  26.615   9.370  1.00  0.00    -0.394 OA
ATOM     27  H2  UNL     1       9.267  26.515  10.252  1.00  0.00     0.209 HD
ENDBRANCH  25  26
ENDBRANCH   3  25
TORSDOF 9
ENDMDL
MODEL 5
REMARK VINA RESULT: -6.997020257      2.483      5.464
REMARK  9 active torsions:
REMARK  status: ('A' for Active; 'I' for Inactive)
REMARK    1  A    between atoms: C2_2  and  C4_4 
REMARK    2  A    between atoms: C4_4  and  C5_5 
REMARK    3  A    between atoms: C5_5  and  C6_6 
REMARK    4  A    between atoms: C7_8  and  C8_9 
REMARK    5  A    between atoms: C8_9  and  O2_10 
REMARK    6  A    between atoms: C9_12  and  O3_13 
REMARK    7  A    between atoms: C10_15  and  O4_16 
REMARK    8  A    between atoms: O4_16  and  C11_17 
REMARK    9  A    between atoms: C14_21  and  O5_22 
ROOT
HETATM    1  C6  UNL     1       4.553  31.085   5.160  1.00  0.00     0.112 A 
HETATM    2  O1  UNL     1       4.123  32.057   4.409  1.00  0.00    -0.307 OA
HETATM    3  C7  UNL     1       4.432  31.915   3.162  1.00  0.00     0.113 A 
HETATM    4  C9  UNL     1       5.131  30.744   3.055  1.00  0.00     0.134 A 
HETATM    5  C10 UNL     1       5.214  30.189   4.290  1.00  0.00     0.145 A 
ENDROOT
BRANCH   5   6
HETATM    6  O4  UNL     1       5.787  29.020   4.737  1.00  0.00    -0.300 OA
BRANCH   6   7
HETATM    7  C11 UNL     1       7.100  28.653   4.613  1.00  0.00     0.138 A 
HETATM    8  C12 UNL     1       7.626  27.726   3.789  1.00  0.00     0.073 A 
HETATM    9 CL1  UNL     1       6.581  26.817   2.715  1.00  0.00    -0.081 Cl
HETATM   10  C13 UNL     1       9.020  27.441   3.770  1.00  0.00     0.065 A 
HETATM   11  C14 UNL     1       9.886  28.116   4.613  1.00  0.00     0.092 A 
HETATM   12  C15 UNL     1       9.343  29.074   5.466  1.00  0.00     0.108 A 
HETATM   13 CL2  UNL     1      10.431  29.911   6.538  1.00  0.00    -0.078 Cl
HETATM   14  C16 UNL     1       7.978  29.353   5.479  1.00  0.00     0.176 A 
HETATM   15  F1  UNL     1       7.516  30.291   6.338  1.00  0.00    -0.201 F 
BRANCH  11  16
HETATM   16  O5  UNL     1      11.256  27.887   4.672  1.00  0.00    -0.359 OA
ATOM     17  H5  UNL     1      11.895  28.536   4.942  1.00  0.00     0.217 HD
ENDBRANCH  11  16
ENDBRANCH   6   7
ENDBRANCH   5   6
BRANCH   1  18
HETATM   18  C5  UNL     1       4.403  30.991   6.580  1.00  0.00     0.040 C 
BRANCH  18  19
HETATM   19  C4  UNL     1       4.472  30.042   7.586  1.00  0.00     0.005 C 
BRANCH  19  20
HETATM   20  C2  UNL     1       4.903  30.014   8.819  1.00  0.00    -0.088 C 
HETATM   21  C1  UNL     1       5.739  28.920   9.386  1.00  0.00     0.043 C 
HETATM   22  C3  UNL     1       4.334  31.041   9.779  1.00  0.00     0.043 C 
ENDBRANCH  19  20
ENDBRANCH  18  19
ENDBRANCH   1  18
BRANCH   4  23
HETATM   23  O3  UNL     1       5.687  30.229   1.860  1.00  0.00    -0.356 OA
ATOM     24  H3  UNL     1       6.342  30.662   1.327  1.00  0.00     0.218 HD
ENDBRANCH   4  23
BRANCH   3  25
HETATM   25  C8  UNL     1       4.147  32.815   2.037  1.00  0.00     0.232 C 
BRANCH  25  26
HETATM   26  O2  UNL     1       3.699  32.102   0.890  1.00  0.00    -0.394 OA
ATOM     27  H2  UNL     1       4.319  32.164   0.173  1.00  0.00     0.209 HD
ENDBRANCH  25  26
ENDBRANCH   3  25
TORSDOF 9
ENDMDL
