MODEL 1
REMARK VINA RESULT: -7.885219422      0.000      0.000
REMARK  10 active torsions:
REMARK  status: ('A' for Active; 'I' for Inactive)
REMARK    1  A    between atoms: O1_1  and  C1_3 
REMARK    2  A    between atoms: C6_10  and  C7_11 
REMARK    3  A    between atoms: C7_11  and  N1_12 
REMARK    4  A    between atoms: N1_12  and  N2_14 
REMARK    5  A    between atoms: N2_14  and  C8_16 
REMARK    6  A    between atoms: C10_19  and  O3_20 
REMARK    7  A    between atoms: N3_22  and  C11_23 
REMARK    8  A    between atoms: C11_23  and  C12_24 
REMARK    9  A    between atoms: C12_24  and  C13_25 
REMARK   10  A    between atoms: C13_25  and  C14_26 
ROOT
HETATM    1  N2  UNL     1       7.776  28.671   9.090  1.00  0.00    -0.265 N 
ATOM      2  H2  UNL     1       8.166  29.613   9.103  1.00  0.00     0.190 HD
ENDROOT
BRANCH   1   3
HETATM    3  N1  UNL     1       6.474  28.465   8.626  1.00  0.00    -0.308 N 
ATOM      4  H1  UNL     1       6.322  27.782   7.884  1.00  0.00     0.186 HD
BRANCH   3   5
HETATM    5  C7  UNL     1       5.455  29.103   9.095  1.00  0.00     0.121 C 
BRANCH   5   6
HETATM    6  C6  UNL     1       4.811  30.087   8.233  1.00  0.00     0.016 A 
HETATM    7  C1  UNL     1       4.135  31.175   8.737  1.00  0.00     0.079 A 
HETATM    8  C2  UNL     1       3.526  32.108   7.898  1.00  0.00     0.063 A 
HETATM    9  C3  UNL     1       3.618  31.911   6.557  1.00  0.00     0.058 A 
HETATM   10 CL1  UNL     1       2.867  33.059   5.474  1.00  0.00    -0.082 Cl
HETATM   11  C4  UNL     1       4.281  30.843   5.991  1.00  0.00     0.056 A 
HETATM   12 CL2  UNL     1       4.364  30.647   4.246  1.00  0.00    -0.083 Cl
HETATM   13  C5  UNL     1       4.864  29.953   6.853  1.00  0.00     0.041 A 
BRANCH   7  14
HETATM   14  O1  UNL     1       4.046  31.368  10.085  1.00  0.00    -0.360 OA
ATOM     15  H1  UNL     1       4.318  30.660  10.657  1.00  0.00     0.217 HD
ENDBRANCH   7  14
ENDBRANCH   5   6
ENDBRANCH   3   5
ENDBRANCH   1   3
BRANCH   1  16
HETATM   16  C8  UNL     1       8.489  27.677   9.503  1.00  0.00     0.247 A 
HETATM   17  O2  UNL     1       8.572  27.225  10.726  1.00  0.00    -0.286 OA
HETATM   18  C9  UNL     1       9.392  26.200  10.786  1.00  0.00     0.202 A 
HETATM   19  C10 UNL     1       9.887  25.957   9.521  1.00  0.00     0.168 A 
HETATM   20  N3  UNL     1       9.304  26.900   8.737  1.00  0.00    -0.291 N 
BRANCH  19  21
HETATM   21  O3  UNL     1      10.791  24.954   9.147  1.00  0.00    -0.344 OA
ATOM     22  H3  UNL     1      11.737  25.029   9.089  1.00  0.00     0.219 HD
ENDBRANCH  19  21
BRANCH  20  23
HETATM   23  C11 UNL     1       9.496  27.049   7.333  1.00  0.00     0.135 C 
BRANCH  23  24
HETATM   24  C12 UNL     1       8.399  26.367   6.553  1.00  0.00     0.021 C 
BRANCH  24  25
HETATM   25  C13 UNL     1       7.682  27.251   5.591  1.00  0.00     0.013 C 
BRANCH  25  26
HETATM   26  C14 UNL     1       8.643  28.130   4.797  1.00  0.00     0.086 C 
HETATM   27  S1  UNL     1       8.224  29.881   4.996  1.00  0.00    -0.098 SA
ENDBRANCH  25  26
ENDBRANCH  24  25
ENDBRANCH  23  24
ENDBRANCH  20  23
ENDBRANCH   1  16
TORSDOF 10
ENDMDL
MODEL 2
REMARK VINA RESULT: -7.473690486      1.221      1.539
REMARK  10 active torsions:
REMARK  status: ('A' for Active; 'I' for Inactive)
REMARK    1  A    between atoms: O1_1  and  C1_3 
REMARK    2  A    between atoms: C6_10  and  C7_11 
REMARK    3  A    between atoms: C7_11  and  N1_12 
REMARK    4  A    between atoms: N1_12  and  N2_14 
REMARK    5  A    between atoms: N2_14  and  C8_16 
REMARK    6  A    between atoms: C10_19  and  O3_20 
REMARK    7  A    between atoms: N3_22  and  C11_23 
REMARK    8  A    between atoms: C11_23  and  C12_24 
REMARK    9  A    between atoms: C12_24  and  C13_25 
REMARK   10  A    between atoms: C13_25  and  C14_26 
ROOT
HETATM    1  N2  UNL     1       7.650  29.032   8.863  1.00  0.00    -0.265 N 
ATOM      2  H2  UNL     1       8.039  29.934   8.590  1.00  0.00     0.190 HD
ENDROOT
BRANCH   1   3
HETATM    3  N1  UNL     1       6.394  28.976   9.476  1.00  0.00    -0.308 N 
ATOM      4  H1  UNL     1       6.338  29.103  10.487  1.00  0.00     0.186 HD
BRANCH   3   5
HETATM    5  C7  UNL     1       5.303  28.769   8.819  1.00  0.00     0.121 C 
BRANCH   5   6
HETATM    6  C6  UNL     1       4.741  29.885   8.066  1.00  0.00     0.016 A 
HETATM    7  C1  UNL     1       4.187  30.982   8.685  1.00  0.00     0.079 A 
HETATM    8  C2  UNL     1       3.654  32.041   7.950  1.00  0.00     0.063 A 
HETATM    9  C3  UNL     1       3.697  31.959   6.595  1.00  0.00     0.058 A 
HETATM   10 CL1  UNL     1       3.038  33.267   5.640  1.00  0.00    -0.082 Cl
HETATM   11  C4  UNL     1       4.238  30.887   5.917  1.00  0.00     0.056 A 
HETATM   12 CL2  UNL     1       4.262  30.842   4.160  1.00  0.00    -0.083 Cl
HETATM   13  C5  UNL     1       4.749  29.871   6.679  1.00  0.00     0.041 A 
BRANCH   7  14
HETATM   14  O1  UNL     1       4.147  31.060  10.046  1.00  0.00    -0.360 OA
ATOM     15  H1  UNL     1       4.724  30.493  10.544  1.00  0.00     0.217 HD
ENDBRANCH   7  14
ENDBRANCH   5   6
ENDBRANCH   3   5
ENDBRANCH   1   3
BRANCH   1  16
HETATM   16  C8  UNL     1       8.319  27.952   8.640  1.00  0.00     0.247 A 
HETATM   17  O2  UNL     1       8.989  27.248   9.513  1.00  0.00    -0.286 OA
HETATM   18  C9  UNL     1       9.550  26.209   8.938  1.00  0.00     0.202 A 
HETATM   19  C10 UNL     1       9.233  26.224   7.595  1.00  0.00     0.168 A 
HETATM   20  N3  UNL     1       8.461  27.329   7.436  1.00  0.00    -0.291 N 
BRANCH  19  21
HETATM   21  O3  UNL     1       9.630  25.295   6.624  1.00  0.00    -0.344 OA
ATOM     22  H3  UNL     1       9.314  25.231   5.730  1.00  0.00     0.219 HD
ENDBRANCH  19  21
BRANCH  20  23
HETATM   23  C11 UNL     1       7.875  27.766   6.213  1.00  0.00     0.135 C 
BRANCH  23  24
HETATM   24  C12 UNL     1       8.731  28.810   5.538  1.00  0.00     0.021 C 
BRANCH  24  25
HETATM   25  C13 UNL     1       7.968  29.829   4.763  1.00  0.00     0.013 C 
BRANCH  25  26
HETATM   26  C14 UNL     1       7.382  29.249   3.479  1.00  0.00     0.086 C 
HETATM   27  S1  UNL     1       8.698  28.765   2.334  1.00  0.00    -0.098 SA
ENDBRANCH  25  26
ENDBRANCH  24  25
ENDBRANCH  23  24
ENDBRANCH  20  23
ENDBRANCH   1  16
TORSDOF 10
ENDMDL
MODEL 3
REMARK VINA RESULT: -7.217321612      3.824      4.939
REMARK  10 active torsions:
REMARK  status: ('A' for Active; 'I' for Inactive)
REMARK    1  A    between atoms: O1_1  and  C1_3 
REMARK    2  A    between atoms: C6_10  and  C7_11 
REMARK    3  A    between atoms: C7_11  and  N1_12 
REMARK    4  A    between atoms: N1_12  and  N2_14 
REMARK    5  A    between atoms: N2_14  and  C8_16 
REMARK    6  A    between atoms: C10_19  and  O3_20 
REMARK    7  A    between atoms: N3_22  and  C11_23 
REMARK    8  A    between atoms: C11_23  and  C12_24 
REMARK    9  A    between atoms: C12_24  and  C13_25 
REMARK   10  A    between atoms: C13_25  and  C14_26 
ROOT
HETATM    1  N2  UNL     1       7.728  29.428   3.321  1.00  0.00    -0.265 N 
ATOM      2  H2  UNL     1       7.805  30.356   3.737  1.00  0.00     0.190 HD
ENDROOT
BRANCH   1   3
HETATM    3  N1  UNL     1       6.475  28.943   2.933  1.00  0.00    -0.308 N 
ATOM      4  H1  UNL     1       6.238  28.942   1.941  1.00  0.00     0.186 HD
BRANCH   3   5
HETATM    5  C7  UNL     1       5.606  28.497   3.775  1.00  0.00     0.121 C 
BRANCH   5   6
HETATM    6  C6  UNL     1       5.123  29.412   4.803  1.00  0.00     0.016 A 
HETATM    7  C1  UNL     1       4.461  30.579   4.494  1.00  0.00     0.079 A 
HETATM    8  C2  UNL     1       4.005  31.443   5.490  1.00  0.00     0.063 A 
HETATM    9  C3  UNL     1       4.234  31.099   6.783  1.00  0.00     0.058 A 
HETATM   10 CL1  UNL     1       3.677  32.157   8.058  1.00  0.00    -0.082 Cl
HETATM   11  C4  UNL     1       4.889  29.944   7.156  1.00  0.00     0.056 A 
HETATM   12 CL2  UNL     1       5.153  29.557   8.850  1.00  0.00    -0.083 Cl
HETATM   13  C5  UNL     1       5.319  29.126   6.146  1.00  0.00     0.041 A 
BRANCH   7  14
HETATM   14  O1  UNL     1       4.234  30.920   3.193  1.00  0.00    -0.360 OA
ATOM     15  H1  UNL     1       3.557  30.452   2.720  1.00  0.00     0.217 HD
ENDBRANCH   7  14
ENDBRANCH   5   6
ENDBRANCH   3   5
ENDBRANCH   1   3
BRANCH   1  16
HETATM   16  C8  UNL     1       8.788  28.710   3.156  1.00  0.00     0.247 A 
HETATM   17  O2  UNL     1       9.351  28.389   2.023  1.00  0.00    -0.286 OA
HETATM   18  C9  UNL     1      10.416  27.648   2.227  1.00  0.00     0.202 A 
HETATM   19  C10 UNL     1      10.570  27.464   3.586  1.00  0.00     0.168 A 
HETATM   20  N3  UNL     1       9.534  28.142   4.144  1.00  0.00    -0.291 N 
BRANCH  19  21
HETATM   21  O3  UNL     1      11.580  26.737   4.230  1.00  0.00    -0.344 OA
ATOM     22  H3  UNL     1      11.468  26.075   4.903  1.00  0.00     0.219 HD
ENDBRANCH  19  21
BRANCH  20  23
HETATM   23  C11 UNL     1       9.271  28.256   5.540  1.00  0.00     0.135 C 
BRANCH  23  24
HETATM   24  C12 UNL     1       8.451  27.093   6.041  1.00  0.00     0.021 C 
BRANCH  24  25
HETATM   25  C13 UNL     1       8.162  27.123   7.503  1.00  0.00     0.013 C 
BRANCH  25  26
HETATM   26  C14 UNL     1       9.422  27.358   8.329  1.00  0.00     0.086 C 
HETATM   27  S1  UNL     1       9.752  25.945   9.413  1.00  0.00    -0.098 SA
ENDBRANCH  25  26
ENDBRANCH  24  25
ENDBRANCH  23  24
ENDBRANCH  20  23
ENDBRANCH   1  16
TORSDOF 10
ENDMDL
MODEL 4
REMARK VINA RESULT: -7.130903810      4.422      5.630
REMARK  10 active torsions:
REMARK  status: ('A' for Active; 'I' for Inactive)
REMARK    1  A    between atoms: O1_1  and  C1_3 
REMARK    2  A    between atoms: C6_10  and  C7_11 
REMARK    3  A    between atoms: C7_11  and  N1_12 
REMARK    4  A    between atoms: N1_12  and  N2_14 
REMARK    5  A    between atoms: N2_14  and  C8_16 
REMARK    6  A    between atoms: C10_19  and  O3_20 
REMARK    7  A    between atoms: N3_22  and  C11_23 
REMARK    8  A    between atoms: C11_23  and  C12_24 
REMARK    9  A    between atoms: C12_24  and  C13_25 
REMARK   10  A    between atoms: C13_25  and  C14_26 
ROOT
HETATM    1  N2  UNL     1       6.028  28.035   3.451  1.00  0.00    -0.265 N 
ATOM      2  H2  UNL     1       6.319  27.147   3.860  1.00  0.00     0.190 HD
ENDROOT
BRANCH   1   3
HETATM    3  N1  UNL     1       4.838  28.635   3.872  1.00  0.00    -0.308 N 
ATOM      4  H1  UNL     1       4.003  28.055   3.961  1.00  0.00     0.186 HD
BRANCH   3   5
HETATM    5  C7  UNL     1       4.749  29.891   4.153  1.00  0.00     0.121 C 
BRANCH   5   6
HETATM    6  C6  UNL     1       4.588  30.265   5.553  1.00  0.00     0.016 A 
HETATM    7  C1  UNL     1       3.901  31.394   5.937  1.00  0.00     0.079 A 
HETATM    8  C2  UNL     1       3.756  31.737   7.281  1.00  0.00     0.063 A 
HETATM    9  C3  UNL     1       4.318  30.920   8.209  1.00  0.00     0.058 A 
HETATM   10 CL1  UNL     1       4.157  31.318   9.904  1.00  0.00    -0.082 Cl
HETATM   11  C4  UNL     1       5.017  29.776   7.888  1.00  0.00     0.056 A 
HETATM   12 CL2  UNL     1       5.720  28.760   9.139  1.00  0.00    -0.083 Cl
HETATM   13  C5  UNL     1       5.134  29.478   6.557  1.00  0.00     0.041 A 
BRANCH   7  14
HETATM   14  O1  UNL     1       3.338  32.211   5.001  1.00  0.00    -0.360 OA
ATOM     15  H1  UNL     1       2.657  31.852   4.445  1.00  0.00     0.217 HD
ENDBRANCH   7  14
ENDBRANCH   5   6
ENDBRANCH   3   5
ENDBRANCH   1   3
BRANCH   1  16
HETATM   16  C8  UNL     1       6.762  28.595   2.550  1.00  0.00     0.247 A 
HETATM   17  O2  UNL     1       6.433  28.843   1.311  1.00  0.00    -0.286 OA
HETATM   18  C9  UNL     1       7.424  29.424   0.674  1.00  0.00     0.202 A 
HETATM   19  C10 UNL     1       8.482  29.571   1.548  1.00  0.00     0.168 A 
HETATM   20  N3  UNL     1       8.038  29.042   2.717  1.00  0.00    -0.291 N 
BRANCH  19  21
HETATM   21  O3  UNL     1       9.730  30.144   1.272  1.00  0.00    -0.344 OA
ATOM     22  H3  UNL     1      10.362  30.471   1.903  1.00  0.00     0.219 HD
ENDBRANCH  19  21
BRANCH  20  23
HETATM   23  C11 UNL     1       8.778  28.974   3.933  1.00  0.00     0.135 C 
BRANCH  23  24
HETATM   24  C12 UNL     1       8.494  30.165   4.815  1.00  0.00     0.021 C 
BRANCH  24  25
HETATM   25  C13 UNL     1       8.829  29.964   6.254  1.00  0.00     0.013 C 
BRANCH  25  26
HETATM   26  C14 UNL     1       9.753  28.768   6.463  1.00  0.00     0.086 C 
HETATM   27  S1  UNL     1       9.358  27.914   8.010  1.00  0.00    -0.098 SA
ENDBRANCH  25  26
ENDBRANCH  24  25
ENDBRANCH  23  24
ENDBRANCH  20  23
ENDBRANCH   1  16
TORSDOF 10
ENDMDL
MODEL 5
REMARK VINA RESULT: -7.103938086      2.619      4.814
REMARK  10 active torsions:
REMARK  status: ('A' for Active; 'I' for Inactive)
REMARK    1  A    between atoms: O1_1  and  C1_3 
REMARK    2  A    between atoms: C6_10  and  C7_11 
REMARK    3  A    between atoms: C7_11  and  N1_12 
REMARK    4  A    between atoms: N1_12  and  N2_14 
REMARK    5  A    between atoms: N2_14  and  C8_16 
REMARK    6  A    between atoms: C10_19  and  O3_20 
REMARK    7  A    between atoms: N3_22  and  C11_23 
REMARK    8  A    between atoms: C11_23  and  C12_24 
REMARK    9  A    between atoms: C12_24  and  C13_25 
REMARK   10  A    between atoms: C13_25  and  C14_26 
ROOT
HETATM    1  N2  UNL     1       8.896  26.299   6.810  1.00  0.00    -0.265 N 
ATOM      2  H2  UNL     1       8.024  25.889   6.476  1.00  0.00     0.190 HD
ENDROOT
BRANCH   1   3
HETATM    3  N1  UNL     1       9.778  26.889   5.900  1.00  0.00    -0.308 N 
ATOM      4  H1  UNL     1      10.470  26.299   5.438  1.00  0.00     0.186 HD
BRANCH   3   5
HETATM    5  C7  UNL     1       9.754  28.148   5.619  1.00  0.00     0.121 C 
BRANCH   5   6
HETATM    6  C6  UNL     1       8.757  28.613   4.661  1.00  0.00     0.016 A 
HETATM    7  C1  UNL     1       8.946  28.517   3.301  1.00  0.00     0.079 A 
HETATM    8  C2  UNL     1       7.982  28.965   2.398  1.00  0.00     0.063 A 
HETATM    9  C3  UNL     1       6.842  29.505   2.903  1.00  0.00     0.058 A 
HETATM   10 CL1  UNL     1       5.611  30.078   1.802  1.00  0.00    -0.082 Cl
HETATM   11  C4  UNL     1       6.594  29.628   4.253  1.00  0.00     0.056 A 
HETATM   12 CL2  UNL     1       5.096  30.336   4.841  1.00  0.00    -0.083 Cl
HETATM   13  C5  UNL     1       7.568  29.175   5.102  1.00  0.00     0.041 A 
BRANCH   7  14
HETATM   14  O1  UNL     1      10.093  27.974   2.800  1.00  0.00    -0.360 OA
ATOM     15  H1  UNL     1      10.543  27.320   3.322  1.00  0.00     0.217 HD
ENDBRANCH   7  14
ENDBRANCH   5   6
ENDBRANCH   3   5
ENDBRANCH   1   3
BRANCH   1  16
HETATM   16  C8  UNL     1       9.176  26.268   8.069  1.00  0.00     0.247 A 
HETATM   17  O2  UNL     1       9.881  25.364   8.695  1.00  0.00    -0.286 OA
HETATM   18  C9  UNL     1       9.967  25.647   9.975  1.00  0.00     0.202 A 
HETATM   19  C10 UNL     1       9.272  26.815  10.215  1.00  0.00     0.168 A 
HETATM   20  N3  UNL     1       8.786  27.182   9.002  1.00  0.00    -0.291 N 
BRANCH  19  21
HETATM   21  O3  UNL     1       9.114  27.464  11.446  1.00  0.00    -0.344 OA
ATOM     22  H3  UNL     1       9.738  27.492  12.163  1.00  0.00     0.219 HD
ENDBRANCH  19  21
BRANCH  20  23
HETATM   23  C11 UNL     1       8.004  28.343   8.734  1.00  0.00     0.135 C 
BRANCH  23  24
HETATM   24  C12 UNL     1       6.533  28.012   8.679  1.00  0.00     0.021 C 
BRANCH  24  25
HETATM   25  C13 UNL     1       5.662  29.139   8.238  1.00  0.00     0.013 C 
BRANCH  25  26
HETATM   26  C14 UNL     1       4.846  29.716   9.391  1.00  0.00     0.086 C 
HETATM   27  S1  UNL     1       3.876  31.142   8.841  1.00  0.00    -0.098 SA
ENDBRANCH  25  26
ENDBRANCH  24  25
ENDBRANCH  23  24
ENDBRANCH  20  23
ENDBRANCH   1  16
TORSDOF 10
ENDMDL
