MODEL 1
REMARK VINA RESULT: -8.193460565      0.000      0.000
REMARK  10 active torsions:
REMARK  status: ('A' for Active; 'I' for Inactive)
REMARK    1  A    between atoms: C1_4  and  N2_5 
REMARK    2  A    between atoms: C1_4  and  C9_24 
REMARK    3  A    between atoms: N3_7  and  C2_9 
REMARK    4  A    between atoms: C3_10  and  O1_11 
REMARK    5  A    between atoms: C4_14  and  C5_15 
REMARK    6  A    between atoms: C5_15  and  O4_17 
REMARK    7  A    between atoms: O4_17  and  C6_18 
REMARK    8  A    between atoms: C6_18  and  C7_19 
REMARK    9  A    between atoms: C7_19  and  O5_20 
REMARK   10  A    between atoms: C12_27  and  C13_28 
ROOT
HETATM    1  N2  UNL     1       4.922  29.999   7.695  1.00  0.00    -0.288 N 
ATOM      2  H2  UNL     1       4.184  30.400   8.275  1.00  0.00     0.188 HD
HETATM    3  N3  UNL     1       5.035  30.395   6.496  1.00  0.00    -0.293 N 
ATOM      4  H3  UNL     1       5.761  30.015   5.888  1.00  0.00     0.187 HD
ENDROOT
BRANCH   3   5
HETATM    5  C2  UNL     1       4.138  31.368   6.024  1.00  0.00     0.131 A 
HETATM    6  C3  UNL     1       3.374  32.301   6.679  1.00  0.00     0.214 A 
HETATM    7  O2  UNL     1       2.685  32.997   5.802  1.00  0.00    -0.278 OA
HETATM    8  C4  UNL     1       2.941  32.584   4.591  1.00  0.00     0.177 A 
HETATM    9  C8  UNL     1       3.850  31.558   4.668  1.00  0.00     0.107 A 
HETATM   10 CL1  UNL     1       4.504  30.678   3.329  1.00  0.00    -0.078 Cl
BRANCH   6  11
HETATM   11  O1  UNL     1       3.355  32.462   8.053  1.00  0.00    -0.339 OA
ATOM     12  H1  UNL     1       2.828  31.937   8.644  1.00  0.00     0.220 HD
ENDBRANCH   6  11
BRANCH   8  13
HETATM   13  C5  UNL     1       2.378  33.099   3.357  1.00  0.00     0.319 C 
HETATM   14  O3  UNL     1       1.178  32.873   3.011  1.00  0.00    -0.257 OA
BRANCH  13  15
HETATM   15  O4  UNL     1       3.126  33.871   2.484  1.00  0.00    -0.314 OA
BRANCH  15  16
HETATM   16  C6  UNL     1       3.148  33.652   1.093  1.00  0.00     0.205 C 
BRANCH  16  17
HETATM   17  C7  UNL     1       4.614  33.709   0.662  1.00  0.00     0.191 C 
BRANCH  17  18
HETATM   18  O5  UNL     1       5.217  34.888   1.058  1.00  0.00    -0.399 OA
ATOM     19  H5  UNL     1       5.194  35.542   0.368  1.00  0.00     0.209 HD
ENDBRANCH  17  18
ENDBRANCH  16  17
ENDBRANCH  15  16
ENDBRANCH  13  15
ENDBRANCH   8  13
ENDBRANCH   3   5
BRANCH   1  20
HETATM   20  C1  UNL     1       5.781  29.021   8.265  1.00  0.00     0.093 C 
HETATM   21  N1  UNL     1       5.642  28.762   9.521  1.00  0.00    -0.388 N 
ATOM     22  H12 UNL     1       4.935  29.256  10.063  1.00  0.00     0.157 HD
ATOM     23  H11 UNL     1       6.258  28.060   9.929  1.00  0.00     0.157 HD
BRANCH  20  24
HETATM   24  C9  UNL     1       6.812  28.300   7.474  1.00  0.00     0.054 C 
HETATM   25  C10 UNL     1       6.889  26.878   7.903  1.00  0.00     0.013 C 
HETATM   26  C11 UNL     1       8.297  26.366   8.073  1.00  0.00     0.011 C 
HETATM   27  C12 UNL     1       9.153  27.235   8.924  1.00  0.00     0.051 C 
HETATM   28  C14 UNL     1       8.639  28.649   9.043  1.00  0.00     0.011 C 
HETATM   29  C15 UNL     1       8.120  29.047   7.676  1.00  0.00     0.013 C 
BRANCH  27  30
HETATM   30  C13 UNL     1       9.358  26.630  10.309  1.00  0.00     0.357 C 
HETATM   31  F1  UNL     1       8.749  27.415  11.268  1.00  0.00    -0.214 F 
HETATM   32  F2  UNL     1       8.684  25.407  10.298  1.00  0.00    -0.214 F 
ENDBRANCH  27  30
ENDBRANCH  20  24
ENDBRANCH   1  20
TORSDOF 10
ENDMDL
MODEL 2
REMARK VINA RESULT: -8.169063474      2.522      3.309
REMARK  10 active torsions:
REMARK  status: ('A' for Active; 'I' for Inactive)
REMARK    1  A    between atoms: C1_4  and  N2_5 
REMARK    2  A    between atoms: C1_4  and  C9_24 
REMARK    3  A    between atoms: N3_7  and  C2_9 
REMARK    4  A    between atoms: C3_10  and  O1_11 
REMARK    5  A    between atoms: C4_14  and  C5_15 
REMARK    6  A    between atoms: C5_15  and  O4_17 
REMARK    7  A    between atoms: O4_17  and  C6_18 
REMARK    8  A    between atoms: C6_18  and  C7_19 
REMARK    9  A    between atoms: C7_19  and  O5_20 
REMARK   10  A    between atoms: C12_27  and  C13_28 
ROOT
HETATM    1  N2  UNL     1       3.320  31.840   6.216  1.00  0.00    -0.288 N 
ATOM      2  H2  UNL     1       3.143  31.275   5.385  1.00  0.00     0.188 HD
HETATM    3  N3  UNL     1       2.934  33.049   6.222  1.00  0.00    -0.293 N 
ATOM      4  H3  UNL     1       3.095  33.643   7.036  1.00  0.00     0.187 HD
ENDROOT
BRANCH   3   5
HETATM    5  C2  UNL     1       2.282  33.550   5.082  1.00  0.00     0.131 A 
HETATM    6  C3  UNL     1       1.258  34.452   4.939  1.00  0.00     0.214 A 
HETATM    7  O2  UNL     1       0.985  34.604   3.662  1.00  0.00    -0.278 OA
HETATM    8  C4  UNL     1       1.767  33.855   2.936  1.00  0.00     0.177 A 
HETATM    9  C8  UNL     1       2.606  33.166   3.777  1.00  0.00     0.107 A 
HETATM   10 CL1  UNL     1       3.829  32.040   3.294  1.00  0.00    -0.078 Cl
BRANCH   6  11
HETATM   11  O1  UNL     1       0.629  35.088   5.995  1.00  0.00    -0.339 OA
ATOM     12  H1  UNL     1       0.417  36.013   6.010  1.00  0.00     0.220 HD
ENDBRANCH   6  11
BRANCH   8  13
HETATM   13  C5  UNL     1       1.774  33.745   1.490  1.00  0.00     0.319 C 
HETATM   14  O3  UNL     1       0.810  33.233   0.843  1.00  0.00    -0.257 OA
BRANCH  13  15
HETATM   15  O4  UNL     1       2.841  34.196   0.731  1.00  0.00    -0.314 OA
BRANCH  15  16
HETATM   16  C6  UNL     1       3.595  33.355  -0.109  1.00  0.00     0.205 C 
BRANCH  16  17
HETATM   17  C7  UNL     1       5.068  33.654   0.175  1.00  0.00     0.191 C 
BRANCH  17  18
HETATM   18  O5  UNL     1       5.215  34.750   1.005  1.00  0.00    -0.399 OA
ATOM     19  H5  UNL     1       6.079  35.137   0.925  1.00  0.00     0.209 HD
ENDBRANCH  17  18
ENDBRANCH  16  17
ENDBRANCH  15  16
ENDBRANCH  13  15
ENDBRANCH   8  13
ENDBRANCH   3   5
BRANCH   1  20
HETATM   20  C1  UNL     1       3.987  31.242   7.319  1.00  0.00     0.093 C 
HETATM   21  N1  UNL     1       4.280  31.999   8.322  1.00  0.00    -0.388 N 
ATOM     22  H12 UNL     1       4.032  32.988   8.298  1.00  0.00     0.157 HD
ATOM     23  H11 UNL     1       4.759  31.570   9.113  1.00  0.00     0.157 HD
BRANCH  20  24
HETATM   24  C9  UNL     1       4.349  29.801   7.353  1.00  0.00     0.054 C 
HETATM   25  C10 UNL     1       5.415  29.562   8.362  1.00  0.00     0.013 C 
HETATM   26  C11 UNL     1       6.521  28.658   7.880  1.00  0.00     0.011 C 
HETATM   27  C12 UNL     1       7.097  29.061   6.569  1.00  0.00     0.051 C 
HETATM   28  C14 UNL     1       6.185  29.954   5.763  1.00  0.00     0.011 C 
HETATM   29  C15 UNL     1       4.776  29.424   5.945  1.00  0.00     0.013 C 
BRANCH  27  30
HETATM   30  C13 UNL     1       8.463  29.718   6.740  1.00  0.00     0.357 C 
HETATM   31  F1  UNL     1       9.446  28.754   6.853  1.00  0.00    -0.214 F 
HETATM   32  F2  UNL     1       8.708  30.409   5.552  1.00  0.00    -0.214 F 
ENDBRANCH  27  30
ENDBRANCH  20  24
ENDBRANCH   1  20
TORSDOF 10
ENDMDL
MODEL 3
REMARK VINA RESULT: -8.051149305      2.694      3.273
REMARK  10 active torsions:
REMARK  status: ('A' for Active; 'I' for Inactive)
REMARK    1  A    between atoms: C1_4  and  N2_5 
REMARK    2  A    between atoms: C1_4  and  C9_24 
REMARK    3  A    between atoms: N3_7  and  C2_9 
REMARK    4  A    between atoms: C3_10  and  O1_11 
REMARK    5  A    between atoms: C4_14  and  C5_15 
REMARK    6  A    between atoms: C5_15  and  O4_17 
REMARK    7  A    between atoms: O4_17  and  C6_18 
REMARK    8  A    between atoms: C6_18  and  C7_19 
REMARK    9  A    between atoms: C7_19  and  O5_20 
REMARK   10  A    between atoms: C12_27  and  C13_28 
ROOT
HETATM    1  N2  UNL     1       6.037  29.789   7.220  1.00  0.00    -0.288 N 
ATOM      2  H2  UNL     1       6.581  30.497   6.727  1.00  0.00     0.188 HD
HETATM    3  N3  UNL     1       4.774  29.901   7.245  1.00  0.00    -0.293 N 
ATOM      4  H3  UNL     1       4.199  29.212   7.730  1.00  0.00     0.187 HD
ENDROOT
BRANCH   3   5
HETATM    5  C2  UNL     1       4.186  30.997   6.590  1.00  0.00     0.131 A 
HETATM    6  C3  UNL     1       3.641  32.162   7.069  1.00  0.00     0.214 A 
HETATM    7  O2  UNL     1       3.211  32.889   6.062  1.00  0.00    -0.278 OA
HETATM    8  C4  UNL     1       3.433  32.280   4.931  1.00  0.00     0.177 A 
HETATM    9  C8  UNL     1       4.046  31.081   5.201  1.00  0.00     0.107 A 
HETATM   10 CL1  UNL     1       4.545  29.908   4.030  1.00  0.00    -0.078 Cl
BRANCH   6  11
HETATM   11  O1  UNL     1       3.571  32.493   8.411  1.00  0.00    -0.339 OA
ATOM     12  H1  UNL     1       2.836  32.282   8.974  1.00  0.00     0.220 HD
ENDBRANCH   6  11
BRANCH   8  13
HETATM   13  C5  UNL     1       3.103  32.758   3.602  1.00  0.00     0.319 C 
HETATM   14  O3  UNL     1       1.913  32.775   3.163  1.00  0.00    -0.257 OA
BRANCH  13  15
HETATM   15  O4  UNL     1       4.076  33.226   2.735  1.00  0.00    -0.314 OA
BRANCH  15  16
HETATM   16  C6  UNL     1       4.340  32.632   1.486  1.00  0.00     0.205 C 
BRANCH  16  17
HETATM   17  C7  UNL     1       4.509  33.772   0.482  1.00  0.00     0.191 C 
BRANCH  17  18
HETATM   18  O5  UNL     1       5.227  34.824   1.022  1.00  0.00    -0.399 OA
ATOM     19  H5  UNL     1       5.931  35.100   0.445  1.00  0.00     0.209 HD
ENDBRANCH  17  18
ENDBRANCH  16  17
ENDBRANCH  15  16
ENDBRANCH  13  15
ENDBRANCH   8  13
ENDBRANCH   3   5
BRANCH   1  20
HETATM   20  C1  UNL     1       6.725  28.718   7.851  1.00  0.00     0.093 C 
HETATM   21  N1  UNL     1       6.096  28.061   8.767  1.00  0.00    -0.388 N 
ATOM     22  H12 UNL     1       5.142  28.323   9.011  1.00  0.00     0.157 HD
ATOM     23  H11 UNL     1       6.590  27.292   9.220  1.00  0.00     0.157 HD
BRANCH  20  24
HETATM   24  C9  UNL     1       8.116  28.336   7.495  1.00  0.00     0.054 C 
HETATM   25  C10 UNL     1       8.800  29.465   6.810  1.00  0.00     0.013 C 
HETATM   26  C11 UNL     1       9.587  29.055   5.592  1.00  0.00     0.011 C 
HETATM   27  C12 UNL     1       8.814  28.227   4.628  1.00  0.00     0.051 C 
HETATM   28  C14 UNL     1       7.607  27.561   5.245  1.00  0.00     0.011 C 
HETATM   29  C15 UNL     1       8.019  27.093   6.626  1.00  0.00     0.013 C 
BRANCH  27  30
HETATM   30  C13 UNL     1       8.401  29.037   3.404  1.00  0.00     0.357 C 
HETATM   31  F1  UNL     1       7.470  28.338   2.660  1.00  0.00    -0.214 F 
HETATM   32  F2  UNL     1       7.756  30.174   3.895  1.00  0.00    -0.214 F 
ENDBRANCH  27  30
ENDBRANCH  20  24
ENDBRANCH   1  20
TORSDOF 10
ENDMDL
MODEL 4
REMARK VINA RESULT: -8.007957621      1.180      1.773
REMARK  10 active torsions:
REMARK  status: ('A' for Active; 'I' for Inactive)
REMARK    1  A    between atoms: C1_4  and  N2_5 
REMARK    2  A    between atoms: C1_4  and  C9_24 
REMARK    3  A    between atoms: N3_7  and  C2_9 
REMARK    4  A    between atoms: C3_10  and  O1_11 
REMARK    5  A    between atoms: C4_14  and  C5_15 
REMARK    6  A    between atoms: C5_15  and  O4_17 
REMARK    7  A    between atoms: O4_17  and  C6_18 
REMARK    8  A    between atoms: C6_18  and  C7_19 
REMARK    9  A    between atoms: C7_19  and  O5_20 
REMARK   10  A    between atoms: C12_27  and  C13_28 
ROOT
HETATM    1  N2  UNL     1       5.875  29.619   6.972  1.00  0.00    -0.288 N 
ATOM      2  H2  UNL     1       6.446  30.213   6.371  1.00  0.00     0.188 HD
HETATM    3  N3  UNL     1       4.652  29.914   7.134  1.00  0.00    -0.293 N 
ATOM      4  H3  UNL     1       4.052  29.343   7.729  1.00  0.00     0.187 HD
ENDROOT
BRANCH   3   5
HETATM    5  C2  UNL     1       4.144  31.047   6.474  1.00  0.00     0.131 A 
HETATM    6  C3  UNL     1       3.634  32.229   6.949  1.00  0.00     0.214 A 
HETATM    7  O2  UNL     1       3.281  32.991   5.939  1.00  0.00    -0.278 OA
HETATM    8  C4  UNL     1       3.524  32.389   4.807  1.00  0.00     0.177 A 
HETATM    9  C8  UNL     1       4.069  31.159   5.082  1.00  0.00     0.107 A 
HETATM   10 CL1  UNL     1       4.563  29.982   3.912  1.00  0.00    -0.078 Cl
BRANCH   6  11
HETATM   11  O1  UNL     1       3.521  32.541   8.293  1.00  0.00    -0.339 OA
ATOM     12  H1  UNL     1       2.786  32.289   8.839  1.00  0.00     0.220 HD
ENDBRANCH   6  11
BRANCH   8  13
HETATM   13  C5  UNL     1       3.274  32.903   3.474  1.00  0.00     0.319 C 
HETATM   14  O3  UNL     1       4.210  33.134   2.649  1.00  0.00    -0.257 OA
BRANCH  13  15
HETATM   15  O4  UNL     1       1.991  33.170   3.026  1.00  0.00    -0.314 OA
BRANCH  15  16
HETATM   16  C6  UNL     1       1.564  34.457   2.648  1.00  0.00     0.205 C 
BRANCH  16  17
HETATM   17  C7  UNL     1       1.186  35.192   3.935  1.00  0.00     0.191 C 
BRANCH  17  18
HETATM   18  O5  UNL     1       1.155  36.562   3.750  1.00  0.00    -0.399 OA
ATOM     19  H5  UNL     1       1.106  37.027   4.577  1.00  0.00     0.209 HD
ENDBRANCH  17  18
ENDBRANCH  16  17
ENDBRANCH  15  16
ENDBRANCH  13  15
ENDBRANCH   8  13
ENDBRANCH   3   5
BRANCH   1  20
HETATM   20  C1  UNL     1       6.481  28.495   7.595  1.00  0.00     0.093 C 
HETATM   21  N1  UNL     1       5.917  28.022   8.655  1.00  0.00    -0.388 N 
ATOM     22  H12 UNL     1       5.068  28.459   9.013  1.00  0.00     0.157 HD
ATOM     23  H11 UNL     1       6.352  27.216   9.102  1.00  0.00     0.157 HD
BRANCH  20  24
HETATM   24  C9  UNL     1       7.718  27.858   7.074  1.00  0.00     0.054 C 
HETATM   25  C10 UNL     1       7.767  26.426   7.471  1.00  0.00     0.013 C 
HETATM   26  C11 UNL     1       9.113  25.978   7.980  1.00  0.00     0.011 C 
HETATM   27  C12 UNL     1       9.675  26.852   9.043  1.00  0.00     0.051 C 
HETATM   28  C14 UNL     1       9.066  28.234   9.065  1.00  0.00     0.011 C 
HETATM   29  C15 UNL     1       8.887  28.660   7.622  1.00  0.00     0.013 C 
BRANCH  27  30
HETATM   30  C13 UNL     1       9.559  26.203  10.418  1.00  0.00     0.357 C 
HETATM   31  F1  UNL     1       8.979  27.081  11.313  1.00  0.00    -0.214 F 
HETATM   32  F2  UNL     1       8.672  25.136  10.266  1.00  0.00    -0.214 F 
ENDBRANCH  27  30
ENDBRANCH  20  24
ENDBRANCH   1  20
TORSDOF 10
ENDMDL
MODEL 5
REMARK VINA RESULT: -7.972802884      2.830      3.619
REMARK  10 active torsions:
REMARK  status: ('A' for Active; 'I' for Inactive)
REMARK    1  A    between atoms: C1_4  and  N2_5 
REMARK    2  A    between atoms: C1_4  and  C9_24 
REMARK    3  A    between atoms: N3_7  and  C2_9 
REMARK    4  A    between atoms: C3_10  and  O1_11 
REMARK    5  A    between atoms: C4_14  and  C5_15 
REMARK    6  A    between atoms: C5_15  and  O4_17 
REMARK    7  A    between atoms: O4_17  and  C6_18 
REMARK    8  A    between atoms: C6_18  and  C7_19 
REMARK    9  A    between atoms: C7_19  and  O5_20 
REMARK   10  A    between atoms: C12_27  and  C13_28 
ROOT
HETATM    1  N2  UNL     1       6.013  29.805   7.191  1.00  0.00    -0.288 N 
ATOM      2  H2  UNL     1       6.582  30.521   6.739  1.00  0.00     0.188 HD
HETATM    3  N3  UNL     1       4.751  29.919   7.154  1.00  0.00    -0.293 N 
ATOM      4  H3  UNL     1       4.151  29.222   7.596  1.00  0.00     0.187 HD
ENDROOT
BRANCH   3   5
HETATM    5  C2  UNL     1       4.197  31.027   6.490  1.00  0.00     0.131 A 
HETATM    6  C3  UNL     1       3.653  32.196   6.961  1.00  0.00     0.214 A 
HETATM    7  O2  UNL     1       3.263  32.936   5.947  1.00  0.00    -0.278 OA
HETATM    8  C4  UNL     1       3.513  32.332   4.819  1.00  0.00     0.177 A 
HETATM    9  C8  UNL     1       4.101  31.123   5.098  1.00  0.00     0.107 A 
HETATM   10 CL1  UNL     1       4.620  29.953   3.933  1.00  0.00    -0.078 Cl
BRANCH   6  11
HETATM   11  O1  UNL     1       3.546  32.518   8.303  1.00  0.00    -0.339 OA
ATOM     12  H1  UNL     1       2.852  32.208   8.871  1.00  0.00     0.220 HD
ENDBRANCH   6  11
BRANCH   8  13
HETATM   13  C5  UNL     1       3.230  32.824   3.484  1.00  0.00     0.319 C 
HETATM   14  O3  UNL     1       4.137  32.978   2.611  1.00  0.00    -0.257 OA
BRANCH  13  15
HETATM   15  O4  UNL     1       1.944  33.155   3.088  1.00  0.00    -0.314 OA
BRANCH  15  16
HETATM   16  C6  UNL     1       1.573  34.455   2.696  1.00  0.00     0.205 C 
BRANCH  16  17
HETATM   17  C7  UNL     1       1.167  35.200   3.968  1.00  0.00     0.191 C 
BRANCH  17  18
HETATM   18  O5  UNL     1       1.141  36.568   3.770  1.00  0.00    -0.399 OA
ATOM     19  H5  UNL     1       0.646  37.011   4.450  1.00  0.00     0.209 HD
ENDBRANCH  17  18
ENDBRANCH  16  17
ENDBRANCH  15  16
ENDBRANCH  13  15
ENDBRANCH   8  13
ENDBRANCH   3   5
BRANCH   1  20
HETATM   20  C1  UNL     1       6.667  28.721   7.837  1.00  0.00     0.093 C 
HETATM   21  N1  UNL     1       6.010  28.082   8.745  1.00  0.00    -0.388 N 
ATOM     22  H12 UNL     1       5.058  28.366   8.974  1.00  0.00     0.157 HD
ATOM     23  H11 UNL     1       6.479  27.305   9.208  1.00  0.00     0.157 HD
BRANCH  20  24
HETATM   24  C9  UNL     1       8.055  28.307   7.503  1.00  0.00     0.054 C 
HETATM   25  C10 UNL     1       8.783  29.427   6.850  1.00  0.00     0.013 C 
HETATM   26  C11 UNL     1       9.584  29.014   5.642  1.00  0.00     0.011 C 
HETATM   27  C12 UNL     1       8.809  28.222   4.649  1.00  0.00     0.051 C 
HETATM   28  C14 UNL     1       7.572  27.580   5.231  1.00  0.00     0.011 C 
HETATM   29  C15 UNL     1       7.943  27.080   6.613  1.00  0.00     0.013 C 
BRANCH  27  30
HETATM   30  C13 UNL     1       8.444  29.062   3.430  1.00  0.00     0.357 C 
HETATM   31  F1  UNL     1       7.515  28.397   2.654  1.00  0.00    -0.214 F 
HETATM   32  F2  UNL     1       7.814  30.205   3.925  1.00  0.00    -0.214 F 
ENDBRANCH  27  30
ENDBRANCH  20  24
ENDBRANCH   1  20
TORSDOF 10
ENDMDL
