MODEL 1
REMARK VINA RESULT: -8.335243211      0.000      0.000
REMARK  8 active torsions:
REMARK  status: ('A' for Active; 'I' for Inactive)
REMARK    1  A    between atoms: O1_2  and  C2_3 
REMARK    2  A    between atoms: C4_5  and  C5_6 
REMARK    3  A    between atoms: C6_12  and  N3_13 
REMARK    4  A    between atoms: C7_16  and  C8_17 
REMARK    5  A    between atoms: C9_18  and  C10_19 
REMARK    6  A    between atoms: C10_19  and  C11_20 
REMARK    7  A    between atoms: C11_20  and  C12_21 
REMARK    8  A    between atoms: C15_27  and  O3_28 
ROOT
HETATM    1  C2  UNL     1       3.552  32.093   6.154  1.00  0.00     0.103 A 
HETATM    2  C3  UNL     1       4.168  31.303   5.226  1.00  0.00     0.054 A 
HETATM    3  C4  UNL     1       4.916  30.209   5.674  1.00  0.00     0.011 A 
HETATM    4  C7  UNL     1       5.053  29.903   7.039  1.00  0.00     0.001 A 
HETATM    5  C14 UNL     1       4.403  30.744   7.911  1.00  0.00     0.081 A 
HETATM    6 CL3  UNL     1       4.503  30.474   9.631  1.00  0.00    -0.080 Cl
HETATM    7  C15 UNL     1       3.643  31.850   7.496  1.00  0.00     0.121 A 
ENDROOT
BRANCH   3   8
HETATM    8  C5  UNL     1       5.518  29.382   4.640  1.00  0.00     0.113 A 
HETATM    9  N1  UNL     1       4.966  28.375   3.956  1.00  0.00    -0.237 N 
HETATM   10  O2  UNL     1       5.853  27.892   3.132  1.00  0.00    -0.155 OA
ATOM     11  H1  UNL     1       4.008  28.040   4.061  1.00  0.00     0.197 HD
HETATM   12  N2  UNL     1       6.968  28.526   3.233  1.00  0.00    -0.224 N 
HETATM   13  C6  UNL     1       6.832  29.477   4.161  1.00  0.00     0.151 A 
ATOM     14  H2  UNL     1       7.813  28.335   2.695  1.00  0.00     0.198 HD
BRANCH  13  15
HETATM   15  N3  UNL     1       7.678  30.359   4.607  1.00  0.00    -0.382 N 
ATOM     16  H32 UNL     1       8.584  30.246   5.060  1.00  0.00     0.157 HD
ATOM     17  H31 UNL     1       7.506  31.363   4.549  1.00  0.00     0.157 HD
ENDBRANCH  13  15
ENDBRANCH   3   8
BRANCH   4  18
HETATM   18  C8  UNL     1       5.884  28.785   7.400  1.00  0.00     0.010 C 
HETATM   19  C9  UNL     1       7.043  28.711   7.984  1.00  0.00    -0.025 C 
BRANCH  19  20
HETATM   20  C10 UNL     1       7.655  27.351   8.219  1.00  0.00     0.031 C 
BRANCH  20  21
HETATM   21  C11 UNL     1       9.095  27.262   7.870  1.00  0.00     0.033 C 
BRANCH  21  22
HETATM   22  C12 UNL     1       9.311  26.981   6.418  1.00  0.00     0.010 C 
HETATM   23  C13 UNL     1       9.954  27.817   5.634  1.00  0.00     0.099 C 
HETATM   24 CL1  UNL     1      10.193  27.466   3.944  1.00  0.00    -0.071 Cl
HETATM   25 CL2  UNL     1      10.593  29.316   6.277  1.00  0.00    -0.071 Cl
ENDBRANCH  21  22
ENDBRANCH  20  21
ENDBRANCH  19  20
ENDBRANCH   4  18
BRANCH   1  26
HETATM   26  O1  UNL     1       2.804  33.181   5.757  1.00  0.00    -0.353 OA
HETATM   27  C1  UNL     1       2.122  33.200   4.534  1.00  0.00     0.210 C 
ENDBRANCH   1  26
BRANCH   7  28
HETATM   28  O3  UNL     1       3.011  32.662   8.407  1.00  0.00    -0.356 OA
ATOM     29  H3  UNL     1       3.119  32.527   9.341  1.00  0.00     0.218 HD
ENDBRANCH   7  28
TORSDOF 8
ENDMDL
MODEL 2
REMARK VINA RESULT: -8.107302590      2.036      2.446
REMARK  8 active torsions:
REMARK  status: ('A' for Active; 'I' for Inactive)
REMARK    1  A    between atoms: O1_2  and  C2_3 
REMARK    2  A    between atoms: C4_5  and  C5_6 
REMARK    3  A    between atoms: C6_12  and  N3_13 
REMARK    4  A    between atoms: C7_16  and  C8_17 
REMARK    5  A    between atoms: C9_18  and  C10_19 
REMARK    6  A    between atoms: C10_19  and  C11_20 
REMARK    7  A    between atoms: C11_20  and  C12_21 
REMARK    8  A    between atoms: C15_27  and  O3_28 
ROOT
HETATM    1  C2  UNL     1       3.814  31.736   6.531  1.00  0.00     0.103 A 
HETATM    2  C3  UNL     1       4.416  31.111   5.477  1.00  0.00     0.054 A 
HETATM    3  C4  UNL     1       5.201  29.982   5.734  1.00  0.00     0.011 A 
HETATM    4  C7  UNL     1       5.388  29.477   7.032  1.00  0.00     0.001 A 
HETATM    5  C14 UNL     1       4.748  30.160   8.040  1.00  0.00     0.081 A 
HETATM    6 CL3  UNL     1       4.908  29.636   9.695  1.00  0.00    -0.080 Cl
HETATM    7  C15 UNL     1       3.952  31.296   7.818  1.00  0.00     0.121 A 
ENDROOT
BRANCH   3   8
HETATM    8  C5  UNL     1       5.788  29.336   4.570  1.00  0.00     0.113 A 
HETATM    9  N1  UNL     1       5.235  28.431   3.755  1.00  0.00    -0.237 N 
HETATM   10  O2  UNL     1       6.106  28.101   2.844  1.00  0.00    -0.155 OA
ATOM     11  H1  UNL     1       4.288  28.061   3.835  1.00  0.00     0.197 HD
HETATM   12  N2  UNL     1       7.210  28.739   3.010  1.00  0.00    -0.224 N 
HETATM   13  C6  UNL     1       7.085  29.535   4.075  1.00  0.00     0.151 A 
ATOM     14  H2  UNL     1       8.042  28.652   2.426  1.00  0.00     0.198 HD
BRANCH  13  15
HETATM   15  N3  UNL     1       7.925  30.359   4.627  1.00  0.00    -0.382 N 
ATOM     16  H32 UNL     1       7.973  31.377   4.609  1.00  0.00     0.157 HD
ATOM     17  H31 UNL     1       8.712  30.043   5.194  1.00  0.00     0.157 HD
ENDBRANCH  13  15
ENDBRANCH   3   8
BRANCH   4  18
HETATM   18  C8  UNL     1       6.253  28.340   7.196  1.00  0.00     0.010 C 
HETATM   19  C9  UNL     1       7.498  28.234   7.558  1.00  0.00    -0.025 C 
BRANCH  19  20
HETATM   20  C10 UNL     1       8.122  26.861   7.629  1.00  0.00     0.031 C 
BRANCH  20  21
HETATM   21  C11 UNL     1       9.473  26.837   8.244  1.00  0.00     0.033 C 
BRANCH  21  22
HETATM   22  C12 UNL     1       9.582  25.818   9.333  1.00  0.00     0.010 C 
HETATM   23  C13 UNL     1       9.241  26.085  10.573  1.00  0.00     0.099 C 
HETATM   24 CL1  UNL     1       9.376  24.879  11.825  1.00  0.00    -0.071 Cl
HETATM   25 CL2  UNL     1       8.636  27.672  11.001  1.00  0.00    -0.071 Cl
ENDBRANCH  21  22
ENDBRANCH  20  21
ENDBRANCH  19  20
ENDBRANCH   4  18
BRANCH   1  26
HETATM   26  O1  UNL     1       3.030  32.852   6.325  1.00  0.00    -0.353 OA
HETATM   27  C1  UNL     1       2.335  33.052   5.126  1.00  0.00     0.210 C 
ENDBRANCH   1  26
BRANCH   7  28
HETATM   28  O3  UNL     1       3.332  31.945   8.859  1.00  0.00    -0.356 OA
ATOM     29  H3  UNL     1       3.766  32.651   9.324  1.00  0.00     0.218 HD
ENDBRANCH   7  28
TORSDOF 8
ENDMDL
MODEL 3
REMARK VINA RESULT: -7.802395284      1.749      2.299
REMARK  8 active torsions:
REMARK  status: ('A' for Active; 'I' for Inactive)
REMARK    1  A    between atoms: O1_2  and  C2_3 
REMARK    2  A    between atoms: C4_5  and  C5_6 
REMARK    3  A    between atoms: C6_12  and  N3_13 
REMARK    4  A    between atoms: C7_16  and  C8_17 
REMARK    5  A    between atoms: C9_18  and  C10_19 
REMARK    6  A    between atoms: C10_19  and  C11_20 
REMARK    7  A    between atoms: C11_20  and  C12_21 
REMARK    8  A    between atoms: C15_27  and  O3_28 
ROOT
HETATM    1  C2  UNL     1       3.287  32.475   4.417  1.00  0.00     0.103 A 
HETATM    2  C3  UNL     1       4.062  31.450   3.954  1.00  0.00     0.054 A 
HETATM    3  C4  UNL     1       4.669  30.602   4.886  1.00  0.00     0.011 A 
HETATM    4  C7  UNL     1       4.509  30.772   6.272  1.00  0.00     0.001 A 
HETATM    5  C14 UNL     1       3.714  31.824   6.659  1.00  0.00     0.081 A 
HETATM    6 CL3  UNL     1       3.443  32.144   8.352  1.00  0.00    -0.080 Cl
HETATM    7  C15 UNL     1       3.088  32.695   5.752  1.00  0.00     0.121 A 
ENDROOT
BRANCH   3   8
HETATM    8  C5  UNL     1       5.452  29.507   4.335  1.00  0.00     0.113 A 
HETATM    9  N1  UNL     1       5.020  28.337   3.853  1.00  0.00    -0.237 N 
HETATM   10  O2  UNL     1       6.049  27.635   3.470  1.00  0.00    -0.155 OA
ATOM     11  H1  UNL     1       4.045  28.042   3.795  1.00  0.00     0.197 HD
HETATM   12  N2  UNL     1       7.145  28.278   3.672  1.00  0.00    -0.224 N 
HETATM   13  C6  UNL     1       6.849  29.463   4.212  1.00  0.00     0.151 A 
ATOM     14  H2  UNL     1       8.083  27.940   3.456  1.00  0.00     0.198 HD
BRANCH  13  15
HETATM   15  N3  UNL     1       7.615  30.443   4.589  1.00  0.00    -0.382 N 
ATOM     16  H32 UNL     1       7.413  31.273   5.146  1.00  0.00     0.157 HD
ATOM     17  H31 UNL     1       8.603  30.496   4.340  1.00  0.00     0.157 HD
ENDBRANCH  13  15
ENDBRANCH   3   8
BRANCH   4  18
HETATM   18  C8  UNL     1       5.215  29.875   7.147  1.00  0.00     0.010 C 
HETATM   19  C9  UNL     1       4.996  29.497   8.372  1.00  0.00    -0.025 C 
BRANCH  19  20
HETATM   20  C10 UNL     1       5.953  28.523   9.016  1.00  0.00     0.031 C 
BRANCH  20  21
HETATM   21  C11 UNL     1       7.329  28.563   8.462  1.00  0.00     0.033 C 
BRANCH  21  22
HETATM   22  C12 UNL     1       8.297  27.782   9.292  1.00  0.00     0.010 C 
HETATM   23  C13 UNL     1       8.906  26.713   8.831  1.00  0.00     0.099 C 
HETATM   24 CL1  UNL     1      10.031  25.820   9.818  1.00  0.00    -0.071 Cl
HETATM   25 CL2  UNL     1       8.598  26.156   7.200  1.00  0.00    -0.071 Cl
ENDBRANCH  21  22
ENDBRANCH  20  21
ENDBRANCH  19  20
ENDBRANCH   4  18
BRANCH   1  26
HETATM   26  O1  UNL     1       2.668  33.335   3.535  1.00  0.00    -0.353 OA
HETATM   27  C1  UNL     1       1.488  32.983   2.868  1.00  0.00     0.210 C 
ENDBRANCH   1  26
BRANCH   7  28
HETATM   28  O3  UNL     1       2.301  33.734   6.188  1.00  0.00    -0.356 OA
ATOM     29  H3  UNL     1       1.956  33.748   7.073  1.00  0.00     0.218 HD
ENDBRANCH   7  28
TORSDOF 8
ENDMDL
MODEL 4
REMARK VINA RESULT: -7.732506767      2.361      2.921
REMARK  8 active torsions:
REMARK  status: ('A' for Active; 'I' for Inactive)
REMARK    1  A    between atoms: O1_2  and  C2_3 
REMARK    2  A    between atoms: C4_5  and  C5_6 
REMARK    3  A    between atoms: C6_12  and  N3_13 
REMARK    4  A    between atoms: C7_16  and  C8_17 
REMARK    5  A    between atoms: C9_18  and  C10_19 
REMARK    6  A    between atoms: C10_19  and  C11_20 
REMARK    7  A    between atoms: C11_20  and  C12_21 
REMARK    8  A    between atoms: C15_27  and  O3_28 
ROOT
HETATM    1  C2  UNL     1       4.465  30.871   6.289  1.00  0.00     0.103 A 
HETATM    2  C3  UNL     1       5.336  30.560   5.285  1.00  0.00     0.054 A 
HETATM    3  C4  UNL     1       6.330  29.608   5.537  1.00  0.00     0.011 A 
HETATM    4  C7  UNL     1       6.459  28.970   6.783  1.00  0.00     0.001 A 
HETATM    5  C14 UNL     1       5.544  29.336   7.742  1.00  0.00     0.081 A 
HETATM    6 CL3  UNL     1       5.604  28.620   9.331  1.00  0.00    -0.080 Cl
HETATM    7  C15 UNL     1       4.533  30.286   7.523  1.00  0.00     0.121 A 
ENDROOT
BRANCH   3   8
HETATM    8  C5  UNL     1       7.205  29.290   4.420  1.00  0.00     0.113 A 
HETATM    9  N1  UNL     1       6.994  28.431   3.417  1.00  0.00    -0.237 N 
HETATM   10  O2  UNL     1       8.036  28.436   2.635  1.00  0.00    -0.155 OA
ATOM     11  H1  UNL     1       6.156  27.866   3.287  1.00  0.00     0.197 HD
HETATM   12  N2  UNL     1       8.931  29.255   3.065  1.00  0.00    -0.224 N 
HETATM   13  C6  UNL     1       8.478  29.829   4.183  1.00  0.00     0.151 A 
ATOM     14  H2  UNL     1       9.833  29.435   2.626  1.00  0.00     0.198 HD
BRANCH  13  15
HETATM   15  N3  UNL     1       9.023  30.710   4.968  1.00  0.00    -0.382 N 
ATOM     16  H32 UNL     1       9.114  31.722   4.875  1.00  0.00     0.157 HD
ATOM     17  H31 UNL     1       9.467  30.459   5.851  1.00  0.00     0.157 HD
ENDBRANCH  13  15
ENDBRANCH   3   8
BRANCH   4  18
HETATM   18  C8  UNL     1       7.545  28.043   6.956  1.00  0.00     0.010 C 
HETATM   19  C9  UNL     1       7.617  26.750   6.835  1.00  0.00    -0.025 C 
BRANCH  19  20
HETATM   20  C10 UNL     1       8.938  26.067   7.096  1.00  0.00     0.031 C 
BRANCH  20  21
HETATM   21  C11 UNL     1       9.686  26.608   8.258  1.00  0.00     0.033 C 
BRANCH  21  22
HETATM   22  C12 UNL     1       9.679  25.672   9.423  1.00  0.00     0.010 C 
HETATM   23  C13 UNL     1       9.245  26.038  10.608  1.00  0.00     0.099 C 
HETATM   24 CL1  UNL     1       9.246  24.927  11.952  1.00  0.00    -0.071 Cl
HETATM   25 CL2  UNL     1       8.649  27.664  10.867  1.00  0.00    -0.071 Cl
ENDBRANCH  21  22
ENDBRANCH  20  21
ENDBRANCH  19  20
ENDBRANCH   4  18
BRANCH   1  26
HETATM   26  O1  UNL     1       3.469  31.803   6.085  1.00  0.00    -0.353 OA
HETATM   27  C1  UNL     1       3.375  32.531   4.892  1.00  0.00     0.210 C 
ENDBRANCH   1  26
BRANCH   7  28
HETATM   28  O3  UNL     1       3.641  30.619   8.514  1.00  0.00    -0.356 OA
ATOM     29  H3  UNL     1       3.501  30.046   9.259  1.00  0.00     0.218 HD
ENDBRANCH   7  28
TORSDOF 8
ENDMDL
MODEL 5
REMARK VINA RESULT: -7.649343634      1.464      2.061
REMARK  8 active torsions:
REMARK  status: ('A' for Active; 'I' for Inactive)
REMARK    1  A    between atoms: O1_2  and  C2_3 
REMARK    2  A    between atoms: C4_5  and  C5_6 
REMARK    3  A    between atoms: C6_12  and  N3_13 
REMARK    4  A    between atoms: C7_16  and  C8_17 
REMARK    5  A    between atoms: C9_18  and  C10_19 
REMARK    6  A    between atoms: C10_19  and  C11_20 
REMARK    7  A    between atoms: C11_20  and  C12_21 
REMARK    8  A    between atoms: C15_27  and  O3_28 
ROOT
HETATM    1  C2  UNL     1       3.369  32.562   4.180  1.00  0.00     0.103 A 
HETATM    2  C3  UNL     1       4.135  31.492   3.812  1.00  0.00     0.054 A 
HETATM    3  C4  UNL     1       4.606  30.636   4.813  1.00  0.00     0.011 A 
HETATM    4  C7  UNL     1       4.319  30.842   6.173  1.00  0.00     0.001 A 
HETATM    5  C14 UNL     1       3.542  31.938   6.464  1.00  0.00     0.081 A 
HETATM    6 CL3  UNL     1       3.123  32.305   8.116  1.00  0.00    -0.080 Cl
HETATM    7  C15 UNL     1       3.051  32.818   5.485  1.00  0.00     0.121 A 
ENDROOT
BRANCH   3   8
HETATM    8  C5  UNL     1       5.385  29.494   4.359  1.00  0.00     0.113 A 
HETATM    9  N1  UNL     1       4.945  28.320   3.896  1.00  0.00    -0.237 N 
HETATM   10  O2  UNL     1       5.972  27.570   3.611  1.00  0.00    -0.155 OA
ATOM     11  H1  UNL     1       3.967  28.054   3.785  1.00  0.00     0.197 HD
HETATM   12  N2  UNL     1       7.074  28.186   3.860  1.00  0.00    -0.224 N 
HETATM   13  C6  UNL     1       6.784  29.401   4.332  1.00  0.00     0.151 A 
ATOM     14  H2  UNL     1       8.012  27.809   3.721  1.00  0.00     0.198 HD
BRANCH  13  15
HETATM   15  N3  UNL     1       7.558  30.371   4.720  1.00  0.00    -0.382 N 
ATOM     16  H32 UNL     1       7.702  30.784   5.641  1.00  0.00     0.157 HD
ATOM     17  H31 UNL     1       8.165  30.880   4.077  1.00  0.00     0.157 HD
ENDBRANCH  13  15
ENDBRANCH   3   8
BRANCH   4  18
HETATM   18  C8  UNL     1       4.892  29.932   7.128  1.00  0.00     0.010 C 
HETATM   19  C9  UNL     1       4.723  29.789   8.410  1.00  0.00    -0.025 C 
BRANCH  19  20
HETATM   20  C10 UNL     1       5.496  28.712   9.132  1.00  0.00     0.031 C 
BRANCH  20  21
HETATM   21  C11 UNL     1       6.950  28.703   8.836  1.00  0.00     0.033 C 
BRANCH  21  22
HETATM   22  C12 UNL     1       7.389  27.429   8.188  1.00  0.00     0.010 C 
HETATM   23  C13 UNL     1       8.471  27.362   7.445  1.00  0.00     0.099 C 
HETATM   24 CL1  UNL     1       8.962  25.864   6.701  1.00  0.00    -0.071 Cl
HETATM   25 CL2  UNL     1       9.453  28.788   7.184  1.00  0.00    -0.071 Cl
ENDBRANCH  21  22
ENDBRANCH  20  21
ENDBRANCH  19  20
ENDBRANCH   4  18
BRANCH   1  26
HETATM   26  O1  UNL     1       2.883  33.432   3.227  1.00  0.00    -0.353 OA
HETATM   27  C1  UNL     1       3.260  33.337   1.882  1.00  0.00     0.210 C 
ENDBRANCH   1  26
BRANCH   7  28
HETATM   28  O3  UNL     1       2.277  33.902   5.824  1.00  0.00    -0.356 OA
ATOM     29  H3  UNL     1       1.716  33.881   6.591  1.00  0.00     0.218 HD
ENDBRANCH   7  28
TORSDOF 8
ENDMDL
