MODEL 1
REMARK VINA RESULT: -9.026218943      0.000      0.000
REMARK  8 active torsions:
REMARK  status: ('A' for Active; 'I' for Inactive)
REMARK    1  A    between atoms: C2_3  and  C3_4 
REMARK    2  A    between atoms: C2_3  and  C10_20 
REMARK    3  A    between atoms: C3_4  and  C4_5 
REMARK    4  A    between atoms: C4_5  and  N2_6 
REMARK    5  A    between atoms: C6_8  and  O1_9 
REMARK    6  A    between atoms: C7_11  and  C8_12 
REMARK    7  A    between atoms: N3_13  and  O2_15 
REMARK    8  A    between atoms: C9_17  and  O3_18 
ROOT
HETATM    1  N1  UNL     1       6.092  28.344   2.816  1.00  0.00    -0.197 NA
HETATM    2  C1  UNL     1       6.438  28.306   3.915  1.00  0.00     0.068 C 
HETATM    3  C2  UNL     1       6.866  28.245   5.318  1.00  0.00     0.127 C 
ENDROOT
BRANCH   3   4
HETATM    4  C3  UNL     1       8.264  28.806   5.437  1.00  0.00     0.044 C 
BRANCH   4   5
HETATM    5  C4  UNL     1       9.290  27.745   5.707  1.00  0.00     0.132 C 
BRANCH   5   6
HETATM    6  N2  UNL     1       9.247  27.461   7.137  1.00  0.00    -0.334 N 
HETATM    7  C5  UNL     1       9.013  28.315   8.136  1.00  0.00     0.130 A 
HETATM    8  C6  UNL     1       9.049  27.689   9.358  1.00  0.00     0.097 A 
HETATM    9  C7  UNL     1       9.322  26.366   9.087  1.00  0.00     0.067 A 
HETATM   10  C9  UNL     1       9.439  26.252   7.718  1.00  0.00     0.157 A 
BRANCH   8  11
HETATM   11  O1  UNL     1       8.855  28.238  10.638  1.00  0.00    -0.358 OA
ATOM     12  H1  UNL     1       8.808  27.795  11.477  1.00  0.00     0.217 HD
ENDBRANCH   8  11
BRANCH   9  13
HETATM   13  C8  UNL     1       9.462  25.292  10.062  1.00  0.00     0.132 C 
HETATM   14  N3  UNL     1       9.751  25.536  11.291  1.00  0.00    -0.279 N 
ATOM     15  H3  UNL     1       9.882  26.507  11.575  1.00  0.00     0.193 HD
BRANCH  14  16
HETATM   16  O2  UNL     1       9.890  24.567  12.224  1.00  0.00    -0.290 OA
ATOM     17  H2  UNL     1      10.093  24.748  13.134  1.00  0.00     0.244 HD
ENDBRANCH  14  16
ENDBRANCH   9  13
BRANCH  10  18
HETATM   18  O3  UNL     1       9.711  25.103   6.975  1.00  0.00    -0.345 OA
ATOM     19  H3  UNL     1       9.616  24.229   7.336  1.00  0.00     0.219 HD
ENDBRANCH  10  18
ENDBRANCH   5   6
ENDBRANCH   4   5
ENDBRANCH   3   4
BRANCH   3  20
HETATM   20  C10 UNL     1       5.940  29.142   6.074  1.00  0.00    -0.037 A 
HETATM   21  C11 UNL     1       5.821  29.004   7.432  1.00  0.00     0.034 A 
HETATM   22  C12 UNL     1       4.958  29.845   8.102  1.00  0.00     0.058 A 
HETATM   23 CL1  UNL     1       4.832  29.636   9.855  1.00  0.00    -0.082 Cl
HETATM   24  C13 UNL     1       4.211  30.818   7.473  1.00  0.00     0.077 A 
HETATM   25 CL2  UNL     1       3.138  31.848   8.392  1.00  0.00    -0.081 Cl
HETATM   26  C14 UNL     1       4.372  30.911   6.103  1.00  0.00     0.058 A 
HETATM   27 CL3  UNL     1       3.429  32.147   5.281  1.00  0.00    -0.082 Cl
HETATM   28  C15 UNL     1       5.222  30.089   5.409  1.00  0.00     0.034 A 
ENDBRANCH   3  20
TORSDOF 8
ENDMDL
MODEL 2
REMARK VINA RESULT: -9.010652379      0.036      1.833
REMARK  8 active torsions:
REMARK  status: ('A' for Active; 'I' for Inactive)
REMARK    1  A    between atoms: C2_3  and  C3_4 
REMARK    2  A    between atoms: C2_3  and  C10_20 
REMARK    3  A    between atoms: C3_4  and  C4_5 
REMARK    4  A    between atoms: C4_5  and  N2_6 
REMARK    5  A    between atoms: C6_8  and  O1_9 
REMARK    6  A    between atoms: C7_11  and  C8_12 
REMARK    7  A    between atoms: N3_13  and  O2_15 
REMARK    8  A    between atoms: C9_17  and  O3_18 
ROOT
HETATM    1  N1  UNL     1       6.068  28.346   2.832  1.00  0.00    -0.197 NA
HETATM    2  C1  UNL     1       6.426  28.304   3.927  1.00  0.00     0.068 C 
HETATM    3  C2  UNL     1       6.869  28.239   5.326  1.00  0.00     0.127 C 
ENDROOT
BRANCH   3   4
HETATM    4  C3  UNL     1       8.264  28.809   5.434  1.00  0.00     0.044 C 
BRANCH   4   5
HETATM    5  C4  UNL     1       9.298  27.755   5.707  1.00  0.00     0.132 C 
BRANCH   5   6
HETATM    6  N2  UNL     1       9.252  27.472   7.137  1.00  0.00    -0.334 N 
HETATM    7  C5  UNL     1       9.011  28.325   8.134  1.00  0.00     0.130 A 
HETATM    8  C6  UNL     1       9.049  27.700   9.357  1.00  0.00     0.097 A 
HETATM    9  C7  UNL     1       9.331  26.379   9.088  1.00  0.00     0.067 A 
HETATM   10  C9  UNL     1       9.451  26.264   7.719  1.00  0.00     0.157 A 
BRANCH   8  11
HETATM   11  O1  UNL     1       8.848  28.249  10.636  1.00  0.00    -0.358 OA
ATOM     12  H1  UNL     1       8.985  27.847  11.486  1.00  0.00     0.217 HD
ENDBRANCH   8  11
BRANCH   9  13
HETATM   13  C8  UNL     1       9.475  25.306  10.063  1.00  0.00     0.132 C 
HETATM   14  N3  UNL     1       9.744  25.554  11.296  1.00  0.00    -0.279 N 
ATOM     15  H3  UNL     1       9.856  26.526  11.583  1.00  0.00     0.193 HD
BRANCH  14  16
HETATM   16  O2  UNL     1       9.886  24.586  12.231  1.00  0.00    -0.290 OA
ATOM     17  H2  UNL     1      10.676  24.473  12.746  1.00  0.00     0.244 HD
ENDBRANCH  14  16
ENDBRANCH   9  13
BRANCH  10  18
HETATM   18  O3  UNL     1       9.732  25.116   6.977  1.00  0.00    -0.345 OA
ATOM     19  H3  UNL     1       9.885  24.272   7.385  1.00  0.00     0.219 HD
ENDBRANCH  10  18
ENDBRANCH   5   6
ENDBRANCH   4   5
ENDBRANCH   3   4
BRANCH   3  20
HETATM   20  C10 UNL     1       5.945  29.126   6.096  1.00  0.00    -0.037 A 
HETATM   21  C11 UNL     1       5.208  30.073   5.436  1.00  0.00     0.034 A 
HETATM   22  C12 UNL     1       4.364  30.877   6.173  1.00  0.00     0.058 A 
HETATM   23 CL1  UNL     1       3.429  32.089   5.284  1.00  0.00    -0.082 Cl
HETATM   24  C13 UNL     1       4.226  30.773   7.541  1.00  0.00     0.077 A 
HETATM   25 CL2  UNL     1       3.135  31.829   8.406  1.00  0.00    -0.081 Cl
HETATM   26  C14 UNL     1       4.994  29.800   8.152  1.00  0.00     0.058 A 
HETATM   27 CL3  UNL     1       4.832  29.650   9.898  1.00  0.00    -0.082 Cl
HETATM   28  C15 UNL     1       5.842  28.986   7.447  1.00  0.00     0.034 A 
ENDBRANCH   3  20
TORSDOF 8
ENDMDL
MODEL 3
REMARK VINA RESULT: -8.724855494      0.861      1.160
REMARK  8 active torsions:
REMARK  status: ('A' for Active; 'I' for Inactive)
REMARK    1  A    between atoms: C2_3  and  C3_4 
REMARK    2  A    between atoms: C2_3  and  C10_20 
REMARK    3  A    between atoms: C3_4  and  C4_5 
REMARK    4  A    between atoms: C4_5  and  N2_6 
REMARK    5  A    between atoms: C6_8  and  O1_9 
REMARK    6  A    between atoms: C7_11  and  C8_12 
REMARK    7  A    between atoms: N3_13  and  O2_15 
REMARK    8  A    between atoms: C9_17  and  O3_18 
ROOT
HETATM    1  N1  UNL     1       6.450  28.308   2.659  1.00  0.00    -0.197 NA
HETATM    2  C1  UNL     1       6.445  28.475   3.799  1.00  0.00     0.068 C 
HETATM    3  C2  UNL     1       6.422  28.678   5.254  1.00  0.00     0.127 C 
ENDROOT
BRANCH   3   4
HETATM    4  C3  UNL     1       7.784  29.145   5.712  1.00  0.00     0.044 C 
BRANCH   4   5
HETATM    5  C4  UNL     1       8.771  28.019   5.827  1.00  0.00     0.132 C 
BRANCH   5   6
HETATM    6  N2  UNL     1       8.868  27.677   7.241  1.00  0.00    -0.334 N 
HETATM    7  C5  UNL     1       8.592  28.452   8.292  1.00  0.00     0.130 A 
HETATM    8  C6  UNL     1       8.800  27.790   9.478  1.00  0.00     0.097 A 
HETATM    9  C7  UNL     1       9.230  26.530   9.128  1.00  0.00     0.067 A 
HETATM   10  C9  UNL     1       9.264  26.485   7.750  1.00  0.00     0.157 A 
BRANCH   8  11
HETATM   11  O1  UNL     1       8.625  28.258  10.793  1.00  0.00    -0.358 OA
ATOM     12  H1  UNL     1       7.866  28.178  11.359  1.00  0.00     0.217 HD
ENDBRANCH   8  11
BRANCH   9  13
HETATM   13  C8  UNL     1       9.584  25.449  10.038  1.00  0.00     0.132 C 
HETATM   14  N3  UNL     1       9.635  25.635  11.310  1.00  0.00    -0.279 N 
ATOM     15  H3  UNL     1       9.421  26.563  11.674  1.00  0.00     0.193 HD
BRANCH  14  16
HETATM   16  O2  UNL     1       9.960  24.657  12.187  1.00  0.00    -0.290 OA
ATOM     17  H2  UNL     1       9.511  24.532  13.015  1.00  0.00     0.244 HD
ENDBRANCH  14  16
ENDBRANCH   9  13
BRANCH  10  18
HETATM   18  O3  UNL     1       9.635  25.414   6.936  1.00  0.00    -0.345 OA
ATOM     19  H3  UNL     1      10.340  24.820   7.168  1.00  0.00     0.219 HD
ENDBRANCH  10  18
ENDBRANCH   5   6
ENDBRANCH   4   5
ENDBRANCH   3   4
BRANCH   3  20
HETATM   20  C10 UNL     1       5.446  29.782   5.504  1.00  0.00    -0.037 A 
HETATM   21  C11 UNL     1       5.038  30.048   6.784  1.00  0.00     0.034 A 
HETATM   22  C12 UNL     1       4.136  31.073   6.984  1.00  0.00     0.058 A 
HETATM   23 CL1  UNL     1       3.633  31.386   8.652  1.00  0.00    -0.082 Cl
HETATM   24  C13 UNL     1       3.626  31.840   5.958  1.00  0.00     0.077 A 
HETATM   25 CL2  UNL     1       2.485  33.122   6.291  1.00  0.00    -0.081 Cl
HETATM   26  C14 UNL     1       4.073  31.526   4.689  1.00  0.00     0.058 A 
HETATM   27 CL3  UNL     1       3.436  32.494   3.366  1.00  0.00    -0.082 Cl
HETATM   28  C15 UNL     1       4.969  30.514   4.458  1.00  0.00     0.034 A 
ENDBRANCH   3  20
TORSDOF 8
ENDMDL
MODEL 4
REMARK VINA RESULT: -8.719998786      0.850      2.099
REMARK  8 active torsions:
REMARK  status: ('A' for Active; 'I' for Inactive)
REMARK    1  A    between atoms: C2_3  and  C3_4 
REMARK    2  A    between atoms: C2_3  and  C10_20 
REMARK    3  A    between atoms: C3_4  and  C4_5 
REMARK    4  A    between atoms: C4_5  and  N2_6 
REMARK    5  A    between atoms: C6_8  and  O1_9 
REMARK    6  A    between atoms: C7_11  and  C8_12 
REMARK    7  A    between atoms: N3_13  and  O2_15 
REMARK    8  A    between atoms: C9_17  and  O3_18 
ROOT
HETATM    1  N1  UNL     1       6.445  28.307   2.686  1.00  0.00    -0.197 NA
HETATM    2  C1  UNL     1       6.453  28.474   3.827  1.00  0.00     0.068 C 
HETATM    3  C2  UNL     1       6.446  28.677   5.281  1.00  0.00     0.127 C 
ENDROOT
BRANCH   3   4
HETATM    4  C3  UNL     1       7.811  29.150   5.723  1.00  0.00     0.044 C 
BRANCH   4   5
HETATM    5  C4  UNL     1       8.801  28.027   5.841  1.00  0.00     0.132 C 
BRANCH   5   6
HETATM    6  N2  UNL     1       8.895  27.686   7.256  1.00  0.00    -0.334 N 
HETATM    7  C5  UNL     1       8.681  28.480   8.306  1.00  0.00     0.130 A 
HETATM    8  C6  UNL     1       8.863  27.812   9.493  1.00  0.00     0.097 A 
HETATM    9  C7  UNL     1       9.211  26.526   9.143  1.00  0.00     0.067 A 
HETATM   10  C9  UNL     1       9.224  26.474   7.765  1.00  0.00     0.157 A 
BRANCH   8  11
HETATM   11  O1  UNL     1       8.734  28.295  10.807  1.00  0.00    -0.358 OA
ATOM     12  H1  UNL     1       9.249  28.078  11.576  1.00  0.00     0.217 HD
ENDBRANCH   8  11
BRANCH   9  13
HETATM   13  C8  UNL     1       9.510  25.429  10.054  1.00  0.00     0.132 C 
HETATM   14  N3  UNL     1       9.668  25.630  11.315  1.00  0.00    -0.279 N 
ATOM     15  H3  UNL     1       9.579  26.582  11.670  1.00  0.00     0.193 HD
BRANCH  14  16
HETATM   16  O2  UNL     1       9.946  24.639  12.192  1.00  0.00    -0.290 OA
ATOM     17  H2  UNL     1      10.297  24.797  13.060  1.00  0.00     0.244 HD
ENDBRANCH  14  16
ENDBRANCH   9  13
BRANCH  10  18
HETATM   18  O3  UNL     1       9.519  25.378   6.952  1.00  0.00    -0.345 OA
ATOM     19  H3  UNL     1      10.254  24.802   7.124  1.00  0.00     0.219 HD
ENDBRANCH  10  18
ENDBRANCH   5   6
ENDBRANCH   4   5
ENDBRANCH   3   4
BRANCH   3  20
HETATM   20  C10 UNL     1       5.467  29.775   5.543  1.00  0.00    -0.037 A 
HETATM   21  C11 UNL     1       5.015  30.541   4.502  1.00  0.00     0.034 A 
HETATM   22  C12 UNL     1       4.112  31.548   4.774  1.00  0.00     0.058 A 
HETATM   23 CL1  UNL     1       3.550  32.516   3.403  1.00  0.00    -0.082 Cl
HETATM   24  C13 UNL     1       3.644  31.820   6.042  1.00  0.00     0.077 A 
HETATM   25 CL2  UNL     1       2.499  33.114   6.308  1.00  0.00    -0.081 Cl
HETATM   26  C14 UNL     1       4.135  31.014   7.052  1.00  0.00     0.058 A 
HETATM   27 CL3  UNL     1       3.550  31.343   8.678  1.00  0.00    -0.082 Cl
HETATM   28  C15 UNL     1       5.033  30.006   6.813  1.00  0.00     0.034 A 
ENDBRANCH   3  20
TORSDOF 8
ENDMDL
MODEL 5
REMARK VINA RESULT: -8.510770830      1.579      2.012
REMARK  8 active torsions:
REMARK  status: ('A' for Active; 'I' for Inactive)
REMARK    1  A    between atoms: C2_3  and  C3_4 
REMARK    2  A    between atoms: C2_3  and  C10_20 
REMARK    3  A    between atoms: C3_4  and  C4_5 
REMARK    4  A    between atoms: C4_5  and  N2_6 
REMARK    5  A    between atoms: C6_8  and  O1_9 
REMARK    6  A    between atoms: C7_11  and  C8_12 
REMARK    7  A    between atoms: N3_13  and  O2_15 
REMARK    8  A    between atoms: C9_17  and  O3_18 
ROOT
HETATM    1  N1  UNL     1       8.803  30.703   4.963  1.00  0.00    -0.197 NA
HETATM    2  C1  UNL     1       7.822  30.109   4.844  1.00  0.00     0.068 C 
HETATM    3  C2  UNL     1       6.571  29.359   4.674  1.00  0.00     0.127 C 
ENDROOT
BRANCH   3   4
HETATM    4  C3  UNL     1       6.496  28.273   5.722  1.00  0.00     0.044 C 
BRANCH   4   5
HETATM    5  C4  UNL     1       7.658  27.326   5.656  1.00  0.00     0.132 C 
BRANCH   5   6
HETATM    6  N2  UNL     1       8.180  27.193   7.011  1.00  0.00    -0.334 N 
HETATM    7  C5  UNL     1       7.894  27.943   8.077  1.00  0.00     0.130 A 
HETATM    8  C6  UNL     1       8.578  27.522   9.192  1.00  0.00     0.097 A 
HETATM    9  C7  UNL     1       9.330  26.444   8.779  1.00  0.00     0.067 A 
HETATM   10  C9  UNL     1       9.068  26.262   7.437  1.00  0.00     0.157 A 
BRANCH   8  11
HETATM   11  O1  UNL     1       8.548  28.047  10.496  1.00  0.00    -0.358 OA
ATOM     12  H1  UNL     1       8.931  27.693  11.290  1.00  0.00     0.217 HD
ENDBRANCH   8  11
BRANCH   9  13
HETATM   13  C8  UNL     1      10.229  25.648   9.603  1.00  0.00     0.132 C 
HETATM   14  N3  UNL     1      10.840  26.158  10.613  1.00  0.00    -0.279 N 
ATOM     15  H3  UNL     1      10.681  27.141  10.831  1.00  0.00     0.193 HD
BRANCH  14  16
HETATM   16  O2  UNL     1      11.683  25.451  11.401  1.00  0.00    -0.290 OA
ATOM     17  H2  UNL     1      11.435  25.109  12.251  1.00  0.00     0.244 HD
ENDBRANCH  14  16
ENDBRANCH   9  13
BRANCH  10  18
HETATM   18  O3  UNL     1       9.598  25.291   6.586  1.00  0.00    -0.345 OA
ATOM     19  H3  UNL     1      10.417  25.415   6.121  1.00  0.00     0.219 HD
ENDBRANCH  10  18
ENDBRANCH   5   6
ENDBRANCH   4   5
ENDBRANCH   3   4
BRANCH   3  20
HETATM   20  C10 UNL     1       5.466  30.331   4.933  1.00  0.00    -0.037 A 
HETATM   21  C11 UNL     1       5.012  30.515   6.212  1.00  0.00     0.034 A 
HETATM   22  C12 UNL     1       3.990  31.418   6.421  1.00  0.00     0.058 A 
HETATM   23 CL1  UNL     1       3.431  31.628   8.087  1.00  0.00    -0.082 Cl
HETATM   24  C13 UNL     1       3.406  32.144   5.405  1.00  0.00     0.077 A 
HETATM   25 CL2  UNL     1       2.115  33.272   5.748  1.00  0.00    -0.081 Cl
HETATM   26  C14 UNL     1       3.905  31.917   4.136  1.00  0.00     0.058 A 
HETATM   27 CL3  UNL     1       3.174  32.834   2.825  1.00  0.00    -0.082 Cl
HETATM   28  C15 UNL     1       4.919  31.026   3.897  1.00  0.00     0.034 A 
ENDBRANCH   3  20
TORSDOF 8
ENDMDL
