MODEL 1
REMARK VINA RESULT: -10.538762442      0.000      0.000
REMARK  16 active torsions:
REMARK  status: ('A' for Active; 'I' for Inactive)
REMARK       I    between atoms: C2_2  and  N1_4 
REMARK    1  A    between atoms: N1_4  and  C3_6 
REMARK    2  A    between atoms: C4_7  and  O2_8 
REMARK    3  A    between atoms: C6_11  and  N2_12 
REMARK    4  A    between atoms: C7_17  and  C8_18 
REMARK    5  A    between atoms: C8_18  and  N5_19 
REMARK       I    between atoms: N5_19  and  C9_20 
REMARK    6  A    between atoms: C9_20  and  C10_22 
REMARK    7  A    between atoms: C10_22  and  C11_23 
REMARK    8  A    between atoms: C11_23  and  C12_24 
REMARK       I    between atoms: C12_24  and  N6_26 
REMARK    9  A    between atoms: N6_26  and  C13_28 
REMARK   10  A    between atoms: N8_31  and  N9_32 
REMARK   11  A    between atoms: C15_38  and  N11_39 
REMARK   12  A    between atoms: C16_44  and  N13_45 
REMARK   13  A    between atoms: C19_51  and  O6_52 
REMARK   14  A    between atoms: C20_55  and  C21_56 
REMARK   15  A    between atoms: C21_56  and  O8_57 
REMARK   16  A    between atoms: C21_56  and  O9_59 
ROOT
HETATM    1  N5  UNL     1      83.831   7.177 123.661  1.00  0.00    -0.381 NA
HETATM    2  C9  UNL     1      83.672   6.913 124.955  1.00  0.00     0.291 C 
HETATM    3  O3  UNL     1      84.562   6.990 125.855  1.00  0.00    -0.257 OA
ENDROOT
BRANCH   2   4
HETATM    4  C10 UNL     1      82.276   6.450 125.448  1.00  0.00     0.128 C 
BRANCH   4   5
HETATM    5  C11 UNL     1      82.030   5.126 124.835  1.00  0.00     0.113 C 
BRANCH   5   6
HETATM    6  C12 UNL     1      82.570   4.030 125.657  1.00  0.00     0.223 C 
HETATM    7  O4  UNL     1      82.205   3.851 126.825  1.00  0.00    -0.273 OA
HETATM    8  N6  UNL     1      83.563   3.144 125.085  1.00  0.00    -0.309 N 
ATOM      9  H6  UNL     1      83.842   3.264 124.111  1.00  0.00     0.170 HD
BRANCH   8  10
HETATM   10  C13 UNL     1      84.144   2.131 125.844  1.00  0.00     0.176 A 
HETATM   11  N7  UNL     1      84.606   2.294 127.075  1.00  0.00    -0.259 N 
HETATM   12  N8  UNL     1      85.167   1.323 127.747  1.00  0.00    -0.183 N 
ATOM     13  H7  UNL     1      84.521   3.211 127.514  1.00  0.00     0.191 HD
HETATM   14  C14 UNL     1      85.308   0.069 127.214  1.00  0.00     0.178 A 
HETATM   15  N10 UNL     1      85.894  -0.906 127.938  1.00  0.00    -0.172 N 
HETATM   16  C17 UNL     1      84.844  -0.169 125.929  1.00  0.00     0.110 A 
HETATM   17  C15 UNL     1      86.030  -2.145 127.395  1.00  0.00     0.679 A 
ATOM     18  H10 UNL     1      86.231  -0.717 128.882  1.00  0.00     0.186 HD
HETATM   19  N12 UNL     1      85.599  -2.416 126.172  1.00  0.00    -0.176 N 
HETATM   20  C16 UNL     1      84.996  -1.444 125.401  1.00  0.00     0.133 A 
ATOM     21  H12 UNL     1      85.715  -3.356 125.795  1.00  0.00     0.186 HD
HETATM   22  C18 UNL     1      84.272   0.861 125.262  1.00  0.00     0.234 A 
HETATM   23  O5  UNL     1      83.845   0.684 124.091  1.00  0.00    -0.283 OA
BRANCH  12  24
HETATM   24  N9  UNL     1      85.668   1.522 129.046  1.00  0.00    -0.322 N 
ATOM     25  H92 UNL     1      85.242   2.268 129.596  1.00  0.00     0.179 HD
ATOM     26  H91 UNL     1      86.415   0.939 129.425  1.00  0.00     0.179 HD
ENDBRANCH  12  24
BRANCH  17  27
HETATM   27  N11 UNL     1      86.622  -3.071 128.061  1.00  0.00    -0.234 N 
ATOM     28 2H11 UNL     1      86.303  -4.033 127.954  1.00  0.00     0.174 HD
ATOM     29 1H11 UNL     1      87.415  -2.835 128.658  1.00  0.00     0.174 HD
ENDBRANCH  17  27
BRANCH  20  30
HETATM   30  N13 UNL     1      84.626  -1.755 124.280  1.00  0.00    -0.384 N 
ATOM     31 2H13 UNL     1      84.967  -2.579 123.785  1.00  0.00     0.157 HD
ATOM     32 1H13 UNL     1      83.937  -1.157 123.824  1.00  0.00     0.157 HD
ENDBRANCH  20  30
ENDBRANCH   8  10
ENDBRANCH   5   6
ENDBRANCH   4   5
ENDBRANCH   2   4
BRANCH   1  33
HETATM   33  C8  UNL     1      84.016   7.455 122.322  1.00  0.00     0.221 C 
BRANCH  33  34
HETATM   34  C7  UNL     1      84.724   6.296 121.688  1.00  0.00     0.130 A 
HETATM   35  N4  UNL     1      86.034   6.257 121.418  1.00  0.00    -0.280 N 
HETATM   36  N3  UNL     1      86.296   5.122 120.872  1.00  0.00    -0.235 N 
ATOM     37  H4  UNL     1      86.708   6.998 121.612  1.00  0.00     0.189 HD
HETATM   38  N2  UNL     1      85.148   4.361 120.761  1.00  0.00    -0.225 N 
ATOM     39  H3  UNL     1      87.222   4.825 120.565  1.00  0.00     0.208 HD
HETATM   40  C19 UNL     1      84.197   5.121 121.277  1.00  0.00     0.192 A 
BRANCH  38  41
HETATM   41  C6  UNL     1      85.152   3.047 120.185  1.00  0.00     0.251 C 
HETATM   42  C5  UNL     1      85.680   2.028 121.162  1.00  0.00     0.089 C 
HETATM   43  C4  UNL     1      85.666   0.641 120.662  1.00  0.00     0.147 C 
HETATM   44  C3  UNL     1      84.746   0.399 119.523  1.00  0.00     0.147 C 
HETATM   45  C20 UNL     1      83.894   1.499 119.067  1.00  0.00     0.204 C 
HETATM   46  O7  UNL     1      83.856   2.640 119.867  1.00  0.00    -0.352 OA
BRANCH  43  47
HETATM   47  O2  UNL     1      85.276  -0.146 121.798  1.00  0.00    -0.393 OA
ATOM     48  H2  UNL     1      85.440  -1.068 121.636  1.00  0.00     0.210 HD
ENDBRANCH  43  47
BRANCH  44  49
HETATM   49  N1  UNL     1      84.005  -0.847 119.753  1.00  0.00    -0.352 N 
HETATM   50  C2  UNL     1      82.871  -1.098 120.501  1.00  0.00     0.214 C 
HETATM   51  C1  UNL     1      82.312  -2.503 120.522  1.00  0.00     0.117 C 
HETATM   52  O1  UNL     1      82.249  -0.271 121.167  1.00  0.00    -0.274 OA
ATOM     53  H1  UNL     1      84.392  -1.664 119.282  1.00  0.00     0.163 HD
ENDBRANCH  44  49
BRANCH  45  54
HETATM   54  C21 UNL     1      84.221   2.019 117.671  1.00  0.00     0.284 C 
BRANCH  54  55
HETATM   55  O8  UNL     1      84.598   1.100 116.749  1.00  0.00    -0.369 OA
ATOM     56  H8  UNL     1      84.066   0.315 116.684  1.00  0.00     0.212 HD
ENDBRANCH  54  55
BRANCH  54  57
HETATM   57  O9  UNL     1      83.167   2.883 117.246  1.00  0.00    -0.369 OA
ATOM     58  H9  UNL     1      83.014   2.743 116.318  1.00  0.00     0.212 HD
ENDBRANCH  54  57
ENDBRANCH  45  54
ENDBRANCH  38  41
BRANCH  40  59
HETATM   59  O6  UNL     1      82.848   4.784 121.392  1.00  0.00    -0.343 OA
ATOM     60  H6  UNL     1      82.395   4.554 122.195  1.00  0.00     0.219 HD
ENDBRANCH  40  59
ENDBRANCH  33  34
ENDBRANCH   1  33
TORSDOF 16
ENDMDL
MODEL 2
REMARK VINA RESULT: -10.425861262      1.055      1.223
REMARK  16 active torsions:
REMARK  status: ('A' for Active; 'I' for Inactive)
REMARK       I    between atoms: C2_2  and  N1_4 
REMARK    1  A    between atoms: N1_4  and  C3_6 
REMARK    2  A    between atoms: C4_7  and  O2_8 
REMARK    3  A    between atoms: C6_11  and  N2_12 
REMARK    4  A    between atoms: C7_17  and  C8_18 
REMARK    5  A    between atoms: C8_18  and  N5_19 
REMARK       I    between atoms: N5_19  and  C9_20 
REMARK    6  A    between atoms: C9_20  and  C10_22 
REMARK    7  A    between atoms: C10_22  and  C11_23 
REMARK    8  A    between atoms: C11_23  and  C12_24 
REMARK       I    between atoms: C12_24  and  N6_26 
REMARK    9  A    between atoms: N6_26  and  C13_28 
REMARK   10  A    between atoms: N8_31  and  N9_32 
REMARK   11  A    between atoms: C15_38  and  N11_39 
REMARK   12  A    between atoms: C16_44  and  N13_45 
REMARK   13  A    between atoms: C19_51  and  O6_52 
REMARK   14  A    between atoms: C20_55  and  C21_56 
REMARK   15  A    between atoms: C21_56  and  O8_57 
REMARK   16  A    between atoms: C21_56  and  O9_59 
ROOT
HETATM    1  N5  UNL     1      83.695   7.207 123.544  1.00  0.00    -0.381 NA
HETATM    2  C9  UNL     1      83.430   6.948 124.822  1.00  0.00     0.291 C 
HETATM    3  O3  UNL     1      83.304   7.798 125.754  1.00  0.00    -0.257 OA
ENDROOT
BRANCH   2   4
HETATM    4  C10 UNL     1      83.263   5.467 125.256  1.00  0.00     0.128 C 
BRANCH   4   5
HETATM    5  C11 UNL     1      84.573   4.814 125.039  1.00  0.00     0.113 C 
BRANCH   5   6
HETATM    6  C12 UNL     1      84.861   3.803 126.070  1.00  0.00     0.223 C 
HETATM    7  O4  UNL     1      85.534   4.069 127.074  1.00  0.00    -0.273 OA
HETATM    8  N6  UNL     1      84.349   2.458 125.901  1.00  0.00    -0.309 N 
ATOM      9  H6  UNL     1      83.763   2.242 125.095  1.00  0.00     0.170 HD
BRANCH   8  10
HETATM   10  C13 UNL     1      84.645   1.457 126.823  1.00  0.00     0.176 A 
HETATM   11  N7  UNL     1      84.647   1.630 128.135  1.00  0.00    -0.259 N 
HETATM   12  N8  UNL     1      84.954   0.669 128.968  1.00  0.00    -0.183 N 
ATOM     13  H7  UNL     1      84.400   2.546 128.511  1.00  0.00     0.191 HD
HETATM   14  C14 UNL     1      85.293  -0.582 128.527  1.00  0.00     0.178 A 
HETATM   15  N10 UNL     1      85.606  -1.546 129.417  1.00  0.00    -0.172 N 
HETATM   16  C17 UNL     1      85.310  -0.830 127.163  1.00  0.00     0.110 A 
HETATM   17  C15 UNL     1      85.943  -2.783 128.965  1.00  0.00     0.679 A 
ATOM     18  H10 UNL     1      85.591  -1.349 130.418  1.00  0.00     0.186 HD
HETATM   19  N12 UNL     1      85.970  -3.063 127.670  1.00  0.00    -0.176 N 
HETATM   20  C16 UNL     1      85.657  -2.103 126.730  1.00  0.00     0.133 A 
ATOM     21  H12 UNL     1      86.225  -4.001 127.364  1.00  0.00     0.186 HD
HETATM   22  C18 UNL     1      84.988   0.189 126.331  1.00  0.00     0.234 A 
HETATM   23  O5  UNL     1      84.999   0.003 125.085  1.00  0.00    -0.283 OA
BRANCH  12  24
HETATM   24  N9  UNL     1      84.970   0.880 130.359  1.00  0.00    -0.322 N 
ATOM     25  H92 UNL     1      85.490   1.689 130.698  1.00  0.00     0.179 HD
ATOM     26  H91 UNL     1      84.472   0.259 130.997  1.00  0.00     0.179 HD
ENDBRANCH  12  24
BRANCH  17  27
HETATM   27  N11 UNL     1      86.282  -3.697 129.802  1.00  0.00    -0.234 N 
ATOM     28 2H11 UNL     1      86.311  -3.466 130.795  1.00  0.00     0.174 HD
ATOM     29 1H11 UNL     1      86.486  -4.638 129.467  1.00  0.00     0.174 HD
ENDBRANCH  17  27
BRANCH  20  30
HETATM   30  N13 UNL     1      85.705  -2.422 125.553  1.00  0.00    -0.384 N 
ATOM     31 2H13 UNL     1      86.549  -2.344 124.984  1.00  0.00     0.157 HD
ATOM     32 1H13 UNL     1      84.855  -2.787 125.124  1.00  0.00     0.157 HD
ENDBRANCH  20  30
ENDBRANCH   8  10
ENDBRANCH   5   6
ENDBRANCH   4   5
ENDBRANCH   2   4
BRANCH   1  33
HETATM   33  C8  UNL     1      83.971   7.496 122.224  1.00  0.00     0.221 C 
BRANCH  33  34
HETATM   34  C7  UNL     1      84.694   6.329 121.621  1.00  0.00     0.130 A 
HETATM   35  N4  UNL     1      86.004   6.299 121.352  1.00  0.00    -0.280 N 
HETATM   36  N3  UNL     1      86.280   5.153 120.837  1.00  0.00    -0.235 N 
ATOM     37  H4  UNL     1      86.669   7.053 121.525  1.00  0.00     0.189 HD
HETATM   38  N2  UNL     1      85.141   4.375 120.747  1.00  0.00    -0.225 N 
ATOM     39  H3  UNL     1      87.209   4.859 120.537  1.00  0.00     0.208 HD
HETATM   40  C19 UNL     1      84.181   5.137 121.242  1.00  0.00     0.192 A 
BRANCH  38  41
HETATM   41  C6  UNL     1      85.161   3.046 120.207  1.00  0.00     0.251 C 
HETATM   42  C5  UNL     1      85.656   2.053 121.228  1.00  0.00     0.089 C 
HETATM   43  C4  UNL     1      85.655   0.653 120.765  1.00  0.00     0.147 C 
HETATM   44  C3  UNL     1      84.772   0.382 119.603  1.00  0.00     0.147 C 
HETATM   45  C20 UNL     1      83.938   1.470 119.090  1.00  0.00     0.204 C 
HETATM   46  O7  UNL     1      83.876   2.632 119.858  1.00  0.00    -0.352 OA
BRANCH  43  47
HETATM   47  O2  UNL     1      85.225  -0.103 121.909  1.00  0.00    -0.393 OA
ATOM     48  H2  UNL     1      85.961  -0.562 122.298  1.00  0.00     0.210 HD
ENDBRANCH  43  47
BRANCH  44  49
HETATM   49  N1  UNL     1      84.021  -0.857 119.843  1.00  0.00    -0.352 N 
HETATM   50  C2  UNL     1      82.855  -1.084 120.547  1.00  0.00     0.214 C 
HETATM   51  C1  UNL     1      82.295  -2.488 120.590  1.00  0.00     0.117 C 
HETATM   52  O1  UNL     1      82.203  -0.235 121.154  1.00  0.00    -0.274 OA
ATOM     53  H1  UNL     1      84.429  -1.689 119.417  1.00  0.00     0.163 HD
ENDBRANCH  44  49
BRANCH  45  54
HETATM   54  C21 UNL     1      84.312   1.952 117.692  1.00  0.00     0.284 C 
BRANCH  54  55
HETATM   55  O8  UNL     1      84.644   1.000 116.786  1.00  0.00    -0.369 OA
ATOM     56  H8  UNL     1      85.435   1.149 116.279  1.00  0.00     0.212 HD
ENDBRANCH  54  55
BRANCH  54  57
HETATM   57  O9  UNL     1      83.316   2.871 117.243  1.00  0.00    -0.369 OA
ATOM     58  H9  UNL     1      83.748   3.631 116.872  1.00  0.00     0.212 HD
ENDBRANCH  54  57
ENDBRANCH  45  54
ENDBRANCH  38  41
BRANCH  40  59
HETATM   59  O6  UNL     1      82.836   4.786 121.368  1.00  0.00    -0.343 OA
ATOM     60  H6  UNL     1      82.130   5.363 121.632  1.00  0.00     0.219 HD
ENDBRANCH  40  59
ENDBRANCH  33  34
ENDBRANCH   1  33
TORSDOF 16
ENDMDL
MODEL 3
REMARK VINA RESULT: -10.381373780      1.239      2.081
REMARK  16 active torsions:
REMARK  status: ('A' for Active; 'I' for Inactive)
REMARK       I    between atoms: C2_2  and  N1_4 
REMARK    1  A    between atoms: N1_4  and  C3_6 
REMARK    2  A    between atoms: C4_7  and  O2_8 
REMARK    3  A    between atoms: C6_11  and  N2_12 
REMARK    4  A    between atoms: C7_17  and  C8_18 
REMARK    5  A    between atoms: C8_18  and  N5_19 
REMARK       I    between atoms: N5_19  and  C9_20 
REMARK    6  A    between atoms: C9_20  and  C10_22 
REMARK    7  A    between atoms: C10_22  and  C11_23 
REMARK    8  A    between atoms: C11_23  and  C12_24 
REMARK       I    between atoms: C12_24  and  N6_26 
REMARK    9  A    between atoms: N6_26  and  C13_28 
REMARK   10  A    between atoms: N8_31  and  N9_32 
REMARK   11  A    between atoms: C15_38  and  N11_39 
REMARK   12  A    between atoms: C16_44  and  N13_45 
REMARK   13  A    between atoms: C19_51  and  O6_52 
REMARK   14  A    between atoms: C20_55  and  C21_56 
REMARK   15  A    between atoms: C21_56  and  O8_57 
REMARK   16  A    between atoms: C21_56  and  O9_59 
ROOT
HETATM    1  N5  UNL     1      83.745   7.087 123.656  1.00  0.00    -0.381 NA
HETATM    2  C9  UNL     1      83.508   6.766 124.925  1.00  0.00     0.291 C 
HETATM    3  O3  UNL     1      83.484   7.560 125.913  1.00  0.00    -0.257 OA
ENDROOT
BRANCH   2   4
HETATM    4  C10 UNL     1      83.240   5.277 125.271  1.00  0.00     0.128 C 
BRANCH   4   5
HETATM    5  C11 UNL     1      84.261   4.886 126.269  1.00  0.00     0.113 C 
BRANCH   5   6
HETATM    6  C12 UNL     1      84.775   3.528 126.026  1.00  0.00     0.223 C 
HETATM    7  O4  UNL     1      85.785   3.326 125.341  1.00  0.00    -0.273 OA
HETATM    8  N6  UNL     1      84.073   2.396 126.597  1.00  0.00    -0.309 N 
ATOM      9  H6  UNL     1      83.261   2.558 127.193  1.00  0.00     0.170 HD
BRANCH   8  10
HETATM   10  C13 UNL     1      84.490   1.091 126.345  1.00  0.00     0.176 A 
HETATM   11  N7  UNL     1      84.327   0.468 125.189  1.00  0.00    -0.259 N 
HETATM   12  N8  UNL     1      84.711  -0.768 124.999  1.00  0.00    -0.183 N 
ATOM     13  H7  UNL     1      83.885   0.969 124.418  1.00  0.00     0.191 HD
HETATM   14  C14 UNL     1      85.312  -1.494 125.993  1.00  0.00     0.178 A 
HETATM   15  N10 UNL     1      85.692  -2.766 125.760  1.00  0.00    -0.172 N 
HETATM   16  C17 UNL     1      85.513  -0.899 127.229  1.00  0.00     0.110 A 
HETATM   17  C15 UNL     1      86.285  -3.476 126.756  1.00  0.00     0.679 A 
ATOM     18  H10 UNL     1      85.537  -3.192 124.846  1.00  0.00     0.186 HD
HETATM   19  N12 UNL     1      86.497  -2.945 127.951  1.00  0.00    -0.176 N 
HETATM   20  C16 UNL     1      86.121  -1.648 128.228  1.00  0.00     0.133 A 
ATOM     21  H12 UNL     1      86.946  -3.504 128.676  1.00  0.00     0.186 HD
HETATM   22  C18 UNL     1      85.100   0.381 127.390  1.00  0.00     0.234 A 
HETATM   23  O5  UNL     1      85.260   0.952 128.501  1.00  0.00    -0.283 OA
BRANCH  12  24
HETATM   24  N9  UNL     1      84.511  -1.419 123.768  1.00  0.00    -0.322 N 
ATOM     25  H92 UNL     1      84.936  -0.992 122.945  1.00  0.00     0.179 HD
ATOM     26  H91 UNL     1      83.976  -2.285 123.704  1.00  0.00     0.179 HD
ENDBRANCH  12  24
BRANCH  17  27
HETATM   27  N11 UNL     1      86.614  -4.701 126.557  1.00  0.00    -0.234 N 
ATOM     28 2H11 UNL     1      87.567  -4.911 126.258  1.00  0.00     0.174 HD
ATOM     29 1H11 UNL     1      85.934  -5.442 126.727  1.00  0.00     0.174 HD
ENDBRANCH  17  27
BRANCH  20  30
HETATM   30  N13 UNL     1      86.340  -1.218 129.350  1.00  0.00    -0.384 N 
ATOM     31 2H13 UNL     1      85.705  -1.355 130.137  1.00  0.00     0.157 HD
ATOM     32 1H13 UNL     1      87.205  -0.699 129.500  1.00  0.00     0.157 HD
ENDBRANCH  20  30
ENDBRANCH   8  10
ENDBRANCH   5   6
ENDBRANCH   4   5
ENDBRANCH   2   4
BRANCH   1  33
HETATM   33  C8  UNL     1      83.994   7.441 122.346  1.00  0.00     0.221 C 
BRANCH  33  34
HETATM   34  C7  UNL     1      84.713   6.310 121.675  1.00  0.00     0.130 A 
HETATM   35  N4  UNL     1      86.022   6.294 121.397  1.00  0.00    -0.280 N 
HETATM   36  N3  UNL     1      86.294   5.179 120.818  1.00  0.00    -0.235 N 
ATOM     37  H4  UNL     1      86.688   7.038 121.608  1.00  0.00     0.189 HD
HETATM   38  N2  UNL     1      85.155   4.408 120.690  1.00  0.00    -0.225 N 
ATOM     39  H3  UNL     1      87.222   4.903 120.497  1.00  0.00     0.208 HD
HETATM   40  C19 UNL     1      84.198   5.140 121.233  1.00  0.00     0.192 A 
BRANCH  38  41
HETATM   41  C6  UNL     1      85.172   3.111 120.077  1.00  0.00     0.251 C 
HETATM   42  C5  UNL     1      85.894   2.110 120.943  1.00  0.00     0.089 C 
HETATM   43  C4  UNL     1      85.908   0.737 120.405  1.00  0.00     0.147 C 
HETATM   44  C3  UNL     1      84.863   0.456 119.390  1.00  0.00     0.147 C 
HETATM   45  C20 UNL     1      83.885   1.502 119.085  1.00  0.00     0.204 C 
HETATM   46  O7  UNL     1      83.877   2.619 119.919  1.00  0.00    -0.352 OA
BRANCH  43  47
HETATM   47  O2  UNL     1      85.727  -0.102 121.557  1.00  0.00    -0.393 OA
ATOM     48  H2  UNL     1      84.959   0.168 122.047  1.00  0.00     0.210 HD
ENDBRANCH  43  47
BRANCH  44  49
HETATM   49  N1  UNL     1      84.246  -0.845 119.675  1.00  0.00    -0.352 N 
HETATM   50  C2  UNL     1      83.255  -1.197 120.571  1.00  0.00     0.214 C 
HETATM   51  C1  UNL     1      82.797  -2.637 120.616  1.00  0.00     0.117 C 
HETATM   52  O1  UNL     1      82.688  -0.436 121.354  1.00  0.00    -0.274 OA
ATOM     53  H1  UNL     1      84.610  -1.618 119.119  1.00  0.00     0.163 HD
ENDBRANCH  44  49
BRANCH  45  54
HETATM   54  C21 UNL     1      83.987   2.076 117.676  1.00  0.00     0.284 C 
BRANCH  54  55
HETATM   55  O8  UNL     1      84.254   1.199 116.677  1.00  0.00    -0.369 OA
ATOM     56  H8  UNL     1      84.605   1.562 115.871  1.00  0.00     0.212 HD
ENDBRANCH  54  55
BRANCH  54  57
HETATM   57  O9  UNL     1      82.854   2.912 117.439  1.00  0.00    -0.369 OA
ATOM     58  H9  UNL     1      83.148   3.814 117.382  1.00  0.00     0.212 HD
ENDBRANCH  54  57
ENDBRANCH  45  54
ENDBRANCH  38  41
BRANCH  40  59
HETATM   59  O6  UNL     1      82.854   4.783 121.347  1.00  0.00    -0.343 OA
ATOM     60  H6  UNL     1      82.351   4.287 120.712  1.00  0.00     0.219 HD
ENDBRANCH  40  59
ENDBRANCH  33  34
ENDBRANCH   1  33
TORSDOF 16
ENDMDL
MODEL 4
REMARK VINA RESULT: -10.336464145      2.824      6.860
REMARK  16 active torsions:
REMARK  status: ('A' for Active; 'I' for Inactive)
REMARK       I    between atoms: C2_2  and  N1_4 
REMARK    1  A    between atoms: N1_4  and  C3_6 
REMARK    2  A    between atoms: C4_7  and  O2_8 
REMARK    3  A    between atoms: C6_11  and  N2_12 
REMARK    4  A    between atoms: C7_17  and  C8_18 
REMARK    5  A    between atoms: C8_18  and  N5_19 
REMARK       I    between atoms: N5_19  and  C9_20 
REMARK    6  A    between atoms: C9_20  and  C10_22 
REMARK    7  A    between atoms: C10_22  and  C11_23 
REMARK    8  A    between atoms: C11_23  and  C12_24 
REMARK       I    between atoms: C12_24  and  N6_26 
REMARK    9  A    between atoms: N6_26  and  C13_28 
REMARK   10  A    between atoms: N8_31  and  N9_32 
REMARK   11  A    between atoms: C15_38  and  N11_39 
REMARK   12  A    between atoms: C16_44  and  N13_45 
REMARK   13  A    between atoms: C19_51  and  O6_52 
REMARK   14  A    between atoms: C20_55  and  C21_56 
REMARK   15  A    between atoms: C21_56  and  O8_57 
REMARK   16  A    between atoms: C21_56  and  O9_59 
ROOT
HETATM    1  N5  UNL     1      83.268   5.236 121.828  1.00  0.00    -0.381 NA
HETATM    2  C9  UNL     1      84.331   4.553 121.411  1.00  0.00     0.291 C 
HETATM    3  O3  UNL     1      84.652   4.317 120.208  1.00  0.00    -0.257 OA
ENDROOT
BRANCH   2   4
HETATM    4  C10 UNL     1      85.292   3.961 122.476  1.00  0.00     0.128 C 
BRANCH   4   5
HETATM    5  C11 UNL     1      85.341   2.501 122.235  1.00  0.00     0.113 C 
BRANCH   5   6
HETATM    6  C12 UNL     1      85.174   1.733 123.480  1.00  0.00     0.223 C 
HETATM    7  O4  UNL     1      84.201   1.902 124.225  1.00  0.00    -0.273 OA
HETATM    8  N6  UNL     1      86.181   0.758 123.847  1.00  0.00    -0.309 N 
ATOM      9  H6  UNL     1      86.967   0.588 123.219  1.00  0.00     0.170 HD
BRANCH   8  10
HETATM   10  C13 UNL     1      86.093   0.051 125.043  1.00  0.00     0.176 A 
HETATM   11  N7  UNL     1      85.678   0.572 126.188  1.00  0.00    -0.259 N 
HETATM   12  N8  UNL     1      85.632  -0.119 127.297  1.00  0.00    -0.183 N 
ATOM     13  H7  UNL     1      85.384   1.549 126.205  1.00  0.00     0.191 HD
HETATM   14  C14 UNL     1      86.012  -1.434 127.339  1.00  0.00     0.178 A 
HETATM   15  N10 UNL     1      85.953  -2.113 128.503  1.00  0.00    -0.172 N 
HETATM   16  C17 UNL     1      86.456  -2.041 126.175  1.00  0.00     0.110 A 
HETATM   17  C15 UNL     1      86.336  -3.418 128.530  1.00  0.00     0.679 A 
ATOM     18  H10 UNL     1      85.625  -1.654 129.352  1.00  0.00     0.186 HD
HETATM   19  N12 UNL     1      86.764  -4.036 127.440  1.00  0.00    -0.176 N 
HETATM   20  C16 UNL     1      86.840  -3.375 126.232  1.00  0.00     0.133 A 
ATOM     21  H12 UNL     1      87.042  -5.016 127.495  1.00  0.00     0.186 HD
HETATM   22  C18 UNL     1      86.493  -1.294 125.046  1.00  0.00     0.234 A 
HETATM   23  O5  UNL     1      86.896  -1.809 123.970  1.00  0.00    -0.283 OA
BRANCH  12  24
HETATM   24  N9  UNL     1      85.207   0.460 128.506  1.00  0.00    -0.322 N 
ATOM     25  H92 UNL     1      84.636  -0.121 129.121  1.00  0.00     0.179 HD
ATOM     26  H91 UNL     1      85.469   1.412 128.763  1.00  0.00     0.179 HD
ENDBRANCH  12  24
BRANCH  17  27
HETATM   27  N11 UNL     1      86.321  -4.062 129.641  1.00  0.00    -0.234 N 
ATOM     28 2H11 UNL     1      86.137  -3.550 130.504  1.00  0.00     0.174 HD
ATOM     29 1H11 UNL     1      86.463  -5.072 129.642  1.00  0.00     0.174 HD
ENDBRANCH  17  27
BRANCH  20  30
HETATM   30  N13 UNL     1      87.248  -3.998 125.266  1.00  0.00    -0.384 N 
ATOM     31 2H13 UNL     1      86.980  -4.963 125.066  1.00  0.00     0.157 HD
ATOM     32 1H13 UNL     1      87.885  -3.523 124.627  1.00  0.00     0.157 HD
ENDBRANCH  20  30
ENDBRANCH   8  10
ENDBRANCH   5   6
ENDBRANCH   4   5
ENDBRANCH   2   4
BRANCH   1  33
HETATM   33  C8  UNL     1      82.159   5.946 122.241  1.00  0.00     0.221 C 
BRANCH  33  34
HETATM   34  C7  UNL     1      82.311   6.265 123.697  1.00  0.00     0.130 A 
HETATM   35  N4  UNL     1      82.327   7.501 124.211  1.00  0.00    -0.280 N 
HETATM   36  N3  UNL     1      82.481   7.402 125.484  1.00  0.00    -0.235 N 
ATOM     37  H4  UNL     1      82.234   8.369 123.684  1.00  0.00     0.189 HD
HETATM   38  N2  UNL     1      82.574   6.076 125.860  1.00  0.00    -0.225 N 
ATOM     39  H3  UNL     1      82.528   8.193 126.126  1.00  0.00     0.208 HD
HETATM   40  C19 UNL     1      82.463   5.403 124.728  1.00  0.00     0.192 A 
BRANCH  38  41
HETATM   41  C6  UNL     1      82.750   5.677 127.227  1.00  0.00     0.251 C 
HETATM   42  C5  UNL     1      81.798   6.414 128.134  1.00  0.00     0.089 C 
HETATM   43  C4  UNL     1      81.881   6.019 129.553  1.00  0.00     0.147 C 
HETATM   44  C3  UNL     1      82.511   4.698 129.796  1.00  0.00     0.147 C 
HETATM   45  C20 UNL     1      82.901   3.886 128.641  1.00  0.00     0.204 C 
HETATM   46  O7  UNL     1      82.466   4.322 127.390  1.00  0.00    -0.352 OA
BRANCH  43  47
HETATM   47  O2  UNL     1      80.517   6.016 130.005  1.00  0.00    -0.393 OA
ATOM     48  H2  UNL     1      80.427   6.544 130.790  1.00  0.00     0.210 HD
ENDBRANCH  43  47
BRANCH  44  49
HETATM   49  N1  UNL     1      81.716   3.954 130.780  1.00  0.00    -0.352 N 
HETATM   50  C2  UNL     1      82.000   2.802 131.486  1.00  0.00     0.214 C 
HETATM   51  C1  UNL     1      80.978   2.283 132.472  1.00  0.00     0.117 C 
HETATM   52  O1  UNL     1      83.033   2.138 131.396  1.00  0.00    -0.274 OA
ATOM     53  H1  UNL     1      80.799   4.356 130.976  1.00  0.00     0.163 HD
ENDBRANCH  44  49
BRANCH  45  54
HETATM   54  C21 UNL     1      84.405   3.694 128.480  1.00  0.00     0.284 C 
BRANCH  54  55
HETATM   55  O8  UNL     1      85.056   3.082 129.499  1.00  0.00    -0.369 OA
ATOM     56  H8  UNL     1      85.959   2.831 129.341  1.00  0.00     0.212 HD
ENDBRANCH  54  55
BRANCH  54  57
HETATM   57  O9  UNL     1      84.659   3.128 127.194  1.00  0.00    -0.369 OA
ATOM     58  H9  UNL     1      84.976   2.239 127.309  1.00  0.00     0.212 HD
ENDBRANCH  54  57
ENDBRANCH  45  54
ENDBRANCH  38  41
BRANCH  40  59
HETATM   59  O6  UNL     1      82.494   4.015 124.590  1.00  0.00    -0.343 OA
ATOM     60  H6  UNL     1      82.573   3.384 125.296  1.00  0.00     0.219 HD
ENDBRANCH  40  59
ENDBRANCH  33  34
ENDBRANCH   1  33
TORSDOF 16
ENDMDL
MODEL 5
REMARK VINA RESULT: -10.300878389      2.841      7.273
REMARK  16 active torsions:
REMARK  status: ('A' for Active; 'I' for Inactive)
REMARK       I    between atoms: C2_2  and  N1_4 
REMARK    1  A    between atoms: N1_4  and  C3_6 
REMARK    2  A    between atoms: C4_7  and  O2_8 
REMARK    3  A    between atoms: C6_11  and  N2_12 
REMARK    4  A    between atoms: C7_17  and  C8_18 
REMARK    5  A    between atoms: C8_18  and  N5_19 
REMARK       I    between atoms: N5_19  and  C9_20 
REMARK    6  A    between atoms: C9_20  and  C10_22 
REMARK    7  A    between atoms: C10_22  and  C11_23 
REMARK    8  A    between atoms: C11_23  and  C12_24 
REMARK       I    between atoms: C12_24  and  N6_26 
REMARK    9  A    between atoms: N6_26  and  C13_28 
REMARK   10  A    between atoms: N8_31  and  N9_32 
REMARK   11  A    between atoms: C15_38  and  N11_39 
REMARK   12  A    between atoms: C16_44  and  N13_45 
REMARK   13  A    between atoms: C19_51  and  O6_52 
REMARK   14  A    between atoms: C20_55  and  C21_56 
REMARK   15  A    between atoms: C21_56  and  O8_57 
REMARK   16  A    between atoms: C21_56  and  O9_59 
ROOT
HETATM    1  N5  UNL     1      84.549   5.829 121.664  1.00  0.00    -0.381 NA
HETATM    2  C9  UNL     1      84.664   4.686 120.993  1.00  0.00     0.291 C 
HETATM    3  O3  UNL     1      83.719   4.011 120.486  1.00  0.00    -0.257 OA
ENDROOT
BRANCH   2   4
HETATM    4  C10 UNL     1      86.080   4.081 120.802  1.00  0.00     0.128 C 
BRANCH   4   5
HETATM    5  C11 UNL     1      86.081   2.780 121.507  1.00  0.00     0.113 C 
BRANCH   5   6
HETATM    6  C12 UNL     1      86.019   2.946 122.968  1.00  0.00     0.223 C 
HETATM    7  O4  UNL     1      86.754   3.741 123.566  1.00  0.00    -0.273 OA
HETATM    8  N6  UNL     1      85.077   2.150 123.729  1.00  0.00    -0.309 N 
ATOM      9  H6  UNL     1      84.442   1.519 123.238  1.00  0.00     0.170 HD
BRANCH   8  10
HETATM   10  C13 UNL     1      85.024   2.233 125.118  1.00  0.00     0.176 A 
HETATM   11  N7  UNL     1      84.867   3.363 125.791  1.00  0.00    -0.259 N 
HETATM   12  N8  UNL     1      84.847   3.403 127.098  1.00  0.00    -0.183 N 
ATOM     13  H7  UNL     1      84.758   4.234 125.270  1.00  0.00     0.191 HD
HETATM   14  C14 UNL     1      84.987   2.269 127.853  1.00  0.00     0.178 A 
HETATM   15  N10 UNL     1      84.963   2.351 129.199  1.00  0.00    -0.172 N 
HETATM   16  C17 UNL     1      85.154   1.052 127.210  1.00  0.00     0.110 A 
HETATM   17  C15 UNL     1      85.105   1.217 129.936  1.00  0.00     0.679 A 
ATOM     18  H10 UNL     1      84.840   3.253 129.659  1.00  0.00     0.186 HD
HETATM   19  N12 UNL     1      85.266   0.035 129.361  1.00  0.00    -0.176 N 
HETATM   20  C16 UNL     1      85.297  -0.089 127.988  1.00  0.00     0.133 A 
ATOM     21  H12 UNL     1      85.368  -0.796 129.943  1.00  0.00     0.186 HD
HETATM   22  C18 UNL     1      85.173   1.050 125.856  1.00  0.00     0.234 A 
HETATM   23  O5  UNL     1      85.329  -0.036 125.237  1.00  0.00    -0.283 OA
BRANCH  12  24
HETATM   24  N9  UNL     1      84.698   4.616 127.793  1.00  0.00    -0.322 N 
ATOM     25  H92 UNL     1      85.105   5.448 127.364  1.00  0.00     0.179 HD
ATOM     26  H91 UNL     1      84.196   4.665 128.680  1.00  0.00     0.179 HD
ENDBRANCH  12  24
BRANCH  17  27
HETATM   27  N11 UNL     1      85.124   1.290 131.218  1.00  0.00    -0.234 N 
ATOM     28 2H11 UNL     1      85.716   1.992 131.662  1.00  0.00     0.174 HD
ATOM     29 1H11 UNL     1      84.530   0.670 131.768  1.00  0.00     0.174 HD
ENDBRANCH  17  27
BRANCH  20  30
HETATM   30  N13 UNL     1      85.453  -1.205 127.520  1.00  0.00    -0.384 N 
ATOM     31 2H13 UNL     1      84.923  -1.558 126.722  1.00  0.00     0.157 HD
ATOM     32 1H13 UNL     1      86.152  -1.809 127.952  1.00  0.00     0.157 HD
ENDBRANCH  20  30
ENDBRANCH   8  10
ENDBRANCH   5   6
ENDBRANCH   4   5
ENDBRANCH   2   4
BRANCH   1  33
HETATM   33  C8  UNL     1      84.409   7.014 122.358  1.00  0.00     0.221 C 
BRANCH  33  34
HETATM   34  C7  UNL     1      83.289   6.861 123.341  1.00  0.00     0.130 A 
HETATM   35  N4  UNL     1      81.991   7.008 123.049  1.00  0.00    -0.280 N 
HETATM   36  N3  UNL     1      81.314   6.814 124.126  1.00  0.00    -0.235 N 
ATOM     37  H4  UNL     1      81.605   7.235 122.132  1.00  0.00     0.189 HD
HETATM   38  N2  UNL     1      82.157   6.528 125.183  1.00  0.00    -0.225 N 
ATOM     39  H3  UNL     1      80.298   6.864 124.190  1.00  0.00     0.208 HD
HETATM   40  C19 UNL     1      83.369   6.565 124.658  1.00  0.00     0.192 A 
BRANCH  38  41
HETATM   41  C6  UNL     1      81.666   6.269 126.506  1.00  0.00     0.251 C 
HETATM   42  C5  UNL     1      81.518   4.789 126.750  1.00  0.00     0.089 C 
HETATM   43  C4  UNL     1      81.068   4.437 128.110  1.00  0.00     0.147 C 
HETATM   44  C3  UNL     1      81.274   5.499 129.127  1.00  0.00     0.147 C 
HETATM   45  C20 UNL     1      81.964   6.727 128.726  1.00  0.00     0.204 C 
HETATM   46  O7  UNL     1      82.564   6.730 127.468  1.00  0.00    -0.352 OA
BRANCH  43  47
HETATM   47  O2  UNL     1      81.827   3.265 128.448  1.00  0.00    -0.393 OA
ATOM     48  H2  UNL     1      82.322   2.962 127.695  1.00  0.00     0.210 HD
ENDBRANCH  43  47
BRANCH  44  49
HETATM   49  N1  UNL     1      81.824   4.900 130.349  1.00  0.00    -0.352 N 
HETATM   50  C2  UNL     1      81.196   4.429 131.485  1.00  0.00     0.214 C 
HETATM   51  C1  UNL     1      82.042   3.827 132.585  1.00  0.00     0.117 C 
HETATM   52  O1  UNL     1      79.984   4.445 131.698  1.00  0.00    -0.274 OA
ATOM     53  H1  UNL     1      82.841   4.818 130.360  1.00  0.00     0.163 HD
ENDBRANCH  44  49
BRANCH  45  54
HETATM   54  C21 UNL     1      81.092   7.978 128.740  1.00  0.00     0.284 C 
BRANCH  54  55
HETATM   55  O8  UNL     1      80.144   8.052 129.706  1.00  0.00    -0.369 OA
ATOM     56  H8  UNL     1      80.080   8.873 130.182  1.00  0.00     0.212 HD
ENDBRANCH  54  55
BRANCH  54  57
HETATM   57  O9  UNL     1      81.938   9.125 128.655  1.00  0.00    -0.369 OA
ATOM     58  H9  UNL     1      81.826   9.646 129.442  1.00  0.00     0.212 HD
ENDBRANCH  54  57
ENDBRANCH  45  54
ENDBRANCH  38  41
BRANCH  40  59
HETATM   59  O6  UNL     1      84.566   6.336 125.338  1.00  0.00    -0.343 OA
ATOM     60  H6  UNL     1      85.399   6.108 124.943  1.00  0.00     0.219 HD
ENDBRANCH  40  59
ENDBRANCH  33  34
ENDBRANCH   1  33
TORSDOF 16
ENDMDL
