MODEL 1
REMARK VINA RESULT: -9.062772698      0.000      0.000
REMARK  21 active torsions:
REMARK  status: ('A' for Active; 'I' for Inactive)
REMARK    1  A    between atoms: C3_4  and  O2_5 
REMARK    2  A    between atoms: O2_5  and  C4_6 
REMARK    3  A    between atoms: C5_8  and  O4_9 
REMARK    4  A    between atoms: O4_9  and  C6_10 
REMARK    5  A    between atoms: C8_12  and  O5_13 
REMARK    6  A    between atoms: O5_13  and  C9_14 
REMARK    7  A    between atoms: C10_16  and  O7_17 
REMARK    8  A    between atoms: O7_17  and  C11_18 
REMARK    9  A    between atoms: C11_18  and  C12_19 
REMARK   10  A    between atoms: C11_18  and  C13_22 
REMARK   11  A    between atoms: C12_19  and  O8_20 
REMARK   12  A    between atoms: C13_22  and  O9_23 
REMARK   13  A    between atoms: C14_25  and  O10_26 
REMARK   14  A    between atoms: C15_28  and  O11_29 
REMARK   15  A    between atoms: C16_31  and  N1_32 
REMARK   16  A    between atoms: C18_37  and  N2_38 
REMARK   17  A    between atoms: C19_42  and  N3_43 
REMARK   18  A    between atoms: C21_48  and  N4_49 
REMARK   19  A    between atoms: C22_53  and  O12_54 
REMARK   20  A    between atoms: C23_56  and  O13_57 
REMARK   21  A    between atoms: C24_59  and  N5_60 
ROOT
HETATM    1  C6  UNL     1      85.263  -1.923 126.084  1.00  0.00     0.157 C 
HETATM    2  C7  UNL     1      84.210  -1.828 125.010  1.00  0.00     0.068 C 
HETATM    3  C8  UNL     1      84.447  -0.811 123.952  1.00  0.00     0.157 C 
HETATM    4  C16 UNL     1      85.175   0.372 124.518  1.00  0.00     0.214 C 
HETATM    5  C17 UNL     1      86.518  -0.010 125.057  1.00  0.00     0.070 C 
HETATM    6  C18 UNL     1      86.580  -1.414 125.598  1.00  0.00     0.214 C 
ENDROOT
BRANCH   1   7
HETATM    7  O4  UNL     1      84.783  -1.385 127.222  1.00  0.00    -0.352 OA
BRANCH   7   8
HETATM    8  C5  UNL     1      85.637  -0.826 128.112  1.00  0.00     0.293 C 
HETATM    9  O3  UNL     1      85.038   0.396 128.528  1.00  0.00    -0.327 OA
HETATM   10  C4  UNL     1      85.984   1.119 129.247  1.00  0.00     0.296 C 
HETATM   11  C21 UNL     1      86.149   0.474 130.603  1.00  0.00     0.240 C 
HETATM   12  C20 UNL     1      85.399  -0.828 130.604  1.00  0.00     0.075 C 
HETATM   13  C19 UNL     1      85.865  -1.600 129.368  1.00  0.00     0.240 C 
BRANCH  10  14
HETATM   14  O2  UNL     1      85.618   2.448 129.408  1.00  0.00    -0.327 OA
BRANCH  14  15
HETATM   15  C3  UNL     1      84.563   2.794 128.564  1.00  0.00     0.294 C 
HETATM   16  O1  UNL     1      85.040   3.386 127.405  1.00  0.00    -0.351 OA
HETATM   17  C2  UNL     1      84.346   4.509 127.029  1.00  0.00     0.153 C 
HETATM   18  C1  UNL     1      84.721   4.813 125.572  1.00  0.00     0.042 C 
HETATM   19  C24 UNL     1      82.842   4.321 127.030  1.00  0.00     0.243 C 
HETATM   20  C23 UNL     1      82.356   3.815 128.372  1.00  0.00     0.184 C 
HETATM   21  C22 UNL     1      83.584   3.714 129.262  1.00  0.00     0.204 C 
BRANCH  19  22
HETATM   22  N5  UNL     1      82.259   5.633 126.824  1.00  0.00    -0.070 N 
ATOM     23  H53 UNL     1      82.788   6.211 126.172  1.00  0.00     0.274 HD
ATOM     24  H52 UNL     1      81.389   5.608 126.295  1.00  0.00     0.274 HD
ATOM     25  H51 UNL     1      82.158   6.055 127.747  1.00  0.00     0.274 HD
ENDBRANCH  19  22
BRANCH  20  26
HETATM   26  O13 UNL     1      81.387   4.656 128.919  1.00  0.00    -0.391 OA
ATOM     27  H13 UNL     1      80.703   4.166 129.362  1.00  0.00     0.210 HD
ENDBRANCH  20  26
BRANCH  21  28
HETATM   28  O12 UNL     1      83.237   3.097 130.463  1.00  0.00    -0.388 OA
ATOM     29  H12 UNL     1      82.733   3.730 130.960  1.00  0.00     0.210 HD
ENDBRANCH  21  28
ENDBRANCH  14  15
ENDBRANCH  10  14
BRANCH  11  30
HETATM   30  N4  UNL     1      85.558   1.341 131.629  1.00  0.00    -0.070 N 
ATOM     31  H43 UNL     1      85.516   0.888 132.542  1.00  0.00     0.274 HD
ATOM     32  H42 UNL     1      86.172   2.116 131.881  1.00  0.00     0.274 HD
ATOM     33  H41 UNL     1      84.642   1.661 131.314  1.00  0.00     0.274 HD
ENDBRANCH  11  30
BRANCH  13  34
HETATM   34  N3  UNL     1      85.211  -2.876 129.420  1.00  0.00    -0.070 N 
ATOM     35  H33 UNL     1      85.104  -3.256 128.479  1.00  0.00     0.274 HD
ATOM     36  H32 UNL     1      85.833  -3.576 129.825  1.00  0.00     0.274 HD
ATOM     37  H31 UNL     1      84.313  -2.880 129.905  1.00  0.00     0.274 HD
ENDBRANCH  13  34
ENDBRANCH   7   8
ENDBRANCH   1   7
BRANCH   6  38
HETATM   38  N2  UNL     1      87.040  -2.288 124.533  1.00  0.00    -0.072 N 
ATOM     39  H23 UNL     1      87.586  -3.078 124.881  1.00  0.00     0.274 HD
ATOM     40  H22 UNL     1      86.283  -2.822 124.107  1.00  0.00     0.274 HD
ATOM     41  H21 UNL     1      87.552  -1.723 123.856  1.00  0.00     0.274 HD
ENDBRANCH   6  38
BRANCH   3  42
HETATM   42  O5  UNL     1      83.199  -0.351 123.512  1.00  0.00    -0.351 OA
BRANCH  42  43
HETATM   43  C9  UNL     1      82.496  -1.271 122.764  1.00  0.00     0.294 C 
HETATM   44  O6  UNL     1      81.261  -0.778 122.356  1.00  0.00    -0.326 OA
HETATM   45  C10 UNL     1      80.852  -1.603 121.294  1.00  0.00     0.295 C 
HETATM   46  C14 UNL     1      82.123  -2.013 120.587  1.00  0.00     0.207 C 
HETATM   47  C15 UNL     1      83.218  -1.413 121.445  1.00  0.00     0.207 C 
BRANCH  45  48
HETATM   48  O7  UNL     1      79.989  -0.863 120.544  1.00  0.00    -0.349 OA
BRANCH  48  49
HETATM   49  C11 UNL     1      79.736  -1.240 119.272  1.00  0.00     0.171 C 
BRANCH  49  50
HETATM   50  C12 UNL     1      78.376  -1.766 118.972  1.00  0.00     0.198 C 
BRANCH  50  51
HETATM   51  O8  UNL     1      78.276  -1.974 117.575  1.00  0.00    -0.398 OA
ATOM     52  H8  UNL     1      78.647  -2.825 117.372  1.00  0.00     0.209 HD
ENDBRANCH  50  51
ENDBRANCH  49  50
BRANCH  49  53
HETATM   53  C13 UNL     1      79.979  -0.048 118.367  1.00  0.00     0.198 C 
BRANCH  53  54
HETATM   54  O9  UNL     1      79.003   0.914 118.448  1.00  0.00    -0.398 OA
ATOM     55  H9  UNL     1      79.019   1.536 117.730  1.00  0.00     0.209 HD
ENDBRANCH  53  54
ENDBRANCH  49  53
ENDBRANCH  48  49
ENDBRANCH  45  48
BRANCH  46  56
HETATM   56  O10 UNL     1      82.325  -3.401 120.626  1.00  0.00    -0.388 OA
ATOM     57  H10 UNL     1      82.345  -3.784 119.758  1.00  0.00     0.210 HD
ENDBRANCH  46  56
BRANCH  47  58
HETATM   58  O11 UNL     1      83.620  -0.155 120.969  1.00  0.00    -0.388 OA
ATOM     59  H11 UNL     1      83.974  -0.230 120.090  1.00  0.00     0.210 HD
ENDBRANCH  47  58
ENDBRANCH  42  43
ENDBRANCH   3  42
BRANCH   4  60
HETATM   60  N1  UNL     1      84.315   1.023 125.476  1.00  0.00    -0.072 N 
ATOM     61  H13 UNL     1      83.330   0.812 125.324  1.00  0.00     0.274 HD
ATOM     62  H12 UNL     1      84.401   0.628 126.412  1.00  0.00     0.274 HD
ATOM     63  H11 UNL     1      84.509   2.025 125.455  1.00  0.00     0.274 HD
ENDBRANCH   4  60
TORSDOF 21
ENDMDL
MODEL 2
REMARK VINA RESULT: -8.842468848      3.452      7.619
REMARK  21 active torsions:
REMARK  status: ('A' for Active; 'I' for Inactive)
REMARK    1  A    between atoms: C3_4  and  O2_5 
REMARK    2  A    between atoms: O2_5  and  C4_6 
REMARK    3  A    between atoms: C5_8  and  O4_9 
REMARK    4  A    between atoms: O4_9  and  C6_10 
REMARK    5  A    between atoms: C8_12  and  O5_13 
REMARK    6  A    between atoms: O5_13  and  C9_14 
REMARK    7  A    between atoms: C10_16  and  O7_17 
REMARK    8  A    between atoms: O7_17  and  C11_18 
REMARK    9  A    between atoms: C11_18  and  C12_19 
REMARK   10  A    between atoms: C11_18  and  C13_22 
REMARK   11  A    between atoms: C12_19  and  O8_20 
REMARK   12  A    between atoms: C13_22  and  O9_23 
REMARK   13  A    between atoms: C14_25  and  O10_26 
REMARK   14  A    between atoms: C15_28  and  O11_29 
REMARK   15  A    between atoms: C16_31  and  N1_32 
REMARK   16  A    between atoms: C18_37  and  N2_38 
REMARK   17  A    between atoms: C19_42  and  N3_43 
REMARK   18  A    between atoms: C21_48  and  N4_49 
REMARK   19  A    between atoms: C22_53  and  O12_54 
REMARK   20  A    between atoms: C23_56  and  O13_57 
REMARK   21  A    between atoms: C24_59  and  N5_60 
ROOT
HETATM    1  C6  UNL     1      86.662  -1.009 123.453  1.00  0.00     0.157 C 
HETATM    2  C7  UNL     1      85.995   0.085 124.246  1.00  0.00     0.068 C 
HETATM    3  C8  UNL     1      85.664  -0.242 125.658  1.00  0.00     0.157 C 
HETATM    4  C16 UNL     1      85.329  -1.697 125.792  1.00  0.00     0.214 C 
HETATM    5  C17 UNL     1      86.481  -2.571 125.406  1.00  0.00     0.070 C 
HETATM    6  C18 UNL     1      87.369  -1.974 124.346  1.00  0.00     0.214 C 
ENDROOT
BRANCH   1   7
HETATM    7  O4  UNL     1      85.774  -1.524 122.579  1.00  0.00    -0.352 OA
BRANCH   7   8
HETATM    8  C5  UNL     1      84.902  -0.704 121.946  1.00  0.00     0.293 C 
HETATM    9  O3  UNL     1      85.622  -0.104 120.876  1.00  0.00    -0.327 OA
HETATM   10  C4  UNL     1      84.845   0.924 120.354  1.00  0.00     0.296 C 
HETATM   11  C21 UNL     1      83.718   0.313 119.555  1.00  0.00     0.240 C 
HETATM   12  C20 UNL     1      83.719  -1.170 119.790  1.00  0.00     0.075 C 
HETATM   13  C19 UNL     1      83.729  -1.371 121.307  1.00  0.00     0.240 C 
BRANCH  10  14
HETATM   14  O2  UNL     1      85.579   1.778 119.542  1.00  0.00    -0.327 OA
BRANCH  14  15
HETATM   15  C3  UNL     1      85.784   3.014 120.152  1.00  0.00     0.294 C 
HETATM   16  O1  UNL     1      86.423   2.857 121.372  1.00  0.00    -0.351 OA
HETATM   17  C2  UNL     1      85.882   3.609 122.384  1.00  0.00     0.153 C 
HETATM   18  C1  UNL     1      86.900   3.634 123.532  1.00  0.00     0.042 C 
HETATM   19  C24 UNL     1      85.659   5.061 122.008  1.00  0.00     0.243 C 
HETATM   20  C23 UNL     1      84.825   5.177 120.748  1.00  0.00     0.184 C 
HETATM   21  C22 UNL     1      84.477   3.757 120.334  1.00  0.00     0.204 C 
BRANCH  19  22
HETATM   22  N5  UNL     1      84.898   5.657 123.088  1.00  0.00    -0.070 N 
ATOM     23  H53 UNL     1      84.275   4.998 123.555  1.00  0.00     0.274 HD
ATOM     24  H52 UNL     1      85.467   5.892 123.901  1.00  0.00     0.274 HD
ATOM     25  H51 UNL     1      84.410   6.461 122.692  1.00  0.00     0.274 HD
ENDBRANCH  19  22
BRANCH  20  26
HETATM   26  O13 UNL     1      83.684   5.952 120.956  1.00  0.00    -0.391 OA
ATOM     27  H13 UNL     1      83.127   5.974 120.186  1.00  0.00     0.210 HD
ENDBRANCH  20  26
BRANCH  21  28
HETATM   28  O12 UNL     1      83.850   3.778 119.088  1.00  0.00    -0.388 OA
ATOM     29  H12 UNL     1      83.379   4.602 119.033  1.00  0.00     0.210 HD
ENDBRANCH  21  28
ENDBRANCH  14  15
ENDBRANCH  10  14
BRANCH  11  30
HETATM   30  N4  UNL     1      83.953   0.549 118.125  1.00  0.00    -0.070 N 
ATOM     31  H43 UNL     1      84.916   0.823 117.932  1.00  0.00     0.274 HD
ATOM     32  H42 UNL     1      83.938  -0.316 117.584  1.00  0.00     0.274 HD
ATOM     33  H41 UNL     1      83.279   1.233 117.780  1.00  0.00     0.274 HD
ENDBRANCH  11  30
BRANCH  13  34
HETATM   34  N3  UNL     1      83.644  -2.787 121.526  1.00  0.00    -0.070 N 
ATOM     35  H33 UNL     1      83.412  -3.265 120.655  1.00  0.00     0.274 HD
ATOM     36  H32 UNL     1      84.572  -3.174 121.700  1.00  0.00     0.274 HD
ATOM     37  H31 UNL     1      83.001  -3.070 122.266  1.00  0.00     0.274 HD
ENDBRANCH  13  34
ENDBRANCH   7   8
ENDBRANCH   1   7
BRANCH   6  38
HETATM   38  N2  UNL     1      88.452  -1.268 125.009  1.00  0.00    -0.072 N 
ATOM     39  H23 UNL     1      89.150  -0.915 124.354  1.00  0.00     0.274 HD
ATOM     40  H22 UNL     1      88.160  -0.371 125.395  1.00  0.00     0.274 HD
ATOM     41  H21 UNL     1      88.852  -1.888 125.714  1.00  0.00     0.274 HD
ENDBRANCH   6  38
BRANCH   3  42
HETATM   42  O5  UNL     1      84.514   0.477 126.006  1.00  0.00    -0.351 OA
BRANCH  42  43
HETATM   43  C9  UNL     1      84.642   1.842 125.858  1.00  0.00     0.294 C 
HETATM   44  O6  UNL     1      83.539   2.403 125.222  1.00  0.00    -0.326 OA
HETATM   45  C10 UNL     1      83.592   3.778 125.507  1.00  0.00     0.295 C 
HETATM   46  C14 UNL     1      84.193   3.882 126.890  1.00  0.00     0.207 C 
HETATM   47  C15 UNL     1      84.539   2.449 127.237  1.00  0.00     0.207 C 
BRANCH  45  48
HETATM   48  O7  UNL     1      82.317   4.242 125.397  1.00  0.00    -0.349 OA
BRANCH  48  49
HETATM   49  C11 UNL     1      82.087   5.566 125.532  1.00  0.00     0.171 C 
BRANCH  49  50
HETATM   50  C12 UNL     1      81.685   6.319 124.311  1.00  0.00     0.198 C 
BRANCH  50  51
HETATM   51  O8  UNL     1      81.813   5.458 123.194  1.00  0.00    -0.398 OA
ATOM     52  H8  UNL     1      82.736   5.377 122.983  1.00  0.00     0.209 HD
ENDBRANCH  50  51
ENDBRANCH  49  50
BRANCH  49  53
HETATM   53  C13 UNL     1      80.996   5.755 126.568  1.00  0.00     0.198 C 
BRANCH  53  54
HETATM   54  O9  UNL     1      81.083   6.944 127.250  1.00  0.00    -0.398 OA
ATOM     55  H9  UNL     1      80.823   6.881 128.162  1.00  0.00     0.209 HD
ENDBRANCH  53  54
ENDBRANCH  49  53
ENDBRANCH  48  49
ENDBRANCH  45  48
BRANCH  46  56
HETATM   56  O10 UNL     1      85.412   4.578 126.885  1.00  0.00    -0.388 OA
ATOM     57  H10 UNL     1      85.287   5.518 126.937  1.00  0.00     0.210 HD
ENDBRANCH  46  56
BRANCH  47  58
HETATM   58  O11 UNL     1      83.513   1.830 127.969  1.00  0.00    -0.388 OA
ATOM     59  H11 UNL     1      82.712   1.805 127.459  1.00  0.00     0.210 HD
ENDBRANCH  47  58
ENDBRANCH  42  43
ENDBRANCH   3  42
BRANCH   4  60
HETATM   60  N1  UNL     1      84.116  -1.957 125.055  1.00  0.00    -0.072 N 
ATOM     61  H13 UNL     1      83.343  -1.362 125.351  1.00  0.00     0.274 HD
ATOM     62  H12 UNL     1      84.171  -1.642 124.086  1.00  0.00     0.274 HD
ATOM     63  H11 UNL     1      83.898  -2.951 125.132  1.00  0.00     0.274 HD
ENDBRANCH   4  60
TORSDOF 21
ENDMDL
MODEL 3
REMARK VINA RESULT: -8.840563541      2.791      5.190
REMARK  21 active torsions:
REMARK  status: ('A' for Active; 'I' for Inactive)
REMARK    1  A    between atoms: C3_4  and  O2_5 
REMARK    2  A    between atoms: O2_5  and  C4_6 
REMARK    3  A    between atoms: C5_8  and  O4_9 
REMARK    4  A    between atoms: O4_9  and  C6_10 
REMARK    5  A    between atoms: C8_12  and  O5_13 
REMARK    6  A    between atoms: O5_13  and  C9_14 
REMARK    7  A    between atoms: C10_16  and  O7_17 
REMARK    8  A    between atoms: O7_17  and  C11_18 
REMARK    9  A    between atoms: C11_18  and  C12_19 
REMARK   10  A    between atoms: C11_18  and  C13_22 
REMARK   11  A    between atoms: C12_19  and  O8_20 
REMARK   12  A    between atoms: C13_22  and  O9_23 
REMARK   13  A    between atoms: C14_25  and  O10_26 
REMARK   14  A    between atoms: C15_28  and  O11_29 
REMARK   15  A    between atoms: C16_31  and  N1_32 
REMARK   16  A    between atoms: C18_37  and  N2_38 
REMARK   17  A    between atoms: C19_42  and  N3_43 
REMARK   18  A    between atoms: C21_48  and  N4_49 
REMARK   19  A    between atoms: C22_53  and  O12_54 
REMARK   20  A    between atoms: C23_56  and  O13_57 
REMARK   21  A    between atoms: C24_59  and  N5_60 
ROOT
HETATM    1  C6  UNL     1      84.733   1.197 125.008  1.00  0.00     0.157 C 
HETATM    2  C7  UNL     1      84.068   0.190 124.105  1.00  0.00     0.068 C 
HETATM    3  C8  UNL     1      84.610  -1.193 124.160  1.00  0.00     0.157 C 
HETATM    4  C16 UNL     1      86.082  -1.167 124.445  1.00  0.00     0.214 C 
HETATM    5  C17 UNL     1      86.381  -0.534 125.768  1.00  0.00     0.070 C 
HETATM    6  C18 UNL     1      85.395   0.532 126.169  1.00  0.00     0.214 C 
ENDROOT
BRANCH   1   7
HETATM    7  O4  UNL     1      85.494   2.023 124.262  1.00  0.00    -0.352 OA
BRANCH   7   8
HETATM    8  C5  UNL     1      84.922   3.075 123.631  1.00  0.00     0.293 C 
HETATM    9  O3  UNL     1      85.512   4.244 124.186  1.00  0.00    -0.327 OA
HETATM   10  C4  UNL     1      84.785   5.346 123.748  1.00  0.00     0.296 C 
HETATM   11  C21 UNL     1      85.116   5.592 122.295  1.00  0.00     0.240 C 
HETATM   12  C20 UNL     1      85.938   4.438 121.793  1.00  0.00     0.075 C 
HETATM   13  C19 UNL     1      85.173   3.165 122.161  1.00  0.00     0.240 C 
BRANCH  10  14
HETATM   14  O2  UNL     1      85.066   6.487 124.487  1.00  0.00    -0.327 OA
BRANCH  14  15
HETATM   15  C3  UNL     1      84.446   6.454 125.735  1.00  0.00     0.294 C 
HETATM   16  O1  UNL     1      84.857   5.342 126.454  1.00  0.00    -0.351 OA
HETATM   17  C2  UNL     1      83.834   4.675 127.079  1.00  0.00     0.153 C 
HETATM   18  C1  UNL     1      84.464   3.739 128.119  1.00  0.00     0.042 C 
HETATM   19  C24 UNL     1      82.906   5.584 127.861  1.00  0.00     0.243 C 
HETATM   20  C23 UNL     1      82.366   6.696 126.986  1.00  0.00     0.184 C 
HETATM   21  C22 UNL     1      82.938   6.464 125.597  1.00  0.00     0.204 C 
BRANCH  19  22
HETATM   22  N5  UNL     1      81.778   4.771 128.274  1.00  0.00    -0.070 N 
ATOM     23  H53 UNL     1      80.912   5.008 127.791  1.00  0.00     0.274 HD
ATOM     24  H52 UNL     1      81.840   3.804 127.955  1.00  0.00     0.274 HD
ATOM     25  H51 UNL     1      81.712   4.857 129.288  1.00  0.00     0.274 HD
ENDBRANCH  19  22
BRANCH  20  26
HETATM   26  O13 UNL     1      80.971   6.712 126.976  1.00  0.00    -0.391 OA
ATOM     27  H13 UNL     1      80.618   7.209 127.705  1.00  0.00     0.210 HD
ENDBRANCH  20  26
BRANCH  21  28
HETATM   28  O12 UNL     1      82.617   7.545 124.777  1.00  0.00    -0.388 OA
ATOM     29  H12 UNL     1      81.909   8.012 125.204  1.00  0.00     0.210 HD
ENDBRANCH  21  28
ENDBRANCH  14  15
ENDBRANCH  10  14
BRANCH  11  30
HETATM   30  N4  UNL     1      85.925   6.811 122.180  1.00  0.00    -0.070 N 
ATOM     31  H43 UNL     1      85.644   7.526 122.852  1.00  0.00     0.274 HD
ATOM     32  H42 UNL     1      86.881   6.673 122.507  1.00  0.00     0.274 HD
ATOM     33  H41 UNL     1      85.891   7.150 121.219  1.00  0.00     0.274 HD
ENDBRANCH  11  30
BRANCH  13  34
HETATM   34  N3  UNL     1      85.918   2.072 121.606  1.00  0.00    -0.070 N 
ATOM     35  H33 UNL     1      86.469   1.616 122.334  1.00  0.00     0.274 HD
ATOM     36  H32 UNL     1      85.291   1.309 121.353  1.00  0.00     0.274 HD
ATOM     37  H31 UNL     1      86.514   2.316 120.814  1.00  0.00     0.274 HD
ENDBRANCH  13  34
ENDBRANCH   7   8
ENDBRANCH   1   7
BRANCH   6  38
HETATM   38  N2  UNL     1      84.364  -0.090 126.984  1.00  0.00    -0.072 N 
ATOM     39  H23 UNL     1      83.450   0.344 126.859  1.00  0.00     0.274 HD
ATOM     40  H22 UNL     1      84.118  -1.025 126.661  1.00  0.00     0.274 HD
ATOM     41  H21 UNL     1      84.677  -0.079 127.955  1.00  0.00     0.274 HD
ENDBRANCH   6  38
BRANCH   3  42
HETATM   42  O5  UNL     1      84.448  -1.768 122.894  1.00  0.00    -0.351 OA
BRANCH  42  43
HETATM   43  C9  UNL     1      83.609  -1.059 122.061  1.00  0.00     0.294 C 
HETATM   44  O6  UNL     1      84.292  -0.498 120.987  1.00  0.00    -0.326 OA
HETATM   45  C10 UNL     1      83.311  -0.186 120.030  1.00  0.00     0.295 C 
HETATM   46  C14 UNL     1      82.248  -1.250 120.179  1.00  0.00     0.207 C 
HETATM   47  C15 UNL     1      82.722  -2.065 121.365  1.00  0.00     0.207 C 
BRANCH  45  48
HETATM   48  O7  UNL     1      83.943  -0.169 118.824  1.00  0.00    -0.349 OA
BRANCH  48  49
HETATM   49  C11 UNL     1      84.019   0.993 118.140  1.00  0.00     0.171 C 
BRANCH  49  50
HETATM   50  C12 UNL     1      83.283   2.163 118.695  1.00  0.00     0.198 C 
BRANCH  50  51
HETATM   51  O8  UNL     1      84.218   3.190 118.968  1.00  0.00    -0.398 OA
ATOM     52  H8  UNL     1      83.748   3.939 119.317  1.00  0.00     0.209 HD
ENDBRANCH  50  51
ENDBRANCH  49  50
BRANCH  49  53
HETATM   53  C13 UNL     1      85.480   1.381 118.024  1.00  0.00     0.198 C 
BRANCH  53  54
HETATM   54  O9  UNL     1      86.287   0.776 118.955  1.00  0.00    -0.398 OA
ATOM     55  H9  UNL     1      86.891   1.372 119.382  1.00  0.00     0.209 HD
ENDBRANCH  53  54
ENDBRANCH  49  53
ENDBRANCH  48  49
ENDBRANCH  45  48
BRANCH  46  56
HETATM   56  O10 UNL     1      81.009  -0.711 120.559  1.00  0.00    -0.388 OA
ATOM     57  H10 UNL     1      80.415  -1.375 120.885  1.00  0.00     0.210 HD
ENDBRANCH  46  56
BRANCH  47  58
HETATM   58  O11 UNL     1      83.472  -3.181 120.961  1.00  0.00    -0.388 OA
ATOM     59  H11 UNL     1      83.589  -3.178 120.019  1.00  0.00     0.210 HD
ENDBRANCH  47  58
ENDBRANCH  42  43
ENDBRANCH   3  42
BRANCH   4  60
HETATM   60  N1  UNL     1      86.753  -0.548 123.328  1.00  0.00    -0.072 N 
ATOM     61  H13 UNL     1      87.415  -1.175 122.872  1.00  0.00     0.274 HD
ATOM     62  H12 UNL     1      86.132  -0.399 122.531  1.00  0.00     0.274 HD
ATOM     63  H11 UNL     1      87.189   0.315 123.651  1.00  0.00     0.274 HD
ENDBRANCH   4  60
TORSDOF 21
ENDMDL
MODEL 4
REMARK VINA RESULT: -8.783097171      2.619      3.761
REMARK  21 active torsions:
REMARK  status: ('A' for Active; 'I' for Inactive)
REMARK    1  A    between atoms: C3_4  and  O2_5 
REMARK    2  A    between atoms: O2_5  and  C4_6 
REMARK    3  A    between atoms: C5_8  and  O4_9 
REMARK    4  A    between atoms: O4_9  and  C6_10 
REMARK    5  A    between atoms: C8_12  and  O5_13 
REMARK    6  A    between atoms: O5_13  and  C9_14 
REMARK    7  A    between atoms: C10_16  and  O7_17 
REMARK    8  A    between atoms: O7_17  and  C11_18 
REMARK    9  A    between atoms: C11_18  and  C12_19 
REMARK   10  A    between atoms: C11_18  and  C13_22 
REMARK   11  A    between atoms: C12_19  and  O8_20 
REMARK   12  A    between atoms: C13_22  and  O9_23 
REMARK   13  A    between atoms: C14_25  and  O10_26 
REMARK   14  A    between atoms: C15_28  and  O11_29 
REMARK   15  A    between atoms: C16_31  and  N1_32 
REMARK   16  A    between atoms: C18_37  and  N2_38 
REMARK   17  A    between atoms: C19_42  and  N3_43 
REMARK   18  A    between atoms: C21_48  and  N4_49 
REMARK   19  A    between atoms: C22_53  and  O12_54 
REMARK   20  A    between atoms: C23_56  and  O13_57 
REMARK   21  A    between atoms: C24_59  and  N5_60 
ROOT
HETATM    1  C6  UNL     1      85.703   0.233 124.345  1.00  0.00     0.157 C 
HETATM    2  C7  UNL     1      85.103  -0.295 123.068  1.00  0.00     0.068 C 
HETATM    3  C8  UNL     1      85.577   0.343 121.812  1.00  0.00     0.157 C 
HETATM    4  C16 UNL     1      85.903   1.787 122.049  1.00  0.00     0.214 C 
HETATM    5  C17 UNL     1      86.997   1.951 123.057  1.00  0.00     0.070 C 
HETATM    6  C18 UNL     1      87.033   0.866 124.100  1.00  0.00     0.214 C 
ENDROOT
BRANCH   1   7
HETATM    7  O4  UNL     1      84.783   0.978 124.990  1.00  0.00    -0.352 OA
BRANCH   7   8
HETATM    8  C5  UNL     1      85.184   1.914 125.882  1.00  0.00     0.293 C 
HETATM    9  O3  UNL     1      84.552   3.130 125.499  1.00  0.00    -0.327 OA
HETATM   10  C4  UNL     1      85.123   4.165 126.232  1.00  0.00     0.296 C 
HETATM   11  C21 UNL     1      84.614   4.083 127.652  1.00  0.00     0.240 C 
HETATM   12  C20 UNL     1      83.853   2.798 127.810  1.00  0.00     0.075 C 
HETATM   13  C19 UNL     1      84.768   1.683 127.298  1.00  0.00     0.240 C 
BRANCH  10  14
HETATM   14  O2  UNL     1      84.820   5.412 125.702  1.00  0.00    -0.327 OA
BRANCH  14  15
HETATM   15  C3  UNL     1      84.277   5.306 124.422  1.00  0.00     0.294 C 
HETATM   16  O1  UNL     1      85.263   5.459 123.460  1.00  0.00    -0.351 OA
HETATM   17  C2  UNL     1      84.903   6.281 122.421  1.00  0.00     0.153 C 
HETATM   18  C1  UNL     1      85.904   6.046 121.283  1.00  0.00     0.042 C 
HETATM   19  C24 UNL     1      83.541   5.960 121.838  1.00  0.00     0.243 C 
HETATM   20  C23 UNL     1      82.474   5.955 122.913  1.00  0.00     0.184 C 
HETATM   21  C22 UNL     1      83.173   6.321 124.212  1.00  0.00     0.204 C 
BRANCH  19  22
HETATM   22  N5  UNL     1      83.222   7.032 120.915  1.00  0.00    -0.070 N 
ATOM     23  H53 UNL     1      83.561   7.943 121.222  1.00  0.00     0.274 HD
ATOM     24  H52 UNL     1      83.752   6.985 120.045  1.00  0.00     0.274 HD
ATOM     25  H51 UNL     1      82.212   7.005 120.774  1.00  0.00     0.274 HD
ENDBRANCH  19  22
BRANCH  20  26
HETATM   26  O13 UNL     1      81.438   6.840 122.613  1.00  0.00    -0.391 OA
ATOM     27  H13 UNL     1      81.415   7.057 121.688  1.00  0.00     0.210 HD
ENDBRANCH  20  26
BRANCH  21  28
HETATM   28  O12 UNL     1      82.283   6.173 125.274  1.00  0.00    -0.388 OA
ATOM     29  H12 UNL     1      82.201   7.027 125.683  1.00  0.00     0.210 HD
ENDBRANCH  21  28
ENDBRANCH  14  15
ENDBRANCH  10  14
BRANCH  11  30
HETATM   30  N4  UNL     1      83.689   5.195 127.901  1.00  0.00    -0.070 N 
ATOM     31  H43 UNL     1      82.876   4.906 128.446  1.00  0.00     0.274 HD
ATOM     32  H42 UNL     1      84.070   5.874 128.560  1.00  0.00     0.274 HD
ATOM     33  H41 UNL     1      83.428   5.623 127.013  1.00  0.00     0.274 HD
ENDBRANCH  11  30
BRANCH  13  34
HETATM   34  N3  UNL     1      84.070   0.451 127.530  1.00  0.00    -0.070 N 
ATOM     35  H33 UNL     1      83.638   0.122 126.666  1.00  0.00     0.274 HD
ATOM     36  H32 UNL     1      84.734  -0.305 127.696  1.00  0.00     0.274 HD
ATOM     37  H31 UNL     1      83.378   0.483 128.279  1.00  0.00     0.274 HD
ENDBRANCH  13  34
ENDBRANCH   7   8
ENDBRANCH   1   7
BRANCH   6  38
HETATM   38  N2  UNL     1      87.949  -0.167 123.646  1.00  0.00    -0.072 N 
ATOM     39  H23 UNL     1      88.859  -0.115 124.106  1.00  0.00     0.274 HD
ATOM     40  H22 UNL     1      87.684  -1.097 123.968  1.00  0.00     0.274 HD
ATOM     41  H21 UNL     1      88.018  -0.108 122.630  1.00  0.00     0.274 HD
ENDBRANCH   6  38
BRANCH   3  42
HETATM   42  O5  UNL     1      84.526   0.307 120.888  1.00  0.00    -0.351 OA
BRANCH  42  43
HETATM   43  C9  UNL     1      83.577  -0.657 121.159  1.00  0.00     0.294 C 
HETATM   44  O6  UNL     1      82.285  -0.144 121.115  1.00  0.00    -0.326 OA
HETATM   45  C10 UNL     1      81.437  -1.256 120.983  1.00  0.00     0.295 C 
HETATM   46  C14 UNL     1      82.212  -2.263 120.165  1.00  0.00     0.207 C 
HETATM   47  C15 UNL     1      83.566  -1.609 119.986  1.00  0.00     0.207 C 
BRANCH  45  48
HETATM   48  O7  UNL     1      80.293  -0.800 120.401  1.00  0.00    -0.349 OA
BRANCH  48  49
HETATM   49  C11 UNL     1      79.986  -1.208 119.150  1.00  0.00     0.171 C 
BRANCH  49  50
HETATM   50  C12 UNL     1      78.640  -1.808 118.937  1.00  0.00     0.198 C 
BRANCH  50  51
HETATM   51  O8  UNL     1      78.402  -1.887 117.544  1.00  0.00    -0.398 OA
ATOM     52  H8  UNL     1      78.193  -1.015 117.226  1.00  0.00     0.209 HD
ENDBRANCH  50  51
ENDBRANCH  49  50
BRANCH  49  53
HETATM   53  C13 UNL     1      80.113  -0.019 118.218  1.00  0.00     0.198 C 
BRANCH  53  54
HETATM   54  O9  UNL     1      81.070   0.886 118.605  1.00  0.00    -0.398 OA
ATOM     55  H9  UNL     1      81.959   0.560 118.527  1.00  0.00     0.209 HD
ENDBRANCH  53  54
ENDBRANCH  49  53
ENDBRANCH  48  49
ENDBRANCH  45  48
BRANCH  46  56
HETATM   56  O10 UNL     1      82.454  -3.449 120.877  1.00  0.00    -0.388 OA
ATOM     57  H10 UNL     1      82.865  -4.112 120.336  1.00  0.00     0.210 HD
ENDBRANCH  46  56
BRANCH  47  58
HETATM   58  O11 UNL     1      83.643  -0.897 118.778  1.00  0.00    -0.388 OA
ATOM     59  H11 UNL     1      83.075  -0.136 118.805  1.00  0.00     0.210 HD
ENDBRANCH  47  58
ENDBRANCH  42  43
ENDBRANCH   3  42
BRANCH   4  60
HETATM   60  N1  UNL     1      84.683   2.482 122.383  1.00  0.00    -0.072 N 
ATOM     61  H13 UNL     1      84.570   3.349 121.859  1.00  0.00     0.274 HD
ATOM     62  H12 UNL     1      83.851   2.001 122.037  1.00  0.00     0.274 HD
ATOM     63  H11 UNL     1      84.660   2.628 123.392  1.00  0.00     0.274 HD
ENDBRANCH   4  60
TORSDOF 21
ENDMDL
MODEL 5
REMARK VINA RESULT: -8.762954771      2.798      6.187
REMARK  21 active torsions:
REMARK  status: ('A' for Active; 'I' for Inactive)
REMARK    1  A    between atoms: C3_4  and  O2_5 
REMARK    2  A    between atoms: O2_5  and  C4_6 
REMARK    3  A    between atoms: C5_8  and  O4_9 
REMARK    4  A    between atoms: O4_9  and  C6_10 
REMARK    5  A    between atoms: C8_12  and  O5_13 
REMARK    6  A    between atoms: O5_13  and  C9_14 
REMARK    7  A    between atoms: C10_16  and  O7_17 
REMARK    8  A    between atoms: O7_17  and  C11_18 
REMARK    9  A    between atoms: C11_18  and  C12_19 
REMARK   10  A    between atoms: C11_18  and  C13_22 
REMARK   11  A    between atoms: C12_19  and  O8_20 
REMARK   12  A    between atoms: C13_22  and  O9_23 
REMARK   13  A    between atoms: C14_25  and  O10_26 
REMARK   14  A    between atoms: C15_28  and  O11_29 
REMARK   15  A    between atoms: C16_31  and  N1_32 
REMARK   16  A    between atoms: C18_37  and  N2_38 
REMARK   17  A    between atoms: C19_42  and  N3_43 
REMARK   18  A    between atoms: C21_48  and  N4_49 
REMARK   19  A    between atoms: C22_53  and  O12_54 
REMARK   20  A    between atoms: C23_56  and  O13_57 
REMARK   21  A    between atoms: C24_59  and  N5_60 
ROOT
HETATM    1  C6  UNL     1      84.459   5.362 123.196  1.00  0.00     0.157 C 
HETATM    2  C7  UNL     1      85.097   4.042 122.852  1.00  0.00     0.068 C 
HETATM    3  C8  UNL     1      85.504   3.863 121.434  1.00  0.00     0.157 C 
HETATM    4  C16 UNL     1      84.568   4.603 120.525  1.00  0.00     0.214 C 
HETATM    5  C17 UNL     1      84.580   6.075 120.795  1.00  0.00     0.070 C 
HETATM    6  C18 UNL     1      84.862   6.428 122.232  1.00  0.00     0.214 C 
ENDROOT
BRANCH   1   7
HETATM    7  O4  UNL     1      83.137   5.178 123.384  1.00  0.00    -0.352 OA
BRANCH   7   8
HETATM    8  C5  UNL     1      82.668   4.902 124.624  1.00  0.00     0.293 C 
HETATM    9  O3  UNL     1      83.805   4.832 125.475  1.00  0.00    -0.327 OA
HETATM   10  C4  UNL     1      83.399   4.311 126.699  1.00  0.00     0.296 C 
HETATM   11  C21 UNL     1      82.625   5.376 127.440  1.00  0.00     0.240 C 
HETATM   12  C20 UNL     1      82.391   6.529 126.506  1.00  0.00     0.075 C 
HETATM   13  C19 UNL     1      81.784   5.941 125.231  1.00  0.00     0.240 C 
BRANCH  10  14
HETATM   14  O2  UNL     1      84.472   3.894 127.475  1.00  0.00    -0.327 OA
BRANCH  14  15
HETATM   15  C3  UNL     1      84.358   2.550 127.825  1.00  0.00     0.294 C 
HETATM   16  O1  UNL     1      84.578   2.379 129.183  1.00  0.00    -0.351 OA
HETATM   17  C2  UNL     1      85.397   1.319 129.484  1.00  0.00     0.153 C 
HETATM   18  C1  UNL     1      85.234   1.025 130.981  1.00  0.00     0.042 C 
HETATM   19  C24 UNL     1      85.015   0.036 128.774  1.00  0.00     0.243 C 
HETATM   20  C23 UNL     1      84.935   0.244 127.276  1.00  0.00     0.184 C 
HETATM   21  C22 UNL     1      85.317   1.693 127.024  1.00  0.00     0.204 C 
BRANCH  19  22
HETATM   22  N5  UNL     1      86.082  -0.912 129.025  1.00  0.00    -0.070 N 
ATOM     23  H53 UNL     1      86.555  -1.221 128.175  1.00  0.00     0.274 HD
ATOM     24  H52 UNL     1      86.895  -0.494 129.477  1.00  0.00     0.274 HD
ATOM     25  H51 UNL     1      85.673  -1.678 129.559  1.00  0.00     0.274 HD
ENDBRANCH  19  22
BRANCH  20  26
HETATM   26  O13 UNL     1      85.769  -0.639 126.589  1.00  0.00    -0.391 OA
ATOM     27  H13 UNL     1      85.506  -0.741 125.682  1.00  0.00     0.210 HD
ENDBRANCH  20  26
BRANCH  21  28
HETATM   28  O12 UNL     1      85.105   2.002 125.681  1.00  0.00    -0.388 OA
ATOM     29  H12 UNL     1      85.802   1.582 125.191  1.00  0.00     0.210 HD
ENDBRANCH  21  28
ENDBRANCH  14  15
ENDBRANCH  10  14
BRANCH  11  30
HETATM   30  N4  UNL     1      83.426   5.861 128.571  1.00  0.00    -0.070 N 
ATOM     31  H43 UNL     1      84.191   6.465 128.272  1.00  0.00     0.274 HD
ATOM     32  H42 UNL     1      82.920   6.539 129.140  1.00  0.00     0.274 HD
ATOM     33  H41 UNL     1      83.754   5.065 129.118  1.00  0.00     0.274 HD
ENDBRANCH  11  30
BRANCH  13  34
HETATM   34  N3  UNL     1      81.484   7.054 124.377  1.00  0.00    -0.070 N 
ATOM     35  H33 UNL     1      81.959   7.893 124.711  1.00  0.00     0.274 HD
ATOM     36  H32 UNL     1      81.942   6.939 123.472  1.00  0.00     0.274 HD
ATOM     37  H31 UNL     1      80.489   7.242 124.247  1.00  0.00     0.274 HD
ENDBRANCH  13  34
ENDBRANCH   7   8
ENDBRANCH   1   7
BRANCH   6  38
HETATM   38  N2  UNL     1      86.292   6.647 122.370  1.00  0.00    -0.072 N 
ATOM     39  H23 UNL     1      86.613   6.551 123.333  1.00  0.00     0.274 HD
ATOM     40  H22 UNL     1      86.847   5.893 121.964  1.00  0.00     0.274 HD
ATOM     41  H21 UNL     1      86.515   7.558 121.969  1.00  0.00     0.274 HD
ENDBRANCH   6  38
BRANCH   3  42
HETATM   42  O5  UNL     1      85.388   2.503 121.122  1.00  0.00    -0.351 OA
BRANCH  42  43
HETATM   43  C9  UNL     1      85.435   1.671 122.221  1.00  0.00     0.294 C 
HETATM   44  O6  UNL     1      84.419   0.721 122.200  1.00  0.00    -0.326 OA
HETATM   45  C10 UNL     1      84.817  -0.284 123.098  1.00  0.00     0.295 C 
HETATM   46  C14 UNL     1      86.325  -0.333 123.008  1.00  0.00     0.207 C 
HETATM   47  C15 UNL     1      86.664   0.806 122.068  1.00  0.00     0.207 C 
BRANCH  45  48
HETATM   48  O7  UNL     1      84.180  -1.422 122.707  1.00  0.00    -0.349 OA
BRANCH  48  49
HETATM   49  C11 UNL     1      83.611  -1.468 121.482  1.00  0.00     0.171 C 
BRANCH  49  50
HETATM   50  C12 UNL     1      84.186  -2.425 120.496  1.00  0.00     0.198 C 
BRANCH  50  51
HETATM   51  O8  UNL     1      85.171  -1.747 119.739  1.00  0.00    -0.398 OA
ATOM     52  H8  UNL     1      84.976  -1.871 118.816  1.00  0.00     0.209 HD
ENDBRANCH  50  51
ENDBRANCH  49  50
BRANCH  49  53
HETATM   53  C13 UNL     1      82.144  -1.809 121.653  1.00  0.00     0.198 C 
BRANCH  53  54
HETATM   54  O9  UNL     1      81.835  -2.310 122.894  1.00  0.00    -0.398 OA
ATOM     55  H9  UNL     1      81.000  -2.007 123.231  1.00  0.00     0.209 HD
ENDBRANCH  53  54
ENDBRANCH  49  53
ENDBRANCH  48  49
ENDBRANCH  45  48
BRANCH  46  56
HETATM   56  O10 UNL     1      86.939  -0.014 124.229  1.00  0.00    -0.388 OA
ATOM     57  H10 UNL     1      86.989  -0.763 124.810  1.00  0.00     0.210 HD
ENDBRANCH  46  56
BRANCH  47  58
HETATM   58  O11 UNL     1      86.789   0.364 120.741  1.00  0.00    -0.388 OA
ATOM     59  H11 UNL     1      86.572  -0.558 120.677  1.00  0.00     0.210 HD
ENDBRANCH  47  58
ENDBRANCH  42  43
ENDBRANCH   3  42
BRANCH   4  60
HETATM   60  N1  UNL     1      83.263   3.994 120.618  1.00  0.00    -0.072 N 
ATOM     61  H13 UNL     1      82.571   4.458 120.031  1.00  0.00     0.274 HD
ATOM     62  H12 UNL     1      83.227   3.074 120.177  1.00  0.00     0.274 HD
ATOM     63  H11 UNL     1      82.989   3.968 121.601  1.00  0.00     0.274 HD
ENDBRANCH   4  60
TORSDOF 21
ENDMDL
