MODEL 1
REMARK VINA RESULT: -5.061796461      0.000      0.000
REMARK  8 active torsions:
REMARK  status: ('A' for Active; 'I' for Inactive)
REMARK    1  A    between atoms: C2_2  and  C3_3 
REMARK    2  A    between atoms: C2_2  and  C5_7 
REMARK    3  A    between atoms: C3_3  and  C4_4 
REMARK    4  A    between atoms: C4_4  and  O1_5 
REMARK    5  A    between atoms: C5_7  and  C6_8 
REMARK    6  A    between atoms: C6_8  and  C7_9 
REMARK    7  A    between atoms: C7_9  and  O2_10 
REMARK    8  A    between atoms: O2_10  and  C8_11 
ROOT
HETATM    1  C6  UNL     1     -29.990 -19.735 -34.504  1.00  0.00     0.031 C 
ENDROOT
BRANCH   1   2
HETATM    2  C5  UNL     1     -31.351 -19.319 -35.043  1.00  0.00     0.035 C 
BRANCH   2   3
HETATM    3  C2  UNL     1     -32.449 -19.552 -34.077  1.00  0.00    -0.087 C 
HETATM    4  C1  UNL     1     -33.213 -20.634 -34.220  1.00  0.00     0.014 C 
BRANCH   3   5
HETATM    5  C3  UNL     1     -32.716 -18.635 -32.954  1.00  0.00     0.059 C 
BRANCH   5   6
HETATM    6  C4  UNL     1     -32.341 -17.209 -33.188  1.00  0.00     0.168 C 
BRANCH   6   7
HETATM    7  O1  UNL     1     -33.280 -16.568 -33.950  1.00  0.00    -0.401 OA
ATOM      8  H1  UNL     1     -33.544 -15.747 -33.551  1.00  0.00     0.209 HD
ENDBRANCH   6   7
ENDBRANCH   5   6
ENDBRANCH   3   5
ENDBRANCH   2   3
ENDBRANCH   1   2
BRANCH   1   9
HETATM    9  C7  UNL     1     -29.396 -20.767 -35.415  1.00  0.00     0.176 C 
BRANCH   9  10
HETATM   10  O2  UNL     1     -29.323 -22.046 -34.902  1.00  0.00    -0.351 OA
BRANCH  10  11
HETATM   11  C8  UNL     1     -30.327 -22.914 -34.559  1.00  0.00     0.068 A 
HETATM   12  C9  UNL     1     -30.625 -23.329 -33.285  1.00  0.00     0.037 A 
HETATM   13  C10 UNL     1     -31.675 -24.219 -33.029  1.00  0.00     0.003 A 
HETATM   14  C11 UNL     1     -32.459 -24.720 -34.040  1.00  0.00     0.000 A 
HETATM   15  C12 UNL     1     -32.169 -24.313 -35.321  1.00  0.00     0.003 A 
HETATM   16  C13 UNL     1     -31.146 -23.445 -35.580  1.00  0.00     0.037 A 
ENDBRANCH  10  11
ENDBRANCH   9  10
ENDBRANCH   1   9
TORSDOF 8
ENDMDL
MODEL 2
REMARK VINA RESULT: -5.017596124      1.858      2.494
REMARK  8 active torsions:
REMARK  status: ('A' for Active; 'I' for Inactive)
REMARK    1  A    between atoms: C2_2  and  C3_3 
REMARK    2  A    between atoms: C2_2  and  C5_7 
REMARK    3  A    between atoms: C3_3  and  C4_4 
REMARK    4  A    between atoms: C4_4  and  O1_5 
REMARK    5  A    between atoms: C5_7  and  C6_8 
REMARK    6  A    between atoms: C6_8  and  C7_9 
REMARK    7  A    between atoms: C7_9  and  O2_10 
REMARK    8  A    between atoms: O2_10  and  C8_11 
ROOT
HETATM    1  C6  UNL     1     -29.679 -20.217 -34.582  1.00  0.00     0.031 C 
ENDROOT
BRANCH   1   2
HETATM    2  C5  UNL     1     -31.028 -19.585 -34.889  1.00  0.00     0.035 C 
BRANCH   2   3
HETATM    3  C2  UNL     1     -32.064 -19.922 -33.886  1.00  0.00    -0.087 C 
HETATM    4  C1  UNL     1     -32.266 -21.201 -33.573  1.00  0.00     0.014 C 
BRANCH   3   5
HETATM    5  C3  UNL     1     -32.869 -18.888 -33.211  1.00  0.00     0.059 C 
BRANCH   5   6
HETATM    6  C4  UNL     1     -32.284 -17.515 -33.215  1.00  0.00     0.168 C 
BRANCH   6   7
HETATM    7  O1  UNL     1     -33.107 -16.627 -33.855  1.00  0.00    -0.401 OA
ATOM      8  H1  UNL     1     -34.006 -16.932 -33.857  1.00  0.00     0.209 HD
ENDBRANCH   6   7
ENDBRANCH   5   6
ENDBRANCH   3   5
ENDBRANCH   2   3
ENDBRANCH   1   2
BRANCH   1   9
HETATM    9  C7  UNL     1     -29.258 -21.066 -35.745  1.00  0.00     0.176 C 
BRANCH   9  10
HETATM   10  O2  UNL     1     -29.134 -22.415 -35.484  1.00  0.00    -0.351 OA
BRANCH  10  11
HETATM   11  C8  UNL     1     -29.326 -23.492 -36.310  1.00  0.00     0.068 A 
HETATM   12  C9  UNL     1     -28.439 -23.944 -37.255  1.00  0.00     0.037 A 
HETATM   13  C10 UNL     1     -28.720 -25.059 -38.053  1.00  0.00     0.003 A 
HETATM   14  C11 UNL     1     -29.897 -25.756 -37.930  1.00  0.00     0.000 A 
HETATM   15  C12 UNL     1     -30.795 -25.313 -36.987  1.00  0.00     0.003 A 
HETATM   16  C13 UNL     1     -30.529 -24.226 -36.204  1.00  0.00     0.037 A 
ENDBRANCH  10  11
ENDBRANCH   9  10
ENDBRANCH   1   9
TORSDOF 8
ENDMDL
MODEL 3
REMARK VINA RESULT: -5.011043833      1.789      2.358
REMARK  8 active torsions:
REMARK  status: ('A' for Active; 'I' for Inactive)
REMARK    1  A    between atoms: C2_2  and  C3_3 
REMARK    2  A    between atoms: C2_2  and  C5_7 
REMARK    3  A    between atoms: C3_3  and  C4_4 
REMARK    4  A    between atoms: C4_4  and  O1_5 
REMARK    5  A    between atoms: C5_7  and  C6_8 
REMARK    6  A    between atoms: C6_8  and  C7_9 
REMARK    7  A    between atoms: C7_9  and  O2_10 
REMARK    8  A    between atoms: O2_10  and  C8_11 
ROOT
HETATM    1  C6  UNL     1     -29.730 -20.260 -34.586  1.00  0.00     0.031 C 
ENDROOT
BRANCH   1   2
HETATM    2  C5  UNL     1     -31.117 -19.743 -34.937  1.00  0.00     0.035 C 
BRANCH   2   3
HETATM    3  C2  UNL     1     -32.128 -20.060 -33.903  1.00  0.00    -0.087 C 
HETATM    4  C1  UNL     1     -32.294 -21.329 -33.531  1.00  0.00     0.014 C 
BRANCH   3   5
HETATM    5  C3  UNL     1     -32.949 -19.017 -33.259  1.00  0.00     0.059 C 
BRANCH   5   6
HETATM    6  C4  UNL     1     -32.336 -17.656 -33.216  1.00  0.00     0.168 C 
BRANCH   6   7
HETATM    7  O1  UNL     1     -33.175 -16.718 -33.756  1.00  0.00    -0.401 OA
ATOM      8  H1  UNL     1     -32.775 -16.288 -34.502  1.00  0.00     0.209 HD
ENDBRANCH   6   7
ENDBRANCH   5   6
ENDBRANCH   3   5
ENDBRANCH   2   3
ENDBRANCH   1   2
BRANCH   1   9
HETATM    9  C7  UNL     1     -29.239 -21.140 -35.697  1.00  0.00     0.176 C 
BRANCH   9  10
HETATM   10  O2  UNL     1     -29.182 -22.488 -35.410  1.00  0.00    -0.351 OA
BRANCH  10  11
HETATM   11  C8  UNL     1     -29.530 -23.567 -36.181  1.00  0.00     0.068 A 
HETATM   12  C9  UNL     1     -30.756 -24.185 -36.186  1.00  0.00     0.037 A 
HETATM   13  C10 UNL     1     -31.022 -25.282 -37.013  1.00  0.00     0.003 A 
HETATM   14  C11 UNL     1     -30.070 -25.795 -37.860  1.00  0.00     0.000 A 
HETATM   15  C12 UNL     1     -28.837 -25.186 -37.863  1.00  0.00     0.003 A 
HETATM   16  C13 UNL     1     -28.569 -24.114 -37.060  1.00  0.00     0.037 A 
ENDBRANCH  10  11
ENDBRANCH   9  10
ENDBRANCH   1   9
TORSDOF 8
ENDMDL
MODEL 4
REMARK VINA RESULT: -4.931643004      2.336      3.307
REMARK  8 active torsions:
REMARK  status: ('A' for Active; 'I' for Inactive)
REMARK    1  A    between atoms: C2_2  and  C3_3 
REMARK    2  A    between atoms: C2_2  and  C5_7 
REMARK    3  A    between atoms: C3_3  and  C4_4 
REMARK    4  A    between atoms: C4_4  and  O1_5 
REMARK    5  A    between atoms: C5_7  and  C6_8 
REMARK    6  A    between atoms: C6_8  and  C7_9 
REMARK    7  A    between atoms: C7_9  and  O2_10 
REMARK    8  A    between atoms: O2_10  and  C8_11 
ROOT
HETATM    1  C6  UNL     1     -30.950 -21.908 -34.971  1.00  0.00     0.031 C 
ENDROOT
BRANCH   1   2
HETATM    2  C5  UNL     1     -31.817 -21.264 -33.900  1.00  0.00     0.035 C 
BRANCH   2   3
HETATM    3  C2  UNL     1     -31.804 -19.785 -33.961  1.00  0.00    -0.087 C 
HETATM    4  C1  UNL     1     -30.868 -19.178 -34.690  1.00  0.00     0.014 C 
BRANCH   3   5
HETATM    5  C3  UNL     1     -32.801 -18.960 -33.255  1.00  0.00     0.059 C 
BRANCH   5   6
HETATM    6  C4  UNL     1     -32.431 -17.525 -33.071  1.00  0.00     0.168 C 
BRANCH   6   7
HETATM    7  O1  UNL     1     -33.229 -16.707 -33.825  1.00  0.00    -0.401 OA
ATOM      8  H1  UNL     1     -32.993 -16.748 -34.744  1.00  0.00     0.209 HD
ENDBRANCH   6   7
ENDBRANCH   5   6
ENDBRANCH   3   5
ENDBRANCH   2   3
ENDBRANCH   1   2
BRANCH   1   9
HETATM    9  C7  UNL     1     -30.664 -23.328 -34.583  1.00  0.00     0.176 C 
BRANCH   9  10
HETATM   10  O2  UNL     1     -29.589 -23.915 -35.219  1.00  0.00    -0.351 OA
BRANCH  10  11
HETATM   11  C8  UNL     1     -29.373 -24.140 -36.554  1.00  0.00     0.068 A 
HETATM   12  C9  UNL     1     -28.220 -23.846 -37.238  1.00  0.00     0.037 A 
HETATM   13  C10 UNL     1     -28.087 -24.117 -38.605  1.00  0.00     0.003 A 
HETATM   14  C11 UNL     1     -29.104 -24.690 -39.329  1.00  0.00     0.000 A 
HETATM   15  C12 UNL     1     -30.265 -24.987 -38.655  1.00  0.00     0.003 A 
HETATM   16  C13 UNL     1     -30.403 -24.727 -37.321  1.00  0.00     0.037 A 
ENDBRANCH  10  11
ENDBRANCH   9  10
ENDBRANCH   1   9
TORSDOF 8
ENDMDL
MODEL 5
REMARK VINA RESULT: -4.924033831      2.331      3.373
REMARK  8 active torsions:
REMARK  status: ('A' for Active; 'I' for Inactive)
REMARK    1  A    between atoms: C2_2  and  C3_3 
REMARK    2  A    between atoms: C2_2  and  C5_7 
REMARK    3  A    between atoms: C3_3  and  C4_4 
REMARK    4  A    between atoms: C4_4  and  O1_5 
REMARK    5  A    between atoms: C5_7  and  C6_8 
REMARK    6  A    between atoms: C6_8  and  C7_9 
REMARK    7  A    between atoms: C7_9  and  O2_10 
REMARK    8  A    between atoms: O2_10  and  C8_11 
ROOT
HETATM    1  C6  UNL     1     -31.038 -21.920 -34.972  1.00  0.00     0.031 C 
ENDROOT
BRANCH   1   2
HETATM    2  C5  UNL     1     -31.848 -21.263 -33.865  1.00  0.00     0.035 C 
BRANCH   2   3
HETATM    3  C2  UNL     1     -31.816 -19.784 -33.927  1.00  0.00    -0.087 C 
HETATM    4  C1  UNL     1     -30.862 -19.189 -34.641  1.00  0.00     0.014 C 
BRANCH   3   5
HETATM    5  C3  UNL     1     -32.814 -18.947 -33.237  1.00  0.00     0.059 C 
BRANCH   5   6
HETATM    6  C4  UNL     1     -32.440 -17.511 -33.070  1.00  0.00     0.168 C 
BRANCH   6   7
HETATM    7  O1  UNL     1     -33.220 -16.702 -33.853  1.00  0.00    -0.401 OA
ATOM      8  H1  UNL     1     -34.136 -16.946 -33.795  1.00  0.00     0.209 HD
ENDBRANCH   6   7
ENDBRANCH   5   6
ENDBRANCH   3   5
ENDBRANCH   2   3
ENDBRANCH   1   2
BRANCH   1   9
HETATM    9  C7  UNL     1     -30.651 -23.304 -34.544  1.00  0.00     0.176 C 
BRANCH   9  10
HETATM   10  O2  UNL     1     -29.605 -23.873 -35.240  1.00  0.00    -0.351 OA
BRANCH  10  11
HETATM   11  C8  UNL     1     -29.486 -24.152 -36.577  1.00  0.00     0.068 A 
HETATM   12  C9  UNL     1     -30.469 -24.685 -37.374  1.00  0.00     0.037 A 
HETATM   13  C10 UNL     1     -30.258 -24.932 -38.735  1.00  0.00     0.003 A 
HETATM   14  C11 UNL     1     -29.057 -24.653 -39.341  1.00  0.00     0.000 A 
HETATM   15  C12 UNL     1     -28.064 -24.120 -38.554  1.00  0.00     0.003 A 
HETATM   16  C13 UNL     1     -28.262 -23.875 -37.224  1.00  0.00     0.037 A 
ENDBRANCH  10  11
ENDBRANCH   9  10
ENDBRANCH   1   9
TORSDOF 8
ENDMDL
