MODEL 1
REMARK VINA RESULT: -5.712020281      0.000      0.000
REMARK  7 active torsions:
REMARK  status: ('A' for Active; 'I' for Inactive)
REMARK    1  A    between atoms: C2_2  and  C3_3 
REMARK    2  A    between atoms: C3_3  and  C4_4 
REMARK    3  A    between atoms: C4_4  and  O1_5 
REMARK    4  A    between atoms: C4_4  and  C5_7 
REMARK    5  A    between atoms: C5_7  and  O2_8 
REMARK    6  A    between atoms: O2_8  and  C6_9 
REMARK    7  A    between atoms: C6_9  and  C7_10 
ROOT
HETATM    1  C6  UNL     1     -27.912 -23.381 -37.206  1.00  0.00     0.206 C 
ENDROOT
BRANCH   1   2
HETATM    2  O2  UNL     1     -28.170 -24.714 -37.342  1.00  0.00    -0.384 OA
BRANCH   2   3
HETATM    3  C5  UNL     1     -27.231 -25.392 -38.042  1.00  0.00     0.199 C 
BRANCH   3   4
HETATM    4  C4  UNL     1     -27.595 -25.620 -39.500  1.00  0.00     0.142 C 
BRANCH   4   5
HETATM    5  C3  UNL     1     -29.089 -25.480 -39.681  1.00  0.00     0.033 C 
BRANCH   5   6
HETATM    6  C2  UNL     1     -29.439 -24.424 -40.657  1.00  0.00    -0.002 C 
HETATM    7  C1  UNL     1     -28.243 -23.644 -41.066  1.00  0.00     0.005 C 
ENDBRANCH   5   6
ENDBRANCH   4   5
BRANCH   4   8
HETATM    8  O1  UNL     1     -27.126 -26.896 -39.878  1.00  0.00    -0.393 OA
ATOM      9  H1  UNL     1     -26.215 -27.031 -39.642  1.00  0.00     0.210 HD
ENDBRANCH   4   8
ENDBRANCH   3   4
ENDBRANCH   2   3
ENDBRANCH   1   2
BRANCH   1  10
HETATM   10  C7  UNL     1     -29.065 -22.731 -36.524  1.00  0.00    -0.034 A 
HETATM   11  C8  UNL     1     -28.945 -21.490 -35.958  1.00  0.00     0.016 A 
HETATM   12  C9  UNL     1     -30.033 -20.910 -35.332  1.00  0.00    -0.061 A 
HETATM   13  C10 UNL     1     -29.862 -19.562 -34.729  1.00  0.00     0.048 C 
HETATM   14  C11 UNL     1     -31.237 -21.601 -35.288  1.00  0.00     0.013 A 
HETATM   15  C12 UNL     1     -31.374 -22.849 -35.853  1.00  0.00    -0.061 A 
HETATM   16  C13 UNL     1     -32.645 -23.620 -35.827  1.00  0.00     0.048 C 
HETATM   17  C14 UNL     1     -30.284 -23.419 -36.474  1.00  0.00     0.016 A 
ENDBRANCH   1  10
TORSDOF 7
ENDMDL
MODEL 2
REMARK VINA RESULT: -5.686422761      1.534      2.731
REMARK  7 active torsions:
REMARK  status: ('A' for Active; 'I' for Inactive)
REMARK    1  A    between atoms: C2_2  and  C3_3 
REMARK    2  A    between atoms: C3_3  and  C4_4 
REMARK    3  A    between atoms: C4_4  and  O1_5 
REMARK    4  A    between atoms: C4_4  and  C5_7 
REMARK    5  A    between atoms: C5_7  and  O2_8 
REMARK    6  A    between atoms: O2_8  and  C6_9 
REMARK    7  A    between atoms: C6_9  and  C7_10 
ROOT
HETATM    1  C6  UNL     1     -28.199 -23.340 -37.245  1.00  0.00     0.206 C 
ENDROOT
BRANCH   1   2
HETATM    2  O2  UNL     1     -28.276 -24.703 -37.239  1.00  0.00    -0.384 OA
BRANCH   2   3
HETATM    3  C5  UNL     1     -28.083 -25.274 -38.451  1.00  0.00     0.199 C 
BRANCH   3   4
HETATM    4  C4  UNL     1     -29.326 -25.934 -39.025  1.00  0.00     0.142 C 
BRANCH   4   5
HETATM    5  C3  UNL     1     -30.227 -26.392 -37.901  1.00  0.00     0.033 C 
BRANCH   5   6
HETATM    6  C2  UNL     1     -31.598 -25.849 -38.026  1.00  0.00    -0.002 C 
HETATM    7  C1  UNL     1     -31.594 -24.497 -38.641  1.00  0.00     0.005 C 
ENDBRANCH   5   6
ENDBRANCH   4   5
BRANCH   4   8
HETATM    8  O1  UNL     1     -28.917 -26.999 -39.855  1.00  0.00    -0.393 OA
ATOM      9  H1  UNL     1     -29.035 -26.805 -40.777  1.00  0.00     0.210 HD
ENDBRANCH   4   8
ENDBRANCH   3   4
ENDBRANCH   2   3
ENDBRANCH   1   2
BRANCH   1  10
HETATM   10  C7  UNL     1     -29.115 -22.799 -36.204  1.00  0.00    -0.034 A 
HETATM   11  C8  UNL     1     -29.912 -23.629 -35.461  1.00  0.00     0.016 A 
HETATM   12  C9  UNL     1     -30.754 -23.098 -34.500  1.00  0.00    -0.061 A 
HETATM   13  C10 UNL     1     -31.604 -24.032 -33.717  1.00  0.00     0.048 C 
HETATM   14  C11 UNL     1     -30.775 -21.724 -34.303  1.00  0.00     0.013 A 
HETATM   15  C12 UNL     1     -29.978 -20.877 -35.040  1.00  0.00    -0.061 A 
HETATM   16  C13 UNL     1     -29.973 -19.400 -34.859  1.00  0.00     0.048 C 
HETATM   17  C14 UNL     1     -29.144 -21.414 -35.996  1.00  0.00     0.016 A 
ENDBRANCH   1  10
TORSDOF 7
ENDMDL
MODEL 3
REMARK VINA RESULT: -5.681920954      0.832      2.181
REMARK  7 active torsions:
REMARK  status: ('A' for Active; 'I' for Inactive)
REMARK    1  A    between atoms: C2_2  and  C3_3 
REMARK    2  A    between atoms: C3_3  and  C4_4 
REMARK    3  A    between atoms: C4_4  and  O1_5 
REMARK    4  A    between atoms: C4_4  and  C5_7 
REMARK    5  A    between atoms: C5_7  and  O2_8 
REMARK    6  A    between atoms: O2_8  and  C6_9 
REMARK    7  A    between atoms: C6_9  and  C7_10 
ROOT
HETATM    1  C6  UNL     1     -28.207 -23.246 -37.156  1.00  0.00     0.206 C 
ENDROOT
BRANCH   1   2
HETATM    2  O2  UNL     1     -28.527 -24.550 -37.402  1.00  0.00    -0.384 OA
BRANCH   2   3
HETATM    3  C5  UNL     1     -27.539 -25.263 -37.990  1.00  0.00     0.199 C 
BRANCH   3   4
HETATM    4  C4  UNL     1     -27.716 -25.440 -39.489  1.00  0.00     0.142 C 
BRANCH   4   5
HETATM    5  C3  UNL     1     -29.168 -25.243 -39.858  1.00  0.00     0.033 C 
BRANCH   5   6
HETATM    6  C2  UNL     1     -29.337 -24.284 -40.973  1.00  0.00    -0.002 C 
HETATM    7  C1  UNL     1     -28.126 -23.445 -41.157  1.00  0.00     0.005 C 
ENDBRANCH   5   6
ENDBRANCH   4   5
BRANCH   4   8
HETATM    8  O1  UNL     1     -27.241 -26.721 -39.841  1.00  0.00    -0.393 OA
ATOM      9  H1  UNL     1     -26.470 -26.970 -39.346  1.00  0.00     0.210 HD
ENDBRANCH   4   8
ENDBRANCH   3   4
ENDBRANCH   2   3
ENDBRANCH   1   2
BRANCH   1  10
HETATM   10  C7  UNL     1     -29.147 -22.699 -36.140  1.00  0.00    -0.034 A 
HETATM   11  C8  UNL     1     -29.974 -23.524 -35.425  1.00  0.00     0.016 A 
HETATM   12  C9  UNL     1     -30.839 -22.988 -34.487  1.00  0.00    -0.061 A 
HETATM   13  C10 UNL     1     -31.721 -23.916 -33.732  1.00  0.00     0.048 C 
HETATM   14  C11 UNL     1     -30.852 -21.614 -34.286  1.00  0.00     0.013 A 
HETATM   15  C12 UNL     1     -30.026 -20.772 -34.996  1.00  0.00    -0.061 A 
HETATM   16  C13 UNL     1     -30.011 -19.297 -34.809  1.00  0.00     0.048 C 
HETATM   17  C14 UNL     1     -29.169 -21.315 -35.928  1.00  0.00     0.016 A 
ENDBRANCH   1  10
TORSDOF 7
ENDMDL
MODEL 4
REMARK VINA RESULT: -5.662737219      1.511      2.145
REMARK  7 active torsions:
REMARK  status: ('A' for Active; 'I' for Inactive)
REMARK    1  A    between atoms: C2_2  and  C3_3 
REMARK    2  A    between atoms: C3_3  and  C4_4 
REMARK    3  A    between atoms: C4_4  and  O1_5 
REMARK    4  A    between atoms: C4_4  and  C5_7 
REMARK    5  A    between atoms: C5_7  and  O2_8 
REMARK    6  A    between atoms: O2_8  and  C6_9 
REMARK    7  A    between atoms: C6_9  and  C7_10 
ROOT
HETATM    1  C6  UNL     1     -27.956 -23.422 -37.300  1.00  0.00     0.206 C 
ENDROOT
BRANCH   1   2
HETATM    2  O2  UNL     1     -28.233 -24.742 -37.505  1.00  0.00    -0.384 OA
BRANCH   2   3
HETATM    3  C5  UNL     1     -27.986 -25.173 -38.764  1.00  0.00     0.199 C 
BRANCH   3   4
HETATM    4  C4  UNL     1     -29.191 -25.797 -39.448  1.00  0.00     0.142 C 
BRANCH   4   5
HETATM    5  C3  UNL     1     -30.388 -25.739 -38.527  1.00  0.00     0.033 C 
BRANCH   5   6
HETATM    6  C2  UNL     1     -30.740 -27.069 -37.981  1.00  0.00    -0.002 C 
HETATM    7  C1  UNL     1     -31.993 -27.016 -37.185  1.00  0.00     0.005 C 
ENDBRANCH   5   6
ENDBRANCH   4   5
BRANCH   4   8
HETATM    8  O1  UNL     1     -28.857 -27.119 -39.812  1.00  0.00    -0.393 OA
ATOM      9  H1  UNL     1     -28.164 -27.151 -40.462  1.00  0.00     0.210 HD
ENDBRANCH   4   8
ENDBRANCH   3   4
ENDBRANCH   2   3
ENDBRANCH   1   2
BRANCH   1  10
HETATM   10  C7  UNL     1     -28.946 -22.861 -36.341  1.00  0.00    -0.034 A 
HETATM   11  C8  UNL     1     -28.986 -21.520 -36.069  1.00  0.00     0.016 A 
HETATM   12  C9  UNL     1     -29.918 -21.026 -35.172  1.00  0.00    -0.061 A 
HETATM   13  C10 UNL     1     -29.928 -19.564 -34.903  1.00  0.00     0.048 C 
HETATM   14  C11 UNL     1     -30.801 -21.905 -34.561  1.00  0.00     0.013 A 
HETATM   15  C12 UNL     1     -30.774 -23.256 -34.826  1.00  0.00    -0.061 A 
HETATM   16  C13 UNL     1     -31.703 -24.229 -34.192  1.00  0.00     0.048 C 
HETATM   17  C14 UNL     1     -29.843 -23.738 -35.719  1.00  0.00     0.016 A 
ENDBRANCH   1  10
TORSDOF 7
ENDMDL
MODEL 5
REMARK VINA RESULT: -5.571308178     11.227     13.232
REMARK  7 active torsions:
REMARK  status: ('A' for Active; 'I' for Inactive)
REMARK    1  A    between atoms: C2_2  and  C3_3 
REMARK    2  A    between atoms: C3_3  and  C4_4 
REMARK    3  A    between atoms: C4_4  and  O1_5 
REMARK    4  A    between atoms: C4_4  and  C5_7 
REMARK    5  A    between atoms: C5_7  and  O2_8 
REMARK    6  A    between atoms: O2_8  and  C6_9 
REMARK    7  A    between atoms: C6_9  and  C7_10 
ROOT
HETATM    1  C6  UNL     1     -38.355 -26.395 -47.420  1.00  0.00     0.206 C 
ENDROOT
BRANCH   1   2
HETATM    2  O2  UNL     1     -37.942 -25.150 -47.797  1.00  0.00    -0.384 OA
BRANCH   2   3
HETATM    3  C5  UNL     1     -37.045 -24.584 -46.957  1.00  0.00     0.199 C 
BRANCH   3   4
HETATM    4  C4  UNL     1     -35.722 -25.327 -46.878  1.00  0.00     0.142 C 
BRANCH   4   5
HETATM    5  C3  UNL     1     -35.153 -25.212 -45.483  1.00  0.00     0.033 C 
BRANCH   5   6
HETATM    6  C2  UNL     1     -36.165 -24.758 -44.502  1.00  0.00    -0.002 C 
HETATM    7  C1  UNL     1     -36.230 -25.667 -43.329  1.00  0.00     0.005 C 
ENDBRANCH   5   6
ENDBRANCH   4   5
BRANCH   4   8
HETATM    8  O1  UNL     1     -34.856 -24.794 -47.857  1.00  0.00    -0.393 OA
ATOM      9  H1  UNL     1     -35.000 -25.176 -48.714  1.00  0.00     0.210 HD
ENDBRANCH   4   8
ENDBRANCH   3   4
ENDBRANCH   2   3
ENDBRANCH   1   2
BRANCH   1  10
HETATM   10  C7  UNL     1     -39.442 -26.261 -46.412  1.00  0.00    -0.034 A 
HETATM   11  C8  UNL     1     -39.335 -26.839 -45.175  1.00  0.00     0.016 A 
HETATM   12  C9  UNL     1     -40.361 -26.698 -44.257  1.00  0.00    -0.061 A 
HETATM   13  C10 UNL     1     -40.206 -27.341 -42.926  1.00  0.00     0.048 C 
HETATM   14  C11 UNL     1     -41.488 -25.969 -44.609  1.00  0.00     0.013 A 
HETATM   15  C12 UNL     1     -41.610 -25.381 -45.848  1.00  0.00    -0.061 A 
HETATM   16  C13 UNL     1     -42.801 -24.592 -46.262  1.00  0.00     0.048 C 
HETATM   17  C14 UNL     1     -40.584 -25.528 -46.755  1.00  0.00     0.016 A 
ENDBRANCH   1  10
TORSDOF 7
ENDMDL
