MODEL 1
REMARK VINA RESULT: -4.731309212      0.000      0.000
REMARK  2 active torsions:
REMARK  status: ('A' for Active; 'I' for Inactive)
REMARK    1  A    between atoms: C1_2  and  C2_3 
REMARK    2  A    between atoms: C2_3  and  N1_4 
ROOT
HETATM    1  N1  UNL     1       5.667  -3.444  32.751  1.00  0.00    -0.379 N 
ATOM      2  H1  UNL     1       5.977  -2.520  32.452  1.00  0.00     0.160 HD
HETATM    3  C3  UNL     1       4.474  -3.584  33.217  1.00  0.00     0.072 C 
HETATM    4  C4  UNL     1       3.690  -2.373  33.260  1.00  0.00     0.076 C 
HETATM    5  C5  UNL     1       2.594  -2.311  34.246  1.00  0.00     0.007 C 
HETATM    6  C6  UNL     1       2.887  -3.288  35.353  1.00  0.00     0.002 C 
HETATM    7  C7  UNL     1       2.104  -4.549  34.997  1.00  0.00     0.020 C 
HETATM    8  C8  UNL     1       3.008  -5.474  34.285  1.00  0.00     0.121 C 
HETATM    9  N2  UNL     1       4.125  -4.886  33.606  1.00  0.00    -0.380 N 
ATOM     10  H2  UNL     1       4.832  -5.575  33.346  1.00  0.00     0.160 HD
ENDROOT
BRANCH   1  11
HETATM   11  C2  UNL     1       6.583  -4.565  32.641  1.00  0.00     0.132 C 
BRANCH  11  12
HETATM   12  C1  UNL     1       7.992  -3.993  32.804  1.00  0.00     0.105 C 
HETATM   13  S1  UNL     1       7.973  -2.239  32.357  1.00  0.00    -0.096 SA
ENDBRANCH  11  12
ENDBRANCH   1  11
TORSDOF 2
ENDMDL
MODEL 2
REMARK VINA RESULT: -4.692648094      7.043      8.359
REMARK  2 active torsions:
REMARK  status: ('A' for Active; 'I' for Inactive)
REMARK    1  A    between atoms: C1_2  and  C2_3 
REMARK    2  A    between atoms: C2_3  and  N1_4 
ROOT
HETATM    1  N1  UNL     1       9.039  -4.117  26.068  1.00  0.00    -0.379 N 
ATOM      2  H1  UNL     1       9.466  -3.274  26.450  1.00  0.00     0.160 HD
HETATM    3  C3  UNL     1       8.074  -4.677  26.712  1.00  0.00     0.072 C 
HETATM    4  C4  UNL     1       7.697  -4.018  27.941  1.00  0.00     0.076 C 
HETATM    5  C5  UNL     1       7.044  -4.840  28.976  1.00  0.00     0.007 C 
HETATM    6  C6  UNL     1       7.416  -6.282  28.751  1.00  0.00     0.002 C 
HETATM    7  C7  UNL     1       6.255  -6.880  27.960  1.00  0.00     0.020 C 
HETATM    8  C8  UNL     1       6.596  -6.832  26.524  1.00  0.00     0.121 C 
HETATM    9  N2  UNL     1       7.541  -5.832  26.121  1.00  0.00    -0.380 N 
ATOM     10  H2  UNL     1       7.914  -6.001  25.186  1.00  0.00     0.160 HD
ENDROOT
BRANCH   1  11
HETATM   11  C2  UNL     1       9.537  -4.654  24.814  1.00  0.00     0.132 C 
BRANCH  11  12
HETATM   12  C1  UNL     1       8.915  -3.809  23.702  1.00  0.00     0.105 C 
HETATM   13  S1  UNL     1       9.606  -4.326  22.110  1.00  0.00    -0.096 SA
ENDBRANCH  11  12
ENDBRANCH   1  11
TORSDOF 2
ENDMDL
MODEL 3
REMARK VINA RESULT: -4.636334336      6.122      7.699
REMARK  2 active torsions:
REMARK  status: ('A' for Active; 'I' for Inactive)
REMARK    1  A    between atoms: C1_2  and  C2_3 
REMARK    2  A    between atoms: C2_3  and  N1_4 
ROOT
HETATM    1  N1  UNL     1       6.718  -7.450  28.925  1.00  0.00    -0.379 N 
ATOM      2  H1  UNL     1       6.527  -8.331  28.448  1.00  0.00     0.160 HD
HETATM    3  C3  UNL     1       6.958  -6.398  28.221  1.00  0.00     0.072 C 
HETATM    4  C4  UNL     1       6.927  -6.600  26.791  1.00  0.00     0.076 C 
HETATM    5  C5  UNL     1       7.706  -5.664  25.959  1.00  0.00     0.007 C 
HETATM    6  C6  UNL     1       8.794  -5.059  26.805  1.00  0.00     0.002 C 
HETATM    7  C7  UNL     1       8.241  -3.718  27.278  1.00  0.00     0.020 C 
HETATM    8  C8  UNL     1       7.650  -3.903  28.619  1.00  0.00     0.121 C 
HETATM    9  N2  UNL     1       7.211  -5.227  28.950  1.00  0.00    -0.380 N 
ATOM     10  H2  UNL     1       7.043  -5.345  29.950  1.00  0.00     0.160 HD
ENDROOT
BRANCH   1  11
HETATM   11  C2  UNL     1       6.711  -7.417  30.376  1.00  0.00     0.132 C 
BRANCH  11  12
HETATM   12  C1  UNL     1       6.123  -8.750  30.839  1.00  0.00     0.105 C 
HETATM   13  S1  UNL     1       7.317 -10.070  30.506  1.00  0.00    -0.096 SA
ENDBRANCH  11  12
ENDBRANCH   1  11
TORSDOF 2
ENDMDL
MODEL 4
REMARK VINA RESULT: -4.616232128      4.158      5.120
REMARK  2 active torsions:
REMARK  status: ('A' for Active; 'I' for Inactive)
REMARK    1  A    between atoms: C1_2  and  C2_3 
REMARK    2  A    between atoms: C2_3  and  N1_4 
ROOT
HETATM    1  N1  UNL     1       8.041  -3.122  29.407  1.00  0.00    -0.379 N 
ATOM      2  H1  UNL     1       8.557  -2.288  29.126  1.00  0.00     0.160 HD
HETATM    3  C3  UNL     1       7.707  -3.263  30.643  1.00  0.00     0.072 C 
HETATM    4  C4  UNL     1       8.118  -2.187  31.514  1.00  0.00     0.076 C 
HETATM    5  C5  UNL     1       8.287  -2.501  32.945  1.00  0.00     0.007 C 
HETATM    6  C6  UNL     1       8.535  -3.980  33.086  1.00  0.00     0.002 C 
HETATM    7  C7  UNL     1       7.174  -4.588  33.414  1.00  0.00     0.020 C 
HETATM    8  C8  UNL     1       6.563  -5.068  32.158  1.00  0.00     0.121 C 
HETATM    9  N2  UNL     1       7.000  -4.435  30.948  1.00  0.00    -0.380 N 
ATOM     10  H2  UNL     1       6.734  -4.960  30.115  1.00  0.00     0.160 HD
ENDROOT
BRANCH   1  11
HETATM   11  C2  UNL     1       7.703  -4.114  28.403  1.00  0.00     0.132 C 
BRANCH  11  12
HETATM   12  C1  UNL     1       8.500  -3.753  27.149  1.00  0.00     0.105 C 
HETATM   13  S1  UNL     1       8.948  -5.274  26.274  1.00  0.00    -0.096 SA
ENDBRANCH  11  12
ENDBRANCH   1  11
TORSDOF 2
ENDMDL
MODEL 5
REMARK VINA RESULT: -4.601903698      3.284      5.571
REMARK  2 active torsions:
REMARK  status: ('A' for Active; 'I' for Inactive)
REMARK    1  A    between atoms: C1_2  and  C2_3 
REMARK    2  A    between atoms: C2_3  and  N1_4 
ROOT
HETATM    1  N1  UNL     1       7.004  -3.503  32.092  1.00  0.00    -0.379 N 
ATOM      2  H1  UNL     1       7.218  -2.524  32.281  1.00  0.00     0.160 HD
HETATM    3  C3  UNL     1       7.401  -4.027  30.984  1.00  0.00     0.072 C 
HETATM    4  C4  UNL     1       8.128  -3.135  30.112  1.00  0.00     0.076 C 
HETATM    5  C5  UNL     1       8.122  -3.444  28.670  1.00  0.00     0.007 C 
HETATM    6  C6  UNL     1       6.914  -4.290  28.365  1.00  0.00     0.002 C 
HETATM    7  C7  UNL     1       7.417  -5.731  28.374  1.00  0.00     0.020 C 
HETATM    8  C8  UNL     1       7.164  -6.305  29.711  1.00  0.00     0.121 C 
HETATM    9  N2  UNL     1       7.067  -5.377  30.800  1.00  0.00    -0.380 N 
ATOM     10  H2  UNL     1       6.659  -5.797  31.635  1.00  0.00     0.160 HD
ENDROOT
BRANCH   1  11
HETATM   11  C2  UNL     1       6.260  -4.266  33.079  1.00  0.00     0.132 C 
BRANCH  11  12
HETATM   12  C1  UNL     1       4.846  -3.685  33.102  1.00  0.00     0.105 C 
HETATM   13  S1  UNL     1       3.822  -4.666  34.228  1.00  0.00    -0.096 SA
ENDBRANCH  11  12
ENDBRANCH   1  11
TORSDOF 2
ENDMDL
