MODEL 1
REMARK VINA RESULT: -5.075842171      0.000      0.000
REMARK  2 active torsions:
REMARK  status: ('A' for Active; 'I' for Inactive)
REMARK    1  A    between atoms: O1_1  and  C1_3 
REMARK    2  A    between atoms: C1_3  and  C2_4 
ROOT
HETATM    1  C1  UNL     1       5.593  -4.733  33.343  1.00  0.00     0.086 C 
HETATM    2  C6  UNL     1       5.020  -3.349  33.192  1.00  0.00     0.040 C 
HETATM    3  C7  UNL     1       3.693  -3.176  33.808  1.00  0.00     0.003 C 
HETATM    4  C8  UNL     1       3.483  -3.865  35.119  1.00  0.00     0.000 C 
HETATM    5  C9  UNL     1       4.103  -5.236  35.181  1.00  0.00     0.003 C 
HETATM    6  C10 UNL     1       5.570  -5.072  34.822  1.00  0.00     0.040 C 
ENDROOT
BRANCH   1   7
HETATM    7  O1  UNL     1       4.743  -5.640  32.712  1.00  0.00    -0.388 OA
ATOM      8  H1  UNL     1       5.010  -5.787  31.813  1.00  0.00     0.210 HD
ENDBRANCH   1   7
BRANCH   1   9
HETATM    9  C2  UNL     1       6.978  -4.870  32.845  1.00  0.00     0.220 C 
HETATM   10  C3  UNL     1       7.758  -3.607  32.746  1.00  0.00     0.038 C 
HETATM   11  C4  UNL     1       7.875  -3.292  31.289  1.00  0.00     0.030 C 
HETATM   12  C5  UNL     1       7.182  -4.415  30.572  1.00  0.00     0.233 C 
HETATM   13  N1  UNL     1       6.944  -5.460  31.523  1.00  0.00    -0.068 N 
ATOM     14  H12 UNL     1       7.590  -6.243  31.421  1.00  0.00     0.277 HD
ATOM     15  H11 UNL     1       6.081  -5.973  31.340  1.00  0.00     0.277 HD
ENDBRANCH   1   9
TORSDOF 2
ENDMDL
MODEL 2
REMARK VINA RESULT: -4.853754204      1.697      4.176
REMARK  2 active torsions:
REMARK  status: ('A' for Active; 'I' for Inactive)
REMARK    1  A    between atoms: O1_1  and  C1_3 
REMARK    2  A    between atoms: C1_3  and  C2_4 
ROOT
HETATM    1  C1  UNL     1       6.205  -4.864  32.633  1.00  0.00     0.086 C 
HETATM    2  C6  UNL     1       6.725  -5.368  31.315  1.00  0.00     0.040 C 
HETATM    3  C7  UNL     1       7.264  -4.315  30.437  1.00  0.00     0.003 C 
HETATM    4  C8  UNL     1       8.044  -3.233  31.112  1.00  0.00     0.000 C 
HETATM    5  C9  UNL     1       7.455  -2.804  32.430  1.00  0.00     0.003 C 
HETATM    6  C10 UNL     1       7.315  -4.056  33.279  1.00  0.00     0.040 C 
ENDROOT
BRANCH   1   7
HETATM    7  O1  UNL     1       5.156  -3.978  32.391  1.00  0.00    -0.388 OA
ATOM      8  H1  UNL     1       5.479  -3.092  32.275  1.00  0.00     0.210 HD
ENDBRANCH   1   7
BRANCH   1   9
HETATM    9  C2  UNL     1       5.789  -5.933  33.566  1.00  0.00     0.220 C 
HETATM   10  C3  UNL     1       4.358  -6.332  33.497  1.00  0.00     0.038 C 
HETATM   11  C4  UNL     1       3.706  -5.794  34.731  1.00  0.00     0.030 C 
HETATM   12  C5  UNL     1       4.800  -5.120  35.509  1.00  0.00     0.233 C 
HETATM   13  N1  UNL     1       6.051  -5.500  34.923  1.00  0.00    -0.068 N 
ATOM     14  H12 UNL     1       6.551  -6.199  35.473  1.00  0.00     0.277 HD
ATOM     15  H11 UNL     1       6.753  -4.761  34.974  1.00  0.00     0.277 HD
ENDBRANCH   1   9
TORSDOF 2
ENDMDL
MODEL 3
REMARK VINA RESULT: -4.837475051      1.568      4.158
REMARK  2 active torsions:
REMARK  status: ('A' for Active; 'I' for Inactive)
REMARK    1  A    between atoms: O1_1  and  C1_3 
REMARK    2  A    between atoms: C1_3  and  C2_4 
ROOT
HETATM    1  C1  UNL     1       6.045  -4.941  33.073  1.00  0.00     0.086 C 
HETATM    2  C6  UNL     1       6.989  -5.047  34.241  1.00  0.00     0.040 C 
HETATM    3  C7  UNL     1       8.381  -4.683  33.925  1.00  0.00     0.003 C 
HETATM    4  C8  UNL     1       8.562  -3.521  33.001  1.00  0.00     0.000 C 
HETATM    5  C9  UNL     1       7.564  -3.492  31.873  1.00  0.00     0.003 C 
HETATM    6  C10 UNL     1       6.183  -3.541  32.506  1.00  0.00     0.040 C 
ENDROOT
BRANCH   1   7
HETATM    7  O1  UNL     1       6.466  -5.819  32.075  1.00  0.00    -0.388 OA
ATOM      8  H1  UNL     1       5.940  -5.720  31.291  1.00  0.00     0.210 HD
ENDBRANCH   1   7
BRANCH   1   9
HETATM    9  C2  UNL     1       4.627  -5.176  33.421  1.00  0.00     0.220 C 
HETATM   10  C3  UNL     1       3.797  -3.957  33.609  1.00  0.00     0.038 C 
HETATM   11  C4  UNL     1       3.540  -3.839  35.078  1.00  0.00     0.030 C 
HETATM   12  C5  UNL     1       4.207  -5.029  35.704  1.00  0.00     0.233 C 
HETATM   13  N1  UNL     1       4.566  -5.934  34.653  1.00  0.00    -0.068 N 
ATOM     14  H12 UNL     1       3.941  -6.739  34.593  1.00  0.00     0.277 HD
ATOM     15  H11 UNL     1       5.427  -6.446  34.846  1.00  0.00     0.277 HD
ENDBRANCH   1   9
TORSDOF 2
ENDMDL
MODEL 4
REMARK VINA RESULT: -4.811900706      3.038      4.459
REMARK  2 active torsions:
REMARK  status: ('A' for Active; 'I' for Inactive)
REMARK    1  A    between atoms: O1_1  and  C1_3 
REMARK    2  A    between atoms: C1_3  and  C2_4 
ROOT
HETATM    1  C1  UNL     1       3.236  -4.374  34.668  1.00  0.00     0.086 C 
HETATM    2  C6  UNL     1       4.342  -4.290  33.651  1.00  0.00     0.040 C 
HETATM    3  C7  UNL     1       4.280  -3.096  32.790  1.00  0.00     0.003 C 
HETATM    4  C8  UNL     1       3.868  -1.825  33.461  1.00  0.00     0.000 C 
HETATM    5  C9  UNL     1       2.767  -2.010  34.471  1.00  0.00     0.003 C 
HETATM    6  C10 UNL     1       3.241  -3.072  35.448  1.00  0.00     0.040 C 
ENDROOT
BRANCH   1   7
HETATM    7  O1  UNL     1       2.015  -4.434  33.998  1.00  0.00    -0.388 OA
ATOM      8  H1  UNL     1       1.290  -4.349  34.606  1.00  0.00     0.210 HD
ENDBRANCH   1   7
BRANCH   1   9
HETATM    9  C2  UNL     1       3.375  -5.499  35.618  1.00  0.00     0.220 C 
HETATM   10  C3  UNL     1       4.457  -6.473  35.313  1.00  0.00     0.038 C 
HETATM   11  C4  UNL     1       3.784  -7.717  34.828  1.00  0.00     0.030 C 
HETATM   12  C5  UNL     1       2.310  -7.439  34.900  1.00  0.00     0.233 C 
HETATM   13  N1  UNL     1       2.129  -6.236  35.656  1.00  0.00    -0.068 N 
ATOM     14  H12 UNL     1       1.801  -6.410  36.607  1.00  0.00     0.277 HD
ATOM     15  H11 UNL     1       1.332  -5.684  35.338  1.00  0.00     0.277 HD
ENDBRANCH   1   9
TORSDOF 2
ENDMDL
MODEL 5
REMARK VINA RESULT: -4.765704224      6.232      8.308
REMARK  2 active torsions:
REMARK  status: ('A' for Active; 'I' for Inactive)
REMARK    1  A    between atoms: O1_1  and  C1_3 
REMARK    2  A    between atoms: C1_3  and  C2_4 
ROOT
HETATM    1  C1  UNL     1       8.759  -5.331  25.857  1.00  0.00     0.086 C 
HETATM    2  C6  UNL     1       7.539  -6.124  26.242  1.00  0.00     0.040 C 
HETATM    3  C7  UNL     1       7.079  -5.892  27.622  1.00  0.00     0.003 C 
HETATM    4  C8  UNL     1       7.161  -4.482  28.112  1.00  0.00     0.000 C 
HETATM    5  C9  UNL     1       8.408  -3.764  27.667  1.00  0.00     0.003 C 
HETATM    6  C10 UNL     1       8.460  -3.872  26.152  1.00  0.00     0.040 C 
ENDROOT
BRANCH   1   7
HETATM    7  O1  UNL     1       9.813  -5.699  26.692  1.00  0.00    -0.388 OA
ATOM      8  H1  UNL     1       9.501  -6.206  27.432  1.00  0.00     0.210 HD
ENDBRANCH   1   7
BRANCH   1   9
HETATM    9  C2  UNL     1       9.139  -5.461  24.435  1.00  0.00     0.220 C 
HETATM   10  C3  UNL     1       9.206  -4.191  23.664  1.00  0.00     0.038 C 
HETATM   11  C4  UNL     1       8.021  -4.184  22.751  1.00  0.00     0.030 C 
HETATM   12  C5  UNL     1       7.311  -5.484  22.996  1.00  0.00     0.233 C 
HETATM   13  N1  UNL     1       8.181  -6.319  23.770  1.00  0.00    -0.068 N 
ATOM     14  H12 UNL     1       8.623  -7.052  23.215  1.00  0.00     0.277 HD
ATOM     15  H11 UNL     1       7.677  -6.926  24.417  1.00  0.00     0.277 HD
ENDBRANCH   1   9
TORSDOF 2
ENDMDL
