MODEL 1
REMARK VINA RESULT: -5.288378389      0.000      0.000
REMARK  2 active torsions:
REMARK  status: ('A' for Active; 'I' for Inactive)
REMARK    1  A    between atoms: C2_2  and  C3_3 
REMARK    2  A    between atoms: C3_3  and  O1_4 
ROOT
HETATM    1  C3  UNL     1       7.104  -7.427  25.356  1.00  0.00     0.106 C 
HETATM    2  C4  UNL     1       6.572  -7.586  26.723  1.00  0.00     0.048 C 
HETATM    3  C5  UNL     1       6.096  -6.392  27.441  1.00  0.00     0.004 C 
HETATM    4  C6  UNL     1       7.207  -5.869  28.323  1.00  0.00     0.000 C 
HETATM    5  C7  UNL     1       7.257  -4.377  28.385  1.00  0.00     0.002 C 
HETATM    6  C8  UNL     1       8.405  -3.766  27.648  1.00  0.00     0.020 C 
HETATM    7  C9  UNL     1       8.938  -4.582  26.528  1.00  0.00     0.119 C 
HETATM    8  N1  UNL     1       7.901  -5.114  25.684  1.00  0.00    -0.399 N 
ATOM      9  H1  UNL     1       7.040  -4.601  25.492  1.00  0.00     0.158 HD
HETATM   10  C10 UNL     1       8.146  -6.385  25.144  1.00  0.00     0.097 C 
ENDROOT
BRANCH   1  11
HETATM   11  C2  UNL     1       6.014  -7.316  24.371  1.00  0.00     0.006 C 
HETATM   12  C1  UNL     1       6.278  -6.984  23.133  1.00  0.00     0.010 C 
ENDBRANCH   1  11
BRANCH   1  13
HETATM   13  O1  UNL     1       7.755  -8.653  25.044  1.00  0.00    -0.380 OA
ATOM     14  H1  UNL     1       8.046  -8.994  25.882  1.00  0.00     0.211 HD
ENDBRANCH   1  13
TORSDOF 2
ENDMDL
MODEL 2
REMARK VINA RESULT: -5.223713947      8.194      9.123
REMARK  2 active torsions:
REMARK  status: ('A' for Active; 'I' for Inactive)
REMARK    1  A    between atoms: C2_2  and  C3_3 
REMARK    2  A    between atoms: C3_3  and  O1_4 
ROOT
HETATM    1  C3  UNL     1       4.835  -5.961  34.509  1.00  0.00     0.106 C 
HETATM    2  C4  UNL     1       3.914  -5.493  35.562  1.00  0.00     0.048 C 
HETATM    3  C5  UNL     1       2.780  -4.635  35.183  1.00  0.00     0.004 C 
HETATM    4  C6  UNL     1       3.167  -3.187  35.382  1.00  0.00     0.000 C 
HETATM    5  C7  UNL     1       2.617  -2.281  34.328  1.00  0.00     0.002 C 
HETATM    6  C8  UNL     1       3.633  -1.768  33.361  1.00  0.00     0.020 C 
HETATM    7  C9  UNL     1       4.829  -2.631  33.189  1.00  0.00     0.119 C 
HETATM    8  N1  UNL     1       4.493  -4.021  33.023  1.00  0.00    -0.399 N 
ATOM      9  H1  UNL     1       3.652  -4.320  32.529  1.00  0.00     0.158 HD
HETATM   10  C10 UNL     1       5.394  -4.937  33.584  1.00  0.00     0.097 C 
ENDROOT
BRANCH   1  11
HETATM   11  C2  UNL     1       4.264  -7.105  33.775  1.00  0.00     0.006 C 
HETATM   12  C1  UNL     1       3.743  -8.112  34.430  1.00  0.00     0.010 C 
ENDBRANCH   1  11
BRANCH   1  13
HETATM   13  O1  UNL     1       5.969  -6.490  35.185  1.00  0.00    -0.380 OA
ATOM     14  H1  UNL     1       6.684  -5.910  34.951  1.00  0.00     0.211 HD
ENDBRANCH   1  13
TORSDOF 2
ENDMDL
MODEL 3
REMARK VINA RESULT: -4.994888446      7.385      8.746
REMARK  2 active torsions:
REMARK  status: ('A' for Active; 'I' for Inactive)
REMARK    1  A    between atoms: C2_2  and  C3_3 
REMARK    2  A    between atoms: C3_3  and  O1_4 
ROOT
HETATM    1  C3  UNL     1       6.186  -4.893  33.069  1.00  0.00     0.106 C 
HETATM    2  C4  UNL     1       5.702  -3.687  32.369  1.00  0.00     0.048 C 
HETATM    3  C5  UNL     1       5.098  -2.603  33.160  1.00  0.00     0.004 C 
HETATM    4  C6  UNL     1       3.595  -2.767  33.158  1.00  0.00     0.000 C 
HETATM    5  C7  UNL     1       2.963  -2.411  34.464  1.00  0.00     0.002 C 
HETATM    6  C8  UNL     1       2.460  -3.580  35.247  1.00  0.00     0.020 C 
HETATM    7  C9  UNL     1       3.147  -4.866  34.966  1.00  0.00     0.119 C 
HETATM    8  N1  UNL     1       4.580  -4.736  34.937  1.00  0.00    -0.399 N 
ATOM      9  H1  UNL     1       5.079  -4.088  35.547  1.00  0.00     0.158 HD
HETATM   10  C10 UNL     1       5.248  -5.557  34.016  1.00  0.00     0.097 C 
ENDROOT
BRANCH   1  11
HETATM   11  C2  UNL     1       7.505  -4.657  33.682  1.00  0.00     0.006 C 
HETATM   12  C1  UNL     1       8.387  -3.904  33.076  1.00  0.00     0.010 C 
ENDBRANCH   1  11
BRANCH   1  13
HETATM   13  O1  UNL     1       6.421  -5.866  32.058  1.00  0.00    -0.380 OA
ATOM     14  H1  UNL     1       6.872  -5.395  31.367  1.00  0.00     0.211 HD
ENDBRANCH   1  13
TORSDOF 2
ENDMDL
MODEL 4
REMARK VINA RESULT: -4.992846235      6.711      8.374
REMARK  2 active torsions:
REMARK  status: ('A' for Active; 'I' for Inactive)
REMARK    1  A    between atoms: C2_2  and  C3_3 
REMARK    2  A    between atoms: C3_3  and  O1_4 
ROOT
HETATM    1  C3  UNL     1       6.437  -4.521  33.251  1.00  0.00     0.106 C 
HETATM    2  C4  UNL     1       5.851  -5.391  34.289  1.00  0.00     0.048 C 
HETATM    3  C5  UNL     1       4.406  -5.666  34.251  1.00  0.00     0.004 C 
HETATM    4  C6  UNL     1       3.694  -4.699  35.170  1.00  0.00     0.000 C 
HETATM    5  C7  UNL     1       2.375  -4.243  34.636  1.00  0.00     0.002 C 
HETATM    6  C8  UNL     1       2.357  -2.826  34.160  1.00  0.00     0.020 C 
HETATM    7  C9  UNL     1       3.673  -2.293  33.725  1.00  0.00     0.119 C 
HETATM    8  N1  UNL     1       4.386  -3.203  32.868  1.00  0.00    -0.399 N 
ATOM      9  H1  UNL     1       3.907  -3.808  32.201  1.00  0.00     0.158 HD
HETATM   10  C10 UNL     1       5.781  -3.206  33.009  1.00  0.00     0.097 C 
ENDROOT
BRANCH   1  11
HETATM   11  C2  UNL     1       6.651  -5.263  31.995  1.00  0.00     0.006 C 
HETATM   12  C1  UNL     1       7.077  -4.638  30.927  1.00  0.00     0.010 C 
ENDBRANCH   1  11
BRANCH   1  13
HETATM   13  O1  UNL     1       7.744  -4.191  33.707  1.00  0.00    -0.380 OA
ATOM     14  H1  UNL     1       8.154  -3.751  32.972  1.00  0.00     0.211 HD
ENDBRANCH   1  13
TORSDOF 2
ENDMDL
MODEL 5
REMARK VINA RESULT: -4.895028509      1.842      3.413
REMARK  2 active torsions:
REMARK  status: ('A' for Active; 'I' for Inactive)
REMARK    1  A    between atoms: C2_2  and  C3_3 
REMARK    2  A    between atoms: C3_3  and  O1_4 
ROOT
HETATM    1  C3  UNL     1       5.845  -7.217  27.390  1.00  0.00     0.106 C 
HETATM    2  C4  UNL     1       6.031  -7.467  25.948  1.00  0.00     0.048 C 
HETATM    3  C5  UNL     1       7.392  -7.430  25.391  1.00  0.00     0.004 C 
HETATM    4  C6  UNL     1       7.657  -6.056  24.819  1.00  0.00     0.000 C 
HETATM    5  C7  UNL     1       9.057  -5.586  25.041  1.00  0.00     0.002 C 
HETATM    6  C8  UNL     1       9.191  -4.500  26.060  1.00  0.00     0.020 C 
HETATM    7  C9  UNL     1       8.117  -4.464  27.084  1.00  0.00     0.119 C 
HETATM    8  N1  UNL     1       7.826  -5.764  27.630  1.00  0.00    -0.399 N 
ATOM      9  H1  UNL     1       8.550  -6.470  27.766  1.00  0.00     0.158 HD
HETATM   10  C10 UNL     1       6.484  -5.999  27.962  1.00  0.00     0.097 C 
ENDROOT
BRANCH   1  11
HETATM   11  C2  UNL     1       6.160  -8.420  28.182  1.00  0.00     0.006 C 
HETATM   12  C1  UNL     1       6.223  -8.350  29.488  1.00  0.00     0.010 C 
ENDBRANCH   1  11
BRANCH   1  13
HETATM   13  O1  UNL     1       4.450  -7.012  27.577  1.00  0.00    -0.380 OA
ATOM     14  H1  UNL     1       4.038  -7.466  26.852  1.00  0.00     0.211 HD
ENDBRANCH   1  13
TORSDOF 2
ENDMDL
