MODEL 1
REMARK VINA RESULT: -5.368713369      0.000      0.000
REMARK  0 active torsions:
REMARK  status: ('A' for Active; 'I' for Inactive)
ROOT
HETATM    1  N1  UNL     1      10.080  -3.958  22.032  1.00  0.00    -0.365 N 
ATOM      2  H11 UNL     1       9.904  -4.209  21.058  1.00  0.00     0.159 HD
ATOM      3  H12 UNL     1      10.848  -3.286  22.055  1.00  0.00     0.159 HD
HETATM    4  C1  UNL     1       9.443  -4.412  23.058  1.00  0.00     0.213 C 
HETATM    5  N2  UNL     1       9.691  -4.059  24.429  1.00  0.00    -0.349 N 
ATOM      6  H2  UNL     1      10.462  -3.500  24.795  1.00  0.00     0.163 HD
HETATM    7  C2  UNL     1       8.624  -4.662  25.175  1.00  0.00     0.114 C 
HETATM    8  C3  UNL     1       8.965  -5.040  26.566  1.00  0.00     0.028 C 
HETATM    9  C4  UNL     1       7.753  -5.101  27.450  1.00  0.00     0.002 C 
HETATM   10  C5  UNL     1       6.868  -6.260  27.232  1.00  0.00     0.000 C 
HETATM   11  C6  UNL     1       7.184  -7.110  26.048  1.00  0.00     0.002 C 
HETATM   12  C7  UNL     1       6.990  -6.389  24.725  1.00  0.00     0.035 C 
HETATM   13  C8  UNL     1       8.325  -5.890  24.301  1.00  0.00     0.154 C 
HETATM   14  O1  UNL     1       8.384  -5.340  23.026  1.00  0.00    -0.315 OA
ENDROOT
TORSDOF 0
ENDMDL
MODEL 2
REMARK VINA RESULT: -5.182953195      4.485      5.933
REMARK  0 active torsions:
REMARK  status: ('A' for Active; 'I' for Inactive)
ROOT
HETATM    1  N1  UNL     1       7.852  -2.363  32.549  1.00  0.00    -0.365 N 
ATOM      2  H11 UNL     1       7.479  -2.699  33.437  1.00  0.00     0.159 HD
ATOM      3  H12 UNL     1       8.228  -1.426  32.695  1.00  0.00     0.159 HD
HETATM    4  C1  UNL     1       7.849  -3.009  31.431  1.00  0.00     0.213 C 
HETATM    5  N2  UNL     1       8.374  -2.535  30.181  1.00  0.00    -0.349 N 
ATOM      6  H2  UNL     1       8.715  -1.598  29.968  1.00  0.00     0.163 HD
HETATM    7  C2  UNL     1       8.315  -3.662  29.294  1.00  0.00     0.114 C 
HETATM    8  C3  UNL     1       8.139  -3.325  27.861  1.00  0.00     0.028 C 
HETATM    9  C4  UNL     1       8.657  -4.407  26.958  1.00  0.00     0.002 C 
HETATM   10  C5  UNL     1       7.829  -5.625  26.890  1.00  0.00     0.000 C 
HETATM   11  C6  UNL     1       6.700  -5.702  27.861  1.00  0.00     0.002 C 
HETATM   12  C7  UNL     1       7.159  -5.787  29.307  1.00  0.00     0.035 C 
HETATM   13  C8  UNL     1       7.100  -4.409  29.863  1.00  0.00     0.154 C 
HETATM   14  O1  UNL     1       7.329  -4.302  31.230  1.00  0.00    -0.315 OA
ENDROOT
TORSDOF 0
ENDMDL
MODEL 3
REMARK VINA RESULT: -5.120518818      2.745      3.987
REMARK  0 active torsions:
REMARK  status: ('A' for Active; 'I' for Inactive)
ROOT
HETATM    1  N1  UNL     1       8.159  -2.554  29.355  1.00  0.00    -0.365 N 
ATOM      2  H11 UNL     1       7.697  -2.493  30.263  1.00  0.00     0.159 HD
ATOM      3  H12 UNL     1       8.717  -1.711  29.222  1.00  0.00     0.159 HD
HETATM    4  C1  UNL     1       8.055  -3.530  28.517  1.00  0.00     0.213 C 
HETATM    5  N2  UNL     1       8.704  -3.617  27.238  1.00  0.00    -0.349 N 
ATOM      6  H2  UNL     1       9.239  -2.888  26.764  1.00  0.00     0.163 HD
HETATM    7  C2  UNL     1       8.439  -4.946  26.768  1.00  0.00     0.114 C 
HETATM    8  C3  UNL     1       8.380  -5.091  25.294  1.00  0.00     0.028 C 
HETATM    9  C4  UNL     1       8.688  -6.492  24.850  1.00  0.00     0.002 C 
HETATM   10  C5  UNL     1       7.627  -7.484  25.104  1.00  0.00     0.000 C 
HETATM   11  C6  UNL     1       6.478  -7.015  25.930  1.00  0.00     0.002 C 
HETATM   12  C7  UNL     1       6.866  -6.686  27.362  1.00  0.00     0.035 C 
HETATM   13  C8  UNL     1       7.078  -5.215  27.428  1.00  0.00     0.154 C 
HETATM   14  O1  UNL     1       7.283  -4.694  28.700  1.00  0.00    -0.315 OA
ENDROOT
TORSDOF 0
ENDMDL
MODEL 4
REMARK VINA RESULT: -5.071630908      3.346      4.834
REMARK  0 active torsions:
REMARK  status: ('A' for Active; 'I' for Inactive)
ROOT
HETATM    1  N1  UNL     1       4.924  -8.397  28.236  1.00  0.00    -0.365 N 
ATOM      2  H11 UNL     1       4.540  -8.265  29.172  1.00  0.00     0.159 HD
ATOM      3  H12 UNL     1       4.558  -9.273  27.862  1.00  0.00     0.159 HD
HETATM    4  C1  UNL     1       5.732  -7.595  27.628  1.00  0.00     0.213 C 
HETATM    5  N2  UNL     1       6.272  -7.781  26.309  1.00  0.00    -0.349 N 
ATOM      6  H2  UNL     1       6.190  -8.609  25.718  1.00  0.00     0.163 HD
HETATM    7  C2  UNL     1       6.952  -6.555  26.002  1.00  0.00     0.114 C 
HETATM    8  C3  UNL     1       8.108  -6.692  25.085  1.00  0.00     0.028 C 
HETATM    9  C4  UNL     1       8.401  -5.416  24.350  1.00  0.00     0.002 C 
HETATM   10  C5  UNL     1       9.022  -4.350  25.157  1.00  0.00     0.000 C 
HETATM   11  C6  UNL     1       9.102  -4.603  26.625  1.00  0.00     0.002 C 
HETATM   12  C7  UNL     1       7.741  -4.670  27.295  1.00  0.00     0.035 C 
HETATM   13  C8  UNL     1       7.381  -6.108  27.407  1.00  0.00     0.154 C 
HETATM   14  O1  UNL     1       6.236  -6.386  28.144  1.00  0.00    -0.315 OA
ENDROOT
TORSDOF 0
ENDMDL
MODEL 5
REMARK VINA RESULT: -5.057816532      1.515      1.864
REMARK  0 active torsions:
REMARK  status: ('A' for Active; 'I' for Inactive)
ROOT
HETATM    1  N1  UNL     1       8.885  -6.557  22.515  1.00  0.00    -0.365 N 
ATOM      2  H11 UNL     1       8.497  -7.339  21.987  1.00  0.00     0.159 HD
ATOM      3  H12 UNL     1       9.597  -6.105  21.941  1.00  0.00     0.159 HD
HETATM    4  C1  UNL     1       8.536  -6.198  23.705  1.00  0.00     0.213 C 
HETATM    5  N2  UNL     1       9.082  -5.098  24.449  1.00  0.00    -0.349 N 
ATOM      6  H2  UNL     1       9.885  -4.520  24.201  1.00  0.00     0.163 HD
HETATM    7  C2  UNL     1       8.257  -4.984  25.618  1.00  0.00     0.114 C 
HETATM    8  C3  UNL     1       8.939  -4.445  26.819  1.00  0.00     0.028 C 
HETATM    9  C4  UNL     1       7.977  -3.810  27.779  1.00  0.00     0.002 C 
HETATM   10  C5  UNL     1       7.131  -4.747  28.541  1.00  0.00     0.000 C 
HETATM   11  C6  UNL     1       7.204  -6.178  28.126  1.00  0.00     0.002 C 
HETATM   12  C7  UNL     1       6.661  -6.424  26.729  1.00  0.00     0.035 C 
HETATM   13  C8  UNL     1       7.828  -6.446  25.807  1.00  0.00     0.154 C 
HETATM   14  O1  UNL     1       7.552  -6.822  24.497  1.00  0.00    -0.315 OA
ENDROOT
TORSDOF 0
ENDMDL
