MODEL 1
REMARK VINA RESULT: -5.382027585      0.000      0.000
REMARK  2 active torsions:
REMARK  status: ('A' for Active; 'I' for Inactive)
REMARK    1  A    between atoms: C4_4  and  N1_5 
REMARK    2  A    between atoms: N1_5  and  C5_7 
ROOT
HETATM    1  N1  UNL     1       9.447  -3.998  25.186  1.00  0.00    -0.358 N 
ATOM      2  H1  UNL     1      10.321  -3.715  25.631  1.00  0.00     0.163 HD
ENDROOT
BRANCH   1   3
HETATM    3  C4  UNL     1       8.317  -4.377  26.001  1.00  0.00     0.084 C 
HETATM    4  C3  UNL     1       8.492  -3.851  27.413  1.00  0.00     0.025 C 
HETATM    5  C2  UNL     1       7.275  -4.331  28.204  1.00  0.00     0.002 C 
HETATM    6  C1  UNL     1       7.373  -5.827  28.294  1.00  0.00     0.000 C 
HETATM    7  C9  UNL     1       7.115  -6.382  26.905  1.00  0.00     0.002 C 
HETATM    8  C8  UNL     1       8.143  -5.855  25.935  1.00  0.00     0.025 C 
ENDBRANCH   1   3
BRANCH   1   9
HETATM    9  C5  UNL     1       9.347  -4.016  23.734  1.00  0.00     0.171 C 
HETATM   10  N2  UNL     1      10.190  -4.526  22.924  1.00  0.00    -0.361 N 
HETATM   11  C6  UNL     1       9.827  -4.395  21.546  1.00  0.00     0.142 C 
ATOM     12  H2  UNL     1      11.047  -4.986  23.231  1.00  0.00     0.162 HD
HETATM   13  C7  UNL     1       8.742  -3.315  21.600  1.00  0.00     0.142 C 
HETATM   14  N3  UNL     1       8.284  -3.468  22.972  1.00  0.00    -0.361 N 
ATOM     15  H3  UNL     1       7.359  -3.222  23.325  1.00  0.00     0.162 HD
ENDBRANCH   1   9
TORSDOF 2
ENDMDL
MODEL 2
REMARK VINA RESULT: -5.340811985      3.748      6.491
REMARK  2 active torsions:
REMARK  status: ('A' for Active; 'I' for Inactive)
REMARK    1  A    between atoms: C4_4  and  N1_5 
REMARK    2  A    between atoms: N1_5  and  C5_7 
ROOT
HETATM    1  N1  UNL     1       6.766  -4.332  29.303  1.00  0.00    -0.358 N 
ATOM      2  H1  UNL     1       5.816  -4.043  29.072  1.00  0.00     0.163 HD
ENDROOT
BRANCH   1   3
HETATM    3  C4  UNL     1       7.589  -4.964  28.298  1.00  0.00     0.084 C 
HETATM    4  C3  UNL     1       8.290  -3.912  27.460  1.00  0.00     0.025 C 
HETATM    5  C2  UNL     1       9.100  -4.670  26.408  1.00  0.00     0.002 C 
HETATM    6  C1  UNL     1       8.113  -5.346  25.499  1.00  0.00     0.000 C 
HETATM    7  C9  UNL     1       7.459  -6.462  26.293  1.00  0.00     0.002 C 
HETATM    8  C8  UNL     1       6.747  -5.897  27.497  1.00  0.00     0.025 C 
ENDBRANCH   1   3
BRANCH   1   9
HETATM    9  C5  UNL     1       7.287  -4.104  30.643  1.00  0.00     0.171 C 
HETATM   10  N2  UNL     1       7.066  -4.822  31.674  1.00  0.00    -0.361 N 
HETATM   11  C6  UNL     1       7.713  -4.355  32.861  1.00  0.00     0.142 C 
ATOM     12  H2  UNL     1       6.480  -5.657  31.653  1.00  0.00     0.162 HD
HETATM   13  C7  UNL     1       8.090  -2.920  32.478  1.00  0.00     0.142 C 
HETATM   14  N3  UNL     1       8.137  -3.036  31.029  1.00  0.00    -0.361 N 
ATOM     15  H3  UNL     1       8.687  -2.450  30.400  1.00  0.00     0.162 HD
ENDBRANCH   1   9
TORSDOF 2
ENDMDL
MODEL 3
REMARK VINA RESULT: -5.250316100      0.811      1.203
REMARK  2 active torsions:
REMARK  status: ('A' for Active; 'I' for Inactive)
REMARK    1  A    between atoms: C4_4  and  N1_5 
REMARK    2  A    between atoms: N1_5  and  C5_7 
ROOT
HETATM    1  N1  UNL     1       9.315  -4.292  25.617  1.00  0.00    -0.358 N 
ATOM      2  H1  UNL     1      10.241  -4.158  26.024  1.00  0.00     0.163 HD
ENDROOT
BRANCH   1   3
HETATM    3  C4  UNL     1       8.171  -4.471  26.480  1.00  0.00     0.084 C 
HETATM    4  C3  UNL     1       8.390  -3.746  27.794  1.00  0.00     0.025 C 
HETATM    5  C2  UNL     1       7.153  -4.023  28.649  1.00  0.00     0.002 C 
HETATM    6  C1  UNL     1       7.162  -5.490  28.969  1.00  0.00     0.000 C 
HETATM    7  C9  UNL     1       6.859  -6.235  27.683  1.00  0.00     0.002 C 
HETATM    8  C8  UNL     1       7.908  -5.929  26.644  1.00  0.00     0.025 C 
ENDBRANCH   1   3
BRANCH   1   9
HETATM    9  C5  UNL     1       9.154  -4.301  24.171  1.00  0.00     0.171 C 
HETATM   10  N2  UNL     1       8.843  -3.305  23.437  1.00  0.00    -0.361 N 
HETATM   11  C6  UNL     1       8.757  -3.611  22.043  1.00  0.00     0.142 C 
ATOM     12  H2  UNL     1       8.671  -2.372  23.813  1.00  0.00     0.162 HD
HETATM   13  C7  UNL     1       8.681  -5.141  22.053  1.00  0.00     0.142 C 
HETATM   14  N3  UNL     1       9.321  -5.429  23.327  1.00  0.00    -0.361 N 
ATOM     15  H3  UNL     1       9.805  -6.293  23.572  1.00  0.00     0.162 HD
ENDBRANCH   1   9
TORSDOF 2
ENDMDL
MODEL 4
REMARK VINA RESULT: -5.218088938      2.836      4.473
REMARK  2 active torsions:
REMARK  status: ('A' for Active; 'I' for Inactive)
REMARK    1  A    between atoms: C4_4  and  N1_5 
REMARK    2  A    between atoms: N1_5  and  C5_7 
ROOT
HETATM    1  N1  UNL     1       7.839  -3.221  28.523  1.00  0.00    -0.358 N 
ATOM      2  H1  UNL     1       7.454  -2.288  28.377  1.00  0.00     0.163 HD
ENDROOT
BRANCH   1   3
HETATM    3  C4  UNL     1       8.014  -3.724  29.865  1.00  0.00     0.084 C 
HETATM    4  C3  UNL     1       6.794  -4.521  30.286  1.00  0.00     0.025 C 
HETATM    5  C2  UNL     1       7.053  -4.977  31.722  1.00  0.00     0.002 C 
HETATM    6  C1  UNL     1       7.066  -3.743  32.578  1.00  0.00     0.000 C 
HETATM    7  C9  UNL     1       8.326  -2.969  32.235  1.00  0.00     0.002 C 
HETATM    8  C8  UNL     1       8.321  -2.585  30.776  1.00  0.00     0.025 C 
ENDBRANCH   1   3
BRANCH   1   9
HETATM    9  C5  UNL     1       8.210  -4.038  27.377  1.00  0.00     0.171 C 
HETATM   10  N2  UNL     1       9.108  -3.768  26.513  1.00  0.00    -0.361 N 
HETATM   11  C6  UNL     1       9.255  -4.760  25.493  1.00  0.00     0.142 C 
ATOM     12  H2  UNL     1       9.673  -2.919  26.547  1.00  0.00     0.162 HD
HETATM   13  C7  UNL     1       7.960  -5.567  25.640  1.00  0.00     0.142 C 
HETATM   14  N3  UNL     1       7.629  -5.285  27.028  1.00  0.00    -0.361 N 
ATOM     15  H3  UNL     1       7.075  -5.881  27.644  1.00  0.00     0.162 HD
ENDBRANCH   1   9
TORSDOF 2
ENDMDL
MODEL 5
REMARK VINA RESULT: -5.188708573      5.685      8.670
REMARK  2 active torsions:
REMARK  status: ('A' for Active; 'I' for Inactive)
REMARK    1  A    between atoms: C4_4  and  N1_5 
REMARK    2  A    between atoms: N1_5  and  C5_7 
ROOT
HETATM    1  N1  UNL     1       7.237  -4.767  32.286  1.00  0.00    -0.358 N 
ATOM      2  H1  UNL     1       8.112  -5.229  32.531  1.00  0.00     0.163 HD
ENDROOT
BRANCH   1   3
HETATM    3  C4  UNL     1       7.092  -4.142  30.992  1.00  0.00     0.084 C 
HETATM    4  C3  UNL     1       7.038  -5.200  29.906  1.00  0.00     0.025 C 
HETATM    5  C2  UNL     1       6.924  -4.448  28.579  1.00  0.00     0.002 C 
HETATM    6  C1  UNL     1       8.215  -3.706  28.383  1.00  0.00     0.000 C 
HETATM    7  C9  UNL     1       8.252  -2.586  29.406  1.00  0.00     0.002 C 
HETATM    8  C8  UNL     1       8.190  -3.153  30.802  1.00  0.00     0.025 C 
ENDBRANCH   1   3
BRANCH   1   9
HETATM    9  C5  UNL     1       6.140  -4.739  33.242  1.00  0.00     0.171 C 
HETATM   10  N2  UNL     1       6.123  -5.295  34.390  1.00  0.00    -0.361 N 
HETATM   11  C6  UNL     1       4.905  -5.099  35.116  1.00  0.00     0.142 C 
ATOM     12  H2  UNL     1       6.908  -5.832  34.759  1.00  0.00     0.162 HD
HETATM   13  C7  UNL     1       3.948  -4.626  34.016  1.00  0.00     0.142 C 
HETATM   14  N3  UNL     1       4.897  -4.083  33.056  1.00  0.00    -0.361 N 
ATOM     15  H3  UNL     1       4.701  -3.355  32.368  1.00  0.00     0.162 HD
ENDBRANCH   1   9
TORSDOF 2
ENDMDL
