MODEL 1
REMARK VINA RESULT: -5.871799921      0.000      0.000
REMARK  3 active torsions:
REMARK  status: ('A' for Active; 'I' for Inactive)
REMARK    1  A    between atoms: N1_1  and  C1_4 
REMARK    2  A    between atoms: C4_12  and  N4_13 
REMARK    3  A    between atoms: N5_16  and  C5_17 
ROOT
HETATM    1  C1  UNL     1     -55.346   8.662   6.847  1.00  0.00     0.680 A 
HETATM    2  N2  UNL     1     -56.147   8.021   7.718  1.00  0.00    -0.154 N 
ATOM      3  H2  UNL     1     -55.837   7.189   8.220  1.00  0.00     0.187 HD
HETATM    4  C2  UNL     1     -57.376   8.536   7.892  1.00  0.00     0.290 A 
HETATM    5  O1  UNL     1     -58.163   7.968   8.700  1.00  0.00    -0.265 OA
HETATM    6  C3  UNL     1     -57.841   9.654   7.240  1.00  0.00     0.163 A 
HETATM    7  N3  UNL     1     -58.989  10.358   7.228  1.00  0.00    -0.182 N 
ATOM      8  H3  UNL     1     -59.822  10.148   7.779  1.00  0.00     0.184 HD
HETATM    9  C4  UNL     1     -58.857  11.385   6.370  1.00  0.00     0.687 A 
HETATM   10  N5  UNL     1     -57.621  11.356   5.815  1.00  0.00    -0.105 N 
HETATM   11  C6  UNL     1     -56.995  10.292   6.351  1.00  0.00     0.179 A 
HETATM   12  N6  UNL     1     -55.767   9.770   6.183  1.00  0.00    -0.173 N 
ATOM     13  H6  UNL     1     -55.127  10.224   5.532  1.00  0.00     0.186 HD
ENDROOT
BRANCH   1  14
HETATM   14  N1  UNL     1     -54.170   8.182   6.671  1.00  0.00    -0.234 N 
ATOM     15  H12 UNL     1     -53.390   8.446   7.275  1.00  0.00     0.174 HD
ATOM     16  H11 UNL     1     -54.046   7.523   5.902  1.00  0.00     0.174 HD
ENDBRANCH   1  14
BRANCH  10  17
HETATM   17  C5  UNL     1     -57.127  12.287   4.863  1.00  0.00     0.378 C 
HETATM   18  O2  UNL     1     -57.696  12.504   3.778  1.00  0.00    -0.282 OA
ENDBRANCH  10  17
BRANCH   9  19
HETATM   19  N4  UNL     1     -59.742  12.262   6.102  1.00  0.00    -0.234 N 
ATOM     20  H42 UNL     1     -60.684  12.264   6.494  1.00  0.00     0.174 HD
ATOM     21  H41 UNL     1     -59.631  13.059   5.477  1.00  0.00     0.174 HD
ENDBRANCH   9  19
TORSDOF 3
ENDMDL
MODEL 2
REMARK VINA RESULT: -5.675163787      4.634      7.327
REMARK  3 active torsions:
REMARK  status: ('A' for Active; 'I' for Inactive)
REMARK    1  A    between atoms: N1_1  and  C1_4 
REMARK    2  A    between atoms: C4_12  and  N4_13 
REMARK    3  A    between atoms: N5_16  and  C5_17 
ROOT
HETATM    1  C1  UNL     1     -63.574  15.674   6.538  1.00  0.00     0.680 A 
HETATM    2  N2  UNL     1     -64.094  15.405   7.749  1.00  0.00    -0.154 N 
ATOM      3  H2  UNL     1     -64.873  15.941   8.131  1.00  0.00     0.187 HD
HETATM    4  C2  UNL     1     -63.531  14.391   8.430  1.00  0.00     0.290 A 
HETATM    5  O1  UNL     1     -63.985  14.101   9.572  1.00  0.00    -0.265 OA
HETATM    6  C3  UNL     1     -62.480  13.639   7.961  1.00  0.00     0.163 A 
HETATM    7  N3  UNL     1     -61.751  12.604   8.421  1.00  0.00    -0.182 N 
ATOM      8  H3  UNL     1     -61.876  12.142   9.322  1.00  0.00     0.184 HD
HETATM    9  C4  UNL     1     -60.830  12.280   7.497  1.00  0.00     0.687 A 
HETATM   10  N5  UNL     1     -60.951  13.104   6.427  1.00  0.00    -0.105 N 
HETATM   11  C6  UNL     1     -61.967  13.939   6.712  1.00  0.00     0.179 A 
HETATM   12  N6  UNL     1     -62.535  14.955   6.038  1.00  0.00    -0.173 N 
ATOM     13  H6  UNL     1     -62.173  15.194   5.115  1.00  0.00     0.186 HD
ENDROOT
BRANCH   1  14
HETATM   14  N1  UNL     1     -64.101  16.639   5.877  1.00  0.00    -0.234 N 
ATOM     15  H12 UNL     1     -63.823  17.608   6.033  1.00  0.00     0.174 HD
ATOM     16  H11 UNL     1     -64.811  16.395   5.186  1.00  0.00     0.174 HD
ENDBRANCH   1  14
BRANCH  10  17
HETATM   17  C5  UNL     1     -60.145  13.056   5.258  1.00  0.00     0.378 C 
HETATM   18  O2  UNL     1     -59.671  11.995   4.813  1.00  0.00    -0.282 OA
ENDBRANCH  10  17
BRANCH   9  19
HETATM   19  N4  UNL     1     -59.965  11.348   7.589  1.00  0.00    -0.234 N 
ATOM     20  H42 UNL     1     -59.032  11.469   7.982  1.00  0.00     0.174 HD
ATOM     21  H41 UNL     1     -60.087  10.381   7.290  1.00  0.00     0.174 HD
ENDBRANCH   9  19
TORSDOF 3
ENDMDL
MODEL 3
REMARK VINA RESULT: -5.620559598      1.761      2.726
REMARK  3 active torsions:
REMARK  status: ('A' for Active; 'I' for Inactive)
REMARK    1  A    between atoms: N1_1  and  C1_4 
REMARK    2  A    between atoms: C4_12  and  N4_13 
REMARK    3  A    between atoms: N5_16  and  C5_17 
ROOT
HETATM    1  C1  UNL     1     -57.825   8.220   8.069  1.00  0.00     0.680 A 
HETATM    2  N2  UNL     1     -56.550   7.965   7.724  1.00  0.00    -0.154 N 
ATOM      3  H2  UNL     1     -56.052   7.148   8.077  1.00  0.00     0.187 HD
HETATM    4  C2  UNL     1     -55.968   8.845   6.891  1.00  0.00     0.290 A 
HETATM    5  O1  UNL     1     -54.771   8.647   6.540  1.00  0.00    -0.265 OA
HETATM    6  C3  UNL     1     -56.595   9.961   6.389  1.00  0.00     0.163 A 
HETATM    7  N3  UNL     1     -56.257  10.972   5.567  1.00  0.00    -0.182 N 
ATOM      8  H3  UNL     1     -55.349  11.094   5.117  1.00  0.00     0.184 HD
HETATM    9  C4  UNL     1     -57.312  11.794   5.436  1.00  0.00     0.687 A 
HETATM   10  N5  UNL     1     -58.347  11.325   6.175  1.00  0.00    -0.105 N 
HETATM   11  C6  UNL     1     -57.907  10.197   6.760  1.00  0.00     0.179 A 
HETATM   12  N6  UNL     1     -58.481   9.312   7.594  1.00  0.00    -0.173 N 
ATOM     13  H6  UNL     1     -59.448   9.466   7.882  1.00  0.00     0.186 HD
ENDROOT
BRANCH   1  14
HETATM   14  N1  UNL     1     -58.395   7.389   8.863  1.00  0.00    -0.234 N 
ATOM     15  H12 UNL     1     -57.895   6.582   9.237  1.00  0.00     0.174 HD
ATOM     16  H11 UNL     1     -59.369   7.569   9.105  1.00  0.00     0.174 HD
ENDBRANCH   1  14
BRANCH  10  17
HETATM   17  C5  UNL     1     -59.626  11.936   6.278  1.00  0.00     0.378 C 
HETATM   18  O2  UNL     1     -60.296  12.264   5.283  1.00  0.00    -0.282 OA
ENDBRANCH  10  17
BRANCH   9  19
HETATM   19  N4  UNL     1     -57.357  12.857   4.734  1.00  0.00    -0.234 N 
ATOM     20  H42 UNL     1     -56.619  13.154   4.096  1.00  0.00     0.174 HD
ATOM     21  H41 UNL     1     -58.118  13.536   4.715  1.00  0.00     0.174 HD
ENDBRANCH   9  19
TORSDOF 3
ENDMDL
MODEL 4
REMARK VINA RESULT: -5.169193034      0.955      4.945
REMARK  3 active torsions:
REMARK  status: ('A' for Active; 'I' for Inactive)
REMARK    1  A    between atoms: N1_1  and  C1_4 
REMARK    2  A    between atoms: C4_12  and  N4_13 
REMARK    3  A    between atoms: N5_16  and  C5_17 
ROOT
HETATM    1  C1  UNL     1     -59.818  11.611   6.812  1.00  0.00     0.680 A 
HETATM    2  N2  UNL     1     -59.226  12.288   5.812  1.00  0.00    -0.154 N 
ATOM      3  H2  UNL     1     -59.678  13.084   5.361  1.00  0.00     0.187 HD
HETATM    4  C2  UNL     1     -58.007  11.862   5.439  1.00  0.00     0.290 A 
HETATM    5  O1  UNL     1     -57.412  12.467   4.504  1.00  0.00    -0.265 OA
HETATM    6  C3  UNL     1     -57.356  10.796   6.014  1.00  0.00     0.163 A 
HETATM    7  N3  UNL     1     -56.172  10.178   5.838  1.00  0.00    -0.182 N 
ATOM      8  H3  UNL     1     -55.463  10.435   5.152  1.00  0.00     0.184 HD
HETATM    9  C4  UNL     1     -56.080   9.165   6.718  1.00  0.00     0.687 A 
HETATM   10  N5  UNL     1     -57.204   9.115   7.472  1.00  0.00    -0.105 N 
HETATM   11  C6  UNL     1     -57.989  10.118   7.040  1.00  0.00     0.179 A 
HETATM   12  N6  UNL     1     -59.208  10.552   7.407  1.00  0.00    -0.173 N 
ATOM     13  H6  UNL     1     -59.694  10.067   8.162  1.00  0.00     0.186 HD
ENDROOT
BRANCH   1  14
HETATM   14  N1  UNL     1     -60.982  12.007   7.179  1.00  0.00    -0.234 N 
ATOM     15  H12 UNL     1     -61.804  11.412   7.078  1.00  0.00     0.174 HD
ATOM     16  H11 UNL     1     -61.050  12.944   7.577  1.00  0.00     0.174 HD
ENDBRANCH   1  14
BRANCH  10  17
HETATM   17  C5  UNL     1     -57.459   8.173   8.505  1.00  0.00     0.378 C 
HETATM   18  O2  UNL     1     -58.535   7.555   8.600  1.00  0.00    -0.282 OA
ENDBRANCH  10  17
BRANCH   9  19
HETATM   19  N4  UNL     1     -55.098   8.362   6.841  1.00  0.00    -0.234 N 
ATOM     20  H42 UNL     1     -54.142   8.653   7.046  1.00  0.00     0.174 HD
ATOM     21  H41 UNL     1     -55.134   7.346   6.755  1.00  0.00     0.174 HD
ENDBRANCH   9  19
TORSDOF 3
ENDMDL
MODEL 5
REMARK VINA RESULT: -4.949398023      1.903      4.061
REMARK  3 active torsions:
REMARK  status: ('A' for Active; 'I' for Inactive)
REMARK    1  A    between atoms: N1_1  and  C1_4 
REMARK    2  A    between atoms: C4_12  and  N4_13 
REMARK    3  A    between atoms: N5_16  and  C5_17 
ROOT
HETATM    1  C1  UNL     1     -56.999  12.302   4.825  1.00  0.00     0.680 A 
HETATM    2  N2  UNL     1     -58.287  12.636   5.017  1.00  0.00    -0.154 N 
ATOM      3  H2  UNL     1     -58.719  13.418   4.525  1.00  0.00     0.187 HD
HETATM    4  C2  UNL     1     -58.977  11.883   5.892  1.00  0.00     0.290 A 
HETATM    5  O1  UNL     1     -60.191  12.158   6.105  1.00  0.00    -0.265 OA
HETATM    6  C3  UNL     1     -58.442  10.819   6.580  1.00  0.00     0.163 A 
HETATM    7  N3  UNL     1     -58.893   9.928   7.483  1.00  0.00    -0.182 N 
ATOM      8  H3  UNL     1     -59.840   9.890   7.860  1.00  0.00     0.184 HD
HETATM    9  C4  UNL     1     -57.888   9.096   7.807  1.00  0.00     0.687 A 
HETATM   10  N5  UNL     1     -56.773   9.440   7.117  1.00  0.00    -0.105 N 
HETATM   11  C6  UNL     1     -57.114  10.499   6.361  1.00  0.00     0.179 A 
HETATM   12  N6  UNL     1     -56.432  11.258   5.485  1.00  0.00    -0.173 N 
ATOM     13  H6  UNL     1     -55.451  11.040   5.308  1.00  0.00     0.186 HD
ENDROOT
BRANCH   1  14
HETATM   14  N1  UNL     1     -56.328  13.012   3.992  1.00  0.00    -0.234 N 
ATOM     15  H12 UNL     1     -56.791  13.620   3.316  1.00  0.00     0.174 HD
ATOM     16  H11 UNL     1     -55.312  12.942   4.035  1.00  0.00     0.174 HD
ENDBRANCH   1  14
BRANCH  10  17
HETATM   17  C5  UNL     1     -55.517   8.782   7.205  1.00  0.00     0.378 C 
HETATM   18  O2  UNL     1     -54.714   8.738   6.255  1.00  0.00    -0.282 OA
ENDBRANCH  10  17
BRANCH   9  19
HETATM   19  N4  UNL     1     -57.948   8.127   8.633  1.00  0.00    -0.234 N 
ATOM     20  H42 UNL     1     -58.569   7.324   8.531  1.00  0.00     0.174 HD
ATOM     21  H41 UNL     1     -57.397   8.025   9.485  1.00  0.00     0.174 HD
ENDBRANCH   9  19
TORSDOF 3
ENDMDL
