MODEL 1
REMARK VINA RESULT: -4.979482098      0.000      0.000
REMARK  3 active torsions:
REMARK  status: ('A' for Active; 'I' for Inactive)
REMARK    1  A    between atoms: N1_1  and  C1_4 
REMARK    2  A    between atoms: C3_9  and  S1_10 
REMARK    3  A    between atoms: S1_10  and  N4_11 
ROOT
HETATM    1  C1  UNL     1     -61.036  12.515   7.302  1.00  0.00     0.680 A 
HETATM    2  N2  UNL     1     -61.961  12.713   8.276  1.00  0.00    -0.177 N 
ATOM      3  H2  UNL     1     -61.956  12.109   9.098  1.00  0.00     0.185 HD
HETATM    4  C2  UNL     1     -62.882  13.685   8.183  1.00  0.00     0.160 A 
HETATM    5  N3  UNL     1     -63.863  13.909   9.197  1.00  0.00    -0.080 NA
HETATM    6  C3  UNL     1     -62.912  14.516   7.083  1.00  0.00     0.189 A 
HETATM    7  C4  UNL     1     -61.984  14.322   6.098  1.00  0.00     0.286 A 
HETATM    8  O3  UNL     1     -61.983  15.068   5.074  1.00  0.00    -0.266 OA
HETATM    9  N5  UNL     1     -61.079  13.334   6.236  1.00  0.00    -0.155 N 
ATOM     10  H5  UNL     1     -60.392  13.199   5.495  1.00  0.00     0.187 HD
ENDROOT
BRANCH   6  11
HETATM   11  S1  UNL     1     -64.116  15.783   6.968  1.00  0.00     0.265 S 
HETATM   12  O1  UNL     1     -64.559  16.189   8.361  1.00  0.00    -0.200 OA
HETATM   13  O2  UNL     1     -65.329  15.334   6.210  1.00  0.00    -0.200 OA
BRANCH  11  14
HETATM   14  N4  UNL     1     -63.440  17.169   6.216  1.00  0.00    -0.324 N 
ATOM     15  H42 UNL     1     -63.576  18.124   6.546  1.00  0.00     0.169 HD
ATOM     16  H41 UNL     1     -62.890  16.892   5.403  1.00  0.00     0.169 HD
ENDBRANCH  11  14
ENDBRANCH   6  11
BRANCH   1  17
HETATM   17  N1  UNL     1     -60.156  11.577   7.403  1.00  0.00    -0.234 N 
ATOM     18  H12 UNL     1     -60.418  10.617   7.624  1.00  0.00     0.174 HD
ATOM     19  H11 UNL     1     -59.165  11.771   7.264  1.00  0.00     0.174 HD
ENDBRANCH   1  17
TORSDOF 3
ENDMDL
MODEL 2
REMARK VINA RESULT: -4.804602117      0.903      1.025
REMARK  3 active torsions:
REMARK  status: ('A' for Active; 'I' for Inactive)
REMARK    1  A    between atoms: N1_1  and  C1_4 
REMARK    2  A    between atoms: C3_9  and  S1_10 
REMARK    3  A    between atoms: S1_10  and  N4_11 
ROOT
HETATM    1  C1  UNL     1     -60.992  12.477   7.424  1.00  0.00     0.680 A 
HETATM    2  N2  UNL     1     -61.874  12.793   8.406  1.00  0.00    -0.177 N 
ATOM      3  H2  UNL     1     -61.850  12.272   9.284  1.00  0.00     0.185 HD
HETATM    4  C2  UNL     1     -62.777  13.774   8.251  1.00  0.00     0.160 A 
HETATM    5  N3  UNL     1     -63.713  14.120   9.274  1.00  0.00    -0.080 NA
HETATM    6  C3  UNL     1     -62.832  14.494   7.077  1.00  0.00     0.189 A 
HETATM    7  C4  UNL     1     -61.946  14.181   6.083  1.00  0.00     0.286 A 
HETATM    8  O3  UNL     1     -61.969  14.823   4.991  1.00  0.00    -0.266 OA
HETATM    9  N5  UNL     1     -61.058  13.189   6.285  1.00  0.00    -0.155 N 
ATOM     10  H5  UNL     1     -60.403  12.966   5.536  1.00  0.00     0.187 HD
ENDROOT
BRANCH   6  11
HETATM   11  S1  UNL     1     -64.011  15.773   6.881  1.00  0.00     0.265 S 
HETATM   12  O1  UNL     1     -63.304  17.115   6.857  1.00  0.00    -0.200 OA
HETATM   13  O2  UNL     1     -65.004  15.794   8.004  1.00  0.00    -0.200 OA
BRANCH  11  14
HETATM   14  N4  UNL     1     -64.829  15.594   5.383  1.00  0.00    -0.324 N 
ATOM     15  H42 UNL     1     -65.275  14.731   5.074  1.00  0.00     0.169 HD
ATOM     16  H41 UNL     1     -64.799  16.470   4.862  1.00  0.00     0.169 HD
ENDBRANCH  11  14
ENDBRANCH   6  11
BRANCH   1  17
HETATM   17  N1  UNL     1     -60.129  11.532   7.585  1.00  0.00    -0.234 N 
ATOM     18  H12 UNL     1     -60.332  10.569   7.317  1.00  0.00     0.174 HD
ATOM     19  H11 UNL     1     -59.211  11.722   7.988  1.00  0.00     0.174 HD
ENDBRANCH   1  17
TORSDOF 3
ENDMDL
MODEL 3
REMARK VINA RESULT: -4.779728026      1.139      2.254
REMARK  3 active torsions:
REMARK  status: ('A' for Active; 'I' for Inactive)
REMARK    1  A    between atoms: N1_1  and  C1_4 
REMARK    2  A    between atoms: C3_9  and  S1_10 
REMARK    3  A    between atoms: S1_10  and  N4_11 
ROOT
HETATM    1  C1  UNL     1     -61.071  12.471   7.454  1.00  0.00     0.680 A 
HETATM    2  N2  UNL     1     -61.069  13.273   6.358  1.00  0.00    -0.177 N 
ATOM      3  H2  UNL     1     -60.358  13.133   5.640  1.00  0.00     0.185 HD
HETATM    4  C2  UNL     1     -61.980  14.246   6.198  1.00  0.00     0.160 A 
HETATM    5  N3  UNL     1     -61.993  15.099   5.052  1.00  0.00    -0.080 NA
HETATM    6  C3  UNL     1     -62.952  14.458   7.153  1.00  0.00     0.189 A 
HETATM    7  C4  UNL     1     -62.960  13.654   8.259  1.00  0.00     0.286 A 
HETATM    8  O3  UNL     1     -63.839  13.821   9.156  1.00  0.00    -0.266 OA
HETATM    9  N5  UNL     1     -62.026  12.691   8.376  1.00  0.00    -0.155 N 
ATOM     10  H5  UNL     1     -62.043  12.098   9.205  1.00  0.00     0.187 HD
ENDROOT
BRANCH   6  11
HETATM   11  S1  UNL     1     -64.137  15.728   6.937  1.00  0.00     0.265 S 
HETATM   12  O1  UNL     1     -64.880  15.955   8.241  1.00  0.00    -0.200 OA
HETATM   13  O2  UNL     1     -65.147  15.378   5.886  1.00  0.00    -0.200 OA
BRANCH  11  14
HETATM   14  N4  UNL     1     -63.355  17.199   6.526  1.00  0.00    -0.324 N 
ATOM     15  H42 UNL     1     -62.400  17.435   6.797  1.00  0.00     0.169 HD
ATOM     16  H41 UNL     1     -63.983  17.788   5.980  1.00  0.00     0.169 HD
ENDBRANCH  11  14
ENDBRANCH   6  11
BRANCH   1  17
HETATM   17  N1  UNL     1     -60.191  11.540   7.597  1.00  0.00    -0.234 N 
ATOM     18  H12 UNL     1     -59.275  11.725   8.007  1.00  0.00     0.174 HD
ATOM     19  H11 UNL     1     -60.385  10.583   7.302  1.00  0.00     0.174 HD
ENDBRANCH   1  17
TORSDOF 3
ENDMDL
MODEL 4
REMARK VINA RESULT: -4.179567188      1.052      1.349
REMARK  3 active torsions:
REMARK  status: ('A' for Active; 'I' for Inactive)
REMARK    1  A    between atoms: N1_1  and  C1_4 
REMARK    2  A    between atoms: C3_9  and  S1_10 
REMARK    3  A    between atoms: S1_10  and  N4_11 
ROOT
HETATM    1  C1  UNL     1     -61.005  12.486   7.386  1.00  0.00     0.680 A 
HETATM    2  N2  UNL     1     -61.937  12.741   8.340  1.00  0.00    -0.177 N 
ATOM      3  H2  UNL     1     -61.934  12.191   9.199  1.00  0.00     0.185 HD
HETATM    4  C2  UNL     1     -62.863  13.700   8.180  1.00  0.00     0.160 A 
HETATM    5  N3  UNL     1     -63.851  13.982   9.172  1.00  0.00    -0.080 NA
HETATM    6  C3  UNL     1     -62.891  14.458   7.029  1.00  0.00     0.189 A 
HETATM    7  C4  UNL     1     -61.956  14.207   6.063  1.00  0.00     0.286 A 
HETATM    8  O3  UNL     1     -61.952  14.885   4.994  1.00  0.00    -0.266 OA
HETATM    9  N5  UNL     1     -61.047  13.235   6.270  1.00  0.00    -0.155 N 
ATOM     10  H5  UNL     1     -60.354  13.057   5.543  1.00  0.00     0.187 HD
ENDROOT
BRANCH   6  11
HETATM   11  S1  UNL     1     -64.101  15.708   6.826  1.00  0.00     0.265 S 
HETATM   12  O1  UNL     1     -64.977  15.375   5.633  1.00  0.00    -0.200 OA
HETATM   13  O2  UNL     1     -63.481  17.051   6.584  1.00  0.00    -0.200 OA
BRANCH  11  14
HETATM   14  N4  UNL     1     -65.114  15.774   8.209  1.00  0.00    -0.324 N 
ATOM     15  H42 UNL     1     -64.916  15.297   9.088  1.00  0.00     0.169 HD
ATOM     16  H41 UNL     1     -65.930  16.355   8.016  1.00  0.00     0.169 HD
ENDBRANCH  11  14
ENDBRANCH   6  11
BRANCH   1  17
HETATM   17  N1  UNL     1     -60.121  11.562   7.552  1.00  0.00    -0.234 N 
ATOM     18  H12 UNL     1     -59.733  11.348   8.471  1.00  0.00     0.174 HD
ATOM     19  H11 UNL     1     -59.780  11.014   6.762  1.00  0.00     0.174 HD
ENDBRANCH   1  17
TORSDOF 3
ENDMDL
MODEL 5
REMARK VINA RESULT: -4.078514867      1.569      2.682
REMARK  3 active torsions:
REMARK  status: ('A' for Active; 'I' for Inactive)
REMARK    1  A    between atoms: N1_1  and  C1_4 
REMARK    2  A    between atoms: C3_9  and  S1_10 
REMARK    3  A    between atoms: S1_10  and  N4_11 
ROOT
HETATM    1  C1  UNL     1     -60.596  12.595   6.591  1.00  0.00     0.680 A 
HETATM    2  N2  UNL     1     -60.844  13.689   5.827  1.00  0.00    -0.177 N 
ATOM      3  H2  UNL     1     -60.236  13.889   5.032  1.00  0.00     0.185 HD
HETATM    4  C2  UNL     1     -61.869  14.514   6.092  1.00  0.00     0.160 A 
HETATM    5  N3  UNL     1     -62.144  15.670   5.299  1.00  0.00    -0.080 NA
HETATM    6  C3  UNL     1     -62.705  14.268   7.160  1.00  0.00     0.189 A 
HETATM    7  C4  UNL     1     -62.462  13.167   7.934  1.00  0.00     0.286 A 
HETATM    8  O3  UNL     1     -63.212  12.911   8.923  1.00  0.00    -0.266 OA
HETATM    9  N5  UNL     1     -61.422  12.369   7.629  1.00  0.00    -0.155 N 
ATOM     10  H5  UNL     1     -61.251  11.551   8.213  1.00  0.00     0.187 HD
ENDROOT
BRANCH   6  11
HETATM   11  S1  UNL     1     -64.041  15.348   7.500  1.00  0.00     0.265 S 
HETATM   12  O1  UNL     1     -64.084  16.446   6.454  1.00  0.00    -0.200 OA
HETATM   13  O2  UNL     1     -63.907  15.996   8.845  1.00  0.00    -0.200 OA
BRANCH  11  14
HETATM   14  N4  UNL     1     -65.526  14.492   7.412  1.00  0.00    -0.324 N 
ATOM     15  H42 UNL     1     -65.880  14.045   6.567  1.00  0.00     0.169 HD
ATOM     16  H41 UNL     1     -65.988  14.500   8.321  1.00  0.00     0.169 HD
ENDBRANCH  11  14
ENDBRANCH   6  11
BRANCH   1  17
HETATM   17  N1  UNL     1     -59.608  11.809   6.327  1.00  0.00    -0.234 N 
ATOM     18  H12 UNL     1     -59.208  11.746   5.391  1.00  0.00     0.174 HD
ATOM     19  H11 UNL     1     -59.194  11.223   7.051  1.00  0.00     0.174 HD
ENDBRANCH   1  17
TORSDOF 3
ENDMDL
