MODEL 1
REMARK VINA RESULT: -6.088820030      0.000      0.000
REMARK  5 active torsions:
REMARK  status: ('A' for Active; 'I' for Inactive)
REMARK    1  A    between atoms: C1_4  and  O1_6 
REMARK    2  A    between atoms: O1_6  and  C2_7 
REMARK    3  A    between atoms: C2_7  and  N3_9 
REMARK    4  A    between atoms: N3_9  and  N4_11 
REMARK    5  A    between atoms: N4_11  and  C3_13 
ROOT
HETATM    1  N3  UNL     1     -62.795  12.493   7.431  1.00  0.00    -0.256 N 
ATOM      2  H3  UNL     1     -63.302  11.691   7.056  1.00  0.00     0.190 HD
ENDROOT
BRANCH   1   3
HETATM    3  C2  UNL     1     -63.465  13.720   7.672  1.00  0.00     0.237 C 
HETATM    4  S1  UNL     1     -63.712  14.219   9.187  1.00  0.00    -0.031 SA
BRANCH   3   5
HETATM    5  O1  UNL     1     -63.880  14.440   6.556  1.00  0.00    -0.253 OA
BRANCH   5   6
HETATM    6  C1  UNL     1     -63.008  15.323   5.898  1.00  0.00     0.232 C 
HETATM    7  N1  UNL     1     -63.603  16.210   5.141  1.00  0.00    -0.367 N 
ATOM      8  H12 UNL     1     -62.970  16.851   4.663  1.00  0.00     0.159 HD
ATOM      9  H11 UNL     1     -64.617  16.257   5.035  1.00  0.00     0.159 HD
HETATM   10  N2  UNL     1     -61.607  15.257   6.044  1.00  0.00    -0.056 NA
ENDBRANCH   5   6
ENDBRANCH   3   5
ENDBRANCH   1   3
BRANCH   1  11
HETATM   11  N4  UNL     1     -61.447  12.403   7.712  1.00  0.00    -0.127 N 
ATOM     12  H4  UNL     1     -61.164  12.562   8.679  1.00  0.00     0.206 HD
BRANCH  11  13
HETATM   13  C3  UNL     1     -60.527  12.139   6.881  1.00  0.00     0.725 A 
HETATM   14  N5  UNL     1     -59.437  11.404   7.165  1.00  0.00    -0.117 N 
HETATM   15  N6  UNL     1     -58.675  11.312   6.093  1.00  0.00    -0.211 N 
ATOM     16  H5  UNL     1     -59.232  10.983   8.071  1.00  0.00     0.207 HD
HETATM   17  N7  UNL     1     -59.253  11.982   5.099  1.00  0.00     0.009 NA
ATOM     18  H6  UNL     1     -57.789  10.810   6.035  1.00  0.00     0.206 HD
HETATM   19  N8  UNL     1     -60.391  12.492   5.579  1.00  0.00    -0.112 N 
ATOM     20  H8  UNL     1     -61.054  13.058   5.049  1.00  0.00     0.203 HD
ENDBRANCH  11  13
ENDBRANCH   1  11
TORSDOF 5
ENDMDL
MODEL 2
REMARK VINA RESULT: -6.058653226      2.105      2.844
REMARK  5 active torsions:
REMARK  status: ('A' for Active; 'I' for Inactive)
REMARK    1  A    between atoms: C1_4  and  O1_6 
REMARK    2  A    between atoms: O1_6  and  C2_7 
REMARK    3  A    between atoms: C2_7  and  N3_9 
REMARK    4  A    between atoms: N3_9  and  N4_11 
REMARK    5  A    between atoms: N4_11  and  C3_13 
ROOT
HETATM    1  N3  UNL     1     -60.201  12.066   6.956  1.00  0.00    -0.256 N 
ATOM      2  H3  UNL     1     -60.169  11.638   7.882  1.00  0.00     0.190 HD
ENDROOT
BRANCH   1   3
HETATM    3  C2  UNL     1     -61.323  12.836   6.556  1.00  0.00     0.237 C 
HETATM    4  S1  UNL     1     -62.742  12.114   6.291  1.00  0.00    -0.031 SA
BRANCH   3   5
HETATM    5  O1  UNL     1     -61.127  14.207   6.412  1.00  0.00    -0.253 OA
BRANCH   5   6
HETATM    6  C1  UNL     1     -62.214  15.095   6.382  1.00  0.00     0.232 C 
HETATM    7  N1  UNL     1     -62.867  15.192   7.512  1.00  0.00    -0.367 N 
ATOM      8  H12 UNL     1     -63.657  15.837   7.490  1.00  0.00     0.159 HD
ATOM      9  H11 UNL     1     -62.610  14.667   8.348  1.00  0.00     0.159 HD
HETATM   10  N2  UNL     1     -62.570  15.821   5.226  1.00  0.00    -0.056 NA
ENDBRANCH   5   6
ENDBRANCH   3   5
ENDBRANCH   1   3
BRANCH   1  11
HETATM   11  N4  UNL     1     -59.153  11.906   6.072  1.00  0.00    -0.127 N 
ATOM     12  H4  UNL     1     -59.150  12.503   5.245  1.00  0.00     0.206 HD
BRANCH  11  13
HETATM   13  C3  UNL     1     -58.194  11.087   6.193  1.00  0.00     0.725 A 
HETATM   14  N5  UNL     1     -57.102  11.078   5.407  1.00  0.00    -0.117 N 
HETATM   15  N6  UNL     1     -56.292  10.109   5.788  1.00  0.00    -0.211 N 
ATOM     16  H5  UNL     1     -56.928  11.721   4.636  1.00  0.00     0.207 HD
HETATM   17  N7  UNL     1     -56.841   9.475   6.822  1.00  0.00     0.009 NA
ATOM     18  H6  UNL     1     -55.393   9.883   5.361  1.00  0.00     0.206 HD
HETATM   19  N8  UNL     1     -58.009  10.072   7.073  1.00  0.00    -0.112 N 
ATOM     20  H8  UNL     1     -58.660   9.807   7.812  1.00  0.00     0.203 HD
ENDBRANCH  11  13
ENDBRANCH   1  11
TORSDOF 5
ENDMDL
MODEL 3
REMARK VINA RESULT: -5.939999369      3.948      5.316
REMARK  5 active torsions:
REMARK  status: ('A' for Active; 'I' for Inactive)
REMARK    1  A    between atoms: C1_4  and  O1_6 
REMARK    2  A    between atoms: O1_6  and  C2_7 
REMARK    3  A    between atoms: C2_7  and  N3_9 
REMARK    4  A    between atoms: N3_9  and  N4_11 
REMARK    5  A    between atoms: N4_11  and  C3_13 
ROOT
HETATM    1  N3  UNL     1     -57.951  10.506   5.645  1.00  0.00    -0.256 N 
ATOM      2  H3  UNL     1     -58.283   9.762   5.030  1.00  0.00     0.190 HD
ENDROOT
BRANCH   1   3
HETATM    3  C2  UNL     1     -58.135  11.868   5.294  1.00  0.00     0.237 C 
HETATM    4  S1  UNL     1     -56.859  12.782   4.916  1.00  0.00    -0.031 SA
BRANCH   3   5
HETATM    5  O1  UNL     1     -59.442  12.347   5.297  1.00  0.00    -0.253 OA
BRANCH   5   6
HETATM    6  C1  UNL     1     -60.207  12.358   6.474  1.00  0.00     0.232 C 
HETATM    7  N1  UNL     1     -61.110  13.305   6.526  1.00  0.00    -0.367 N 
ATOM      8  H12 UNL     1     -61.666  13.313   7.380  1.00  0.00     0.159 HD
ATOM      9  H11 UNL     1     -61.247  13.981   5.774  1.00  0.00     0.159 HD
HETATM   10  N2  UNL     1     -60.017  11.423   7.512  1.00  0.00    -0.056 NA
ENDBRANCH   5   6
ENDBRANCH   3   5
ENDBRANCH   1   3
BRANCH   1  11
HETATM   11  N4  UNL     1     -57.315  10.203   6.832  1.00  0.00    -0.127 N 
ATOM     12  H4  UNL     1     -56.798  10.957   7.285  1.00  0.00     0.206 HD
BRANCH  11  13
HETATM   13  C3  UNL     1     -57.315   9.077   7.412  1.00  0.00     0.725 A 
HETATM   14  N5  UNL     1     -58.384   8.542   8.029  1.00  0.00    -0.117 N 
HETATM   15  N6  UNL     1     -58.063   7.365   8.530  1.00  0.00    -0.211 N 
ATOM     16  H5  UNL     1     -59.303   8.980   8.098  1.00  0.00     0.207 HD
HETATM   17  N7  UNL     1     -56.785   7.116   8.249  1.00  0.00     0.009 NA
ATOM     18  H6  UNL     1     -58.689   6.748   9.047  1.00  0.00     0.206 HD
HETATM   19  N8  UNL     1     -56.323   8.165   7.563  1.00  0.00    -0.112 N 
ATOM     20  H8  UNL     1     -55.372   8.265   7.208  1.00  0.00     0.203 HD
ENDBRANCH  11  13
ENDBRANCH   1  11
TORSDOF 5
ENDMDL
MODEL 4
REMARK VINA RESULT: -5.916788884      3.694      5.954
REMARK  5 active torsions:
REMARK  status: ('A' for Active; 'I' for Inactive)
REMARK    1  A    between atoms: C1_4  and  O1_6 
REMARK    2  A    between atoms: O1_6  and  C2_7 
REMARK    3  A    between atoms: C2_7  and  N3_9 
REMARK    4  A    between atoms: N3_9  and  N4_11 
REMARK    5  A    between atoms: N4_11  and  C3_13 
ROOT
HETATM    1  N3  UNL     1     -59.308  11.907   5.412  1.00  0.00    -0.256 N 
ATOM      2  H3  UNL     1     -59.860  12.135   4.585  1.00  0.00     0.190 HD
ENDROOT
BRANCH   1   3
HETATM    3  C2  UNL     1     -57.940  11.550   5.289  1.00  0.00     0.237 C 
HETATM    4  S1  UNL     1     -56.847  12.672   4.898  1.00  0.00    -0.031 SA
BRANCH   3   5
HETATM    5  O1  UNL     1     -57.615  10.217   5.521  1.00  0.00    -0.253 OA
BRANCH   5   6
HETATM    6  C1  UNL     1     -57.440   9.730   6.826  1.00  0.00     0.232 C 
HETATM    7  N1  UNL     1     -56.192   9.525   7.166  1.00  0.00    -0.367 N 
ATOM      8  H12 UNL     1     -56.065   9.171   8.114  1.00  0.00     0.159 HD
ATOM      9  H11 UNL     1     -55.410   9.703   6.537  1.00  0.00     0.159 HD
HETATM   10  N2  UNL     1     -58.522   9.484   7.697  1.00  0.00    -0.056 NA
ENDBRANCH   5   6
ENDBRANCH   3   5
ENDBRANCH   1   3
BRANCH   1  11
HETATM   11  N4  UNL     1     -59.878  11.940   6.668  1.00  0.00    -0.127 N 
ATOM     12  H4  UNL     1     -59.305  11.612   7.446  1.00  0.00     0.206 HD
BRANCH  11  13
HETATM   13  C3  UNL     1     -61.048  12.339   6.946  1.00  0.00     0.725 A 
HETATM   14  N5  UNL     1     -62.129  12.111   6.178  1.00  0.00    -0.117 N 
HETATM   15  N6  UNL     1     -63.193  12.653   6.739  1.00  0.00    -0.211 N 
ATOM     16  H5  UNL     1     -62.125  11.597   5.297  1.00  0.00     0.207 HD
HETATM   17  N7  UNL     1     -62.823  13.240   7.875  1.00  0.00     0.009 NA
ATOM     18  H6  UNL     1     -64.141  12.626   6.364  1.00  0.00     0.206 HD
HETATM   19  N8  UNL     1     -61.507  13.050   8.005  1.00  0.00    -0.112 N 
ATOM     20  H8  UNL     1     -60.937  13.386   8.781  1.00  0.00     0.203 HD
ENDBRANCH  11  13
ENDBRANCH   1  11
TORSDOF 5
ENDMDL
MODEL 5
REMARK VINA RESULT: -5.826005959      0.903      1.064
REMARK  5 active torsions:
REMARK  status: ('A' for Active; 'I' for Inactive)
REMARK    1  A    between atoms: C1_4  and  O1_6 
REMARK    2  A    between atoms: O1_6  and  C2_7 
REMARK    3  A    between atoms: C2_7  and  N3_9 
REMARK    4  A    between atoms: N3_9  and  N4_11 
REMARK    5  A    between atoms: N4_11  and  C3_13 
ROOT
HETATM    1  N3  UNL     1     -62.354  12.463   7.706  1.00  0.00    -0.256 N 
ATOM      2  H3  UNL     1     -63.049  11.734   7.543  1.00  0.00     0.190 HD
ENDROOT
BRANCH   1   3
HETATM    3  C2  UNL     1     -62.749  13.817   7.851  1.00  0.00     0.237 C 
HETATM    4  S1  UNL     1     -63.679  14.256   9.095  1.00  0.00    -0.031 SA
BRANCH   3   5
HETATM    5  O1  UNL     1     -62.298  14.711   6.884  1.00  0.00    -0.253 OA
BRANCH   5   6
HETATM    6  C1  UNL     1     -63.186  15.580   6.230  1.00  0.00     0.232 C 
HETATM    7  N1  UNL     1     -62.806  16.832   6.212  1.00  0.00    -0.367 N 
ATOM      8  H12 UNL     1     -63.451  17.463   5.737  1.00  0.00     0.159 HD
ATOM      9  H11 UNL     1     -61.936  17.154   6.638  1.00  0.00     0.159 HD
HETATM   10  N2  UNL     1     -64.388  15.135   5.641  1.00  0.00    -0.056 NA
ENDBRANCH   5   6
ENDBRANCH   3   5
ENDBRANCH   1   3
BRANCH   1  11
HETATM   11  N4  UNL     1     -61.012  12.147   7.788  1.00  0.00    -0.127 N 
ATOM     12  H4  UNL     1     -60.623  12.021   8.722  1.00  0.00     0.206 HD
BRANCH  11  13
HETATM   13  C3  UNL     1     -60.220  11.999   6.810  1.00  0.00     0.725 A 
HETATM   14  N5  UNL     1     -59.061  11.318   6.871  1.00  0.00    -0.117 N 
HETATM   15  N6  UNL     1     -58.469  11.345   5.693  1.00  0.00    -0.211 N 
ATOM     16  H5  UNL     1     -58.697  10.851   7.702  1.00  0.00     0.207 HD
HETATM   17  N7  UNL     1     -59.230  12.041   4.850  1.00  0.00     0.009 NA
ATOM     18  H6  UNL     1     -57.578  10.906   5.465  1.00  0.00     0.206 HD
HETATM   19  N8  UNL     1     -60.305  12.444   5.533  1.00  0.00    -0.112 N 
ATOM     20  H8  UNL     1     -61.071  13.000   5.152  1.00  0.00     0.203 HD
ENDBRANCH  11  13
ENDBRANCH   1  11
TORSDOF 5
ENDMDL
