MODEL 1
REMARK VINA RESULT: -6.207724917      0.000      0.000
REMARK  6 active torsions:
REMARK  status: ('A' for Active; 'I' for Inactive)
REMARK    1  A    between atoms: N1_1  and  C1_4 
REMARK    2  A    between atoms: C2_7  and  N3_8 
REMARK    3  A    between atoms: C5_13  and  N5_14 
REMARK    4  A    between atoms: N5_14  and  N6_16 
REMARK    5  A    between atoms: N6_16  and  N7_17 
REMARK    6  A    between atoms: N6_16  and  N8_20 
ROOT
HETATM    1  C1  UNL     1     -57.534  10.322   6.702  1.00  0.00     0.705 A 
HETATM    2  N2  UNL     1     -58.740  10.737   7.127  1.00  0.00    -0.022 N 
ATOM      3  H2  UNL     1     -59.134  10.318   7.969  1.00  0.00     0.203 HD
HETATM    4  C2  UNL     1     -59.448  11.688   6.480  1.00  0.00     0.709 A 
HETATM    5  N4  UNL     1     -58.880  12.205   5.376  1.00  0.00    -0.020 N 
ATOM      6  H4  UNL     1     -59.376  12.928   4.854  1.00  0.00     0.203 HD
HETATM    7  C5  UNL     1     -57.679  11.798   4.943  1.00  0.00     0.728 A 
HETATM    8  N9  UNL     1     -56.969  10.837   5.602  1.00  0.00    -0.020 N 
ATOM      9  H9  UNL     1     -56.054  10.527   5.274  1.00  0.00     0.203 HD
ENDROOT
BRANCH   7  10
HETATM   10  N5  UNL     1     -57.162  12.314   3.880  1.00  0.00    -0.095 N 
ATOM     11  H5  UNL     1     -57.252  11.851   2.976  1.00  0.00     0.209 HD
BRANCH  10  12
HETATM   12  N6  UNL     1     -56.481  13.514   4.000  1.00  0.00    -0.130 N 
BRANCH  12  13
HETATM   13  N7  UNL     1     -56.200  14.056   5.232  1.00  0.00    -0.309 N 
ATOM     14  H72 UNL     1     -56.673  13.709   6.066  1.00  0.00     0.180 HD
ATOM     15  H71 UNL     1     -55.520  14.808   5.337  1.00  0.00     0.180 HD
ENDBRANCH  12  13
BRANCH  12  16
HETATM   16  N8  UNL     1     -56.082  14.168   2.841  1.00  0.00    -0.309 N 
ATOM     17  H82 UNL     1     -55.733  13.635   2.044  1.00  0.00     0.180 HD
ATOM     18  H81 UNL     1     -56.148  15.185   2.809  1.00  0.00     0.180 HD
ENDBRANCH  12  16
ENDBRANCH  10  12
ENDBRANCH   7  10
BRANCH   4  19
HETATM   19  N3  UNL     1     -60.721  12.115   6.944  1.00  0.00    -0.214 N 
HETATM   20  C3  UNL     1     -62.148  12.157   6.911  1.00  0.00     0.161 A 
HETATM   21  C4  UNL     1     -61.453  12.908   7.906  1.00  0.00     0.161 A 
ENDBRANCH   4  19
BRANCH   1  22
HETATM   22  N1  UNL     1     -56.886   9.408   7.350  1.00  0.00    -0.234 N 
ATOM     23  H12 UNL     1     -57.267   9.088   8.241  1.00  0.00     0.174 HD
ATOM     24  H11 UNL     1     -56.020   9.022   6.976  1.00  0.00     0.174 HD
ENDBRANCH   1  22
TORSDOF 6
ENDMDL
MODEL 2
REMARK VINA RESULT: -5.846197229      0.909      3.710
REMARK  6 active torsions:
REMARK  status: ('A' for Active; 'I' for Inactive)
REMARK    1  A    between atoms: N1_1  and  C1_4 
REMARK    2  A    between atoms: C2_7  and  N3_8 
REMARK    3  A    between atoms: C5_13  and  N5_14 
REMARK    4  A    between atoms: N5_14  and  N6_16 
REMARK    5  A    between atoms: N6_16  and  N7_17 
REMARK    6  A    between atoms: N6_16  and  N8_20 
ROOT
HETATM    1  C1  UNL     1     -57.144  12.364   4.940  1.00  0.00     0.705 A 
HETATM    2  N2  UNL     1     -58.356  12.756   5.368  1.00  0.00    -0.022 N 
ATOM      3  H2  UNL     1     -58.688  13.686   5.114  1.00  0.00     0.203 HD
HETATM    4  C2  UNL     1     -59.150  11.964   6.121  1.00  0.00     0.709 A 
HETATM    5  N4  UNL     1     -58.661  10.749   6.425  1.00  0.00    -0.020 N 
ATOM      6  H4  UNL     1     -59.224  10.114   6.992  1.00  0.00     0.203 HD
HETATM    7  C5  UNL     1     -57.453  10.348   6.005  1.00  0.00     0.728 A 
HETATM    8  N9  UNL     1     -56.657  11.153   5.244  1.00  0.00    -0.020 N 
ATOM      9  H9  UNL     1     -55.737  10.849   4.923  1.00  0.00     0.203 HD
ENDROOT
BRANCH   7  10
HETATM   10  N5  UNL     1     -57.013   9.176   6.315  1.00  0.00    -0.095 N 
ATOM     11  H5  UNL     1     -56.954   8.437   5.615  1.00  0.00     0.209 HD
BRANCH  10  12
HETATM   12  N6  UNL     1     -56.622   8.949   7.624  1.00  0.00    -0.130 N 
BRANCH  12  13
HETATM   13  N7  UNL     1     -57.525   8.541   8.578  1.00  0.00    -0.309 N 
ATOM     14  H72 UNL     1     -58.234   9.187   8.924  1.00  0.00     0.180 HD
ATOM     15  H71 UNL     1     -57.505   7.594   8.954  1.00  0.00     0.180 HD
ENDBRANCH  12  13
BRANCH  12  16
HETATM   16  N8  UNL     1     -55.289   9.143   7.961  1.00  0.00    -0.309 N 
ATOM     17  H82 UNL     1     -54.556   8.620   7.480  1.00  0.00     0.180 HD
ATOM     18  H81 UNL     1     -55.065   9.815   8.695  1.00  0.00     0.180 HD
ENDBRANCH  12  16
ENDBRANCH  10  12
ENDBRANCH   7  10
BRANCH   4  19
HETATM   19  N3  UNL     1     -60.429  12.395   6.563  1.00  0.00    -0.214 N 
HETATM   20  C3  UNL     1     -61.756  12.882   6.363  1.00  0.00     0.161 A 
HETATM   21  C4  UNL     1     -61.298  12.639   7.694  1.00  0.00     0.161 A 
ENDBRANCH   4  19
BRANCH   1  22
HETATM   22  N1  UNL     1     -56.413  13.152   4.219  1.00  0.00    -0.234 N 
ATOM     23  H12 UNL     1     -56.286  12.924   3.233  1.00  0.00     0.174 HD
ATOM     24  H11 UNL     1     -55.978  13.978   4.631  1.00  0.00     0.174 HD
ENDBRANCH   1  22
TORSDOF 6
ENDMDL
MODEL 3
REMARK VINA RESULT: -5.760787761      1.039      3.568
REMARK  6 active torsions:
REMARK  status: ('A' for Active; 'I' for Inactive)
REMARK    1  A    between atoms: N1_1  and  C1_4 
REMARK    2  A    between atoms: C2_7  and  N3_8 
REMARK    3  A    between atoms: C5_13  and  N5_14 
REMARK    4  A    between atoms: N5_14  and  N6_16 
REMARK    5  A    between atoms: N6_16  and  N7_17 
REMARK    6  A    between atoms: N6_16  and  N8_20 
ROOT
HETATM    1  C1  UNL     1     -57.259  12.064   5.079  1.00  0.00     0.705 A 
HETATM    2  N2  UNL     1     -58.485  12.467   5.454  1.00  0.00    -0.022 N 
ATOM      3  H2  UNL     1     -58.859  13.330   5.061  1.00  0.00     0.203 HD
HETATM    4  C2  UNL     1     -59.238  11.770   6.332  1.00  0.00     0.709 A 
HETATM    5  N4  UNL     1     -58.695  10.640   6.819  1.00  0.00    -0.020 N 
ATOM      6  H4  UNL     1     -59.227  10.080   7.485  1.00  0.00     0.203 HD
HETATM    7  C5  UNL     1     -57.473  10.230   6.451  1.00  0.00     0.728 A 
HETATM    8  N9  UNL     1     -56.717  10.938   5.563  1.00  0.00    -0.020 N 
ATOM      9  H9  UNL     1     -55.787  10.627   5.283  1.00  0.00     0.203 HD
ENDROOT
BRANCH   7  10
HETATM   10  N5  UNL     1     -56.980   9.142   6.937  1.00  0.00    -0.095 N 
ATOM     11  H5  UNL     1     -57.586   8.375   7.226  1.00  0.00     0.209 HD
BRANCH  10  12
HETATM   12  N6  UNL     1     -55.603   9.042   7.055  1.00  0.00    -0.130 N 
BRANCH  12  13
HETATM   13  N7  UNL     1     -54.793   9.001   5.945  1.00  0.00    -0.309 N 
ATOM     14  H72 UNL     1     -54.185   8.198   5.783  1.00  0.00     0.180 HD
ATOM     15  H71 UNL     1     -54.783   9.763   5.268  1.00  0.00     0.180 HD
ENDBRANCH  12  13
BRANCH  12  16
HETATM   16  N8  UNL     1     -55.050   8.984   8.327  1.00  0.00    -0.309 N 
ATOM     17  H82 UNL     1     -55.043   8.105   8.845  1.00  0.00     0.180 HD
ATOM     18  H81 UNL     1     -54.655   9.835   8.726  1.00  0.00     0.180 HD
ENDBRANCH  12  16
ENDBRANCH  10  12
ENDBRANCH   7  10
BRANCH   4  19
HETATM   19  N3  UNL     1     -60.533  12.211   6.718  1.00  0.00    -0.214 N 
HETATM   20  C3  UNL     1     -61.914  12.489   6.482  1.00  0.00     0.161 A 
HETATM   21  C4  UNL     1     -61.365  12.735   7.778  1.00  0.00     0.161 A 
ENDBRANCH   4  19
BRANCH   1  22
HETATM   22  N1  UNL     1     -56.567  12.759   4.233  1.00  0.00    -0.234 N 
ATOM     23  H12 UNL     1     -57.058  13.195   3.453  1.00  0.00     0.174 HD
ATOM     24  H11 UNL     1     -55.560  12.865   4.350  1.00  0.00     0.174 HD
ENDBRANCH   1  22
TORSDOF 6
ENDMDL
MODEL 4
REMARK VINA RESULT: -5.589783942      1.306      3.860
REMARK  6 active torsions:
REMARK  status: ('A' for Active; 'I' for Inactive)
REMARK    1  A    between atoms: N1_1  and  C1_4 
REMARK    2  A    between atoms: C2_7  and  N3_8 
REMARK    3  A    between atoms: C5_13  and  N5_14 
REMARK    4  A    between atoms: N5_14  and  N6_16 
REMARK    5  A    between atoms: N6_16  and  N7_17 
REMARK    6  A    between atoms: N6_16  and  N8_20 
ROOT
HETATM    1  C1  UNL     1     -57.714  11.481   5.487  1.00  0.00     0.705 A 
HETATM    2  N2  UNL     1     -58.901  12.087   5.666  1.00  0.00    -0.022 N 
ATOM      3  H2  UNL     1     -59.182  12.818   5.013  1.00  0.00     0.203 HD
HETATM    4  C2  UNL     1     -59.734  11.763   6.679  1.00  0.00     0.709 A 
HETATM    5  N4  UNL     1     -59.312  10.793   7.510  1.00  0.00    -0.020 N 
ATOM      6  H4  UNL     1     -59.907  10.513   8.289  1.00  0.00     0.203 HD
HETATM    7  C5  UNL     1     -58.130  10.183   7.340  1.00  0.00     0.728 A 
HETATM    8  N9  UNL     1     -57.294  10.515   6.315  1.00  0.00    -0.020 N 
ATOM      9  H9  UNL     1     -56.395  10.051   6.185  1.00  0.00     0.203 HD
ENDROOT
BRANCH   7  10
HETATM   10  N5  UNL     1     -57.755   9.257   8.155  1.00  0.00    -0.095 N 
ATOM     11  H5  UNL     1     -58.306   9.032   8.983  1.00  0.00     0.209 HD
BRANCH  10  12
HETATM   12  N6  UNL     1     -56.582   8.574   7.875  1.00  0.00    -0.130 N 
BRANCH  12  13
HETATM   13  N7  UNL     1     -55.393   9.242   7.699  1.00  0.00    -0.309 N 
ATOM     14  H72 UNL     1     -55.000   9.353   6.765  1.00  0.00     0.180 HD
ATOM     15  H71 UNL     1     -54.885   9.635   8.491  1.00  0.00     0.180 HD
ENDBRANCH  12  13
BRANCH  12  16
HETATM   16  N8  UNL     1     -56.629   7.190   7.774  1.00  0.00    -0.309 N 
ATOM     17  H82 UNL     1     -57.367   6.739   7.232  1.00  0.00     0.180 HD
ATOM     18  H81 UNL     1     -55.913   6.643   8.250  1.00  0.00     0.180 HD
ENDBRANCH  12  16
ENDBRANCH  10  12
ENDBRANCH   7  10
BRANCH   4  19
HETATM   19  N3  UNL     1     -60.985  12.414   6.853  1.00  0.00    -0.214 N 
HETATM   20  C3  UNL     1     -62.289  12.814   6.432  1.00  0.00     0.161 A 
HETATM   21  C4  UNL     1     -61.826  13.201   7.727  1.00  0.00     0.161 A 
ENDBRANCH   4  19
BRANCH   1  22
HETATM   22  N1  UNL     1     -56.944  11.820   4.503  1.00  0.00    -0.234 N 
ATOM     23  H12 UNL     1     -56.196  12.489   4.686  1.00  0.00     0.174 HD
ATOM     24  H11 UNL     1     -57.085  11.425   3.574  1.00  0.00     0.174 HD
ENDBRANCH   1  22
TORSDOF 6
ENDMDL
MODEL 5
REMARK VINA RESULT: -5.105884546      1.120      3.495
REMARK  6 active torsions:
REMARK  status: ('A' for Active; 'I' for Inactive)
REMARK    1  A    between atoms: N1_1  and  C1_4 
REMARK    2  A    between atoms: C2_7  and  N3_8 
REMARK    3  A    between atoms: C5_13  and  N5_14 
REMARK    4  A    between atoms: N5_14  and  N6_16 
REMARK    5  A    between atoms: N6_16  and  N7_17 
REMARK    6  A    between atoms: N6_16  and  N8_20 
ROOT
HETATM    1  C1  UNL     1     -59.340  11.590   6.590  1.00  0.00     0.705 A 
HETATM    2  N2  UNL     1     -58.662  10.602   7.199  1.00  0.00    -0.022 N 
ATOM      3  H2  UNL     1     -59.051  10.191   8.047  1.00  0.00     0.203 HD
HETATM    4  C2  UNL     1     -57.486  10.133   6.729  1.00  0.00     0.709 A 
HETATM    5  N4  UNL     1     -57.020  10.712   5.607  1.00  0.00    -0.020 N 
ATOM      6  H4  UNL     1     -56.136  10.391   5.214  1.00  0.00     0.203 HD
HETATM    7  C5  UNL     1     -57.687  11.698   4.993  1.00  0.00     0.728 A 
HETATM    8  N9  UNL     1     -58.876  12.166   5.473  1.00  0.00    -0.020 N 
ATOM      9  H9  UNL     1     -59.385  12.917   5.006  1.00  0.00     0.203 HD
ENDROOT
BRANCH   7  10
HETATM   10  N5  UNL     1     -57.213  12.232   3.919  1.00  0.00    -0.095 N 
ATOM     11  H5  UNL     1     -57.343  11.787   3.011  1.00  0.00     0.209 HD
BRANCH  10  12
HETATM   12  N6  UNL     1     -56.524  13.428   4.032  1.00  0.00    -0.130 N 
BRANCH  12  13
HETATM   13  N7  UNL     1     -56.219  13.963   5.262  1.00  0.00    -0.309 N 
ATOM     14  H72 UNL     1     -56.956  14.351   5.850  1.00  0.00     0.180 HD
ATOM     15  H71 UNL     1     -55.260  13.982   5.608  1.00  0.00     0.180 HD
ENDBRANCH  12  13
BRANCH  12  16
HETATM   16  N8  UNL     1     -56.142  14.085   2.870  1.00  0.00    -0.309 N 
ATOM     17  H82 UNL     1     -55.153  14.228   2.662  1.00  0.00     0.180 HD
ATOM     18  H81 UNL     1     -56.869  14.418   2.237  1.00  0.00     0.180 HD
ENDBRANCH  12  16
ENDBRANCH  10  12
ENDBRANCH   7  10
BRANCH   4  19
HETATM   19  N3  UNL     1     -56.784   9.087   7.386  1.00  0.00    -0.214 N 
HETATM   20  C3  UNL     1     -56.700   7.865   8.119  1.00  0.00     0.161 A 
HETATM   21  C4  UNL     1     -55.497   8.549   7.767  1.00  0.00     0.161 A 
ENDBRANCH   4  19
BRANCH   1  22
HETATM   22  N1  UNL     1     -60.465  12.011   7.072  1.00  0.00    -0.234 N 
ATOM     23  H12 UNL     1     -60.918  12.803   6.615  1.00  0.00     0.174 HD
ATOM     24  H11 UNL     1     -60.883  11.560   7.885  1.00  0.00     0.174 HD
ENDBRANCH   1  22
TORSDOF 6
ENDMDL
