MODEL 1
REMARK VINA RESULT: -6.011025885      0.000      0.000
REMARK  1 active torsions:
REMARK  status: ('A' for Active; 'I' for Inactive)
REMARK    1  A    between atoms: N1_1  and  C1_4 
ROOT
HETATM    1  C1  UNL     1     -57.091  12.062   5.072  1.00  0.00     0.694 A 
HETATM    2  N2  UNL     1     -58.346  12.293   5.542  1.00  0.00    -0.152 N 
ATOM      3  H2  UNL     1     -58.882  13.100   5.221  1.00  0.00     0.188 HD
HETATM    4  C2  UNL     1     -58.865  11.440   6.434  1.00  0.00     0.306 A 
HETATM    5  O1  UNL     1     -60.028  11.604   6.907  1.00  0.00    -0.263 OA
HETATM    6  C3  UNL     1     -58.091  10.368   6.825  1.00  0.00     0.205 A 
HETATM    7  N3  UNL     1     -58.538   9.464   7.717  1.00  0.00    -0.288 N 
ATOM      8  H3  UNL     1     -59.475   9.594   8.099  1.00  0.00     0.172 HD
HETATM    9  C4  UNL     1     -57.835   8.409   8.131  1.00  0.00     0.330 A 
HETATM   10  O2  UNL     1     -58.248   7.562   8.964  1.00  0.00    -0.246 OA
HETATM   11  N4  UNL     1     -56.599   8.225   7.636  1.00  0.00    -0.259 N 
ATOM     12  H4  UNL     1     -56.036   7.427   7.933  1.00  0.00     0.175 HD
HETATM   13  C5  UNL     1     -56.114   9.105   6.743  1.00  0.00     0.351 A 
HETATM   14  O3  UNL     1     -54.959   8.911   6.296  1.00  0.00    -0.244 OA
HETATM   15  N5  UNL     1     -56.852  10.177   6.333  1.00  0.00    -0.168 N 
HETATM   16  N6  UNL     1     -56.350  11.015   5.463  1.00  0.00    -0.120 N 
ATOM     17  H6  UNL     1     -55.412  10.874   5.088  1.00  0.00     0.206 HD
ENDROOT
BRANCH   1  18
HETATM   18  N1  UNL     1     -56.600  12.892   4.213  1.00  0.00    -0.233 N 
ATOM     19  H12 UNL     1     -57.236  13.421   3.616  1.00  0.00     0.174 HD
ATOM     20  H11 UNL     1     -55.585  12.987   4.163  1.00  0.00     0.174 HD
ENDBRANCH   1  18
TORSDOF 1
ENDMDL
MODEL 2
REMARK VINA RESULT: -5.828041227      1.448      4.802
REMARK  1 active torsions:
REMARK  status: ('A' for Active; 'I' for Inactive)
REMARK    1  A    between atoms: N1_1  and  C1_4 
ROOT
HETATM    1  C1  UNL     1     -57.787   8.422   8.071  1.00  0.00     0.694 A 
HETATM    2  N2  UNL     1     -56.536   8.251   7.567  1.00  0.00    -0.152 N 
ATOM      3  H2  UNL     1     -55.965   7.454   7.851  1.00  0.00     0.188 HD
HETATM    4  C2  UNL     1     -56.068   9.149   6.691  1.00  0.00     0.306 A 
HETATM    5  O1  UNL     1     -54.910   9.042   6.189  1.00  0.00    -0.263 OA
HETATM    6  C3  UNL     1     -56.890  10.202   6.348  1.00  0.00     0.205 A 
HETATM    7  N3  UNL     1     -56.495  11.148   5.475  1.00  0.00    -0.288 N 
ATOM      8  H3  UNL     1     -55.563  11.064   5.069  1.00  0.00     0.172 HD
HETATM    9  C4  UNL     1     -57.246  12.187   5.106  1.00  0.00     0.330 A 
HETATM   10  O2  UNL     1     -56.883  13.073   4.291  1.00  0.00    -0.246 OA
HETATM   11  N4  UNL     1     -58.477  12.311   5.633  1.00  0.00    -0.259 N 
ATOM     12  H4  UNL     1     -59.075  13.095   5.370  1.00  0.00     0.175 HD
HETATM   13  C5  UNL     1     -58.909  11.388   6.509  1.00  0.00     0.351 A 
HETATM   14  O3  UNL     1     -60.060  11.525   6.987  1.00  0.00    -0.244 OA
HETATM   15  N5  UNL     1     -58.123  10.333   6.872  1.00  0.00    -0.168 N 
HETATM   16  N6  UNL     1     -58.574   9.452   7.728  1.00  0.00    -0.120 N 
ATOM     17  H6  UNL     1     -59.508   9.548   8.127  1.00  0.00     0.206 HD
ENDROOT
BRANCH   1  18
HETATM   18  N1  UNL     1     -58.228   7.551   8.916  1.00  0.00    -0.233 N 
ATOM     19  H12 UNL     1     -59.117   7.724   9.387  1.00  0.00     0.174 HD
ATOM     20  H11 UNL     1     -57.668   6.715   9.082  1.00  0.00     0.174 HD
ENDBRANCH   1  18
TORSDOF 1
ENDMDL
MODEL 3
REMARK VINA RESULT: -5.798246590      1.535      3.718
REMARK  1 active torsions:
REMARK  status: ('A' for Active; 'I' for Inactive)
REMARK    1  A    between atoms: N1_1  and  C1_4 
ROOT
HETATM    1  C1  UNL     1     -55.540   8.997   6.542  1.00  0.00     0.694 A 
HETATM    2  N2  UNL     1     -56.233   8.348   7.516  1.00  0.00    -0.152 N 
ATOM      3  H2  UNL     1     -55.832   7.536   7.987  1.00  0.00     0.188 HD
HETATM    4  C2  UNL     1     -57.451   8.796   7.844  1.00  0.00     0.306 A 
HETATM    5  O1  UNL     1     -58.143   8.233   8.743  1.00  0.00    -0.263 OA
HETATM    6  C3  UNL     1     -57.934   9.899   7.171  1.00  0.00     0.205 A 
HETATM    7  N3  UNL     1     -59.149  10.412   7.441  1.00  0.00    -0.288 N 
ATOM      8  H3  UNL     1     -59.708   9.959   8.165  1.00  0.00     0.172 HD
HETATM    9  C4  UNL     1     -59.667  11.474   6.824  1.00  0.00     0.330 A 
HETATM   10  O2  UNL     1     -60.801  11.959   7.072  1.00  0.00    -0.246 OA
HETATM   11  N4  UNL     1     -58.941  12.081   5.868  1.00  0.00    -0.259 N 
ATOM     12  H4  UNL     1     -59.310  12.896   5.378  1.00  0.00     0.175 HD
HETATM   13  C5  UNL     1     -57.723  11.599   5.567  1.00  0.00     0.351 A 
HETATM   14  O3  UNL     1     -57.066  12.182   4.673  1.00  0.00    -0.244 OA
HETATM   15  N5  UNL     1     -57.213  10.510   6.213  1.00  0.00    -0.168 N 
HETATM   16  N6  UNL     1     -56.024  10.067   5.896  1.00  0.00    -0.120 N 
ATOM     17  H6  UNL     1     -55.474  10.528   5.171  1.00  0.00     0.206 HD
ENDROOT
BRANCH   1  18
HETATM   18  N1  UNL     1     -54.366   8.555   6.232  1.00  0.00    -0.233 N 
ATOM     19  H12 UNL     1     -53.556   9.157   6.382  1.00  0.00     0.174 HD
ATOM     20  H11 UNL     1     -54.293   7.614   5.846  1.00  0.00     0.174 HD
ENDBRANCH   1  18
TORSDOF 1
ENDMDL
MODEL 4
REMARK VINA RESULT: -5.705149333      1.505      3.033
REMARK  1 active torsions:
REMARK  status: ('A' for Active; 'I' for Inactive)
REMARK    1  A    between atoms: N1_1  and  C1_4 
ROOT
HETATM    1  C1  UNL     1     -59.596  11.502   6.790  1.00  0.00     0.694 A 
HETATM    2  N2  UNL     1     -58.882  12.119   5.811  1.00  0.00    -0.152 N 
ATOM      3  H2  UNL     1     -59.258  12.935   5.327  1.00  0.00     0.188 HD
HETATM    4  C2  UNL     1     -57.673  11.635   5.497  1.00  0.00     0.306 A 
HETATM    5  O1  UNL     1     -56.962  12.168   4.595  1.00  0.00    -0.263 OA
HETATM    6  C3  UNL     1     -57.221  10.532   6.190  1.00  0.00     0.205 A 
HETATM    7  N3  UNL     1     -56.018   9.985   5.935  1.00  0.00    -0.288 N 
ATOM      8  H3  UNL     1     -55.444  10.412   5.208  1.00  0.00     0.172 HD
HETATM    9  C4  UNL     1     -55.530   8.920   6.573  1.00  0.00     0.330 A 
HETATM   10  O2  UNL     1     -54.407   8.404   6.339  1.00  0.00    -0.246 OA
HETATM   11  N4  UNL     1     -56.277   8.346   7.533  1.00  0.00    -0.259 N 
ATOM     12  H4  UNL     1     -55.930   7.530   8.038  1.00  0.00     0.175 HD
HETATM   13  C5  UNL     1     -57.484   8.862   7.818  1.00  0.00     0.351 A 
HETATM   14  O3  UNL     1     -58.161   8.309   8.717  1.00  0.00    -0.244 OA
HETATM   15  N5  UNL     1     -57.964   9.952   7.152  1.00  0.00    -0.168 N 
HETATM   16  N6  UNL     1     -59.144  10.430   7.454  1.00  0.00    -0.120 N 
ATOM     17  H6  UNL     1     -59.709   9.993   8.183  1.00  0.00     0.206 HD
ENDROOT
BRANCH   1  18
HETATM   18  N1  UNL     1     -60.761  11.976   7.084  1.00  0.00    -0.233 N 
ATOM     19  H12 UNL     1     -61.422  11.386   7.591  1.00  0.00     0.174 HD
ATOM     20  H11 UNL     1     -60.979  12.931   6.797  1.00  0.00     0.174 HD
ENDBRANCH   1  18
TORSDOF 1
ENDMDL
MODEL 5
REMARK VINA RESULT: -5.057359840      5.328      8.105
REMARK  1 active torsions:
REMARK  status: ('A' for Active; 'I' for Inactive)
REMARK    1  A    between atoms: N1_1  and  C1_4 
ROOT
HETATM    1  C1  UNL     1     -62.859  11.678   6.458  1.00  0.00     0.694 A 
HETATM    2  N2  UNL     1     -61.558  12.047   6.314  1.00  0.00    -0.152 N 
ATOM      3  H2  UNL     1     -60.822  11.343   6.245  1.00  0.00     0.188 HD
HETATM    4  C2  UNL     1     -61.263  13.352   6.264  1.00  0.00     0.306 A 
HETATM    5  O1  UNL     1     -60.070  13.755   6.132  1.00  0.00    -0.263 OA
HETATM    6  C3  UNL     1     -62.304  14.251   6.361  1.00  0.00     0.205 A 
HETATM    7  N3  UNL     1     -62.092  15.580   6.320  1.00  0.00    -0.288 N 
ATOM      8  H3  UNL     1     -61.132  15.907   6.213  1.00  0.00     0.172 HD
HETATM    9  C4  UNL     1     -63.058  16.495   6.408  1.00  0.00     0.330 A 
HETATM   10  O2  UNL     1     -62.866  17.738   6.370  1.00  0.00    -0.246 OA
HETATM   11  N4  UNL     1     -64.329  16.079   6.549  1.00  0.00    -0.259 N 
ATOM     12  H4  UNL     1     -65.090  16.755   6.619  1.00  0.00     0.175 HD
HETATM   13  C5  UNL     1     -64.583  14.760   6.596  1.00  0.00     0.351 A 
HETATM   14  O3  UNL     1     -65.776  14.396   6.728  1.00  0.00    -0.244 OA
HETATM   15  N5  UNL     1     -63.578  13.841   6.503  1.00  0.00    -0.168 N 
HETATM   16  N6  UNL     1     -63.860  12.565   6.551  1.00  0.00    -0.120 N 
ATOM     17  H6  UNL     1     -64.825  12.250   6.659  1.00  0.00     0.206 HD
ENDROOT
BRANCH   1  18
HETATM   18  N1  UNL     1     -63.133  10.416   6.506  1.00  0.00    -0.233 N 
ATOM     19  H12 UNL     1     -62.870   9.884   7.336  1.00  0.00     0.174 HD
ATOM     20  H11 UNL     1     -63.606   9.996   5.706  1.00  0.00     0.174 HD
ENDBRANCH   1  18
TORSDOF 1
ENDMDL
