MODEL 1
REMARK VINA RESULT: -3.824757214      0.000      0.000
REMARK  3 active torsions:
REMARK  status: ('A' for Active; 'I' for Inactive)
REMARK    1  A    between atoms: N1_1  and  C1_4 
REMARK    2  A    between atoms: C2_7  and  N3_8 
REMARK    3  A    between atoms: N4_11  and  N5_12 
ROOT
HETATM    1  C1  UNL     1     -64.853  16.608   6.413  1.00  0.00     0.694 A 
HETATM    2  N2  UNL     1     -65.111  15.778   7.422  1.00  0.00    -0.021 N 
ATOM      3  H2  UNL     1     -65.892  15.976   8.048  1.00  0.00     0.203 HD
HETATM    4  C2  UNL     1     -64.345  14.666   7.631  1.00  0.00     0.716 A 
HETATM    5  N4  UNL     1     -63.309  14.361   6.840  1.00  0.00    -0.031 N 
HETATM    6  C6  UNL     1     -63.061  15.201   5.830  1.00  0.00     0.374 A 
HETATM    7  O1  UNL     1     -62.135  15.039   5.026  1.00  0.00    -0.244 OA
HETATM    8  N7  UNL     1     -63.822  16.324   5.605  1.00  0.00    -0.139 N 
ATOM      9  H7  UNL     1     -63.601  16.941   4.823  1.00  0.00     0.189 HD
ENDROOT
BRANCH   5  10
HETATM   10  N5  UNL     1     -62.487  13.247   7.057  1.00  0.00    -0.276 N 
HETATM   11  C3  UNL     1     -61.545  13.119   8.185  1.00  0.00     0.173 C 
HETATM   12  C4  UNL     1     -60.536  12.116   7.661  1.00  0.00     0.255 C 
HETATM   13  N6  UNL     1     -60.896  11.926   6.247  1.00  0.00    -0.056 N 
HETATM   14  C5  UNL     1     -62.348  12.002   6.367  1.00  0.00     0.375 C 
ATOM     15  H62 UNL     1     -60.464  12.568   5.582  1.00  0.00     0.279 HD
ATOM     16  H61 UNL     1     -60.524  11.090   5.796  1.00  0.00     0.279 HD
ENDBRANCH   5  10
BRANCH   4  17
HETATM   17  N3  UNL     1     -64.679  13.909   8.617  1.00  0.00    -0.232 N 
ATOM     18  H32 UNL     1     -65.438  14.165   9.248  1.00  0.00     0.174 HD
ATOM     19  H31 UNL     1     -64.138  13.054   8.743  1.00  0.00     0.174 HD
ENDBRANCH   4  17
BRANCH   1  20
HETATM   20  N1  UNL     1     -65.571  17.677   6.192  1.00  0.00    -0.234 N 
ATOM     21  H12 UNL     1     -66.074  18.115   6.964  1.00  0.00     0.174 HD
ATOM     22  H11 UNL     1     -65.648  18.097   5.266  1.00  0.00     0.174 HD
ENDBRANCH   1  20
TORSDOF 3
ENDMDL
MODEL 2
REMARK VINA RESULT: -3.445672198      6.460      8.084
REMARK  3 active torsions:
REMARK  status: ('A' for Active; 'I' for Inactive)
REMARK    1  A    between atoms: N1_1  and  C1_4 
REMARK    2  A    between atoms: C2_7  and  N3_8 
REMARK    3  A    between atoms: N4_11  and  N5_12 
ROOT
HETATM    1  C1  UNL     1     -57.909   8.781   7.976  1.00  0.00     0.694 A 
HETATM    2  N2  UNL     1     -56.850   8.844   7.171  1.00  0.00    -0.021 N 
ATOM      3  H2  UNL     1     -56.125   8.129   7.238  1.00  0.00     0.203 HD
HETATM    4  C2  UNL     1     -56.722   9.851   6.257  1.00  0.00     0.716 A 
HETATM    5  N4  UNL     1     -57.644  10.813   6.127  1.00  0.00    -0.031 N 
HETATM    6  C6  UNL     1     -58.702  10.738   6.941  1.00  0.00     0.374 A 
HETATM    7  O1  UNL     1     -59.625  11.561   6.928  1.00  0.00    -0.244 OA
HETATM    8  N7  UNL     1     -58.848   9.732   7.866  1.00  0.00    -0.139 N 
ATOM      9  H7  UNL     1     -59.671   9.708   8.470  1.00  0.00     0.189 HD
ENDROOT
BRANCH   5  10
HETATM   10  N5  UNL     1     -57.516  11.875   5.223  1.00  0.00    -0.276 N 
HETATM   11  C3  UNL     1     -58.183  11.931   3.909  1.00  0.00     0.173 C 
HETATM   12  C4  UNL     1     -57.301  12.885   3.129  1.00  0.00     0.255 C 
HETATM   13  N6  UNL     1     -56.140  13.120   4.002  1.00  0.00    -0.056 N 
HETATM   14  C5  UNL     1     -56.820  13.123   5.293  1.00  0.00     0.375 C 
ATOM     15  H62 UNL     1     -55.362  12.467   3.903  1.00  0.00     0.279 HD
ATOM     16  H61 UNL     1     -55.574  13.942   3.788  1.00  0.00     0.279 HD
ENDBRANCH   5  10
BRANCH   4  17
HETATM   17  N3  UNL     1     -55.677   9.821   5.504  1.00  0.00    -0.232 N 
ATOM     18  H32 UNL     1     -55.274   8.938   5.194  1.00  0.00     0.174 HD
ATOM     19  H31 UNL     1     -55.267  10.720   5.253  1.00  0.00     0.174 HD
ENDBRANCH   4  17
BRANCH   1  20
HETATM   20  N1  UNL     1     -58.055   7.828   8.858  1.00  0.00    -0.234 N 
ATOM     21  H12 UNL     1     -58.936   7.317   8.909  1.00  0.00     0.174 HD
ATOM     22  H11 UNL     1     -57.311   7.573   9.508  1.00  0.00     0.174 HD
ENDBRANCH   1  20
TORSDOF 3
ENDMDL
MODEL 3
REMARK VINA RESULT: -3.179751305      2.777      6.129
REMARK  3 active torsions:
REMARK  status: ('A' for Active; 'I' for Inactive)
REMARK    1  A    between atoms: N1_1  and  C1_4 
REMARK    2  A    between atoms: C2_7  and  N3_8 
REMARK    3  A    between atoms: N4_11  and  N5_12 
ROOT
HETATM    1  C1  UNL     1     -57.414  10.586   6.061  1.00  0.00     0.694 A 
HETATM    2  N2  UNL     1     -58.081  10.688   7.210  1.00  0.00    -0.021 N 
ATOM      3  H2  UNL     1     -57.696  10.261   8.054  1.00  0.00     0.203 HD
HETATM    4  C2  UNL     1     -59.272  11.355   7.275  1.00  0.00     0.716 A 
HETATM    5  N4  UNL     1     -59.821  11.932   6.199  1.00  0.00    -0.031 N 
HETATM    6  C6  UNL     1     -59.142  11.823   5.053  1.00  0.00     0.374 A 
HETATM    7  O1  UNL     1     -59.535  12.308   3.984  1.00  0.00    -0.244 OA
HETATM    8  N7  UNL     1     -57.942  11.157   4.969  1.00  0.00    -0.139 N 
ATOM      9  H7  UNL     1     -57.454  11.096   4.075  1.00  0.00     0.189 HD
ENDROOT
BRANCH   5  10
HETATM   10  N5  UNL     1     -61.057  12.588   6.234  1.00  0.00    -0.276 N 
HETATM   11  C3  UNL     1     -61.217  14.053   6.302  1.00  0.00     0.173 C 
HETATM   12  C4  UNL     1     -62.599  14.209   6.906  1.00  0.00     0.255 C 
HETATM   13  N6  UNL     1     -62.996  12.844   7.287  1.00  0.00    -0.056 N 
HETATM   14  C5  UNL     1     -62.405  12.112   6.173  1.00  0.00     0.375 C 
ATOM     15  H62 UNL     1     -62.724  12.540   8.222  1.00  0.00     0.279 HD
ATOM     16  H61 UNL     1     -63.992  12.693   7.448  1.00  0.00     0.279 HD
ENDBRANCH   5  10
BRANCH   4  17
HETATM   17  N3  UNL     1     -59.836  11.422   8.431  1.00  0.00    -0.232 N 
ATOM     18  H32 UNL     1     -60.714  10.940   8.620  1.00  0.00     0.174 HD
ATOM     19  H31 UNL     1     -59.371  11.994   9.135  1.00  0.00     0.174 HD
ENDBRANCH   4  17
BRANCH   1  20
HETATM   20  N1  UNL     1     -56.275   9.954   5.973  1.00  0.00    -0.234 N 
ATOM     21  H12 UNL     1     -55.930   9.422   6.772  1.00  0.00     0.174 HD
ATOM     22  H11 UNL     1     -55.709   9.972   5.125  1.00  0.00     0.174 HD
ENDBRANCH   1  20
TORSDOF 3
ENDMDL
MODEL 4
REMARK VINA RESULT: -3.167307224      3.757      7.062
REMARK  3 active torsions:
REMARK  status: ('A' for Active; 'I' for Inactive)
REMARK    1  A    between atoms: N1_1  and  C1_4 
REMARK    2  A    between atoms: C2_7  and  N3_8 
REMARK    3  A    between atoms: N4_11  and  N5_12 
ROOT
HETATM    1  C1  UNL     1     -56.171  10.070   6.193  1.00  0.00     0.694 A 
HETATM    2  N2  UNL     1     -57.041   9.674   7.121  1.00  0.00    -0.021 N 
ATOM      3  H2  UNL     1     -56.810   8.881   7.721  1.00  0.00     0.203 HD
HETATM    4  C2  UNL     1     -58.239  10.313   7.280  1.00  0.00     0.716 A 
HETATM    5  N4  UNL     1     -58.591  11.357   6.520  1.00  0.00    -0.031 N 
HETATM    6  C6  UNL     1     -57.708  11.745   5.593  1.00  0.00     0.374 A 
HETATM    7  O1  UNL     1     -57.907  12.693   4.823  1.00  0.00    -0.244 OA
HETATM    8  N7  UNL     1     -56.499  11.114   5.419  1.00  0.00    -0.139 N 
ATOM      9  H7  UNL     1     -55.852  11.440   4.701  1.00  0.00     0.189 HD
ENDROOT
BRANCH   5  10
HETATM   10  N5  UNL     1     -59.827  12.005   6.640  1.00  0.00    -0.276 N 
HETATM   11  C3  UNL     1     -60.547  12.187   7.914  1.00  0.00     0.173 C 
HETATM   12  C4  UNL     1     -61.984  12.357   7.462  1.00  0.00     0.255 C 
HETATM   13  N6  UNL     1     -61.959  12.070   6.019  1.00  0.00    -0.056 N 
HETATM   14  C5  UNL     1     -60.667  12.664   5.689  1.00  0.00     0.375 C 
ATOM     15  H62 UNL     1     -62.088  11.094   5.751  1.00  0.00     0.279 HD
ATOM     16  H61 UNL     1     -62.759  12.401   5.479  1.00  0.00     0.279 HD
ENDBRANCH   5  10
BRANCH   4  17
HETATM   17  N3  UNL     1     -59.009   9.877   8.215  1.00  0.00    -0.232 N 
ATOM     18  H32 UNL     1     -58.692   9.165   8.873  1.00  0.00     0.174 HD
ATOM     19  H31 UNL     1     -59.951  10.266   8.252  1.00  0.00     0.174 HD
ENDBRANCH   4  17
BRANCH   1  20
HETATM   20  N1  UNL     1     -55.021   9.475   6.022  1.00  0.00    -0.234 N 
ATOM     21  H12 UNL     1     -54.228   9.729   6.611  1.00  0.00     0.174 HD
ATOM     22  H11 UNL     1     -54.884   8.756   5.312  1.00  0.00     0.174 HD
ENDBRANCH   1  20
TORSDOF 3
ENDMDL
MODEL 5
REMARK VINA RESULT: -3.027108438      4.014      7.448
REMARK  3 active torsions:
REMARK  status: ('A' for Active; 'I' for Inactive)
REMARK    1  A    between atoms: N1_1  and  C1_4 
REMARK    2  A    between atoms: C2_7  and  N3_8 
REMARK    3  A    between atoms: N4_11  and  N5_12 
ROOT
HETATM    1  C1  UNL     1     -56.079   9.939   6.215  1.00  0.00     0.694 A 
HETATM    2  N2  UNL     1     -56.367  10.983   5.439  1.00  0.00    -0.021 N 
ATOM      3  H2  UNL     1     -55.686  11.298   4.747  1.00  0.00     0.203 HD
HETATM    4  C2  UNL     1     -57.561  11.638   5.555  1.00  0.00     0.716 A 
HETATM    5  N4  UNL     1     -58.489  11.266   6.446  1.00  0.00    -0.031 N 
HETATM    6  C6  UNL     1     -58.188  10.217   7.218  1.00  0.00     0.374 A 
HETATM    7  O1  UNL     1     -58.954   9.771   8.081  1.00  0.00    -0.244 OA
HETATM    8  N7  UNL     1     -56.993   9.546   7.114  1.00  0.00    -0.139 N 
ATOM      9  H7  UNL     1     -56.800   8.749   7.722  1.00  0.00     0.189 HD
ENDROOT
BRANCH   5  10
HETATM   10  N5  UNL     1     -59.703  11.944   6.608  1.00  0.00    -0.276 N 
HETATM   11  C3  UNL     1     -60.423  12.061   7.891  1.00  0.00     0.173 C 
HETATM   12  C4  UNL     1     -61.851  12.311   7.448  1.00  0.00     0.255 C 
HETATM   13  N6  UNL     1     -61.829  12.125   5.988  1.00  0.00    -0.056 N 
HETATM   14  C5  UNL     1     -60.517  12.696   5.704  1.00  0.00     0.375 C 
ATOM     15  H62 UNL     1     -61.989  11.175   5.653  1.00  0.00     0.279 HD
ATOM     16  H61 UNL     1     -62.615  12.519   5.471  1.00  0.00     0.279 HD
ENDBRANCH   5  10
BRANCH   4  17
HETATM   17  N3  UNL     1     -57.763  12.621   4.750  1.00  0.00    -0.232 N 
ATOM     18  H32 UNL     1     -57.461  13.567   4.982  1.00  0.00     0.174 HD
ATOM     19  H31 UNL     1     -58.254  12.410   3.882  1.00  0.00     0.174 HD
ENDBRANCH   4  17
BRANCH   1  20
HETATM   20  N1  UNL     1     -54.946   9.297   6.123  1.00  0.00    -0.234 N 
ATOM     21  H12 UNL     1     -54.073   9.782   6.333  1.00  0.00     0.174 HD
ATOM     22  H11 UNL     1     -54.899   8.317   5.845  1.00  0.00     0.174 HD
ENDBRANCH   1  20
TORSDOF 3
ENDMDL
