MODEL 1
REMARK VINA RESULT: -5.765764227      0.000      0.000
REMARK  4 active torsions:
REMARK  status: ('A' for Active; 'I' for Inactive)
REMARK    1  A    between atoms: N1_1  and  C1_4 
REMARK    2  A    between atoms: C2_7  and  N3_8 
REMARK    3  A    between atoms: N3_8  and  N4_10 
REMARK    4  A    between atoms: S1_15  and  C3_16 
ROOT
HETATM    1  C1  UNL     1     -58.093  11.743   5.437  1.00  0.00     0.170 A 
HETATM    2  N2  UNL     1     -59.251  12.407   5.436  1.00  0.00    -0.168 N 
ATOM      3  H2  UNL     1     -59.468  13.075   4.696  1.00  0.00     0.186 HD
HETATM    4  C2  UNL     1     -60.097  12.181   6.401  1.00  0.00     0.704 A 
HETATM    5  N5  UNL     1     -59.753  11.295   7.340  1.00  0.00    -0.159 N 
ATOM      6  H5  UNL     1     -60.285  10.999   8.158  1.00  0.00     0.192 HD
HETATM    7  S1  UNL     1     -58.224  10.785   6.845  1.00  0.00     0.030 SA
ENDROOT
BRANCH   7   8
HETATM    8  C3  UNL     1     -57.236   9.366   7.307  1.00  0.00     0.193 A 
HETATM    9  N6  UNL     1     -55.894   9.249   7.307  1.00  0.00    -0.262 N 
HETATM   10  N7  UNL     1     -55.588   8.033   7.719  1.00  0.00    -0.226 N 
ATOM     11  H6  UNL     1     -55.229   9.974   7.036  1.00  0.00     0.190 HD
HETATM   12  N8  UNL     1     -56.707   7.375   7.981  1.00  0.00    -0.226 N 
ATOM     13  H7  UNL     1     -54.644   7.660   7.819  1.00  0.00     0.210 HD
HETATM   14  N9  UNL     1     -57.709   8.171   7.735  1.00  0.00    -0.262 N 
ATOM     15  H8  UNL     1     -56.772   6.414   8.316  1.00  0.00     0.210 HD
ATOM     16  H9  UNL     1     -58.695   7.932   7.848  1.00  0.00     0.190 HD
ENDBRANCH   7   8
BRANCH   1  17
HETATM   17  N1  UNL     1     -57.104  11.788   4.604  1.00  0.00    -0.378 N 
ATOM     18  H12 UNL     1     -57.035  12.345   3.752  1.00  0.00     0.158 HD
ATOM     19  H11 UNL     1     -56.210  11.296   4.615  1.00  0.00     0.158 HD
ENDBRANCH   1  17
BRANCH   4  20
HETATM   20  N3  UNL     1     -61.274  12.784   6.495  1.00  0.00    -0.138 N 
ATOM     21  H3  UNL     1     -61.344  13.771   6.248  1.00  0.00     0.205 HD
BRANCH  20  22
HETATM   22  N4  UNL     1     -62.407  12.120   6.917  1.00  0.00    -0.331 N 
ATOM     23  H42 UNL     1     -62.344  11.113   7.066  1.00  0.00     0.177 HD
ATOM     24  H41 UNL     1     -63.291  12.604   7.081  1.00  0.00     0.177 HD
ENDBRANCH  20  22
ENDBRANCH   4  20
TORSDOF 4
ENDMDL
MODEL 2
REMARK VINA RESULT: -5.692891826      2.400      5.025
REMARK  4 active torsions:
REMARK  status: ('A' for Active; 'I' for Inactive)
REMARK    1  A    between atoms: N1_1  and  C1_4 
REMARK    2  A    between atoms: C2_7  and  N3_8 
REMARK    3  A    between atoms: N3_8  and  N4_10 
REMARK    4  A    between atoms: S1_15  and  C3_16 
ROOT
HETATM    1  C1  UNL     1     -55.786   9.307   6.644  1.00  0.00     0.170 A 
HETATM    2  N2  UNL     1     -56.370   8.646   7.645  1.00  0.00    -0.168 N 
ATOM      3  H2  UNL     1     -55.838   7.991   8.218  1.00  0.00     0.186 HD
HETATM    4  C2  UNL     1     -57.635   8.858   7.874  1.00  0.00     0.704 A 
HETATM    5  N5  UNL     1     -58.276   9.728   7.087  1.00  0.00    -0.159 N 
ATOM      6  H5  UNL     1     -59.255  10.012   7.121  1.00  0.00     0.192 HD
HETATM    7  S1  UNL     1     -57.074  10.242   6.023  1.00  0.00     0.030 SA
ENDROOT
BRANCH   7   8
HETATM    8  C3  UNL     1     -56.981  11.651   4.923  1.00  0.00     0.193 A 
HETATM    9  N6  UNL     1     -57.614  11.834   3.748  1.00  0.00    -0.262 N 
HETATM   10  N7  UNL     1     -57.260  13.013   3.271  1.00  0.00    -0.226 N 
ATOM     11  H6  UNL     1     -58.254  11.176   3.303  1.00  0.00     0.190 HD
HETATM   12  N8  UNL     1     -56.418  13.583   4.119  1.00  0.00    -0.226 N 
ATOM     13  H7  UNL     1     -57.583  13.419   2.393  1.00  0.00     0.210 HD
HETATM   14  N9  UNL     1     -56.242  12.769   5.121  1.00  0.00    -0.262 N 
ATOM     15  H8  UNL     1     -55.983  14.498   4.006  1.00  0.00     0.210 HD
ATOM     16  H9  UNL     1     -55.642  12.945   5.927  1.00  0.00     0.190 HD
ENDBRANCH   7   8
BRANCH   1  17
HETATM   17  N1  UNL     1     -54.562   9.273   6.222  1.00  0.00    -0.378 N 
ATOM     18  H12 UNL     1     -53.777   8.771   6.636  1.00  0.00     0.158 HD
ATOM     19  H11 UNL     1     -54.131   9.725   5.415  1.00  0.00     0.158 HD
ENDBRANCH   1  17
BRANCH   4  20
HETATM   20  N3  UNL     1     -58.312   8.257   8.841  1.00  0.00    -0.138 N 
ATOM     21  H3  UNL     1     -58.774   8.828   9.549  1.00  0.00     0.205 HD
BRANCH  20  22
HETATM   22  N4  UNL     1     -58.413   6.883   8.924  1.00  0.00    -0.331 N 
ATOM     23  H42 UNL     1     -57.553   6.337   8.866  1.00  0.00     0.177 HD
ATOM     24  H41 UNL     1     -59.310   6.410   9.040  1.00  0.00     0.177 HD
ENDBRANCH  20  22
ENDBRANCH   4  20
TORSDOF 4
ENDMDL
MODEL 3
REMARK VINA RESULT: -5.590971832      1.664      5.156
REMARK  4 active torsions:
REMARK  status: ('A' for Active; 'I' for Inactive)
REMARK    1  A    between atoms: N1_1  and  C1_4 
REMARK    2  A    between atoms: C2_7  and  N3_8 
REMARK    3  A    between atoms: N3_8  and  N4_10 
REMARK    4  A    between atoms: S1_15  and  C3_16 
ROOT
HETATM    1  C1  UNL     1     -58.828  11.176   6.684  1.00  0.00     0.170 A 
HETATM    2  N2  UNL     1     -58.669   9.998   7.290  1.00  0.00    -0.168 N 
ATOM      3  H2  UNL     1     -59.417   9.598   7.857  1.00  0.00     0.186 HD
HETATM    4  C2  UNL     1     -57.538   9.370   7.139  1.00  0.00     0.704 A 
HETATM    5  N5  UNL     1     -56.598   9.947   6.383  1.00  0.00    -0.159 N 
ATOM      6  H5  UNL     1     -55.664   9.603   6.160  1.00  0.00     0.192 HD
HETATM    7  S1  UNL     1     -57.330  11.384   5.890  1.00  0.00     0.030 SA
ENDROOT
BRANCH   7   8
HETATM    8  C3  UNL     1     -56.928  12.535   4.580  1.00  0.00     0.193 A 
HETATM    9  N6  UNL     1     -57.345  12.519   3.299  1.00  0.00    -0.262 N 
HETATM   10  N7  UNL     1     -56.807  13.554   2.681  1.00  0.00    -0.226 N 
ATOM     11  H6  UNL     1     -57.968  11.828   2.881  1.00  0.00     0.190 HD
HETATM   12  N8  UNL     1     -56.059  14.226   3.541  1.00  0.00    -0.226 N 
ATOM     13  H7  UNL     1     -56.946  13.796   1.699  1.00  0.00     0.210 HD
HETATM   14  N9  UNL     1     -56.124  13.620   4.692  1.00  0.00    -0.262 N 
ATOM     15  H8  UNL     1     -55.524  15.070   3.337  1.00  0.00     0.210 HD
ATOM     16  H9  UNL     1     -55.645  13.915   5.543  1.00  0.00     0.190 HD
ENDBRANCH   7   8
BRANCH   1  17
HETATM   17  N1  UNL     1     -59.841  11.982   6.678  1.00  0.00    -0.378 N 
ATOM     18  H12 UNL     1     -60.156  12.589   7.435  1.00  0.00     0.158 HD
ATOM     19  H11 UNL     1     -60.522  12.179   5.943  1.00  0.00     0.158 HD
ENDBRANCH   1  17
BRANCH   4  20
HETATM   20  N3  UNL     1     -57.275   8.196   7.694  1.00  0.00    -0.138 N 
ATOM     21  H3  UNL     1     -56.339   7.803   7.597  1.00  0.00     0.205 HD
BRANCH  20  22
HETATM   22  N4  UNL     1     -58.226   7.487   8.399  1.00  0.00    -0.331 N 
ATOM     23  H42 UNL     1     -58.854   6.878   7.873  1.00  0.00     0.177 HD
ATOM     24  H41 UNL     1     -58.314   7.555   9.413  1.00  0.00     0.177 HD
ENDBRANCH  20  22
ENDBRANCH   4  20
TORSDOF 4
ENDMDL
MODEL 4
REMARK VINA RESULT: -5.573688547      1.354      5.311
REMARK  4 active torsions:
REMARK  status: ('A' for Active; 'I' for Inactive)
REMARK    1  A    between atoms: N1_1  and  C1_4 
REMARK    2  A    between atoms: C2_7  and  N3_8 
REMARK    3  A    between atoms: N3_8  and  N4_10 
REMARK    4  A    between atoms: S1_15  and  C3_16 
ROOT
HETATM    1  C1  UNL     1     -57.741  11.639   5.230  1.00  0.00     0.170 A 
HETATM    2  N2  UNL     1     -56.765  10.816   5.620  1.00  0.00    -0.168 N 
ATOM      3  H2  UNL     1     -55.888  10.765   5.101  1.00  0.00     0.186 HD
HETATM    4  C2  UNL     1     -56.959  10.080   6.678  1.00  0.00     0.704 A 
HETATM    5  N5  UNL     1     -58.130  10.193   7.312  1.00  0.00    -0.159 N 
ATOM      6  H5  UNL     1     -58.449   9.700   8.146  1.00  0.00     0.192 HD
HETATM    7  S1  UNL     1     -58.952  11.348   6.399  1.00  0.00     0.030 SA
ENDROOT
BRANCH   7   8
HETATM    8  C3  UNL     1     -60.396  12.342   6.760  1.00  0.00     0.193 A 
HETATM    9  N6  UNL     1     -61.050  13.189   5.942  1.00  0.00    -0.262 N 
HETATM   10  N7  UNL     1     -62.058  13.712   6.615  1.00  0.00    -0.226 N 
ATOM     11  H6  UNL     1     -60.809  13.391   4.972  1.00  0.00     0.190 HD
HETATM   12  N8  UNL     1     -62.058  13.215   7.842  1.00  0.00    -0.226 N 
ATOM     13  H7  UNL     1     -62.728  14.389   6.249  1.00  0.00     0.210 HD
HETATM   14  N9  UNL     1     -61.058  12.386   7.942  1.00  0.00    -0.262 N 
ATOM     15  H8  UNL     1     -62.724  13.442   8.580  1.00  0.00     0.210 HD
ATOM     16  H9  UNL     1     -60.812  11.854   8.776  1.00  0.00     0.190 HD
ENDBRANCH   7   8
BRANCH   1  17
HETATM   17  N1  UNL     1     -57.792  12.459   4.230  1.00  0.00    -0.378 N 
ATOM     18  H12 UNL     1     -57.239  12.429   3.374  1.00  0.00     0.158 HD
ATOM     19  H11 UNL     1     -58.374  13.285   4.085  1.00  0.00     0.158 HD
ENDBRANCH   1  17
BRANCH   4  20
HETATM   20  N3  UNL     1     -56.058   9.231   7.151  1.00  0.00    -0.138 N 
ATOM     21  H3  UNL     1     -56.275   8.701   7.994  1.00  0.00     0.205 HD
BRANCH  20  22
HETATM   22  N4  UNL     1     -54.835   9.042   6.541  1.00  0.00    -0.331 N 
ATOM     23  H42 UNL     1     -54.803   9.054   5.521  1.00  0.00     0.177 HD
ATOM     24  H41 UNL     1     -53.978   8.892   7.076  1.00  0.00     0.177 HD
ENDBRANCH  20  22
ENDBRANCH   4  20
TORSDOF 4
ENDMDL
MODEL 5
REMARK VINA RESULT: -5.484375922      0.473      1.114
REMARK  4 active torsions:
REMARK  status: ('A' for Active; 'I' for Inactive)
REMARK    1  A    between atoms: N1_1  and  C1_4 
REMARK    2  A    between atoms: C2_7  and  N3_8 
REMARK    3  A    between atoms: N3_8  and  N4_10 
REMARK    4  A    between atoms: S1_15  and  C3_16 
ROOT
HETATM    1  C1  UNL     1     -57.861  11.678   5.570  1.00  0.00     0.170 A 
HETATM    2  N2  UNL     1     -59.022  12.335   5.538  1.00  0.00    -0.168 N 
ATOM      3  H2  UNL     1     -59.203  13.039   4.822  1.00  0.00     0.186 HD
HETATM    4  C2  UNL     1     -59.919  12.056   6.441  1.00  0.00     0.704 A 
HETATM    5  N5  UNL     1     -59.621  11.124   7.352  1.00  0.00    -0.159 N 
ATOM      6  H5  UNL     1     -60.196  10.784   8.122  1.00  0.00     0.192 HD
HETATM    7  S1  UNL     1     -58.063  10.647   6.918  1.00  0.00     0.030 SA
ENDROOT
BRANCH   7   8
HETATM    8  C3  UNL     1     -57.092   9.211   7.361  1.00  0.00     0.193 A 
HETATM    9  N6  UNL     1     -57.527   7.977   7.681  1.00  0.00    -0.262 N 
HETATM   10  N7  UNL     1     -56.473   7.225   7.939  1.00  0.00    -0.226 N 
ATOM     11  H6  UNL     1     -58.501   7.676   7.718  1.00  0.00     0.190 HD
HETATM   12  N8  UNL     1     -55.379   7.955   7.790  1.00  0.00    -0.226 N 
ATOM     13  H7  UNL     1     -56.498   6.242   8.210  1.00  0.00     0.210 HD
HETATM   14  N9  UNL     1     -55.740   9.157   7.440  1.00  0.00    -0.262 N 
ATOM     15  H8  UNL     1     -54.421   7.632   7.925  1.00  0.00     0.210 HD
ATOM     16  H9  UNL     1     -55.107   9.934   7.256  1.00  0.00     0.190 HD
ENDBRANCH   7   8
BRANCH   1  17
HETATM   17  N1  UNL     1     -56.827  11.770   4.797  1.00  0.00    -0.378 N 
ATOM     18  H12 UNL     1     -55.993  11.183   4.804  1.00  0.00     0.158 HD
ATOM     19  H11 UNL     1     -56.626  12.425   4.041  1.00  0.00     0.158 HD
ENDBRANCH   1  17
BRANCH   4  20
HETATM   20  N3  UNL     1     -61.104  12.648   6.500  1.00  0.00    -0.138 N 
ATOM     21  H3  UNL     1     -61.709  12.623   5.679  1.00  0.00     0.205 HD
BRANCH  20  22
HETATM   22  N4  UNL     1     -61.545  13.297   7.634  1.00  0.00    -0.331 N 
ATOM     23  H42 UNL     1     -60.851  13.557   8.336  1.00  0.00     0.177 HD
ATOM     24  H41 UNL     1     -62.530  13.518   7.786  1.00  0.00     0.177 HD
ENDBRANCH  20  22
ENDBRANCH   4  20
TORSDOF 4
ENDMDL
