MODEL 1
REMARK VINA RESULT: -7.471131198      0.000      0.000
REMARK  4 active torsions:
REMARK  status: ('A' for Active; 'I' for Inactive)
REMARK       I    between atoms: C1_2  and  N1_3 
REMARK    1  A    between atoms: C1_2  and  C8_17 
REMARK    2  A    between atoms: N1_3  and  C2_5 
REMARK    3  A    between atoms: C2_5  and  N2_7 
REMARK    4  A    between atoms: N2_7  and  C3_9 
ROOT
HETATM    1  C2  UNL     1       7.573   8.991  46.892  1.00  0.00     0.174 C 
HETATM    2  S1  UNL     1       8.521   9.228  48.248  1.00  0.00    -0.041 SA
ENDROOT
BRANCH   1   3
HETATM    3  N1  UNL     1       6.846  10.066  46.354  1.00  0.00    -0.300 N 
HETATM    4  C1  UNL     1       5.843  10.076  45.397  1.00  0.00     0.257 C 
HETATM    5  O1  UNL     1       5.356   9.094  44.795  1.00  0.00    -0.267 OA
ATOM      6  H1  UNL     1       7.095  10.982  46.726  1.00  0.00     0.171 HD
BRANCH   4   7
HETATM    7  C8  UNL     1       5.241  11.370  45.006  1.00  0.00     0.032 A 
HETATM    8  C9  UNL     1       4.792  12.208  45.990  1.00  0.00     0.017 A 
HETATM    9  C10 UNL     1       4.210  13.433  45.633  1.00  0.00     0.001 A 
HETATM   10  C11 UNL     1       4.107  13.756  44.303  1.00  0.00     0.000 A 
HETATM   11  C12 UNL     1       4.555  12.921  43.301  1.00  0.00     0.001 A 
HETATM   12  C13 UNL     1       5.124  11.723  43.677  1.00  0.00     0.017 A 
ENDBRANCH   4   7
ENDBRANCH   1   3
BRANCH   1  13
HETATM   13  N2  UNL     1       7.521   7.708  46.314  1.00  0.00    -0.361 N 
ATOM     14  H2  UNL     1       6.742   7.104  46.576  1.00  0.00     0.162 HD
BRANCH  13  15
HETATM   15  C3  UNL     1       8.494   7.179  45.374  1.00  0.00     0.098 C 
HETATM   16  C4  UNL     1       7.912   6.366  44.269  1.00  0.00     0.027 C 
HETATM   17  C5  UNL     1       8.766   5.163  43.916  1.00  0.00     0.017 C 
HETATM   18  C6  UNL     1      10.132   5.706  43.472  1.00  0.00     0.140 C 
HETATM   19  S2  UNL     1      10.931   6.249  44.991  1.00  0.00     0.146 S 
HETATM   20  O2  UNL     1      11.900   5.237  45.489  1.00  0.00    -0.228 OA
HETATM   21  O3  UNL     1      11.569   7.587  44.797  1.00  0.00    -0.228 OA
HETATM   22  C7  UNL     1       9.580   6.492  46.160  1.00  0.00     0.165 C 
ENDBRANCH  13  15
ENDBRANCH   1  13
TORSDOF 4
ENDMDL
MODEL 2
REMARK VINA RESULT: -7.419696011      1.511      1.785
REMARK  4 active torsions:
REMARK  status: ('A' for Active; 'I' for Inactive)
REMARK       I    between atoms: C1_2  and  N1_3 
REMARK    1  A    between atoms: C1_2  and  C8_17 
REMARK    2  A    between atoms: N1_3  and  C2_5 
REMARK    3  A    between atoms: C2_5  and  N2_7 
REMARK    4  A    between atoms: N2_7  and  C3_9 
ROOT
HETATM    1  C2  UNL     1       6.667   9.809  46.502  1.00  0.00     0.174 C 
HETATM    2  S1  UNL     1       7.119   9.482  48.078  1.00  0.00    -0.041 SA
ENDROOT
BRANCH   1   3
HETATM    3  N1  UNL     1       5.908  10.958  46.220  1.00  0.00    -0.300 N 
HETATM    4  C1  UNL     1       5.588  11.540  45.004  1.00  0.00     0.257 C 
HETATM    5  O1  UNL     1       5.916  11.148  43.862  1.00  0.00    -0.267 OA
ATOM      6  H1  UNL     1       5.534  11.438  47.038  1.00  0.00     0.171 HD
BRANCH   4   7
HETATM    7  C8  UNL     1       4.763  12.769  44.994  1.00  0.00     0.032 A 
HETATM    8  C9  UNL     1       4.348  13.288  46.191  1.00  0.00     0.017 A 
HETATM    9  C10 UNL     1       3.557  14.447  46.196  1.00  0.00     0.001 A 
HETATM   10  C11 UNL     1       3.221  15.026  44.998  1.00  0.00     0.000 A 
HETATM   11  C12 UNL     1       3.632  14.513  43.786  1.00  0.00     0.001 A 
HETATM   12  C13 UNL     1       4.409  13.375  43.806  1.00  0.00     0.017 A 
ENDBRANCH   4   7
ENDBRANCH   1   3
BRANCH   1  13
HETATM   13  N2  UNL     1       7.058   8.919  45.483  1.00  0.00    -0.361 N 
ATOM     14  H2  UNL     1       6.329   8.558  44.868  1.00  0.00     0.162 HD
BRANCH  13  15
HETATM   15  C3  UNL     1       8.421   8.476  45.242  1.00  0.00     0.098 C 
HETATM   16  C4  UNL     1       8.988   8.897  43.931  1.00  0.00     0.027 C 
HETATM   17  C5  UNL     1       9.846   7.820  43.293  1.00  0.00     0.017 C 
HETATM   18  C6  UNL     1      10.997   7.537  44.269  1.00  0.00     0.140 C 
HETATM   19  S2  UNL     1      10.246   6.611  45.617  1.00  0.00     0.146 S 
HETATM   20  O2  UNL     1      10.486   5.151  45.476  1.00  0.00    -0.228 OA
HETATM   21  O3  UNL     1      10.718   7.132  46.936  1.00  0.00    -0.228 OA
HETATM   22  C7  UNL     1       8.487   6.996  45.516  1.00  0.00     0.165 C 
ENDBRANCH  13  15
ENDBRANCH   1  13
TORSDOF 4
ENDMDL
MODEL 3
REMARK VINA RESULT: -7.409919807      1.513      2.075
REMARK  4 active torsions:
REMARK  status: ('A' for Active; 'I' for Inactive)
REMARK       I    between atoms: C1_2  and  N1_3 
REMARK    1  A    between atoms: C1_2  and  C8_17 
REMARK    2  A    between atoms: N1_3  and  C2_5 
REMARK    3  A    between atoms: C2_5  and  N2_7 
REMARK    4  A    between atoms: N2_7  and  C3_9 
ROOT
HETATM    1  C2  UNL     1       6.687   9.793  46.507  1.00  0.00     0.174 C 
HETATM    2  S1  UNL     1       7.152   9.466  48.079  1.00  0.00    -0.041 SA
ENDROOT
BRANCH   1   3
HETATM    3  N1  UNL     1       5.912  10.933  46.233  1.00  0.00    -0.300 N 
HETATM    4  C1  UNL     1       5.638  11.558  45.027  1.00  0.00     0.257 C 
HETATM    5  O1  UNL     1       6.034  11.223  43.889  1.00  0.00    -0.267 OA
ATOM      6  H1  UNL     1       5.484  11.368  47.050  1.00  0.00     0.171 HD
BRANCH   4   7
HETATM    7  C8  UNL     1       4.781  12.765  45.025  1.00  0.00     0.032 A 
HETATM    8  C9  UNL     1       4.445  13.326  43.824  1.00  0.00     0.017 A 
HETATM    9  C10 UNL     1       3.642  14.477  43.807  1.00  0.00     0.001 A 
HETATM   10  C11 UNL     1       3.218  15.007  45.000  1.00  0.00     0.000 A 
HETATM   11  C12 UNL     1       3.551  14.452  46.217  1.00  0.00     0.001 A 
HETATM   12  C13 UNL     1       4.340  13.321  46.208  1.00  0.00     0.017 A 
ENDBRANCH   4   7
ENDBRANCH   1   3
BRANCH   1  13
HETATM   13  N2  UNL     1       7.083   8.912  45.483  1.00  0.00    -0.361 N 
ATOM     14  H2  UNL     1       6.358   8.556  44.860  1.00  0.00     0.162 HD
BRANCH  13  15
HETATM   15  C3  UNL     1       8.447   8.470  45.246  1.00  0.00     0.098 C 
HETATM   16  C4  UNL     1       9.021   8.898  43.940  1.00  0.00     0.027 C 
HETATM   17  C5  UNL     1       9.882   7.826  43.300  1.00  0.00     0.017 C 
HETATM   18  C6  UNL     1      11.028   7.536  44.280  1.00  0.00     0.140 C 
HETATM   19  S2  UNL     1      10.269   6.602  45.618  1.00  0.00     0.146 S 
HETATM   20  O2  UNL     1      10.510   5.142  45.469  1.00  0.00    -0.228 OA
HETATM   21  O3  UNL     1      10.735   7.114  46.943  1.00  0.00    -0.228 OA
HETATM   22  C7  UNL     1       8.511   6.988  45.510  1.00  0.00     0.165 C 
ENDBRANCH  13  15
ENDBRANCH   1  13
TORSDOF 4
ENDMDL
MODEL 4
REMARK VINA RESULT: -7.385981299      1.968      2.277
REMARK  4 active torsions:
REMARK  status: ('A' for Active; 'I' for Inactive)
REMARK       I    between atoms: C1_2  and  N1_3 
REMARK    1  A    between atoms: C1_2  and  C8_17 
REMARK    2  A    between atoms: N1_3  and  C2_5 
REMARK    3  A    between atoms: C2_5  and  N2_7 
REMARK    4  A    between atoms: N2_7  and  C3_9 
ROOT
HETATM    1  C2  UNL     1       7.251   9.802  46.266  1.00  0.00     0.174 C 
HETATM    2  S1  UNL     1       7.778   9.405  47.802  1.00  0.00    -0.041 SA
ENDROOT
BRANCH   1   3
HETATM    3  N1  UNL     1       6.428  10.926  46.081  1.00  0.00    -0.300 N 
HETATM    4  C1  UNL     1       5.575  11.246  45.037  1.00  0.00     0.257 C 
HETATM    5  O1  UNL     1       5.349  10.575  44.006  1.00  0.00    -0.267 OA
ATOM      6  H1  UNL     1       6.463  11.613  46.834  1.00  0.00     0.171 HD
BRANCH   4   7
HETATM    7  C8  UNL     1       4.817  12.516  45.097  1.00  0.00     0.032 A 
HETATM    8  C9  UNL     1       4.459  13.008  46.323  1.00  0.00     0.017 A 
HETATM    9  C10 UNL     1       3.732  14.206  46.393  1.00  0.00     0.001 A 
HETATM   10  C11 UNL     1       3.398  14.849  45.228  1.00  0.00     0.000 A 
HETATM   11  C12 UNL     1       3.751  14.364  43.987  1.00  0.00     0.001 A 
HETATM   12  C13 UNL     1       4.467  13.186  43.942  1.00  0.00     0.017 A 
ENDBRANCH   4   7
ENDBRANCH   1   3
BRANCH   1  13
HETATM   13  N2  UNL     1       7.644   8.994  45.182  1.00  0.00    -0.361 N 
ATOM     14  H2  UNL     1       6.961   8.331  44.815  1.00  0.00     0.162 HD
BRANCH  13  15
HETATM   15  C3  UNL     1       8.949   9.035  44.544  1.00  0.00     0.098 C 
HETATM   16  C4  UNL     1       9.148  10.174  43.606  1.00  0.00     0.027 C 
HETATM   17  C5  UNL     1       9.935   9.784  42.369  1.00  0.00     0.017 C 
HETATM   18  C6  UNL     1      11.305   9.290  42.856  1.00  0.00     0.140 C 
HETATM   19  S2  UNL     1      10.988   7.672  43.576  1.00  0.00     0.146 S 
HETATM   20  O2  UNL     1      11.333   6.577  42.630  1.00  0.00    -0.228 OA
HETATM   21  O3  UNL     1      11.702   7.531  44.882  1.00  0.00    -0.228 OA
HETATM   22  C7  UNL     1       9.225   7.675  43.956  1.00  0.00     0.165 C 
ENDBRANCH  13  15
ENDBRANCH   1  13
TORSDOF 4
ENDMDL
MODEL 5
REMARK VINA RESULT: -7.364886257      1.978      2.518
REMARK  4 active torsions:
REMARK  status: ('A' for Active; 'I' for Inactive)
REMARK       I    between atoms: C1_2  and  N1_3 
REMARK    1  A    between atoms: C1_2  and  C8_17 
REMARK    2  A    between atoms: N1_3  and  C2_5 
REMARK    3  A    between atoms: C2_5  and  N2_7 
REMARK    4  A    between atoms: N2_7  and  C3_9 
ROOT
HETATM    1  C2  UNL     1       7.232   9.805  46.246  1.00  0.00     0.174 C 
HETATM    2  S1  UNL     1       7.768   9.405  47.778  1.00  0.00    -0.041 SA
ENDROOT
BRANCH   1   3
HETATM    3  N1  UNL     1       6.399  10.923  46.070  1.00  0.00    -0.300 N 
HETATM    4  C1  UNL     1       5.613  11.290  44.989  1.00  0.00     0.257 C 
HETATM    5  O1  UNL     1       5.474  10.677  43.907  1.00  0.00    -0.267 OA
ATOM      6  H1  UNL     1       6.367  11.565  46.862  1.00  0.00     0.171 HD
BRANCH   4   7
HETATM    7  C8  UNL     1       4.825  12.539  45.068  1.00  0.00     0.032 A 
HETATM    8  C9  UNL     1       4.482  13.172  43.904  1.00  0.00     0.017 A 
HETATM    9  C10 UNL     1       3.744  14.364  43.965  1.00  0.00     0.001 A 
HETATM   10  C11 UNL     1       3.388  14.861  45.194  1.00  0.00     0.000 A 
HETATM   11  C12 UNL     1       3.727  14.234  46.374  1.00  0.00     0.001 A 
HETATM   12  C13 UNL     1       4.452  13.065  46.289  1.00  0.00     0.017 A 
ENDBRANCH   4   7
ENDBRANCH   1   3
BRANCH   1  13
HETATM   13  N2  UNL     1       7.629   9.006  45.156  1.00  0.00    -0.361 N 
ATOM     14  H2  UNL     1       6.945   8.351  44.778  1.00  0.00     0.162 HD
BRANCH  13  15
HETATM   15  C3  UNL     1       8.939   9.046  44.529  1.00  0.00     0.098 C 
HETATM   16  C4  UNL     1       9.143  10.181  43.587  1.00  0.00     0.027 C 
HETATM   17  C5  UNL     1       9.940   9.786  42.358  1.00  0.00     0.017 C 
HETATM   18  C6  UNL     1      11.308   9.297  42.858  1.00  0.00     0.140 C 
HETATM   19  S2  UNL     1      10.987   7.682  43.583  1.00  0.00     0.146 S 
HETATM   20  O2  UNL     1      11.341   6.583  42.645  1.00  0.00    -0.228 OA
HETATM   21  O3  UNL     1      11.691   7.548  44.895  1.00  0.00    -0.228 OA
HETATM   22  C7  UNL     1       9.221   7.684  43.950  1.00  0.00     0.165 C 
ENDBRANCH  13  15
ENDBRANCH   1  13
TORSDOF 4
ENDMDL
