MODEL 1
REMARK VINA RESULT: -8.172271762      0.000      0.000
REMARK  2 active torsions:
REMARK  status: ('A' for Active; 'I' for Inactive)
REMARK       I    between atoms: C1_2  and  N2_4 
REMARK       I    between atoms: N2_4  and  C2_6 
REMARK    1  A    between atoms: C2_6  and  C3_8 
REMARK    2  A    between atoms: C3_8  and  N3_9 
ROOT
HETATM    1  N3  UNL     1       3.930  13.684  42.886  1.00  0.00    -0.336 N 
HETATM    2  C4  UNL     1       3.862  13.884  44.285  1.00  0.00     0.057 A 
HETATM    3  C5  UNL     1       3.131  14.908  44.840  1.00  0.00     0.031 A 
HETATM    4  C6  UNL     1       3.031  15.135  46.214  1.00  0.00     0.002 A 
HETATM    5  C7  UNL     1       3.702  14.288  47.061  1.00  0.00     0.002 A 
HETATM    6  C8  UNL     1       4.446  13.249  46.547  1.00  0.00     0.026 A 
HETATM    7  C9  UNL     1       4.516  13.064  45.193  1.00  0.00     0.091 A 
HETATM    8  S1  UNL     1       5.490  11.738  44.650  1.00  0.00     0.211 S 
HETATM    9  O3  UNL     1       6.926  11.910  45.105  1.00  0.00    -0.217 OA
HETATM   10  O4  UNL     1       4.969  10.460  45.244  1.00  0.00    -0.217 OA
HETATM   11  C10 UNL     1       5.396  11.689  42.907  1.00  0.00     0.091 A 
HETATM   12  C11 UNL     1       6.081  10.665  42.246  1.00  0.00     0.026 A 
HETATM   13  C12 UNL     1       6.024  10.593  40.885  1.00  0.00     0.002 A 
HETATM   14  C13 UNL     1       5.292  11.530  40.193  1.00  0.00     0.002 A 
HETATM   15  C14 UNL     1       4.617  12.541  40.873  1.00  0.00     0.031 A 
HETATM   16  C15 UNL     1       4.652  12.649  42.263  1.00  0.00     0.057 A 
ENDROOT
BRANCH   1  17
HETATM   17  C3  UNL     1       3.178  14.638  42.068  1.00  0.00     0.232 C 
BRANCH  17  18
HETATM   18  C2  UNL     1       4.043  15.650  41.463  1.00  0.00     0.243 C 
HETATM   19  N2  UNL     1       3.849  16.062  40.129  1.00  0.00    -0.280 N 
HETATM   20  C1  UNL     1       2.878  15.612  39.218  1.00  0.00     0.335 C 
ATOM     21  H2  UNL     1       4.492  16.775  39.782  1.00  0.00     0.173 HD
HETATM   22  N1  UNL     1       1.915  14.638  39.533  1.00  0.00    -0.040 NA
HETATM   23  O1  UNL     1       2.884  16.129  38.042  1.00  0.00    -0.251 OA
HETATM   24  O2  UNL     1       5.001  16.187  42.139  1.00  0.00    -0.271 OA
ENDBRANCH  17  18
ENDBRANCH   1  17
TORSDOF 2
ENDMDL
MODEL 2
REMARK VINA RESULT: -8.123967128      0.072      3.990
REMARK  2 active torsions:
REMARK  status: ('A' for Active; 'I' for Inactive)
REMARK       I    between atoms: C1_2  and  N2_4 
REMARK       I    between atoms: N2_4  and  C2_6 
REMARK    1  A    between atoms: C2_6  and  C3_8 
REMARK    2  A    between atoms: C3_8  and  N3_9 
ROOT
HETATM    1  N3  UNL     1       3.892  13.695  42.876  1.00  0.00    -0.336 N 
HETATM    2  C4  UNL     1       4.604  12.677  42.200  1.00  0.00     0.057 A 
HETATM    3  C5  UNL     1       4.610  12.581  40.828  1.00  0.00     0.031 A 
HETATM    4  C6  UNL     1       5.306  11.598  40.121  1.00  0.00     0.002 A 
HETATM    5  C7  UNL     1       6.025  10.673  40.837  1.00  0.00     0.002 A 
HETATM    6  C8  UNL     1       6.046  10.733  42.212  1.00  0.00     0.026 A 
HETATM    7  C9  UNL     1       5.349  11.713  42.863  1.00  0.00     0.091 A 
HETATM    8  S1  UNL     1       5.429  11.691  44.594  1.00  0.00     0.211 S 
HETATM    9  O3  UNL     1       4.883  10.385  45.136  1.00  0.00    -0.217 OA
HETATM   10  O4  UNL     1       6.863  11.804  45.028  1.00  0.00    -0.217 OA
HETATM   11  C10 UNL     1       4.498  13.044  45.187  1.00  0.00     0.091 A 
HETATM   12  C11 UNL     1       4.453  13.248  46.569  1.00  0.00     0.026 A 
HETATM   13  C12 UNL     1       3.740  14.299  47.067  1.00  0.00     0.002 A 
HETATM   14  C13 UNL     1       3.081  15.136  46.196  1.00  0.00     0.002 A 
HETATM   15  C14 UNL     1       3.141  14.912  44.822  1.00  0.00     0.031 A 
HETATM   16  C15 UNL     1       3.858  13.849  44.276  1.00  0.00     0.057 A 
ENDROOT
BRANCH   1  17
HETATM   17  C3  UNL     1       3.159  14.635  42.026  1.00  0.00     0.232 C 
BRANCH  17  18
HETATM   18  C2  UNL     1       4.034  15.653  41.444  1.00  0.00     0.243 C 
HETATM   19  N2  UNL     1       3.853  16.086  40.115  1.00  0.00    -0.280 N 
HETATM   20  C1  UNL     1       2.888  15.654  39.189  1.00  0.00     0.335 C 
ATOM     21  H2  UNL     1       4.502  16.802  39.785  1.00  0.00     0.173 HD
HETATM   22  N1  UNL     1       1.918  14.679  39.480  1.00  0.00    -0.040 NA
HETATM   23  O1  UNL     1       2.907  16.189  38.021  1.00  0.00    -0.251 OA
HETATM   24  O2  UNL     1       4.988  16.176  42.137  1.00  0.00    -0.271 OA
ENDBRANCH  17  18
ENDBRANCH   1  17
TORSDOF 2
ENDMDL
MODEL 3
REMARK VINA RESULT: -7.813833336      7.357      9.618
REMARK  2 active torsions:
REMARK  status: ('A' for Active; 'I' for Inactive)
REMARK       I    between atoms: C1_2  and  N2_4 
REMARK       I    between atoms: N2_4  and  C2_6 
REMARK    1  A    between atoms: C2_6  and  C3_8 
REMARK    2  A    between atoms: C3_8  and  N3_9 
ROOT
HETATM    1  N3  UNL     1       8.744   7.217  43.374  1.00  0.00    -0.336 N 
HETATM    2  C4  UNL     1       7.921   7.125  42.227  1.00  0.00     0.057 A 
HETATM    3  C5  UNL     1       6.745   7.829  42.115  1.00  0.00     0.031 A 
HETATM    4  C6  UNL     1       5.909   7.773  40.997  1.00  0.00     0.002 A 
HETATM    5  C7  UNL     1       6.283   6.969  39.949  1.00  0.00     0.002 A 
HETATM    6  C8  UNL     1       7.454   6.247  40.020  1.00  0.00     0.026 A 
HETATM    7  C9  UNL     1       8.242   6.332  41.135  1.00  0.00     0.091 A 
HETATM    8  S1  UNL     1       9.685   5.372  41.129  1.00  0.00     0.211 S 
HETATM    9  O3  UNL     1       9.346   3.902  40.989  1.00  0.00    -0.217 OA
HETATM   10  O4  UNL     1      10.537   5.762  39.954  1.00  0.00    -0.217 OA
HETATM   11  C10 UNL     1      10.529   5.673  42.627  1.00  0.00     0.091 A 
HETATM   12  C11 UNL     1      11.753   5.028  42.826  1.00  0.00     0.026 A 
HETATM   13  C12 UNL     1      12.443   5.244  43.983  1.00  0.00     0.002 A 
HETATM   14  C13 UNL     1      11.917   6.094  44.928  1.00  0.00     0.002 A 
HETATM   15  C14 UNL     1      10.696   6.726  44.708  1.00  0.00     0.031 A 
HETATM   16  C15 UNL     1       9.961   6.530  43.539  1.00  0.00     0.057 A 
ENDROOT
BRANCH   1  17
HETATM   17  C3  UNL     1       8.262   8.103  44.436  1.00  0.00     0.232 C 
BRANCH  17  18
HETATM   18  C2  UNL     1       7.655   7.362  45.542  1.00  0.00     0.243 C 
HETATM   19  N2  UNL     1       7.697   7.866  46.858  1.00  0.00    -0.280 N 
HETATM   20  C1  UNL     1       8.281   9.063  47.307  1.00  0.00     0.335 C 
ATOM     21  H2  UNL     1       7.248   7.291  47.572  1.00  0.00     0.173 HD
HETATM   22  N1  UNL     1       8.936   9.971  46.456  1.00  0.00    -0.040 NA
HETATM   23  O1  UNL     1       8.201   9.327  48.561  1.00  0.00    -0.251 OA
HETATM   24  O2  UNL     1       7.069   6.232  45.334  1.00  0.00    -0.271 OA
ENDBRANCH  17  18
ENDBRANCH   1  17
TORSDOF 2
ENDMDL
MODEL 4
REMARK VINA RESULT: -7.732085666      6.972      9.678
REMARK  2 active torsions:
REMARK  status: ('A' for Active; 'I' for Inactive)
REMARK       I    between atoms: C1_2  and  N2_4 
REMARK       I    between atoms: N2_4  and  C2_6 
REMARK    1  A    between atoms: C2_6  and  C3_8 
REMARK    2  A    between atoms: C3_8  and  N3_9 
ROOT
HETATM    1  N3  UNL     1       9.183   6.720  42.092  1.00  0.00    -0.336 N 
HETATM    2  C4  UNL     1      10.287   6.201  42.808  1.00  0.00     0.057 A 
HETATM    3  C5  UNL     1      11.290   5.494  42.188  1.00  0.00     0.031 A 
HETATM    4  C6  UNL     1      12.400   4.973  42.855  1.00  0.00     0.002 A 
HETATM    5  C7  UNL     1      12.496   5.177  44.210  1.00  0.00     0.002 A 
HETATM    6  C8  UNL     1      11.513   5.879  44.870  1.00  0.00     0.026 A 
HETATM    7  C9  UNL     1      10.443   6.372  44.176  1.00  0.00     0.091 A 
HETATM    8  S1  UNL     1       9.255   7.228  45.103  1.00  0.00     0.211 S 
HETATM    9  O3  UNL     1       8.661   6.328  46.169  1.00  0.00    -0.217 OA
HETATM   10  O4  UNL     1       9.907   8.392  45.795  1.00  0.00    -0.217 OA
HETATM   11  C10 UNL     1       8.018   7.782  44.002  1.00  0.00     0.091 A 
HETATM   12  C11 UNL     1       6.967   8.537  44.529  1.00  0.00     0.026 A 
HETATM   13  C12 UNL     1       5.986   8.991  43.697  1.00  0.00     0.002 A 
HETATM   14  C13 UNL     1       6.056   8.696  42.355  1.00  0.00     0.002 A 
HETATM   15  C14 UNL     1       7.113   7.941  41.852  1.00  0.00     0.031 A 
HETATM   16  C15 UNL     1       8.133   7.459  42.672  1.00  0.00     0.057 A 
ENDROOT
BRANCH   1  17
HETATM   17  C3  UNL     1       9.172   6.453  40.653  1.00  0.00     0.232 C 
BRANCH  17  18
HETATM   18  C2  UNL     1       8.513   5.188  40.329  1.00  0.00     0.243 C 
HETATM   19  N2  UNL     1       8.754   4.541  39.100  1.00  0.00    -0.280 N 
HETATM   20  C1  UNL     1       9.594   4.959  38.054  1.00  0.00     0.335 C 
ATOM     21  H2  UNL     1       8.259   3.661  38.952  1.00  0.00     0.173 HD
HETATM   22  N1  UNL     1      10.351   6.144  38.095  1.00  0.00    -0.040 NA
HETATM   23  O1  UNL     1       9.664   4.209  37.014  1.00  0.00    -0.251 OA
HETATM   24  O2  UNL     1       7.697   4.638  41.163  1.00  0.00    -0.271 OA
ENDBRANCH  17  18
ENDBRANCH   1  17
TORSDOF 2
ENDMDL
MODEL 5
REMARK VINA RESULT: -7.718374359      7.365      9.400
REMARK  2 active torsions:
REMARK  status: ('A' for Active; 'I' for Inactive)
REMARK       I    between atoms: C1_2  and  N2_4 
REMARK       I    between atoms: N2_4  and  C2_6 
REMARK    1  A    between atoms: C2_6  and  C3_8 
REMARK    2  A    between atoms: C3_8  and  N3_9 
ROOT
HETATM    1  N3  UNL     1       8.596   7.313  43.572  1.00  0.00    -0.336 N 
HETATM    2  C4  UNL     1       9.818   6.694  43.925  1.00  0.00     0.057 A 
HETATM    3  C5  UNL     1      10.445   6.949  45.122  1.00  0.00     0.031 A 
HETATM    4  C6  UNL     1      11.646   6.354  45.512  1.00  0.00     0.002 A 
HETATM    5  C7  UNL     1      12.237   5.463  44.650  1.00  0.00     0.002 A 
HETATM    6  C8  UNL     1      11.643   5.179  43.441  1.00  0.00     0.026 A 
HETATM    7  C9  UNL     1      10.465   5.786  43.100  1.00  0.00     0.091 A 
HETATM    8  S1  UNL     1       9.809   5.371  41.551  1.00  0.00     0.211 S 
HETATM    9  O3  UNL     1      10.781   5.734  40.446  1.00  0.00    -0.217 OA
HETATM   10  O4  UNL     1       9.576   3.888  41.489  1.00  0.00    -0.217 OA
HETATM   11  C10 UNL     1       8.305   6.239  41.361  1.00  0.00     0.091 A 
HETATM   12  C11 UNL     1       7.574   6.025  40.189  1.00  0.00     0.026 A 
HETATM   13  C12 UNL     1       6.391   6.682  40.010  1.00  0.00     0.002 A 
HETATM   14  C13 UNL     1       5.945   7.539  40.989  1.00  0.00     0.002 A 
HETATM   15  C14 UNL     1       6.691   7.735  42.149  1.00  0.00     0.031 A 
HETATM   16  C15 UNL     1       7.904   7.083  42.367  1.00  0.00     0.057 A 
ENDROOT
BRANCH   1  17
HETATM   17  C3  UNL     1       8.044   8.245  44.558  1.00  0.00     0.232 C 
BRANCH  17  18
HETATM   18  C2  UNL     1       7.391   7.552  45.669  1.00  0.00     0.243 C 
HETATM   19  N2  UNL     1       7.510   8.032  46.989  1.00  0.00    -0.280 N 
HETATM   20  C1  UNL     1       8.218   9.159  47.438  1.00  0.00     0.335 C 
ATOM     21  H2  UNL     1       7.022   7.495  47.706  1.00  0.00     0.173 HD
HETATM   22  N1  UNL     1       8.941  10.010  46.583  1.00  0.00    -0.040 NA
HETATM   23  O1  UNL     1       8.192   9.413  48.697  1.00  0.00    -0.251 OA
HETATM   24  O2  UNL     1       6.692   6.489  45.462  1.00  0.00    -0.271 OA
ENDBRANCH  17  18
ENDBRANCH   1  17
TORSDOF 2
ENDMDL
