MODEL 1
REMARK VINA RESULT: -7.635387903      0.000      0.000
REMARK  3 active torsions:
REMARK  status: ('A' for Active; 'I' for Inactive)
REMARK    1  A    between atoms: C3_3  and  O1_4 
REMARK    2  A    between atoms: C9_12  and  C10_13 
REMARK       I    between atoms: C10_13  and  N1_15 
REMARK    3  A    between atoms: C11_17  and  C12_18 
ROOT
HETATM    1  C1  UNL     1       7.576   6.357  42.967  1.00  0.00     0.013 C 
HETATM    2  C2  UNL     1       8.554   5.286  43.119  1.00  0.00     0.020 C 
HETATM    3  C3  UNL     1       9.239   5.024  41.761  1.00  0.00     0.129 C 
HETATM    4  C4  UNL     1      10.552   5.216  42.429  1.00  0.00     0.053 C 
HETATM    5  C5  UNL     1      11.235   6.467  42.009  1.00  0.00     0.129 C 
HETATM    6  C6  UNL     1      12.221   6.831  43.135  1.00  0.00     0.044 C 
HETATM    7  C7  UNL     1      11.151   7.437  44.074  1.00  0.00     0.047 C 
HETATM    8  C8  UNL     1      10.444   8.271  43.103  1.00  0.00     0.177 C 
HETATM    9  O2  UNL     1      10.332   7.500  41.957  1.00  0.00    -0.385 OA
HETATM   10  C9  UNL     1      10.449   6.253  44.673  1.00  0.00    -0.001 C 
HETATM   11  C17 UNL     1       9.839   5.278  43.758  1.00  0.00     0.036 C 
ENDROOT
BRANCH  10  12
HETATM   12  C10 UNL     1       9.745   6.520  45.934  1.00  0.00     0.248 C 
HETATM   13  O3  UNL     1       9.519   5.606  46.735  1.00  0.00    -0.268 OA
HETATM   14  N1  UNL     1       9.323   7.826  46.241  1.00  0.00    -0.335 N 
HETATM   15  C11 UNL     1       8.160   8.301  46.111  1.00  0.00     0.097 C 
ATOM     16  H1  UNL     1      10.033   8.459  46.609  1.00  0.00     0.168 HD
BRANCH  15  17
HETATM   17  C12 UNL     1       7.896   9.701  46.484  1.00  0.00     0.224 C 
HETATM   18  C13 UNL     1       8.671  10.652  45.597  1.00  0.00     0.038 C 
HETATM   19  C14 UNL     1       7.979  11.983  45.450  1.00  0.00     0.004 C 
HETATM   20  C15 UNL     1       7.133  12.356  46.620  1.00  0.00     0.027 C 
HETATM   21  C16 UNL     1       6.293  11.249  47.163  1.00  0.00     0.233 C 
HETATM   22  N2  UNL     1       6.497  10.060  46.371  1.00  0.00    -0.066 N 
ATOM     23  H22 UNL     1       6.189  10.166  45.405  1.00  0.00     0.278 HD
ATOM     24  H21 UNL     1       5.869   9.298  46.627  1.00  0.00     0.278 HD
ENDBRANCH  15  17
ENDBRANCH  10  12
BRANCH   3  25
HETATM   25  O1  UNL     1       9.048   3.786  41.211  1.00  0.00    -0.395 OA
ATOM     26  H1  UNL     1       8.147   3.523  41.068  1.00  0.00     0.210 HD
ENDBRANCH   3  25
TORSDOF 3
ENDMDL
MODEL 2
REMARK VINA RESULT: -7.574513357      3.100      5.067
REMARK  3 active torsions:
REMARK  status: ('A' for Active; 'I' for Inactive)
REMARK    1  A    between atoms: C3_3  and  O1_4 
REMARK    2  A    between atoms: C9_12  and  C10_13 
REMARK       I    between atoms: C10_13  and  N1_15 
REMARK    3  A    between atoms: C11_17  and  C12_18 
ROOT
HETATM    1  C1  UNL     1       7.750   9.320  48.042  1.00  0.00     0.013 C 
HETATM    2  C2  UNL     1       8.908   8.836  47.298  1.00  0.00     0.020 C 
HETATM    3  C3  UNL     1       8.902   7.293  47.290  1.00  0.00     0.129 C 
HETATM    4  C4  UNL     1       8.986   7.337  45.808  1.00  0.00     0.053 C 
HETATM    5  C5  UNL     1       7.736   6.885  45.145  1.00  0.00     0.129 C 
HETATM    6  C6  UNL     1       7.733   7.506  43.736  1.00  0.00     0.044 C 
HETATM    7  C7  UNL     1       7.274   8.910  44.197  1.00  0.00     0.047 C 
HETATM    8  C8  UNL     1       6.178   8.511  45.079  1.00  0.00     0.177 C 
HETATM    9  O2  UNL     1       6.645   7.416  45.789  1.00  0.00    -0.385 OA
HETATM   10  C9  UNL     1       8.500   9.540  44.792  1.00  0.00    -0.001 C 
HETATM   11  C17 UNL     1       9.177   8.832  45.887  1.00  0.00     0.036 C 
ENDROOT
BRANCH  10  12
HETATM   12  C10 UNL     1       8.477  11.007  44.855  1.00  0.00     0.248 C 
HETATM   13  O3  UNL     1       9.495  11.641  45.157  1.00  0.00    -0.268 OA
HETATM   14  N1  UNL     1       7.290  11.705  44.568  1.00  0.00    -0.335 N 
HETATM   15  C11 UNL     1       6.471  12.188  45.398  1.00  0.00     0.097 C 
ATOM     16  H1  UNL     1       7.066  11.834  43.581  1.00  0.00     0.168 HD
BRANCH  15  17
HETATM   17  C12 UNL     1       5.270  12.892  44.917  1.00  0.00     0.224 C 
HETATM   18  C13 UNL     1       4.479  13.464  46.074  1.00  0.00     0.038 C 
HETATM   19  C14 UNL     1       3.699  14.691  45.678  1.00  0.00     0.004 C 
HETATM   20  C15 UNL     1       3.307  14.718  44.239  1.00  0.00     0.027 C 
HETATM   21  C16 UNL     1       4.380  14.301  43.290  1.00  0.00     0.233 C 
HETATM   22  N2  UNL     1       5.581  13.993  44.029  1.00  0.00    -0.066 N 
ATOM     23  H22 UNL     1       5.967  14.802  44.516  1.00  0.00     0.278 HD
ATOM     24  H21 UNL     1       6.382  13.806  43.427  1.00  0.00     0.278 HD
ENDBRANCH  15  17
ENDBRANCH  10  12
BRANCH   3  25
HETATM   25  O1  UNL     1       9.955   6.677  47.909  1.00  0.00    -0.395 OA
ATOM     26  H1  UNL     1       9.784   6.310  48.768  1.00  0.00     0.210 HD
ENDBRANCH   3  25
TORSDOF 3
ENDMDL
MODEL 3
REMARK VINA RESULT: -7.545487015      2.543      3.995
REMARK  3 active torsions:
REMARK  status: ('A' for Active; 'I' for Inactive)
REMARK    1  A    between atoms: C3_3  and  O1_4 
REMARK    2  A    between atoms: C9_12  and  C10_13 
REMARK       I    between atoms: C10_13  and  N1_15 
REMARK    3  A    between atoms: C11_17  and  C12_18 
ROOT
HETATM    1  C1  UNL     1       6.314   7.082  45.869  1.00  0.00     0.013 C 
HETATM    2  C2  UNL     1       7.733   7.052  46.201  1.00  0.00     0.020 C 
HETATM    3  C3  UNL     1       8.511   6.360  45.061  1.00  0.00     0.129 C 
HETATM    4  C4  UNL     1       9.385   7.557  44.981  1.00  0.00     0.053 C 
HETATM    5  C5  UNL     1       9.174   8.343  43.737  1.00  0.00     0.129 C 
HETATM    6  C6  UNL     1       9.661   9.775  44.031  1.00  0.00     0.044 C 
HETATM    7  C7  UNL     1       8.393  10.201  44.810  1.00  0.00     0.047 C 
HETATM    8  C8  UNL     1       7.379   9.696  43.885  1.00  0.00     0.177 C 
HETATM    9  O2  UNL     1       7.831   8.453  43.473  1.00  0.00    -0.385 OA
HETATM   10  C9  UNL     1       8.537   9.561  46.160  1.00  0.00    -0.001 C 
HETATM   11  C17 UNL     1       8.712   8.103  46.217  1.00  0.00     0.036 C 
ENDROOT
BRANCH  10  12
HETATM   12  C10 UNL     1       7.748  10.184  47.231  1.00  0.00     0.248 C 
HETATM   13  O3  UNL     1       7.718   9.686  48.362  1.00  0.00    -0.268 OA
HETATM   14  N1  UNL     1       7.018  11.358  46.974  1.00  0.00    -0.335 N 
HETATM   15  C11 UNL     1       5.781  11.451  46.738  1.00  0.00     0.097 C 
ATOM     16  H1  UNL     1       7.546  12.231  46.979  1.00  0.00     0.168 HD
BRANCH  15  17
HETATM   17  C12 UNL     1       5.180  12.772  46.489  1.00  0.00     0.224 C 
HETATM   18  C13 UNL     1       5.059  13.038  45.004  1.00  0.00     0.038 C 
HETATM   19  C14 UNL     1       3.913  13.964  44.684  1.00  0.00     0.004 C 
HETATM   20  C15 UNL     1       3.582  14.916  45.784  1.00  0.00     0.027 C 
HETATM   21  C16 UNL     1       3.564  14.314  47.149  1.00  0.00     0.233 C 
HETATM   22  N2  UNL     1       3.854  12.903  47.054  1.00  0.00    -0.066 N 
ATOM     23  H22 UNL     1       3.145  12.385  46.534  1.00  0.00     0.278 HD
ATOM     24  H21 UNL     1       3.749  12.414  47.943  1.00  0.00     0.278 HD
ENDBRANCH  15  17
ENDBRANCH  10  12
BRANCH   3  25
HETATM   25  O1  UNL     1       9.154   5.197  45.383  1.00  0.00    -0.395 OA
ATOM     26  H1  UNL     1       8.873   4.417  44.921  1.00  0.00     0.210 HD
ENDBRANCH   3  25
TORSDOF 3
ENDMDL
MODEL 4
REMARK VINA RESULT: -7.529283902      2.327      3.865
REMARK  3 active torsions:
REMARK  status: ('A' for Active; 'I' for Inactive)
REMARK    1  A    between atoms: C3_3  and  O1_4 
REMARK    2  A    between atoms: C9_12  and  C10_13 
REMARK       I    between atoms: C10_13  and  N1_15 
REMARK    3  A    between atoms: C11_17  and  C12_18 
ROOT
HETATM    1  C1  UNL     1       9.289   7.839  47.193  1.00  0.00     0.013 C 
HETATM    2  C2  UNL     1       9.924   7.496  45.926  1.00  0.00     0.020 C 
HETATM    3  C3  UNL     1       9.620   6.022  45.584  1.00  0.00     0.129 C 
HETATM    4  C4  UNL     1       9.097   6.472  44.270  1.00  0.00     0.053 C 
HETATM    5  C5  UNL     1       7.623   6.321  44.153  1.00  0.00     0.129 C 
HETATM    6  C6  UNL     1       7.163   7.309  43.065  1.00  0.00     0.044 C 
HETATM    7  C7  UNL     1       7.211   8.559  43.977  1.00  0.00     0.047 C 
HETATM    8  C8  UNL     1       6.518   8.015  45.144  1.00  0.00     0.177 C 
HETATM    9  O2  UNL     1       7.016   6.733  45.313  1.00  0.00    -0.385 OA
HETATM   10  C9  UNL     1       8.668   8.902  44.085  1.00  0.00    -0.001 C 
HETATM   11  C17 UNL     1       9.586   7.866  44.580  1.00  0.00     0.036 C 
ENDROOT
BRANCH  10  12
HETATM   12  C10 UNL     1       8.954  10.290  44.470  1.00  0.00     0.248 C 
HETATM   13  O3  UNL     1      10.065  10.788  44.255  1.00  0.00    -0.268 OA
HETATM   14  N1  UNL     1       7.958  11.067  45.088  1.00  0.00    -0.335 N 
HETATM   15  C11 UNL     1       7.838  11.312  46.321  1.00  0.00     0.097 C 
ATOM     16  H1  UNL     1       7.255  11.478  44.473  1.00  0.00     0.168 HD
BRANCH  15  17
HETATM   17  C12 UNL     1       6.725  12.152  46.795  1.00  0.00     0.224 C 
HETATM   18  C13 UNL     1       5.891  12.649  45.635  1.00  0.00     0.038 C 
HETATM   19  C14 UNL     1       4.457  12.898  46.030  1.00  0.00     0.004 C 
HETATM   20  C15 UNL     1       4.283  13.262  47.466  1.00  0.00     0.027 C 
HETATM   21  C16 UNL     1       5.083  12.442  48.422  1.00  0.00     0.233 C 
HETATM   22  N2  UNL     1       5.831  11.448  47.691  1.00  0.00    -0.066 N 
ATOM     23  H22 UNL     1       5.234  10.774  47.211  1.00  0.00     0.278 HD
ATOM     24  H21 UNL     1       6.315  10.786  48.298  1.00  0.00     0.278 HD
ENDBRANCH  15  17
ENDBRANCH  10  12
BRANCH   3  25
HETATM   25  O1  UNL     1      10.695   5.178  45.519  1.00  0.00    -0.395 OA
ATOM     26  H1  UNL     1      11.404   5.441  44.944  1.00  0.00     0.210 HD
ENDBRANCH   3  25
TORSDOF 3
ENDMDL
MODEL 5
REMARK VINA RESULT: -7.519108038      1.981      3.412
REMARK  3 active torsions:
REMARK  status: ('A' for Active; 'I' for Inactive)
REMARK    1  A    between atoms: C3_3  and  O1_4 
REMARK    2  A    between atoms: C9_12  and  C10_13 
REMARK       I    between atoms: C10_13  and  N1_15 
REMARK    3  A    between atoms: C11_17  and  C12_18 
ROOT
HETATM    1  C1  UNL     1       6.628   7.837  43.498  1.00  0.00     0.013 C 
HETATM    2  C2  UNL     1       6.992   7.752  44.908  1.00  0.00     0.020 C 
HETATM    3  C3  UNL     1       7.125   6.269  45.313  1.00  0.00     0.129 C 
HETATM    4  C4  UNL     1       8.491   6.567  45.814  1.00  0.00     0.053 C 
HETATM    5  C5  UNL     1       9.558   5.956  44.979  1.00  0.00     0.129 C 
HETATM    6  C6  UNL     1      10.837   6.777  45.227  1.00  0.00     0.044 C 
HETATM    7  C7  UNL     1      10.438   7.949  44.298  1.00  0.00     0.047 C 
HETATM    8  C8  UNL     1       9.995   7.178  43.138  1.00  0.00     0.177 C 
HETATM    9  O2  UNL     1       9.263   6.118  43.648  1.00  0.00    -0.385 OA
HETATM   10  C9  UNL     1       9.430   8.737  45.083  1.00  0.00    -0.001 C 
HETATM   11  C17 UNL     1       8.234   8.034  45.570  1.00  0.00     0.036 C 
ENDROOT
BRANCH  10  12
HETATM   12  C10 UNL     1       9.260  10.131  44.656  1.00  0.00     0.248 C 
HETATM   13  O3  UNL     1      10.066  10.654  43.878  1.00  0.00    -0.268 OA
HETATM   14  N1  UNL     1       8.172  10.885  45.132  1.00  0.00    -0.335 N 
HETATM   15  C11 UNL     1       8.183  11.732  46.067  1.00  0.00     0.097 C 
ATOM     16  H1  UNL     1       7.276  10.730  44.671  1.00  0.00     0.168 HD
BRANCH  15  17
HETATM   17  C12 UNL     1       6.941  12.433  46.436  1.00  0.00     0.224 C 
HETATM   18  C13 UNL     1       6.044  12.611  45.230  1.00  0.00     0.038 C 
HETATM   19  C14 UNL     1       4.586  12.671  45.609  1.00  0.00     0.004 C 
HETATM   20  C15 UNL     1       4.341  13.202  46.981  1.00  0.00     0.027 C 
HETATM   21  C16 UNL     1       5.261  12.674  48.031  1.00  0.00     0.233 C 
HETATM   22  N2  UNL     1       6.171  11.725  47.437  1.00  0.00    -0.066 N 
ATOM     23  H22 UNL     1       5.700  10.898  47.068  1.00  0.00     0.278 HD
ATOM     24  H21 UNL     1       6.754  11.248  48.125  1.00  0.00     0.278 HD
ENDBRANCH  15  17
ENDBRANCH  10  12
BRANCH   3  25
HETATM   25  O1  UNL     1       6.249   5.816  46.261  1.00  0.00    -0.395 OA
ATOM     26  H1  UNL     1       5.424   5.471  45.943  1.00  0.00     0.210 HD
ENDBRANCH   3  25
TORSDOF 3
ENDMDL
