MODEL 1
REMARK VINA RESULT: -7.777535348      0.000      0.000
REMARK  3 active torsions:
REMARK  status: ('A' for Active; 'I' for Inactive)
REMARK    1  A    between atoms: C6_7  and  C7_8 
REMARK       I    between atoms: C7_8  and  N1_10 
REMARK    2  A    between atoms: N1_10  and  N2_12 
REMARK       I    between atoms: N2_12  and  C8_14 
REMARK    3  A    between atoms: C8_14  and  C9_16 
ROOT
HETATM    1  C7  UNL     1       7.185  10.690  46.268  1.00  0.00     0.240 C 
HETATM    2  O2  UNL     1       6.830  11.292  47.307  1.00  0.00    -0.271 OA
HETATM    3  N1  UNL     1       7.115  11.329  45.005  1.00  0.00    -0.267 N 
ATOM      4  H1  UNL     1       7.409  10.819  44.172  1.00  0.00     0.190 HD
ENDROOT
BRANCH   1   5
HETATM    5  C6  UNL     1       7.673   9.321  46.344  1.00  0.00     0.085 C 
HETATM    6  C5  UNL     1       7.920   8.980  47.795  1.00  0.00     0.019 C 
HETATM    7  C4  UNL     1       9.264   8.283  47.850  1.00  0.00     0.069 C 
HETATM    8  C3  UNL     1       9.435   7.845  46.420  1.00  0.00     0.166 C 
HETATM    9  O1  UNL     1      10.702   7.438  46.103  1.00  0.00    -0.348 OA
HETATM   10  C14 UNL     1       8.996   9.094  45.684  1.00  0.00     0.082 C 
HETATM   11  O4  UNL     1       8.551   6.831  46.153  1.00  0.00    -0.348 OA
HETATM   12  C2  UNL     1      10.468   6.585  45.001  1.00  0.00     0.150 C 
HETATM   13  C1  UNL     1      11.586   5.623  44.787  1.00  0.00     0.042 C 
HETATM   14  C15 UNL     1       9.250   5.812  45.512  1.00  0.00     0.150 C 
HETATM   15  C16 UNL     1       8.425   5.299  44.381  1.00  0.00     0.042 C 
ENDBRANCH   1   5
BRANCH   3  16
HETATM   16  N2  UNL     1       6.652  12.649  44.872  1.00  0.00    -0.267 N 
HETATM   17  C8  UNL     1       5.477  12.965  44.139  1.00  0.00     0.241 C 
HETATM   18  O3  UNL     1       4.854  11.999  43.603  1.00  0.00    -0.271 OA
ATOM     19  H2  UNL     1       7.176  13.403  45.315  1.00  0.00     0.190 HD
BRANCH  17  20
HETATM   20  C9  UNL     1       4.988  14.350  44.000  1.00  0.00     0.088 A 
HETATM   21  C10 UNL     1       3.526  14.626  43.838  1.00  0.00     0.024 A 
HETATM   22  C11 UNL     1       4.251  15.008  45.106  1.00  0.00    -0.035 A 
HETATM   23  C12 UNL     1       4.557  16.475  45.357  1.00  0.00     0.015 C 
HETATM   24  C13 UNL     1       3.813  14.212  46.313  1.00  0.00     0.015 C 
ENDBRANCH  17  20
ENDBRANCH   3  16
TORSDOF 3
ENDMDL
MODEL 2
REMARK VINA RESULT: -7.480333807      1.883      2.424
REMARK  3 active torsions:
REMARK  status: ('A' for Active; 'I' for Inactive)
REMARK    1  A    between atoms: C6_7  and  C7_8 
REMARK       I    between atoms: C7_8  and  N1_10 
REMARK    2  A    between atoms: N1_10  and  N2_12 
REMARK       I    between atoms: N2_12  and  C8_14 
REMARK    3  A    between atoms: C8_14  and  C9_16 
ROOT
HETATM    1  C7  UNL     1       8.569  10.073  44.649  1.00  0.00     0.240 C 
HETATM    2  O2  UNL     1       9.303  10.840  45.314  1.00  0.00    -0.271 OA
HETATM    3  N1  UNL     1       7.314  10.519  44.163  1.00  0.00    -0.267 N 
ATOM      4  H1  UNL     1       6.732   9.878  43.624  1.00  0.00     0.190 HD
ENDROOT
BRANCH   1   5
HETATM    5  C6  UNL     1       8.996   8.711  44.366  1.00  0.00     0.085 C 
HETATM    6  C5  UNL     1       8.849   7.891  45.626  1.00  0.00     0.019 C 
HETATM    7  C4  UNL     1      10.120   7.077  45.758  1.00  0.00     0.069 C 
HETATM    8  C3  UNL     1      10.650   7.115  44.350  1.00  0.00     0.166 C 
HETATM    9  O1  UNL     1      11.950   6.702  44.226  1.00  0.00    -0.348 OA
HETATM   10  C14 UNL     1      10.441   8.574  44.005  1.00  0.00     0.082 C 
HETATM   11  O4  UNL     1       9.849   6.342  43.549  1.00  0.00    -0.348 OA
HETATM   12  C2  UNL     1      11.996   6.286  42.876  1.00  0.00     0.150 C 
HETATM   13  C1  UNL     1      13.114   5.334  42.620  1.00  0.00     0.042 C 
HETATM   14  C15 UNL     1      10.673   5.521  42.784  1.00  0.00     0.150 C 
HETATM   15  C16 UNL     1      10.163   5.496  41.383  1.00  0.00     0.042 C 
ENDBRANCH   1   5
BRANCH   3  16
HETATM   16  N2  UNL     1       6.851  11.823  44.406  1.00  0.00    -0.267 N 
HETATM   17  C8  UNL     1       5.553  12.079  44.924  1.00  0.00     0.241 C 
HETATM   18  O3  UNL     1       4.819  11.072  45.163  1.00  0.00    -0.271 OA
ATOM     19  H2  UNL     1       7.466  12.611  44.204  1.00  0.00     0.190 HD
BRANCH  17  20
HETATM   20  C9  UNL     1       5.066  13.447  45.181  1.00  0.00     0.088 A 
HETATM   21  C10 UNL     1       5.646  14.611  44.440  1.00  0.00     0.024 A 
HETATM   22  C11 UNL     1       4.230  14.153  44.181  1.00  0.00    -0.035 A 
HETATM   23  C12 UNL     1       3.083  14.995  44.716  1.00  0.00     0.015 C 
HETATM   24  C13 UNL     1       4.028  13.569  42.802  1.00  0.00     0.015 C 
ENDBRANCH  17  20
ENDBRANCH   3  16
TORSDOF 3
ENDMDL
MODEL 3
REMARK VINA RESULT: -7.411889920      1.945      8.309
REMARK  3 active torsions:
REMARK  status: ('A' for Active; 'I' for Inactive)
REMARK    1  A    between atoms: C6_7  and  C7_8 
REMARK       I    between atoms: C7_8  and  N1_10 
REMARK    2  A    between atoms: N1_10  and  N2_12 
REMARK       I    between atoms: N2_12  and  C8_14 
REMARK    3  A    between atoms: C8_14  and  C9_16 
ROOT
HETATM    1  C7  UNL     1       8.306  10.197  45.455  1.00  0.00     0.240 C 
HETATM    2  O2  UNL     1       9.322  10.846  45.796  1.00  0.00    -0.271 OA
HETATM    3  N1  UNL     1       8.434   8.978  44.744  1.00  0.00    -0.267 N 
ATOM      4  H1  UNL     1       7.594   8.467  44.476  1.00  0.00     0.190 HD
ENDROOT
BRANCH   1   5
HETATM    5  C6  UNL     1       6.977  10.690  45.784  1.00  0.00     0.085 C 
HETATM    6  C5  UNL     1       5.955   9.753  45.184  1.00  0.00     0.019 C 
HETATM    7  C4  UNL     1       4.903  10.625  44.531  1.00  0.00     0.069 C 
HETATM    8  C3  UNL     1       5.131  11.942  45.223  1.00  0.00     0.166 C 
HETATM    9  O1  UNL     1       4.512  13.007  44.627  1.00  0.00    -0.348 OA
HETATM   10  C14 UNL     1       6.643  12.023  45.193  1.00  0.00     0.082 C 
HETATM   11  O4  UNL     1       4.711  11.842  46.526  1.00  0.00    -0.348 OA
HETATM   12  C2  UNL     1       4.385  13.912  45.705  1.00  0.00     0.150 C 
HETATM   13  C1  UNL     1       3.312  14.919  45.471  1.00  0.00     0.042 C 
HETATM   14  C15 UNL     1       3.926  12.956  46.808  1.00  0.00     0.150 C 
HETATM   15  C16 UNL     1       4.292  13.475  48.157  1.00  0.00     0.042 C 
ENDBRANCH   1   5
BRANCH   3  16
HETATM   16  N2  UNL     1       9.693   8.455  44.400  1.00  0.00    -0.267 N 
HETATM   17  C8  UNL     1      10.234   7.309  45.042  1.00  0.00     0.241 C 
HETATM   18  O3  UNL     1       9.530   6.768  45.947  1.00  0.00    -0.271 OA
ATOM     19  H2  UNL     1      10.234   8.913  43.668  1.00  0.00     0.190 HD
BRANCH  17  20
HETATM   20  C9  UNL     1      11.554   6.758  44.681  1.00  0.00     0.088 A 
HETATM   21  C10 UNL     1      11.884   5.327  44.973  1.00  0.00     0.024 A 
HETATM   22  C11 UNL     1      11.694   5.806  43.553  1.00  0.00    -0.035 A 
HETATM   23  C12 UNL     1      12.919   5.966  42.668  1.00  0.00     0.015 C 
HETATM   24  C13 UNL     1      10.470   5.229  42.882  1.00  0.00     0.015 C 
ENDBRANCH  17  20
ENDBRANCH   3  16
TORSDOF 3
ENDMDL
MODEL 4
REMARK VINA RESULT: -7.313602783      2.234      8.073
REMARK  3 active torsions:
REMARK  status: ('A' for Active; 'I' for Inactive)
REMARK    1  A    between atoms: C6_7  and  C7_8 
REMARK       I    between atoms: C7_8  and  N1_10 
REMARK    2  A    between atoms: N1_10  and  N2_12 
REMARK       I    between atoms: N2_12  and  C8_14 
REMARK    3  A    between atoms: C8_14  and  C9_16 
ROOT
HETATM    1  C7  UNL     1       8.239  10.079  45.278  1.00  0.00     0.240 C 
HETATM    2  O2  UNL     1       9.186  10.075  46.099  1.00  0.00    -0.271 OA
HETATM    3  N1  UNL     1       8.423   9.586  43.962  1.00  0.00    -0.267 N 
ATOM      4  H1  UNL     1       7.638   9.600  43.311  1.00  0.00     0.190 HD
ENDROOT
BRANCH   1   5
HETATM    5  C6  UNL     1       6.934  10.594  45.667  1.00  0.00     0.085 C 
HETATM    6  C5  UNL     1       5.871   9.685  45.096  1.00  0.00     0.019 C 
HETATM    7  C4  UNL     1       4.811  10.588  44.499  1.00  0.00     0.069 C 
HETATM    8  C3  UNL     1       5.094  11.890  45.199  1.00  0.00     0.166 C 
HETATM    9  O1  UNL     1       4.473  12.976  44.643  1.00  0.00    -0.348 OA
HETATM   10  C14 UNL     1       6.604  11.942  45.108  1.00  0.00     0.082 C 
HETATM   11  O4  UNL     1       4.724  11.779  46.515  1.00  0.00    -0.348 OA
HETATM   12  C2  UNL     1       4.408  13.867  45.738  1.00  0.00     0.150 C 
HETATM   13  C1  UNL     1       3.347  14.898  45.561  1.00  0.00     0.042 C 
HETATM   14  C15 UNL     1       3.973  12.904  46.844  1.00  0.00     0.150 C 
HETATM   15  C16 UNL     1       4.404  13.396  48.185  1.00  0.00     0.042 C 
ENDBRANCH   1   5
BRANCH   3  16
HETATM   16  N2  UNL     1       9.661   9.078  43.533  1.00  0.00    -0.267 N 
HETATM   17  C8  UNL     1       9.779   7.807  42.909  1.00  0.00     0.241 C 
HETATM   18  O3  UNL     1       8.711   7.141  42.752  1.00  0.00    -0.271 OA
ATOM     19  H2  UNL     1      10.501   9.639  43.673  1.00  0.00     0.190 HD
BRANCH  17  20
HETATM   20  C9  UNL     1      11.077   7.273  42.456  1.00  0.00     0.088 A 
HETATM   21  C10 UNL     1      12.356   7.798  43.030  1.00  0.00     0.024 A 
HETATM   22  C11 UNL     1      11.884   6.397  43.340  1.00  0.00    -0.035 A 
HETATM   23  C12 UNL     1      12.596   5.227  42.681  1.00  0.00     0.015 C 
HETATM   24  C13 UNL     1      11.494   6.199  44.786  1.00  0.00     0.015 C 
ENDBRANCH  17  20
ENDBRANCH   3  16
TORSDOF 3
ENDMDL
MODEL 5
REMARK VINA RESULT: -7.309410610      2.285      8.242
REMARK  3 active torsions:
REMARK  status: ('A' for Active; 'I' for Inactive)
REMARK    1  A    between atoms: C6_7  and  C7_8 
REMARK       I    between atoms: C7_8  and  N1_10 
REMARK    2  A    between atoms: N1_10  and  N2_12 
REMARK       I    between atoms: N2_12  and  C8_14 
REMARK    3  A    between atoms: C8_14  and  C9_16 
ROOT
HETATM    1  C7  UNL     1       8.069   9.960  45.409  1.00  0.00     0.240 C 
HETATM    2  O2  UNL     1       9.043  10.476  46.004  1.00  0.00    -0.271 OA
HETATM    3  N1  UNL     1       8.165   8.654  44.866  1.00  0.00    -0.267 N 
ATOM      4  H1  UNL     1       7.360   8.254  44.386  1.00  0.00     0.190 HD
ENDROOT
BRANCH   1   5
HETATM    5  C6  UNL     1       6.823  10.697  45.267  1.00  0.00     0.085 C 
HETATM    6  C5  UNL     1       5.679   9.711  45.266  1.00  0.00     0.019 C 
HETATM    7  C4  UNL     1       4.757  10.124  44.137  1.00  0.00     0.069 C 
HETATM    8  C3  UNL     1       5.169  11.554  43.919  1.00  0.00     0.166 C 
HETATM    9  O1  UNL     1       4.703  12.104  42.755  1.00  0.00    -0.348 OA
HETATM   10  C14 UNL     1       6.677  11.429  43.970  1.00  0.00     0.082 C 
HETATM   11  O4  UNL     1       4.743  12.310  44.982  1.00  0.00    -0.348 OA
HETATM   12  C2  UNL     1       4.707  13.484  43.062  1.00  0.00     0.150 C 
HETATM   13  C1  UNL     1       3.784  14.257  42.184  1.00  0.00     0.042 C 
HETATM   14  C15 UNL     1       4.121  13.448  44.475  1.00  0.00     0.150 C 
HETATM   15  C16 UNL     1       4.560  14.631  45.269  1.00  0.00     0.042 C 
ENDBRANCH   1   5
BRANCH   3  16
HETATM   16  N2  UNL     1       9.344   7.897  44.975  1.00  0.00    -0.267 N 
HETATM   17  C8  UNL     1      10.327   7.882  43.949  1.00  0.00     0.241 C 
HETATM   18  O3  UNL     1      10.099   8.587  42.921  1.00  0.00    -0.271 OA
ATOM     19  H2  UNL     1       9.498   7.340  45.815  1.00  0.00     0.190 HD
BRANCH  17  20
HETATM   20  C9  UNL     1      11.566   7.089  44.061  1.00  0.00     0.088 A 
HETATM   21  C10 UNL     1      11.574   5.797  44.818  1.00  0.00     0.024 A 
HETATM   22  C11 UNL     1      11.720   5.817  43.314  1.00  0.00    -0.035 A 
HETATM   23  C12 UNL     1      13.087   5.536  42.712  1.00  0.00     0.015 C 
HETATM   24  C13 UNL     1      10.544   5.209  42.587  1.00  0.00     0.015 C 
ENDBRANCH  17  20
ENDBRANCH   3  16
TORSDOF 3
ENDMDL
