MODEL 1
REMARK VINA RESULT: -7.082414283      0.000      0.000
REMARK  13 active torsions:
REMARK  status: ('A' for Active; 'I' for Inactive)
REMARK    1  A    between atoms: N1_2  and  S1_4 
REMARK    2  A    between atoms: S1_4  and  C2_7 
REMARK    3  A    between atoms: C2_7  and  C3_8 
REMARK    4  A    between atoms: C3_8  and  C4_9 
REMARK    5  A    between atoms: C4_9  and  C5_10 
REMARK    6  A    between atoms: C5_10  and  C6_11 
REMARK    7  A    between atoms: C6_11  and  C7_12 
REMARK    8  A    between atoms: C7_12  and  C8_13 
REMARK    9  A    between atoms: C8_13  and  N2_14 
REMARK   10  A    between atoms: N2_14  and  C9_16 
REMARK   11  A    between atoms: C10_19  and  N4_20 
REMARK   12  A    between atoms: C12_26  and  C13_27 
REMARK   13  A    between atoms: C13_27  and  C14_28 
ROOT
HETATM    1  C9  UNL     1       9.553  29.847  12.166  1.00  0.00     0.124 A 
HETATM    2  N3  UNL     1       9.876  29.364  10.957  1.00  0.00    -0.177 N 
ATOM      3  H3  UNL     1       9.246  29.484  10.164  1.00  0.00     0.186 HD
HETATM    4  C10 UNL     1      11.057  28.712  10.811  1.00  0.00     0.677 A 
HETATM    5  N5  UNL     1      11.904  28.540  11.839  1.00  0.00    -0.202 N 
ATOM      6  H5  UNL     1      12.780  28.043  11.677  1.00  0.00     0.183 HD
HETATM    7  C11 UNL     1      11.641  28.998  13.069  1.00  0.00     0.117 A 
HETATM    8  C12 UNL     1      10.430  29.672  13.244  1.00  0.00     0.006 A 
ENDROOT
BRANCH   1   9
HETATM    9  N2  UNL     1       8.452  30.464  12.323  1.00  0.00    -0.375 N 
ATOM     10  H2  UNL     1       8.469  31.478  12.438  1.00  0.00     0.161 HD
BRANCH   9  11
HETATM   11  C8  UNL     1       7.191  29.790  12.343  1.00  0.00     0.121 C 
BRANCH  11  12
HETATM   12  C7  UNL     1       6.117  30.555  13.088  1.00  0.00     0.020 C 
BRANCH  12  13
HETATM   13  C6  UNL     1       6.563  31.974  13.205  1.00  0.00     0.002 C 
BRANCH  13  14
HETATM   14  C5  UNL     1       6.324  32.545  14.596  1.00  0.00     0.000 C 
BRANCH  14  15
HETATM   15  C4  UNL     1       6.739  31.507  15.593  1.00  0.00     0.001 C 
BRANCH  15  16
HETATM   16  C3  UNL     1       7.676  32.087  16.605  1.00  0.00     0.017 C 
BRANCH  16  17
HETATM   17  C2  UNL     1       8.494  33.216  16.049  1.00  0.00     0.163 C 
BRANCH  17  18
HETATM   18  S1  UNL     1       9.534  33.834  17.371  1.00  0.00     0.226 S 
HETATM   19  O1  UNL     1      10.056  32.666  18.129  1.00  0.00    -0.206 OA
HETATM   20  O2  UNL     1      10.619  34.662  16.765  1.00  0.00    -0.206 OA
BRANCH  18  21
HETATM   21  N1  UNL     1       8.613  34.874  18.406  1.00  0.00    -0.324 N 
HETATM   22  C1  UNL     1       9.373  36.080  18.671  1.00  0.00     0.159 C 
ATOM     23  H1  UNL     1       7.683  34.669  18.771  1.00  0.00     0.171 HD
ENDBRANCH  18  21
ENDBRANCH  17  18
ENDBRANCH  16  17
ENDBRANCH  15  16
ENDBRANCH  14  15
ENDBRANCH  13  14
ENDBRANCH  12  13
ENDBRANCH  11  12
ENDBRANCH   9  11
ENDBRANCH   1   9
BRANCH   8  24
HETATM   24  C13 UNL     1      10.060  30.199  14.551  1.00  0.00     0.083 C 
BRANCH  24  25
HETATM   25  C14 UNL     1      11.149  30.618  15.429  1.00  0.00    -0.038 A 
HETATM   26  C15 UNL     1      11.929  31.703  15.129  1.00  0.00     0.010 A 
HETATM   27  C16 UNL     1      12.948  32.093  15.988  1.00  0.00     0.018 A 
HETATM   28  C17 UNL     1      13.149  31.367  17.132  1.00  0.00     0.087 A 
HETATM   29  N6  UNL     1      12.380  30.318  17.401  1.00  0.00    -0.375 N 
HETATM   30  C18 UNL     1      11.396  29.927  16.590  1.00  0.00     0.095 A 
ATOM     31  H6  UNL     1      12.549  29.792  18.259  1.00  0.00     0.164 HD
ENDBRANCH  24  25
ENDBRANCH   8  24
BRANCH   4  32
HETATM   32  N4  UNL     1      11.375  28.245   9.656  1.00  0.00    -0.234 N 
ATOM     33  H42 UNL     1      12.045  27.478   9.601  1.00  0.00     0.174 HD
ATOM     34  H41 UNL     1      10.951  28.651   8.822  1.00  0.00     0.174 HD
ENDBRANCH   4  32
TORSDOF 13
ENDMDL
MODEL 2
REMARK VINA RESULT: -7.008902412      1.126      1.261
REMARK  13 active torsions:
REMARK  status: ('A' for Active; 'I' for Inactive)
REMARK    1  A    between atoms: N1_2  and  S1_4 
REMARK    2  A    between atoms: S1_4  and  C2_7 
REMARK    3  A    between atoms: C2_7  and  C3_8 
REMARK    4  A    between atoms: C3_8  and  C4_9 
REMARK    5  A    between atoms: C4_9  and  C5_10 
REMARK    6  A    between atoms: C5_10  and  C6_11 
REMARK    7  A    between atoms: C6_11  and  C7_12 
REMARK    8  A    between atoms: C7_12  and  C8_13 
REMARK    9  A    between atoms: C8_13  and  N2_14 
REMARK   10  A    between atoms: N2_14  and  C9_16 
REMARK   11  A    between atoms: C10_19  and  N4_20 
REMARK   12  A    between atoms: C12_26  and  C13_27 
REMARK   13  A    between atoms: C13_27  and  C14_28 
ROOT
HETATM    1  C9  UNL     1      10.216  29.873  12.515  1.00  0.00     0.124 A 
HETATM    2  N3  UNL     1      10.111  29.507  11.229  1.00  0.00    -0.177 N 
ATOM      3  H3  UNL     1       9.301  29.784  10.675  1.00  0.00     0.186 HD
HETATM    4  C10 UNL     1      11.103  28.762  10.680  1.00  0.00     0.677 A 
HETATM    5  N5  UNL     1      12.180  28.383  11.388  1.00  0.00    -0.202 N 
ATOM      6  H5  UNL     1      12.898  27.823  10.930  1.00  0.00     0.183 HD
HETATM    7  C11 UNL     1      12.345  28.715  12.675  1.00  0.00     0.117 A 
HETATM    8  C12 UNL     1      11.336  29.483  13.262  1.00  0.00     0.006 A 
ENDROOT
BRANCH   1   9
HETATM    9  N2  UNL     1       9.298  30.575  13.047  1.00  0.00    -0.375 N 
ATOM     10  H2  UNL     1       9.416  30.889  14.010  1.00  0.00     0.161 HD
BRANCH   9  11
HETATM   11  C8  UNL     1       8.108  30.940  12.343  1.00  0.00     0.121 C 
BRANCH  11  12
HETATM   12  C7  UNL     1       6.908  30.096  12.724  1.00  0.00     0.020 C 
BRANCH  12  13
HETATM   13  C6  UNL     1       5.741  31.010  12.893  1.00  0.00     0.002 C 
BRANCH  13  14
HETATM   14  C5  UNL     1       5.939  31.999  14.034  1.00  0.00     0.000 C 
BRANCH  14  15
HETATM   15  C4  UNL     1       5.976  31.221  15.312  1.00  0.00     0.001 C 
BRANCH  15  16
HETATM   16  C3  UNL     1       7.145  31.632  16.151  1.00  0.00     0.017 C 
BRANCH  16  17
HETATM   17  C2  UNL     1       7.913  32.770  15.546  1.00  0.00     0.163 C 
BRANCH  17  18
HETATM   18  S1  UNL     1       9.246  33.183  16.671  1.00  0.00     0.226 S 
HETATM   19  O1  UNL     1       9.398  32.059  17.633  1.00  0.00    -0.206 OA
HETATM   20  O2  UNL     1      10.480  33.425  15.865  1.00  0.00    -0.206 OA
BRANCH  18  21
HETATM   21  N1  UNL     1       8.879  34.657  17.502  1.00  0.00    -0.324 N 
HETATM   22  C1  UNL     1      10.042  35.523  17.476  1.00  0.00     0.159 C 
ATOM     23  H1  UNL     1       7.986  34.880  17.941  1.00  0.00     0.171 HD
ENDBRANCH  18  21
ENDBRANCH  17  18
ENDBRANCH  16  17
ENDBRANCH  15  16
ENDBRANCH  14  15
ENDBRANCH  13  14
ENDBRANCH  12  13
ENDBRANCH  11  12
ENDBRANCH   9  11
ENDBRANCH   1   9
BRANCH   8  24
HETATM   24  C13 UNL     1      11.430  29.884  14.659  1.00  0.00     0.083 C 
BRANCH  24  25
HETATM   25  C14 UNL     1      12.544  30.755  15.024  1.00  0.00    -0.038 A 
HETATM   26  C15 UNL     1      13.082  31.638  14.125  1.00  0.00     0.010 A 
HETATM   27  C16 UNL     1      14.130  32.469  14.500  1.00  0.00     0.018 A 
HETATM   28  C17 UNL     1      14.607  32.378  15.781  1.00  0.00     0.087 A 
HETATM   29  N6  UNL     1      14.069  31.513  16.634  1.00  0.00    -0.375 N 
HETATM   30  C18 UNL     1      13.062  30.708  16.295  1.00  0.00     0.095 A 
ATOM     31  H6  UNL     1      14.440  31.464  17.583  1.00  0.00     0.164 HD
ENDBRANCH  24  25
ENDBRANCH   8  24
BRANCH   4  32
HETATM   32  N4  UNL     1      11.011  28.407   9.449  1.00  0.00    -0.234 N 
ATOM     33  H42 UNL     1      11.633  27.679   9.096  1.00  0.00     0.174 HD
ATOM     34  H41 UNL     1      10.319  28.858   8.852  1.00  0.00     0.174 HD
ENDBRANCH   4  32
TORSDOF 13
ENDMDL
MODEL 3
REMARK VINA RESULT: -6.982769101      0.882      1.019
REMARK  13 active torsions:
REMARK  status: ('A' for Active; 'I' for Inactive)
REMARK    1  A    between atoms: N1_2  and  S1_4 
REMARK    2  A    between atoms: S1_4  and  C2_7 
REMARK    3  A    between atoms: C2_7  and  C3_8 
REMARK    4  A    between atoms: C3_8  and  C4_9 
REMARK    5  A    between atoms: C4_9  and  C5_10 
REMARK    6  A    between atoms: C5_10  and  C6_11 
REMARK    7  A    between atoms: C6_11  and  C7_12 
REMARK    8  A    between atoms: C7_12  and  C8_13 
REMARK    9  A    between atoms: C8_13  and  N2_14 
REMARK   10  A    between atoms: N2_14  and  C9_16 
REMARK   11  A    between atoms: C10_19  and  N4_20 
REMARK   12  A    between atoms: C12_26  and  C13_27 
REMARK   13  A    between atoms: C13_27  and  C14_28 
ROOT
HETATM    1  C9  UNL     1       9.872  30.004  12.363  1.00  0.00     0.124 A 
HETATM    2  N3  UNL     1      10.026  29.576  11.101  1.00  0.00    -0.177 N 
ATOM      3  H3  UNL     1       9.367  29.853  10.374  1.00  0.00     0.186 HD
HETATM    4  C10 UNL     1      11.078  28.768  10.811  1.00  0.00     0.677 A 
HETATM    5  N5  UNL     1      11.960  28.389  11.750  1.00  0.00    -0.202 N 
ATOM      6  H5  UNL     1      12.733  27.781  11.481  1.00  0.00     0.183 HD
HETATM    7  C11 UNL     1      11.862  28.781  13.027  1.00  0.00     0.117 A 
HETATM    8  C12 UNL     1      10.787  29.614  13.349  1.00  0.00     0.006 A 
ENDROOT
BRANCH   1   9
HETATM    9  N2  UNL     1       8.895  30.765  12.654  1.00  0.00    -0.375 N 
ATOM     10  H2  UNL     1       9.090  31.684  13.052  1.00  0.00     0.161 HD
BRANCH   9  11
HETATM   11  C8  UNL     1       7.534  30.380  12.443  1.00  0.00     0.121 C 
BRANCH  11  12
HETATM   12  C7  UNL     1       6.540  31.430  12.895  1.00  0.00     0.020 C 
BRANCH  12  13
HETATM   13  C6  UNL     1       5.881  30.932  14.138  1.00  0.00     0.002 C 
BRANCH  13  14
HETATM   14  C5  UNL     1       6.618  31.364  15.398  1.00  0.00     0.000 C 
BRANCH  14  15
HETATM   15  C4  UNL     1       7.084  32.772  15.195  1.00  0.00     0.001 C 
BRANCH  15  16
HETATM   16  C3  UNL     1       8.456  32.965  15.762  1.00  0.00     0.017 C 
BRANCH  16  17
HETATM   17  C2  UNL     1       8.437  33.181  17.247  1.00  0.00     0.163 C 
BRANCH  17  18
HETATM   18  S1  UNL     1       9.802  34.270  17.652  1.00  0.00     0.226 S 
HETATM   19  O1  UNL     1      10.531  33.681  18.807  1.00  0.00    -0.206 OA
HETATM   20  O2  UNL     1      10.661  34.416  16.439  1.00  0.00    -0.206 OA
BRANCH  18  21
HETATM   21  N1  UNL     1       9.200  35.845  18.046  1.00  0.00    -0.324 N 
HETATM   22  C1  UNL     1       9.986  36.846  17.350  1.00  0.00     0.159 C 
ATOM     23  H1  UNL     1       8.417  36.038  18.671  1.00  0.00     0.171 HD
ENDBRANCH  18  21
ENDBRANCH  17  18
ENDBRANCH  16  17
ENDBRANCH  15  16
ENDBRANCH  14  15
ENDBRANCH  13  14
ENDBRANCH  12  13
ENDBRANCH  11  12
ENDBRANCH   9  11
ENDBRANCH   1   9
BRANCH   8  24
HETATM   24  C13 UNL     1      10.600  30.083  14.715  1.00  0.00     0.083 C 
BRANCH  24  25
HETATM   25  C14 UNL     1      11.645  30.940  15.270  1.00  0.00    -0.038 A 
HETATM   26  C15 UNL     1      12.544  31.582  14.460  1.00  0.00     0.010 A 
HETATM   27  C16 UNL     1      13.519  32.405  15.010  1.00  0.00     0.018 A 
HETATM   28  C17 UNL     1      13.555  32.553  16.371  1.00  0.00     0.087 A 
HETATM   29  N6  UNL     1      12.673  31.919  17.135  1.00  0.00    -0.375 N 
HETATM   30  C18 UNL     1      11.729  31.124  16.628  1.00  0.00     0.095 A 
ATOM     31  H6  UNL     1      12.719  32.044  18.146  1.00  0.00     0.164 HD
ENDBRANCH  24  25
ENDBRANCH   8  24
BRANCH   4  32
HETATM   32  N4  UNL     1      11.234  28.353   9.605  1.00  0.00    -0.234 N 
ATOM     33  H42 UNL     1      10.480  28.491   8.933  1.00  0.00     0.174 HD
ATOM     34  H41 UNL     1      12.109  27.896   9.346  1.00  0.00     0.174 HD
ENDBRANCH   4  32
TORSDOF 13
ENDMDL
MODEL 4
REMARK VINA RESULT: -6.968010257      0.759      1.048
REMARK  13 active torsions:
REMARK  status: ('A' for Active; 'I' for Inactive)
REMARK    1  A    between atoms: N1_2  and  S1_4 
REMARK    2  A    between atoms: S1_4  and  C2_7 
REMARK    3  A    between atoms: C2_7  and  C3_8 
REMARK    4  A    between atoms: C3_8  and  C4_9 
REMARK    5  A    between atoms: C4_9  and  C5_10 
REMARK    6  A    between atoms: C5_10  and  C6_11 
REMARK    7  A    between atoms: C6_11  and  C7_12 
REMARK    8  A    between atoms: C7_12  and  C8_13 
REMARK    9  A    between atoms: C8_13  and  N2_14 
REMARK   10  A    between atoms: N2_14  and  C9_16 
REMARK   11  A    between atoms: C10_19  and  N4_20 
REMARK   12  A    between atoms: C12_26  and  C13_27 
REMARK   13  A    between atoms: C13_27  and  C14_28 
ROOT
HETATM    1  C9  UNL     1       9.563  29.816  12.246  1.00  0.00     0.124 A 
HETATM    2  N3  UNL     1       9.905  29.383  11.024  1.00  0.00    -0.177 N 
ATOM      3  H3  UNL     1       9.287  29.536  10.226  1.00  0.00     0.186 HD
HETATM    4  C10 UNL     1      11.090  28.740  10.868  1.00  0.00     0.677 A 
HETATM    5  N5  UNL     1      11.921  28.526  11.901  1.00  0.00    -0.202 N 
ATOM      6  H5  UNL     1      12.800  28.037  11.731  1.00  0.00     0.183 HD
HETATM    7  C11 UNL     1      11.639  28.932  13.145  1.00  0.00     0.117 A 
HETATM    8  C12 UNL     1      10.424  29.597  13.330  1.00  0.00     0.006 A 
ENDROOT
BRANCH   1   9
HETATM    9  N2  UNL     1       8.459  30.425  12.412  1.00  0.00    -0.375 N 
ATOM     10  H2  UNL     1       8.476  31.417  12.652  1.00  0.00     0.161 HD
BRANCH   9  11
HETATM   11  C8  UNL     1       7.194  29.771  12.274  1.00  0.00     0.121 C 
BRANCH  11  12
HETATM   12  C7  UNL     1       6.055  30.532  12.920  1.00  0.00     0.020 C 
BRANCH  12  13
HETATM   13  C6  UNL     1       6.502  31.942  13.120  1.00  0.00     0.002 C 
BRANCH  13  14
HETATM   14  C5  UNL     1       6.200  32.452  14.523  1.00  0.00     0.000 C 
BRANCH  14  15
HETATM   15  C4  UNL     1       6.616  31.391  15.494  1.00  0.00     0.001 C 
BRANCH  15  16
HETATM   16  C3  UNL     1       7.558  31.945  16.516  1.00  0.00     0.017 C 
BRANCH  16  17
HETATM   17  C2  UNL     1       8.274  33.171  16.030  1.00  0.00     0.163 C 
BRANCH  17  18
HETATM   18  S1  UNL     1       9.293  33.773  17.377  1.00  0.00     0.226 S 
HETATM   19  O1  UNL     1       9.679  32.607  18.216  1.00  0.00    -0.206 OA
HETATM   20  O2  UNL     1      10.472  34.480  16.792  1.00  0.00    -0.206 OA
BRANCH  18  21
HETATM   21  N1  UNL     1       8.410  34.934  18.310  1.00  0.00    -0.324 N 
HETATM   22  C1  UNL     1       7.769  34.264  19.426  1.00  0.00     0.159 C 
ATOM     23  H1  UNL     1       8.350  35.931  18.106  1.00  0.00     0.171 HD
ENDBRANCH  18  21
ENDBRANCH  17  18
ENDBRANCH  16  17
ENDBRANCH  15  16
ENDBRANCH  14  15
ENDBRANCH  13  14
ENDBRANCH  12  13
ENDBRANCH  11  12
ENDBRANCH   9  11
ENDBRANCH   1   9
BRANCH   8  24
HETATM   24  C13 UNL     1      10.033  30.069  14.651  1.00  0.00     0.083 C 
BRANCH  24  25
HETATM   25  C14 UNL     1      11.073  30.688  15.468  1.00  0.00    -0.038 A 
HETATM   26  C15 UNL     1      11.489  30.119  16.643  1.00  0.00     0.010 A 
HETATM   27  C16 UNL     1      12.492  30.717  17.395  1.00  0.00     0.018 A 
HETATM   28  C17 UNL     1      13.046  31.882  16.933  1.00  0.00     0.087 A 
HETATM   29  N6  UNL     1      12.625  32.415  15.792  1.00  0.00    -0.375 N 
HETATM   30  C18 UNL     1      11.664  31.857  15.054  1.00  0.00     0.095 A 
ATOM     31  H6  UNL     1      13.052  33.283  15.468  1.00  0.00     0.164 HD
ENDBRANCH  24  25
ENDBRANCH   8  24
BRANCH   4  32
HETATM   32  N4  UNL     1      11.426  28.322   9.700  1.00  0.00    -0.234 N 
ATOM     33  H42 UNL     1      11.802  28.988   9.026  1.00  0.00     0.174 HD
ATOM     34  H41 UNL     1      11.311  27.334   9.474  1.00  0.00     0.174 HD
ENDBRANCH   4  32
TORSDOF 13
ENDMDL
MODEL 5
REMARK VINA RESULT: -6.790170365      1.098      1.246
REMARK  13 active torsions:
REMARK  status: ('A' for Active; 'I' for Inactive)
REMARK    1  A    between atoms: N1_2  and  S1_4 
REMARK    2  A    between atoms: S1_4  and  C2_7 
REMARK    3  A    between atoms: C2_7  and  C3_8 
REMARK    4  A    between atoms: C3_8  and  C4_9 
REMARK    5  A    between atoms: C4_9  and  C5_10 
REMARK    6  A    between atoms: C5_10  and  C6_11 
REMARK    7  A    between atoms: C6_11  and  C7_12 
REMARK    8  A    between atoms: C7_12  and  C8_13 
REMARK    9  A    between atoms: C8_13  and  N2_14 
REMARK   10  A    between atoms: N2_14  and  C9_16 
REMARK   11  A    between atoms: C10_19  and  N4_20 
REMARK   12  A    between atoms: C12_26  and  C13_27 
REMARK   13  A    between atoms: C13_27  and  C14_28 
ROOT
HETATM    1  C9  UNL     1       9.614  29.804  12.408  1.00  0.00     0.124 A 
HETATM    2  N3  UNL     1       9.806  29.353  11.160  1.00  0.00    -0.177 N 
ATOM      3  H3  UNL     1       9.065  29.424  10.462  1.00  0.00     0.186 HD
HETATM    4  C10 UNL     1      11.005  28.802  10.843  1.00  0.00     0.677 A 
HETATM    5  N5  UNL     1      11.996  28.697  11.743  1.00  0.00    -0.202 N 
ATOM      6  H5  UNL     1      12.879  28.274  11.456  1.00  0.00     0.183 HD
HETATM    7  C11 UNL     1      11.869  29.127  13.005  1.00  0.00     0.117 A 
HETATM    8  C12 UNL     1      10.642  29.698  13.354  1.00  0.00     0.006 A 
ENDROOT
BRANCH   1   9
HETATM    9  N2  UNL     1       8.498  30.327  12.723  1.00  0.00    -0.375 N 
ATOM     10  H2  UNL     1       8.496  31.174  13.292  1.00  0.00     0.161 HD
BRANCH   9  11
HETATM   11  C8  UNL     1       7.247  29.773  12.308  1.00  0.00     0.121 C 
BRANCH  11  12
HETATM   12  C7  UNL     1       6.053  30.582  12.771  1.00  0.00     0.020 C 
BRANCH  12  13
HETATM   13  C6  UNL     1       6.527  31.964  13.074  1.00  0.00     0.002 C 
BRANCH  13  14
HETATM   14  C5  UNL     1       6.078  32.443  14.448  1.00  0.00     0.000 C 
BRANCH  14  15
HETATM   15  C4  UNL     1       6.337  31.337  15.424  1.00  0.00     0.001 C 
BRANCH  15  16
HETATM   16  C3  UNL     1       7.408  31.725  16.395  1.00  0.00     0.017 C 
BRANCH  16  17
HETATM   17  C2  UNL     1       8.145  32.962  15.972  1.00  0.00     0.163 C 
BRANCH  17  18
HETATM   18  S1  UNL     1       9.029  33.582  17.402  1.00  0.00     0.226 S 
HETATM   19  O1  UNL     1       9.905  34.696  16.953  1.00  0.00    -0.206 OA
HETATM   20  O2  UNL     1       8.025  34.012  18.423  1.00  0.00    -0.206 OA
BRANCH  18  21
HETATM   21  N1  UNL     1       9.967  32.311  18.110  1.00  0.00    -0.324 N 
HETATM   22  C1  UNL     1      10.933  32.883  19.029  1.00  0.00     0.159 C 
ATOM     23  H1  UNL     1       9.858  31.316  17.912  1.00  0.00     0.171 HD
ENDBRANCH  18  21
ENDBRANCH  17  18
ENDBRANCH  16  17
ENDBRANCH  15  16
ENDBRANCH  14  15
ENDBRANCH  13  14
ENDBRANCH  12  13
ENDBRANCH  11  12
ENDBRANCH   9  11
ENDBRANCH   1   9
BRANCH   8  24
HETATM   24  C13 UNL     1      10.413  30.188  14.706  1.00  0.00     0.083 C 
BRANCH  24  25
HETATM   25  C14 UNL     1      11.547  30.807  15.388  1.00  0.00    -0.038 A 
HETATM   26  C15 UNL     1      11.937  32.089  15.100  1.00  0.00     0.010 A 
HETATM   27  C16 UNL     1      13.008  32.663  15.773  1.00  0.00     0.018 A 
HETATM   28  C17 UNL     1      13.657  31.918  16.721  1.00  0.00     0.087 A 
HETATM   29  N6  UNL     1      13.260  30.677  16.982  1.00  0.00    -0.375 N 
HETATM   30  C18 UNL     1      12.235  30.107  16.348  1.00  0.00     0.095 A 
ATOM     31  H6  UNL     1      13.759  30.141  17.692  1.00  0.00     0.164 HD
ENDBRANCH  24  25
ENDBRANCH   8  24
BRANCH   4  32
HETATM   32  N4  UNL     1      11.199  28.367   9.649  1.00  0.00    -0.234 N 
ATOM     33  H42 UNL     1      12.118  28.485   9.223  1.00  0.00     0.174 HD
ATOM     34  H41 UNL     1      10.430  27.914   9.155  1.00  0.00     0.174 HD
ENDBRANCH   4  32
TORSDOF 13
ENDMDL
