MODEL 1
REMARK VINA RESULT: -7.339677084      0.000      0.000
REMARK  12 active torsions:
REMARK  status: ('A' for Active; 'I' for Inactive)
REMARK    1  A    between atoms: N1_1  and  C1_4 
REMARK    2  A    between atoms: C4_7  and  C5_8 
REMARK    3  A    between atoms: C5_8  and  C6_9 
REMARK    4  A    between atoms: C6_9  and  S1_10 
REMARK    5  A    between atoms: S1_10  and  N2_13 
REMARK    6  A    between atoms: N2_13  and  C7_15 
REMARK    7  A    between atoms: C7_15  and  C8_16 
REMARK    8  A    between atoms: C8_16  and  C9_17 
REMARK    9  A    between atoms: C9_17  and  C10_18 
REMARK   10  A    between atoms: C10_18  and  C11_19 
REMARK   11  A    between atoms: C11_19  and  O3_20 
REMARK   12  A    between atoms: O3_20  and  C12_21 
ROOT
HETATM    1  N2  UNL     1       8.956  32.300  14.980  1.00  0.00    -0.320 N 
ATOM      2  H2  UNL     1       9.058  32.246  13.966  1.00  0.00     0.172 HD
ENDROOT
BRANCH   1   3
HETATM    3  S1  UNL     1      10.268  32.509  16.043  1.00  0.00     0.226 S 
HETATM    4  O1  UNL     1      10.412  33.957  16.381  1.00  0.00    -0.206 OA
HETATM    5  O2  UNL     1       9.963  31.775  17.319  1.00  0.00    -0.206 OA
BRANCH   3   6
HETATM    6  C6  UNL     1      11.800  31.932  15.358  1.00  0.00     0.168 C 
BRANCH   6   7
HETATM    7  C5  UNL     1      12.940  32.436  16.225  1.00  0.00     0.057 C 
BRANCH   7   8
HETATM    8  C4  UNL     1      13.793  33.316  15.389  1.00  0.00    -0.042 A 
HETATM    9  C3  UNL     1      13.839  34.675  15.610  1.00  0.00     0.012 A 
HETATM   10  C2  UNL     1      14.637  35.479  14.824  1.00  0.00     0.048 A 
HETATM   11  C1  UNL     1      15.388  34.900  13.812  1.00  0.00     0.098 A 
HETATM   12  N4  UNL     1      15.353  33.581  13.586  1.00  0.00    -0.352 N 
HETATM   13  C17 UNL     1      14.570  32.803  14.360  1.00  0.00     0.096 A 
ATOM     14  H4  UNL     1      15.911  33.170  12.839  1.00  0.00     0.166 HD
BRANCH  11  15
HETATM   15  N1  UNL     1      16.121  35.658  13.093  1.00  0.00    -0.385 N 
ATOM     16  H12 UNL     1      15.865  36.635  12.946  1.00  0.00     0.157 HD
ATOM     17  H11 UNL     1      16.962  35.261  12.674  1.00  0.00     0.157 HD
ENDBRANCH  11  15
ENDBRANCH   7   8
ENDBRANCH   6   7
ENDBRANCH   3   6
ENDBRANCH   1   3
BRANCH   1  18
HETATM   18  C7  UNL     1       7.681  32.207  15.660  1.00  0.00     0.132 C 
BRANCH  18  19
HETATM   19  C8  UNL     1       6.592  32.518  14.628  1.00  0.00     0.020 C 
BRANCH  19  20
HETATM   20  C9  UNL     1       5.951  31.216  14.271  1.00  0.00     0.004 C 
BRANCH  20  21
HETATM   21  C10 UNL     1       6.017  30.893  12.795  1.00  0.00     0.027 C 
BRANCH  21  22
HETATM   22  C11 UNL     1       7.121  29.935  12.522  1.00  0.00     0.175 C 
BRANCH  22  23
HETATM   23  O3  UNL     1       8.371  30.479  12.389  1.00  0.00    -0.351 OA
BRANCH  23  24
HETATM   24  C12 UNL     1       9.609  29.940  12.222  1.00  0.00     0.075 A 
HETATM   25  C13 UNL     1      10.094  29.175  13.285  1.00  0.00     0.054 A 
HETATM   26  C14 UNL     1      11.334  28.598  13.187  1.00  0.00     0.094 A 
HETATM   27  N3  UNL     1      12.093  28.753  12.089  1.00  0.00    -0.334 N 
HETATM   28  C15 UNL     1      11.655  29.475  11.065  1.00  0.00     0.247 A 
ATOM     29  H3  UNL     1      13.012  28.312  12.043  1.00  0.00     0.168 HD
HETATM   30  O4  UNL     1      12.341  29.649  10.004  1.00  0.00    -0.268 OA
HETATM   31  C16 UNL     1      10.412  30.070  11.126  1.00  0.00     0.111 A 
ENDBRANCH  23  24
ENDBRANCH  22  23
ENDBRANCH  21  22
ENDBRANCH  20  21
ENDBRANCH  19  20
ENDBRANCH  18  19
ENDBRANCH   1  18
TORSDOF 12
ENDMDL
MODEL 2
REMARK VINA RESULT: -7.061204332      2.286      4.881
REMARK  12 active torsions:
REMARK  status: ('A' for Active; 'I' for Inactive)
REMARK    1  A    between atoms: N1_1  and  C1_4 
REMARK    2  A    between atoms: C4_7  and  C5_8 
REMARK    3  A    between atoms: C5_8  and  C6_9 
REMARK    4  A    between atoms: C6_9  and  S1_10 
REMARK    5  A    between atoms: S1_10  and  N2_13 
REMARK    6  A    between atoms: N2_13  and  C7_15 
REMARK    7  A    between atoms: C7_15  and  C8_16 
REMARK    8  A    between atoms: C8_16  and  C9_17 
REMARK    9  A    between atoms: C9_17  and  C10_18 
REMARK   10  A    between atoms: C10_18  and  C11_19 
REMARK   11  A    between atoms: C11_19  and  O3_20 
REMARK   12  A    between atoms: O3_20  and  C12_21 
ROOT
HETATM    1  N2  UNL     1       9.264  30.538  13.370  1.00  0.00    -0.320 N 
ATOM      2  H2  UNL     1       9.248  30.826  14.349  1.00  0.00     0.172 HD
ENDROOT
BRANCH   1   3
HETATM    3  S1  UNL     1      10.495  29.576  12.696  1.00  0.00     0.226 S 
HETATM    4  O1  UNL     1      10.497  28.234  13.353  1.00  0.00    -0.206 OA
HETATM    5  O2  UNL     1      10.186  29.367  11.240  1.00  0.00    -0.206 OA
BRANCH   3   6
HETATM    6  C6  UNL     1      12.105  30.300  12.882  1.00  0.00     0.168 C 
BRANCH   6   7
HETATM    7  C5  UNL     1      12.489  30.258  14.350  1.00  0.00     0.057 C 
BRANCH   7   8
HETATM    8  C4  UNL     1      12.914  31.622  14.749  1.00  0.00    -0.042 A 
HETATM    9  C3  UNL     1      14.015  32.217  14.173  1.00  0.00     0.012 A 
HETATM   10  C2  UNL     1      14.397  33.486  14.555  1.00  0.00     0.048 A 
HETATM   11  C1  UNL     1      13.659  34.148  15.525  1.00  0.00     0.098 A 
HETATM   12  N4  UNL     1      12.588  33.581  16.092  1.00  0.00    -0.352 N 
HETATM   13  C17 UNL     1      12.221  32.341  15.712  1.00  0.00     0.096 A 
ATOM     14  H4  UNL     1      12.055  34.082  16.804  1.00  0.00     0.166 HD
BRANCH  11  15
HETATM   15  N1  UNL     1      14.026  35.322  15.867  1.00  0.00    -0.385 N 
ATOM     16  H12 UNL     1      14.662  35.454  16.653  1.00  0.00     0.157 HD
ATOM     17  H11 UNL     1      13.665  36.115  15.337  1.00  0.00     0.157 HD
ENDBRANCH  11  15
ENDBRANCH   7   8
ENDBRANCH   6   7
ENDBRANCH   3   6
ENDBRANCH   1   3
BRANCH   1  18
HETATM   18  C7  UNL     1       8.240  30.907  12.414  1.00  0.00     0.132 C 
BRANCH  18  19
HETATM   19  C8  UNL     1       7.014  30.035  12.701  1.00  0.00     0.020 C 
BRANCH  19  20
HETATM   20  C9  UNL     1       5.836  30.952  12.766  1.00  0.00     0.004 C 
BRANCH  20  21
HETATM   21  C10 UNL     1       5.906  31.948  13.902  1.00  0.00     0.027 C 
BRANCH  21  22
HETATM   22  C11 UNL     1       6.009  31.241  15.206  1.00  0.00     0.175 C 
BRANCH  22  23
HETATM   23  O3  UNL     1       7.241  31.260  15.804  1.00  0.00    -0.351 OA
BRANCH  23  24
HETATM   24  C12 UNL     1       7.854  32.136  16.647  1.00  0.00     0.075 A 
HETATM   25  C13 UNL     1       7.651  31.919  18.012  1.00  0.00     0.054 A 
HETATM   26  C14 UNL     1       8.239  32.760  18.921  1.00  0.00     0.094 A 
HETATM   27  N3  UNL     1       9.006  33.790  18.527  1.00  0.00    -0.334 N 
HETATM   28  C15 UNL     1       9.215  34.019  17.236  1.00  0.00     0.247 A 
ATOM     29  H3  UNL     1       9.431  34.401  19.225  1.00  0.00     0.168 HD
HETATM   30  O4  UNL     1       9.936  34.983  16.816  1.00  0.00    -0.268 OA
HETATM   31  C16 UNL     1       8.641  33.192  16.291  1.00  0.00     0.111 A 
ENDBRANCH  23  24
ENDBRANCH  22  23
ENDBRANCH  21  22
ENDBRANCH  20  21
ENDBRANCH  19  20
ENDBRANCH  18  19
ENDBRANCH   1  18
TORSDOF 12
ENDMDL
MODEL 3
REMARK VINA RESULT: -7.011678215      2.354      4.507
REMARK  12 active torsions:
REMARK  status: ('A' for Active; 'I' for Inactive)
REMARK    1  A    between atoms: N1_1  and  C1_4 
REMARK    2  A    between atoms: C4_7  and  C5_8 
REMARK    3  A    between atoms: C5_8  and  C6_9 
REMARK    4  A    between atoms: C6_9  and  S1_10 
REMARK    5  A    between atoms: S1_10  and  N2_13 
REMARK    6  A    between atoms: N2_13  and  C7_15 
REMARK    7  A    between atoms: C7_15  and  C8_16 
REMARK    8  A    between atoms: C8_16  and  C9_17 
REMARK    9  A    between atoms: C9_17  and  C10_18 
REMARK   10  A    between atoms: C10_18  and  C11_19 
REMARK   11  A    between atoms: C11_19  and  O3_20 
REMARK   12  A    between atoms: O3_20  and  C12_21 
ROOT
HETATM    1  N2  UNL     1       9.020  30.433  12.368  1.00  0.00    -0.320 N 
ATOM      2  H2  UNL     1       9.028  31.442  12.519  1.00  0.00     0.172 HD
ENDROOT
BRANCH   1   3
HETATM    3  S1  UNL     1      10.432  29.493  12.241  1.00  0.00     0.226 S 
HETATM    4  O1  UNL     1      10.282  28.253  13.061  1.00  0.00    -0.206 OA
HETATM    5  O2  UNL     1      10.591  29.071  10.808  1.00  0.00    -0.206 OA
BRANCH   3   6
HETATM    6  C6  UNL     1      11.881  30.361  12.787  1.00  0.00     0.168 C 
BRANCH   6   7
HETATM    7  C5  UNL     1      12.274  29.835  14.156  1.00  0.00     0.057 C 
BRANCH   7   8
HETATM    8  C4  UNL     1      13.269  30.771  14.735  1.00  0.00    -0.042 A 
HETATM    9  C3  UNL     1      13.986  30.434  15.862  1.00  0.00     0.012 A 
HETATM   10  C2  UNL     1      14.907  31.315  16.387  1.00  0.00     0.048 A 
HETATM   11  C1  UNL     1      15.098  32.540  15.766  1.00  0.00     0.098 A 
HETATM   12  N4  UNL     1      14.408  32.880  14.670  1.00  0.00    -0.352 N 
HETATM   13  C17 UNL     1      13.510  32.012  14.163  1.00  0.00     0.096 A 
ATOM     14  H4  UNL     1      14.560  33.784  14.224  1.00  0.00     0.166 HD
BRANCH  11  15
HETATM   15  N1  UNL     1      15.954  33.345  16.265  1.00  0.00    -0.385 N 
ATOM     16  H12 UNL     1      16.093  33.388  17.274  1.00  0.00     0.157 HD
ATOM     17  H11 UNL     1      16.488  33.937  15.629  1.00  0.00     0.157 HD
ENDBRANCH  11  15
ENDBRANCH   7   8
ENDBRANCH   6   7
ENDBRANCH   3   6
ENDBRANCH   1   3
BRANCH   1  18
HETATM   18  C7  UNL     1       7.804  29.657  12.240  1.00  0.00     0.132 C 
BRANCH  18  19
HETATM   19  C8  UNL     1       6.634  30.582  12.587  1.00  0.00     0.020 C 
BRANCH  19  20
HETATM   20  C9  UNL     1       7.227  31.884  13.020  1.00  0.00     0.004 C 
BRANCH  20  21
HETATM   21  C10 UNL     1       6.713  32.370  14.356  1.00  0.00     0.027 C 
BRANCH  21  22
HETATM   22  C11 UNL     1       7.165  31.465  15.446  1.00  0.00     0.175 C 
BRANCH  22  23
HETATM   23  O3  UNL     1       8.496  31.143  15.446  1.00  0.00    -0.351 OA
BRANCH  23  24
HETATM   24  C12 UNL     1       9.559  31.575  16.179  1.00  0.00     0.075 A 
HETATM   25  C13 UNL     1       9.933  30.765  17.254  1.00  0.00     0.054 A 
HETATM   26  C14 UNL     1      10.996  31.136  18.036  1.00  0.00     0.094 A 
HETATM   27  N3  UNL     1      11.686  32.263  17.792  1.00  0.00    -0.334 N 
HETATM   28  C15 UNL     1      11.350  33.051  16.777  1.00  0.00     0.247 A 
ATOM     29  H3  UNL     1      12.473  32.515  18.390  1.00  0.00     0.168 HD
HETATM   30  O4  UNL     1      11.976  34.128  16.507  1.00  0.00    -0.268 OA
HETATM   31  C16 UNL     1      10.286  32.710  15.966  1.00  0.00     0.111 A 
ENDBRANCH  23  24
ENDBRANCH  22  23
ENDBRANCH  21  22
ENDBRANCH  20  21
ENDBRANCH  19  20
ENDBRANCH  18  19
ENDBRANCH   1  18
TORSDOF 12
ENDMDL
MODEL 4
REMARK VINA RESULT: -6.982379574      1.911      2.226
REMARK  12 active torsions:
REMARK  status: ('A' for Active; 'I' for Inactive)
REMARK    1  A    between atoms: N1_1  and  C1_4 
REMARK    2  A    between atoms: C4_7  and  C5_8 
REMARK    3  A    between atoms: C5_8  and  C6_9 
REMARK    4  A    between atoms: C6_9  and  S1_10 
REMARK    5  A    between atoms: S1_10  and  N2_13 
REMARK    6  A    between atoms: N2_13  and  C7_15 
REMARK    7  A    between atoms: C7_15  and  C8_16 
REMARK    8  A    between atoms: C8_16  and  C9_17 
REMARK    9  A    between atoms: C9_17  and  C10_18 
REMARK   10  A    between atoms: C10_18  and  C11_19 
REMARK   11  A    between atoms: C11_19  and  O3_20 
REMARK   12  A    between atoms: O3_20  and  C12_21 
ROOT
HETATM    1  N2  UNL     1       9.270  32.225  14.896  1.00  0.00    -0.320 N 
ATOM      2  H2  UNL     1       9.196  32.613  13.955  1.00  0.00     0.172 HD
ENDROOT
BRANCH   1   3
HETATM    3  S1  UNL     1      10.707  32.249  15.808  1.00  0.00     0.226 S 
HETATM    4  O1  UNL     1      11.108  33.664  16.069  1.00  0.00    -0.206 OA
HETATM    5  O2  UNL     1      10.432  31.603  17.137  1.00  0.00    -0.206 OA
BRANCH   3   6
HETATM    6  C6  UNL     1      12.047  31.421  14.991  1.00  0.00     0.168 C 
BRANCH   6   7
HETATM    7  C5  UNL     1      13.156  32.427  14.738  1.00  0.00     0.057 C 
BRANCH   7   8
HETATM    8  C4  UNL     1      14.325  32.035  15.564  1.00  0.00    -0.042 A 
HETATM    9  C3  UNL     1      15.411  32.871  15.695  1.00  0.00     0.012 A 
HETATM   10  C2  UNL     1      16.489  32.491  16.466  1.00  0.00     0.048 A 
HETATM   11  C1  UNL     1      16.461  31.259  17.103  1.00  0.00     0.098 A 
HETATM   12  N4  UNL     1      15.412  30.438  16.984  1.00  0.00    -0.352 N 
HETATM   13  C17 UNL     1      14.362  30.817  16.229  1.00  0.00     0.096 A 
ATOM     14  H4  UNL     1      15.406  29.535  17.459  1.00  0.00     0.166 HD
BRANCH  11  15
HETATM   15  N1  UNL     1      17.467  30.923  17.814  1.00  0.00    -0.385 N 
ATOM     16  H12 UNL     1      18.258  31.557  17.920  1.00  0.00     0.157 HD
ATOM     17  H11 UNL     1      17.455  30.009  18.265  1.00  0.00     0.157 HD
ENDBRANCH  11  15
ENDBRANCH   7   8
ENDBRANCH   6   7
ENDBRANCH   3   6
ENDBRANCH   1   3
BRANCH   1  18
HETATM   18  C7  UNL     1       8.164  31.597  15.589  1.00  0.00     0.132 C 
BRANCH  18  19
HETATM   19  C8  UNL     1       6.874  32.210  15.036  1.00  0.00     0.020 C 
BRANCH  19  20
HETATM   20  C9  UNL     1       6.084  31.089  14.443  1.00  0.00     0.004 C 
BRANCH  20  21
HETATM   21  C10 UNL     1       6.137  31.043  12.932  1.00  0.00     0.027 C 
BRANCH  21  22
HETATM   22  C11 UNL     1       7.139  30.043  12.479  1.00  0.00     0.175 C 
BRANCH  22  23
HETATM   23  O3  UNL     1       8.394  30.525  12.217  1.00  0.00    -0.351 OA
BRANCH  23  24
HETATM   24  C12 UNL     1       9.612  29.931  12.091  1.00  0.00     0.075 A 
HETATM   25  C13 UNL     1       9.998  29.093  13.140  1.00  0.00     0.054 A 
HETATM   26  C14 UNL     1      11.212  28.459  13.081  1.00  0.00     0.094 A 
HETATM   27  N3  UNL     1      12.040  28.627  12.036  1.00  0.00    -0.334 N 
HETATM   28  C15 UNL     1      11.697  29.418  11.026  1.00  0.00     0.247 A 
ATOM     29  H3  UNL     1      12.937  28.143  12.019  1.00  0.00     0.168 HD
HETATM   30  O4  UNL     1      12.450  29.607  10.015  1.00  0.00    -0.268 OA
HETATM   31  C16 UNL     1      10.482  30.073  11.049  1.00  0.00     0.111 A 
ENDBRANCH  23  24
ENDBRANCH  22  23
ENDBRANCH  21  22
ENDBRANCH  20  21
ENDBRANCH  19  20
ENDBRANCH  18  19
ENDBRANCH   1  18
TORSDOF 12
ENDMDL
MODEL 5
REMARK VINA RESULT: -6.967620997      2.358      4.456
REMARK  12 active torsions:
REMARK  status: ('A' for Active; 'I' for Inactive)
REMARK    1  A    between atoms: N1_1  and  C1_4 
REMARK    2  A    between atoms: C4_7  and  C5_8 
REMARK    3  A    between atoms: C5_8  and  C6_9 
REMARK    4  A    between atoms: C6_9  and  S1_10 
REMARK    5  A    between atoms: S1_10  and  N2_13 
REMARK    6  A    between atoms: N2_13  and  C7_15 
REMARK    7  A    between atoms: C7_15  and  C8_16 
REMARK    8  A    between atoms: C8_16  and  C9_17 
REMARK    9  A    between atoms: C9_17  and  C10_18 
REMARK   10  A    between atoms: C10_18  and  C11_19 
REMARK   11  A    between atoms: C11_19  and  O3_20 
REMARK   12  A    between atoms: O3_20  and  C12_21 
ROOT
HETATM    1  N2  UNL     1       9.073  30.463  12.518  1.00  0.00    -0.320 N 
ATOM      2  H2  UNL     1       9.032  31.444  12.241  1.00  0.00     0.172 HD
ENDROOT
BRANCH   1   3
HETATM    3  S1  UNL     1      10.452  29.488  12.314  1.00  0.00     0.226 S 
HETATM    4  O1  UNL     1      10.307  28.240  13.124  1.00  0.00    -0.206 OA
HETATM    5  O2  UNL     1      10.532  29.082  10.869  1.00  0.00    -0.206 OA
BRANCH   3   6
HETATM    6  C6  UNL     1      11.947  30.310  12.803  1.00  0.00     0.168 C 
BRANCH   6   7
HETATM    7  C5  UNL     1      12.315  29.855  14.204  1.00  0.00     0.057 C 
BRANCH   7   8
HETATM    8  C4  UNL     1      13.317  30.807  14.743  1.00  0.00    -0.042 A 
HETATM    9  C3  UNL     1      13.535  32.024  14.137  1.00  0.00     0.012 A 
HETATM   10  C2  UNL     1      14.470  32.897  14.651  1.00  0.00     0.048 A 
HETATM   11  C1  UNL     1      15.185  32.530  15.781  1.00  0.00     0.098 A 
HETATM   12  N4  UNL     1      14.983  31.350  16.380  1.00  0.00    -0.352 N 
HETATM   13  C17 UNL     1      14.066  30.503  15.871  1.00  0.00     0.096 A 
ATOM     14  H4  UNL     1      15.516  31.095  17.211  1.00  0.00     0.166 HD
BRANCH  11  15
HETATM   15  N1  UNL     1      16.047  33.350  16.245  1.00  0.00    -0.385 N 
ATOM     16  H12 UNL     1      16.124  34.290  15.858  1.00  0.00     0.157 HD
ATOM     17  H11 UNL     1      16.651  33.037  17.005  1.00  0.00     0.157 HD
ENDBRANCH  11  15
ENDBRANCH   7   8
ENDBRANCH   6   7
ENDBRANCH   3   6
ENDBRANCH   1   3
BRANCH   1  18
HETATM   18  C7  UNL     1       7.962  29.760  13.127  1.00  0.00     0.132 C 
BRANCH  18  19
HETATM   19  C8  UNL     1       6.676  30.325  12.516  1.00  0.00     0.020 C 
BRANCH  19  20
HETATM   20  C9  UNL     1       6.619  31.770  12.890  1.00  0.00     0.004 C 
BRANCH  20  21
HETATM   21  C10 UNL     1       6.284  32.007  14.346  1.00  0.00     0.027 C 
BRANCH  21  22
HETATM   22  C11 UNL     1       7.229  32.987  14.943  1.00  0.00     0.175 C 
BRANCH  22  23
HETATM   23  O3  UNL     1       8.557  32.660  14.874  1.00  0.00    -0.351 OA
BRANCH  23  24
HETATM   24  C12 UNL     1       9.478  32.304  15.810  1.00  0.00     0.075 A 
HETATM   25  C13 UNL     1       9.349  31.018  16.340  1.00  0.00     0.054 A 
HETATM   26  C14 UNL     1      10.243  30.588  17.287  1.00  0.00     0.094 A 
HETATM   27  N3  UNL     1      11.241  31.379  17.717  1.00  0.00    -0.334 N 
HETATM   28  C15 UNL     1      11.385  32.606  17.230  1.00  0.00     0.247 A 
ATOM     29  H3  UNL     1      11.891  31.034  18.423  1.00  0.00     0.168 HD
HETATM   30  O4  UNL     1      12.316  33.390  17.609  1.00  0.00    -0.268 OA
HETATM   31  C16 UNL     1      10.506  33.073  16.275  1.00  0.00     0.111 A 
ENDBRANCH  23  24
ENDBRANCH  22  23
ENDBRANCH  21  22
ENDBRANCH  20  21
ENDBRANCH  19  20
ENDBRANCH  18  19
ENDBRANCH   1  18
TORSDOF 12
ENDMDL
