MODEL 1
REMARK VINA RESULT: -7.783993977      0.000      0.000
REMARK  12 active torsions:
REMARK  status: ('A' for Active; 'I' for Inactive)
REMARK    1  A    between atoms: C2_2  and  C3_3 
REMARK    2  A    between atoms: C3_3  and  C4_4 
REMARK    3  A    between atoms: C8_8  and  C9_9 
REMARK    4  A    between atoms: C9_9  and  N1_10 
REMARK    5  A    between atoms: N1_10  and  C10_13 
REMARK    6  A    between atoms: C10_13  and  C11_14 
REMARK    7  A    between atoms: C11_14  and  O1_15 
REMARK    8  A    between atoms: C11_14  and  C12_17 
REMARK    9  A    between atoms: C12_17  and  O2_18 
REMARK   10  A    between atoms: O2_18  and  C13_19 
REMARK   11  A    between atoms: C13_19  and  C14_20 
REMARK   12  A    between atoms: C14_20  and  C15_21 
REMARK       I    between atoms: N3_28  and  C20_30 
ROOT
HETATM    1  C11 UNL     1      11.278  29.442  11.553  1.00  0.00     0.167 C 
ENDROOT
BRANCH   1   2
HETATM    2  C10 UNL     1       9.918  29.991  11.878  1.00  0.00     0.266 C 
BRANCH   2   3
HETATM    3  N1  UNL     1       8.851  29.075  11.657  1.00  0.00    -0.069 N 
ATOM      4  H12 UNL     1       9.178  28.192  11.265  1.00  0.00     0.277 HD
ATOM      5  H11 UNL     1       8.249  29.365  10.886  1.00  0.00     0.277 HD
BRANCH   3   6
HETATM    6  C9  UNL     1       8.100  28.883  12.898  1.00  0.00     0.270 C 
BRANCH   6   7
HETATM    7  C8  UNL     1       7.294  30.041  13.300  1.00  0.00    -0.032 A 
HETATM    8  C7  UNL     1       6.265  30.521  12.547  1.00  0.00     0.009 A 
HETATM    9  C6  UNL     1       5.617  31.700  12.941  1.00  0.00     0.001 A 
HETATM   10  C5  UNL     1       6.038  32.366  14.101  1.00  0.00     0.007 A 
HETATM   11  C4  UNL     1       7.068  31.896  14.866  1.00  0.00    -0.054 A 
HETATM   12  C21 UNL     1       7.675  30.739  14.452  1.00  0.00     0.016 A 
BRANCH  11  13
HETATM   13  C3  UNL     1       7.650  32.528  16.069  1.00  0.00     0.064 C 
BRANCH  13  14
HETATM   14  C2  UNL     1       8.073  31.625  17.131  1.00  0.00    -0.032 C 
HETATM   15  C1  UNL     1       7.245  31.354  18.134  1.00  0.00     0.007 C 
ENDBRANCH  13  14
ENDBRANCH  11  13
ENDBRANCH   6   7
ENDBRANCH   3   6
ENDBRANCH   2   3
ENDBRANCH   1   2
BRANCH   1  16
HETATM   16  O1  UNL     1      11.931  29.893  10.499  1.00  0.00    -0.392 OA
ATOM     17  H1  UNL     1      12.869  29.757  10.432  1.00  0.00     0.210 HD
ENDBRANCH   1  16
BRANCH   1  18
HETATM   18  C12 UNL     1      11.923  29.070  12.825  1.00  0.00     0.200 C 
BRANCH  18  19
HETATM   19  O2  UNL     1      11.069  29.037  13.917  1.00  0.00    -0.388 OA
BRANCH  19  20
HETATM   20  C13 UNL     1      11.752  29.752  14.920  1.00  0.00     0.172 C 
BRANCH  20  21
HETATM   21  C14 UNL     1      11.490  31.176  15.073  1.00  0.00     0.068 C 
BRANCH  21  22
HETATM   22  C15 UNL     1      12.558  32.165  14.985  1.00  0.00    -0.012 A 
HETATM   23  C16 UNL     1      13.699  31.977  14.252  1.00  0.00     0.012 A 
HETATM   24  C17 UNL     1      14.714  32.921  14.288  1.00  0.00     0.018 A 
HETATM   25  C18 UNL     1      14.526  34.042  15.073  1.00  0.00     0.089 A 
HETATM   26  N2  UNL     1      13.373  34.213  15.799  1.00  0.00    -0.352 N 
HETATM   27  C19 UNL     1      12.381  33.329  15.792  1.00  0.00     0.115 A 
ATOM     28  H2  UNL     1      13.274  35.054  16.368  1.00  0.00     0.166 HD
HETATM   29  N3  UNL     1      11.286  33.406  16.415  1.00  0.00    -0.297 N 
HETATM   30  C20 UNL     1      10.783  34.363  17.267  1.00  0.00     0.334 C 
ATOM     31  H3  UNL     1      10.661  32.615  16.258  1.00  0.00     0.171 HD
HETATM   32  N4  UNL     1      11.366  34.612  18.553  1.00  0.00    -0.040 NA
HETATM   33  O3  UNL     1       9.793  35.064  16.973  1.00  0.00    -0.251 OA
ENDBRANCH  21  22
ENDBRANCH  20  21
ENDBRANCH  19  20
ENDBRANCH  18  19
ENDBRANCH   1  18
TORSDOF 12
ENDMDL
MODEL 2
REMARK VINA RESULT: -7.734621508      1.536      2.378
REMARK  12 active torsions:
REMARK  status: ('A' for Active; 'I' for Inactive)
REMARK    1  A    between atoms: C2_2  and  C3_3 
REMARK    2  A    between atoms: C3_3  and  C4_4 
REMARK    3  A    between atoms: C8_8  and  C9_9 
REMARK    4  A    between atoms: C9_9  and  N1_10 
REMARK    5  A    between atoms: N1_10  and  C10_13 
REMARK    6  A    between atoms: C10_13  and  C11_14 
REMARK    7  A    between atoms: C11_14  and  O1_15 
REMARK    8  A    between atoms: C11_14  and  C12_17 
REMARK    9  A    between atoms: C12_17  and  O2_18 
REMARK   10  A    between atoms: O2_18  and  C13_19 
REMARK   11  A    between atoms: C13_19  and  C14_20 
REMARK   12  A    between atoms: C14_20  and  C15_21 
REMARK       I    between atoms: N3_28  and  C20_30 
ROOT
HETATM    1  C11 UNL     1      11.640  29.507  11.206  1.00  0.00     0.167 C 
ENDROOT
BRANCH   1   2
HETATM    2  C10 UNL     1      10.206  29.079  11.328  1.00  0.00     0.266 C 
BRANCH   2   3
HETATM    3  N1  UNL     1       9.764  28.893  12.668  1.00  0.00    -0.069 N 
ATOM      4  H12 UNL     1      10.053  29.659  13.277  1.00  0.00     0.277 HD
ATOM      5  H11 UNL     1      10.263  28.136  13.136  1.00  0.00     0.277 HD
BRANCH   3   6
HETATM    6  C9  UNL     1       8.315  28.691  12.688  1.00  0.00     0.270 C 
BRANCH   6   7
HETATM    7  C8  UNL     1       7.546  29.879  13.071  1.00  0.00    -0.032 A 
HETATM    8  C7  UNL     1       6.373  30.225  12.470  1.00  0.00     0.009 A 
HETATM    9  C6  UNL     1       5.756  31.436  12.812  1.00  0.00     0.001 A 
HETATM   10  C5  UNL     1       6.355  32.271  13.767  1.00  0.00     0.007 A 
HETATM   11  C4  UNL     1       7.530  31.938  14.378  1.00  0.00    -0.054 A 
HETATM   12  C21 UNL     1       8.102  30.744  14.021  1.00  0.00     0.016 A 
BRANCH  11  13
HETATM   13  C3  UNL     1       8.297  32.748  15.348  1.00  0.00     0.064 C 
BRANCH  13  14
HETATM   14  C2  UNL     1       7.783  32.779  16.711  1.00  0.00    -0.032 C 
HETATM   15  C1  UNL     1       7.426  31.647  17.307  1.00  0.00     0.007 C 
ENDBRANCH  13  14
ENDBRANCH  11  13
ENDBRANCH   6   7
ENDBRANCH   3   6
ENDBRANCH   2   3
ENDBRANCH   1   2
BRANCH   1  16
HETATM   16  O1  UNL     1      12.132  29.815  10.021  1.00  0.00    -0.392 OA
ATOM     17  H1  UNL     1      12.352  30.717   9.821  1.00  0.00     0.210 HD
ENDBRANCH   1  16
BRANCH   1  18
HETATM   18  C12 UNL     1      12.006  30.200  12.455  1.00  0.00     0.200 C 
BRANCH  18  19
HETATM   19  O2  UNL     1      12.455  29.365  13.467  1.00  0.00    -0.388 OA
BRANCH  19  20
HETATM   20  C13 UNL     1      12.749  30.234  14.535  1.00  0.00     0.172 C 
BRANCH  20  21
HETATM   21  C14 UNL     1      11.682  31.057  15.088  1.00  0.00     0.068 C 
BRANCH  21  22
HETATM   22  C15 UNL     1      11.348  31.025  16.507  1.00  0.00    -0.012 A 
HETATM   23  C16 UNL     1      10.966  29.887  17.165  1.00  0.00     0.012 A 
HETATM   24  C17 UNL     1      10.575  29.948  18.494  1.00  0.00     0.018 A 
HETATM   25  C18 UNL     1      10.590  31.181  19.115  1.00  0.00     0.089 A 
HETATM   26  N2  UNL     1      10.977  32.311  18.438  1.00  0.00    -0.352 N 
HETATM   27  C19 UNL     1      11.357  32.291  17.165  1.00  0.00     0.115 A 
ATOM     28  H2  UNL     1      10.973  33.203  18.933  1.00  0.00     0.166 HD
HETATM   29  N3  UNL     1      11.738  33.272  16.468  1.00  0.00    -0.297 N 
HETATM   30  C20 UNL     1      11.870  34.610  16.764  1.00  0.00     0.334 C 
ATOM     31  H3  UNL     1      11.994  33.029  15.511  1.00  0.00     0.171 HD
HETATM   32  N4  UNL     1      10.735  35.438  17.048  1.00  0.00    -0.040 NA
HETATM   33  O3  UNL     1      12.982  35.178  16.801  1.00  0.00    -0.251 OA
ENDBRANCH  21  22
ENDBRANCH  20  21
ENDBRANCH  19  20
ENDBRANCH  18  19
ENDBRANCH   1  18
TORSDOF 12
ENDMDL
MODEL 3
REMARK VINA RESULT: -7.618715195      1.922      2.859
REMARK  12 active torsions:
REMARK  status: ('A' for Active; 'I' for Inactive)
REMARK    1  A    between atoms: C2_2  and  C3_3 
REMARK    2  A    between atoms: C3_3  and  C4_4 
REMARK    3  A    between atoms: C8_8  and  C9_9 
REMARK    4  A    between atoms: C9_9  and  N1_10 
REMARK    5  A    between atoms: N1_10  and  C10_13 
REMARK    6  A    between atoms: C10_13  and  C11_14 
REMARK    7  A    between atoms: C11_14  and  O1_15 
REMARK    8  A    between atoms: C11_14  and  C12_17 
REMARK    9  A    between atoms: C12_17  and  O2_18 
REMARK   10  A    between atoms: O2_18  and  C13_19 
REMARK   11  A    between atoms: C13_19  and  C14_20 
REMARK   12  A    between atoms: C14_20  and  C15_21 
REMARK       I    between atoms: N3_28  and  C20_30 
ROOT
HETATM    1  C11 UNL     1      11.625  29.506  11.221  1.00  0.00     0.167 C 
ENDROOT
BRANCH   1   2
HETATM    2  C10 UNL     1      10.184  29.098  11.334  1.00  0.00     0.266 C 
BRANCH   2   3
HETATM    3  N1  UNL     1       9.740  28.885  12.669  1.00  0.00    -0.069 N 
ATOM      4  H12 UNL     1      10.057  29.620  13.301  1.00  0.00     0.277 HD
ATOM      5  H11 UNL     1      10.215  28.097  13.111  1.00  0.00     0.277 HD
BRANCH   3   6
HETATM    6  C9  UNL     1       8.285  28.731  12.688  1.00  0.00     0.270 C 
BRANCH   6   7
HETATM    7  C8  UNL     1       7.558  29.928  13.123  1.00  0.00    -0.032 A 
HETATM    8  C7  UNL     1       6.396  30.338  12.543  1.00  0.00     0.009 A 
HETATM    9  C6  UNL     1       5.822  31.554  12.937  1.00  0.00     0.001 A 
HETATM   10  C5  UNL     1       6.454  32.329  13.921  1.00  0.00     0.007 A 
HETATM   11  C4  UNL     1       7.619  31.932  14.512  1.00  0.00    -0.054 A 
HETATM   12  C21 UNL     1       8.148  30.735  14.103  1.00  0.00     0.016 A 
BRANCH  11  13
HETATM   13  C3  UNL     1       8.417  32.675  15.509  1.00  0.00     0.064 C 
BRANCH  13  14
HETATM   14  C2  UNL     1       7.860  32.753  16.853  1.00  0.00    -0.032 C 
HETATM   15  C1  UNL     1       7.818  31.663  17.612  1.00  0.00     0.007 C 
ENDBRANCH  13  14
ENDBRANCH  11  13
ENDBRANCH   6   7
ENDBRANCH   3   6
ENDBRANCH   2   3
ENDBRANCH   1   2
BRANCH   1  16
HETATM   16  O1  UNL     1      12.132  29.798  10.039  1.00  0.00    -0.392 OA
ATOM     17  H1  UNL     1      11.839  30.576   9.579  1.00  0.00     0.210 HD
ENDBRANCH   1  16
BRANCH   1  18
HETATM   18  C12 UNL     1      11.989  30.203  12.468  1.00  0.00     0.200 C 
BRANCH  18  19
HETATM   19  O2  UNL     1      12.380  29.367  13.503  1.00  0.00    -0.388 OA
BRANCH  19  20
HETATM   20  C13 UNL     1      12.810  30.243  14.519  1.00  0.00     0.172 C 
BRANCH  20  21
HETATM   21  C14 UNL     1      13.227  31.590  14.157  1.00  0.00     0.068 C 
BRANCH  21  22
HETATM   22  C15 UNL     1      13.098  32.707  15.086  1.00  0.00    -0.012 A 
HETATM   23  C16 UNL     1      12.005  32.897  15.888  1.00  0.00     0.012 A 
HETATM   24  C17 UNL     1      11.910  34.031  16.680  1.00  0.00     0.018 A 
HETATM   25  C18 UNL     1      12.948  34.941  16.631  1.00  0.00     0.089 A 
HETATM   26  N2  UNL     1      14.037  34.732  15.821  1.00  0.00    -0.352 N 
HETATM   27  C19 UNL     1      14.161  33.659  15.048  1.00  0.00     0.115 A 
ATOM     28  H2  UNL     1      14.781  35.429  15.813  1.00  0.00     0.166 HD
HETATM   29  N3  UNL     1      15.125  33.378  14.283  1.00  0.00    -0.297 N 
HETATM   30  C20 UNL     1      16.294  34.047  14.000  1.00  0.00     0.334 C 
ATOM     31  H3  UNL     1      15.019  32.494  13.785  1.00  0.00     0.171 HD
HETATM   32  N4  UNL     1      16.298  35.301  13.306  1.00  0.00    -0.040 NA
HETATM   33  O3  UNL     1      17.414  33.602  14.327  1.00  0.00    -0.251 OA
ENDBRANCH  21  22
ENDBRANCH  20  21
ENDBRANCH  19  20
ENDBRANCH  18  19
ENDBRANCH   1  18
TORSDOF 12
ENDMDL
MODEL 4
REMARK VINA RESULT: -7.424174410      1.717      2.769
REMARK  12 active torsions:
REMARK  status: ('A' for Active; 'I' for Inactive)
REMARK    1  A    between atoms: C2_2  and  C3_3 
REMARK    2  A    between atoms: C3_3  and  C4_4 
REMARK    3  A    between atoms: C8_8  and  C9_9 
REMARK    4  A    between atoms: C9_9  and  N1_10 
REMARK    5  A    between atoms: N1_10  and  C10_13 
REMARK    6  A    between atoms: C10_13  and  C11_14 
REMARK    7  A    between atoms: C11_14  and  O1_15 
REMARK    8  A    between atoms: C11_14  and  C12_17 
REMARK    9  A    between atoms: C12_17  and  O2_18 
REMARK   10  A    between atoms: O2_18  and  C13_19 
REMARK   11  A    between atoms: C13_19  and  C14_20 
REMARK   12  A    between atoms: C14_20  and  C15_21 
REMARK       I    between atoms: N3_28  and  C20_30 
ROOT
HETATM    1  C11 UNL     1      11.390  29.054  13.166  1.00  0.00     0.167 C 
ENDROOT
BRANCH   1   2
HETATM    2  C10 UNL     1      11.259  30.051  12.051  1.00  0.00     0.266 C 
BRANCH   2   3
HETATM    3  N1  UNL     1       9.992  30.697  11.991  1.00  0.00    -0.069 N 
ATOM      4  H12 UNL     1       9.848  31.176  11.102  1.00  0.00     0.277 HD
ATOM      5  H11 UNL     1       9.946  31.510  12.606  1.00  0.00     0.277 HD
BRANCH   3   6
HETATM    6  C9  UNL     1       8.930  29.731  12.275  1.00  0.00     0.270 C 
BRANCH   6   7
HETATM    7  C8  UNL     1       7.798  30.284  13.025  1.00  0.00    -0.032 A 
HETATM    8  C7  UNL     1       6.526  30.299  12.538  1.00  0.00     0.009 A 
HETATM    9  C6  UNL     1       5.518  30.948  13.264  1.00  0.00     0.001 A 
HETATM   10  C5  UNL     1       5.836  31.572  14.480  1.00  0.00     0.007 A 
HETATM   11  C4  UNL     1       7.106  31.566  14.981  1.00  0.00    -0.054 A 
HETATM   12  C21 UNL     1       8.064  30.917  14.245  1.00  0.00     0.016 A 
BRANCH  11  13
HETATM   13  C3  UNL     1       7.587  32.232  16.209  1.00  0.00     0.064 C 
BRANCH  13  14
HETATM   14  C2  UNL     1       7.530  31.447  17.435  1.00  0.00    -0.032 C 
HETATM   15  C1  UNL     1       7.637  32.054  18.612  1.00  0.00     0.007 C 
ENDBRANCH  13  14
ENDBRANCH  11  13
ENDBRANCH   6   7
ENDBRANCH   3   6
ENDBRANCH   2   3
ENDBRANCH   1   2
BRANCH   1  16
HETATM   16  O1  UNL     1      11.704  27.802  12.892  1.00  0.00    -0.392 OA
ATOM     17  H1  UNL     1      12.617  27.548  12.827  1.00  0.00     0.210 HD
ENDBRANCH   1  16
BRANCH   1  18
HETATM   18  C12 UNL     1      11.865  29.780  14.358  1.00  0.00     0.200 C 
BRANCH  18  19
HETATM   19  O2  UNL     1      11.231  29.426  15.540  1.00  0.00    -0.388 OA
BRANCH  19  20
HETATM   20  C13 UNL     1      11.207  30.615  16.295  1.00  0.00     0.172 C 
BRANCH  20  21
HETATM   21  C14 UNL     1      11.321  31.891  15.604  1.00  0.00     0.068 C 
BRANCH  21  22
HETATM   22  C15 UNL     1      11.539  33.137  16.329  1.00  0.00    -0.012 A 
HETATM   23  C16 UNL     1      10.632  33.667  17.206  1.00  0.00     0.012 A 
HETATM   24  C17 UNL     1      10.866  34.902  17.790  1.00  0.00     0.018 A 
HETATM   25  C18 UNL     1      12.034  35.562  17.460  1.00  0.00     0.089 A 
HETATM   26  N2  UNL     1      12.933  35.013  16.579  1.00  0.00    -0.352 N 
HETATM   27  C19 UNL     1      12.741  33.833  15.999  1.00  0.00     0.115 A 
ATOM     28  H2  UNL     1      13.783  35.533  16.361  1.00  0.00     0.166 HD
HETATM   29  N3  UNL     1      13.512  33.248  15.189  1.00  0.00    -0.297 N 
HETATM   30  C20 UNL     1      14.729  33.611  14.657  1.00  0.00     0.334 C 
ATOM     31  H3  UNL     1      13.172  32.340  14.872  1.00  0.00     0.171 HD
HETATM   32  N4  UNL     1      14.859  34.718  13.756  1.00  0.00    -0.040 NA
HETATM   33  O3  UNL     1      15.784  32.999  14.926  1.00  0.00    -0.251 OA
ENDBRANCH  21  22
ENDBRANCH  20  21
ENDBRANCH  19  20
ENDBRANCH  18  19
ENDBRANCH   1  18
TORSDOF 12
ENDMDL
MODEL 5
REMARK VINA RESULT: -7.397762800      1.655      2.413
REMARK  12 active torsions:
REMARK  status: ('A' for Active; 'I' for Inactive)
REMARK    1  A    between atoms: C2_2  and  C3_3 
REMARK    2  A    between atoms: C3_3  and  C4_4 
REMARK    3  A    between atoms: C8_8  and  C9_9 
REMARK    4  A    between atoms: C9_9  and  N1_10 
REMARK    5  A    between atoms: N1_10  and  C10_13 
REMARK    6  A    between atoms: C10_13  and  C11_14 
REMARK    7  A    between atoms: C11_14  and  O1_15 
REMARK    8  A    between atoms: C11_14  and  C12_17 
REMARK    9  A    between atoms: C12_17  and  O2_18 
REMARK   10  A    between atoms: O2_18  and  C13_19 
REMARK   11  A    between atoms: C13_19  and  C14_20 
REMARK   12  A    between atoms: C14_20  and  C15_21 
REMARK       I    between atoms: N3_28  and  C20_30 
ROOT
HETATM    1  C11 UNL     1      11.615  29.081  13.017  1.00  0.00     0.167 C 
ENDROOT
BRANCH   1   2
HETATM    2  C10 UNL     1      11.335  29.908  11.794  1.00  0.00     0.266 C 
BRANCH   2   3
HETATM    3  N1  UNL     1      10.161  30.707  11.885  1.00  0.00    -0.069 N 
ATOM      4  H12 UNL     1      10.018  31.275  11.050  1.00  0.00     0.277 HD
ATOM      5  H11 UNL     1      10.263  31.464  12.562  1.00  0.00     0.277 HD
BRANCH   3   6
HETATM    6  C9  UNL     1       9.007  29.858  12.180  1.00  0.00     0.270 C 
BRANCH   6   7
HETATM    7  C8  UNL     1       7.966  30.512  12.980  1.00  0.00    -0.032 A 
HETATM    8  C7  UNL     1       6.642  30.448  12.665  1.00  0.00     0.009 A 
HETATM    9  C6  UNL     1       5.721  31.194  13.412  1.00  0.00     0.001 A 
HETATM   10  C5  UNL     1       6.176  31.994  14.470  1.00  0.00     0.007 A 
HETATM   11  C4  UNL     1       7.499  32.069  14.798  1.00  0.00    -0.054 A 
HETATM   12  C21 UNL     1       8.371  31.322  14.048  1.00  0.00     0.016 A 
BRANCH  11  13
HETATM   13  C3  UNL     1       8.117  32.914  15.841  1.00  0.00     0.064 C 
BRANCH  13  14
HETATM   14  C2  UNL     1       7.769  32.596  17.219  1.00  0.00    -0.032 C 
HETATM   15  C1  UNL     1       8.154  31.438  17.746  1.00  0.00     0.007 C 
ENDBRANCH  13  14
ENDBRANCH  11  13
ENDBRANCH   6   7
ENDBRANCH   3   6
ENDBRANCH   2   3
ENDBRANCH   1   2
BRANCH   1  16
HETATM   16  O1  UNL     1      11.602  27.765  12.934  1.00  0.00    -0.392 OA
ATOM     17  H1  UNL     1      10.859  27.325  12.538  1.00  0.00     0.210 HD
ENDBRANCH   1  16
BRANCH   1  18
HETATM   18  C12 UNL     1      12.548  29.844  13.865  1.00  0.00     0.200 C 
BRANCH  18  19
HETATM   19  O2  UNL     1      12.838  31.119  13.403  1.00  0.00    -0.388 OA
BRANCH  19  20
HETATM   20  C13 UNL     1      12.971  31.895  14.571  1.00  0.00     0.172 C 
BRANCH  20  21
HETATM   21  C14 UNL     1      11.778  32.221  15.340  1.00  0.00     0.068 C 
BRANCH  21  22
HETATM   22  C15 UNL     1      11.737  32.070  16.789  1.00  0.00    -0.012 A 
HETATM   23  C16 UNL     1      11.876  30.865  17.425  1.00  0.00     0.012 A 
HETATM   24  C17 UNL     1      11.734  30.783  18.802  1.00  0.00     0.018 A 
HETATM   25  C18 UNL     1      11.456  31.947  19.493  1.00  0.00     0.089 A 
HETATM   26  N2  UNL     1      11.322  33.145  18.837  1.00  0.00    -0.352 N 
HETATM   27  C19 UNL     1      11.449  33.262  17.520  1.00  0.00     0.115 A 
ATOM     28  H2  UNL     1      11.115  33.981  19.384  1.00  0.00     0.166 HD
HETATM   29  N3  UNL     1      11.354  34.318  16.836  1.00  0.00    -0.297 N 
HETATM   30  C20 UNL     1      11.092  35.621  17.194  1.00  0.00     0.334 C 
ATOM     31  H3  UNL     1      11.497  34.181  15.835  1.00  0.00     0.171 HD
HETATM   32  N4  UNL     1       9.819  36.020  17.720  1.00  0.00    -0.040 NA
HETATM   33  O3  UNL     1      11.943  36.528  17.080  1.00  0.00    -0.251 OA
ENDBRANCH  21  22
ENDBRANCH  20  21
ENDBRANCH  19  20
ENDBRANCH  18  19
ENDBRANCH   1  18
TORSDOF 12
ENDMDL
