MODEL 1
REMARK VINA RESULT: -3.495506927      0.000      0.000
REMARK  1 active torsions:
REMARK  status: ('A' for Active; 'I' for Inactive)
REMARK    1  A    between atoms: N1_1  and  C1_5 
ROOT
HETATM    1  C1  UNL     1       9.994  -1.008   7.917  1.00  0.00     0.252 C 
HETATM    2 CL1  UNL     1      10.154   0.655   7.380  1.00  0.00    -0.076 Cl
HETATM    3  S1  UNL     1       8.869  -2.037   6.917  1.00  0.00    -0.109 SA
HETATM    4  C2  UNL     1       7.976  -1.737   8.424  1.00  0.00     0.059 C 
HETATM    5  C3  UNL     1       7.023  -0.550   8.263  1.00  0.00     0.016 C 
HETATM    6  C4  UNL     1       6.446  -0.320   9.644  1.00  0.00     0.001 C 
HETATM    7  C5  UNL     1       7.552   0.043  10.572  1.00  0.00     0.001 C 
HETATM    8  C6  UNL     1       8.918  -0.063  10.020  1.00  0.00     0.010 C 
HETATM    9  C7  UNL     1       9.191  -1.241   9.161  1.00  0.00     0.062 C 
ENDROOT
BRANCH   1  10
HETATM   10  N1  UNL     1      11.312  -1.655   7.906  1.00  0.00    -0.047 N 
ATOM     11  H13 UNL     1      11.588  -1.953   6.970  1.00  0.00     0.277 HD
ATOM     12  H12 UNL     1      12.069  -0.992   8.077  1.00  0.00     0.277 HD
ATOM     13  H11 UNL     1      11.318  -2.426   8.574  1.00  0.00     0.277 HD
ENDBRANCH   1  10
TORSDOF 1
ENDMDL
MODEL 2
REMARK VINA RESULT: -3.396002458      2.429      3.033
REMARK  1 active torsions:
REMARK  status: ('A' for Active; 'I' for Inactive)
REMARK    1  A    between atoms: N1_1  and  C1_5 
ROOT
HETATM    1  C1  UNL     1       9.483  -3.007   6.538  1.00  0.00     0.252 C 
HETATM    2 CL1  UNL     1       8.899  -4.484   7.283  1.00  0.00    -0.076 Cl
HETATM    3  S1  UNL     1      10.780  -2.131   7.474  1.00  0.00    -0.109 SA
HETATM    4  C2  UNL     1       9.323  -1.136   7.694  1.00  0.00     0.059 C 
HETATM    5  C3  UNL     1       8.620  -1.487   9.008  1.00  0.00     0.016 C 
HETATM    6  C4  UNL     1       7.337  -0.682   8.994  1.00  0.00     0.001 C 
HETATM    7  C5  UNL     1       6.505  -1.124   7.842  1.00  0.00     0.001 C 
HETATM    8  C6  UNL     1       7.145  -2.077   6.912  1.00  0.00     0.010 C 
HETATM    9  C7  UNL     1       8.569  -1.820   6.585  1.00  0.00     0.062 C 
ENDROOT
BRANCH   1  10
HETATM   10  N1  UNL     1      10.027  -3.311   5.208  1.00  0.00    -0.047 N 
ATOM     11  H13 UNL     1       9.364  -3.826   4.628  1.00  0.00     0.277 HD
ATOM     12  H12 UNL     1      10.113  -2.478   4.626  1.00  0.00     0.277 HD
ATOM     13  H11 UNL     1      10.915  -3.803   5.308  1.00  0.00     0.277 HD
ENDBRANCH   1  10
TORSDOF 1
ENDMDL
MODEL 3
REMARK VINA RESULT: -3.319575867      1.249      1.736
REMARK  1 active torsions:
REMARK  status: ('A' for Active; 'I' for Inactive)
REMARK    1  A    between atoms: N1_1  and  C1_5 
ROOT
HETATM    1  C1  UNL     1      10.157  -1.498   7.925  1.00  0.00     0.252 C 
HETATM    2 CL1  UNL     1      10.338   0.149   7.347  1.00  0.00    -0.076 Cl
HETATM    3  S1  UNL     1      10.066  -2.768   6.620  1.00  0.00    -0.109 SA
HETATM    4  C2  UNL     1       8.403  -2.644   7.237  1.00  0.00     0.059 C 
HETATM    5  C3  UNL     1       7.571  -1.699   6.366  1.00  0.00     0.016 C 
HETATM    6  C4  UNL     1       6.242  -1.574   7.083  1.00  0.00     0.001 C 
HETATM    7  C5  UNL     1       6.471  -0.960   8.418  1.00  0.00     0.001 C 
HETATM    8  C6  UNL     1       7.884  -0.772   8.809  1.00  0.00     0.010 C 
HETATM    9  C7  UNL     1       8.813  -1.878   8.467  1.00  0.00     0.062 C 
ENDROOT
BRANCH   1  10
HETATM   10  N1  UNL     1      11.290  -1.839   8.795  1.00  0.00    -0.047 N 
ATOM     11  H13 UNL     1      12.170  -1.889   8.281  1.00  0.00     0.277 HD
ATOM     12  H12 UNL     1      11.534  -1.077   9.428  1.00  0.00     0.277 HD
ATOM     13  H11 UNL     1      11.086  -2.704   9.296  1.00  0.00     0.277 HD
ENDBRANCH   1  10
TORSDOF 1
ENDMDL
MODEL 4
REMARK VINA RESULT: -2.985616892      2.737      3.637
REMARK  1 active torsions:
REMARK  status: ('A' for Active; 'I' for Inactive)
REMARK    1  A    between atoms: N1_1  and  C1_5 
ROOT
HETATM    1  C1  UNL     1       6.809  -1.781   7.358  1.00  0.00     0.252 C 
HETATM    2 CL1  UNL     1       6.933  -1.009   5.787  1.00  0.00    -0.076 Cl
HETATM    3  S1  UNL     1       6.461  -0.653   8.748  1.00  0.00    -0.109 SA
HETATM    4  C2  UNL     1       8.170  -1.098   8.953  1.00  0.00     0.059 C 
HETATM    5  C3  UNL     1       9.084  -0.040   8.330  1.00  0.00     0.016 C 
HETATM    6  C4  UNL     1      10.482  -0.613   8.446  1.00  0.00     0.001 C 
HETATM    7  C5  UNL     1      10.553  -1.870   7.654  1.00  0.00     0.001 C 
HETATM    8  C6  UNL     1       9.274  -2.356   7.097  1.00  0.00     0.010 C 
HETATM    9  C7  UNL     1       8.088  -2.247   7.983  1.00  0.00     0.062 C 
ENDROOT
BRANCH   1  10
HETATM   10  N1  UNL     1       5.738  -2.787   7.326  1.00  0.00    -0.047 N 
ATOM     11  H13 UNL     1       5.028  -2.616   8.038  1.00  0.00     0.277 HD
ATOM     12  H12 UNL     1       5.145  -2.692   6.502  1.00  0.00     0.277 HD
ATOM     13  H11 UNL     1       6.145  -3.719   7.402  1.00  0.00     0.277 HD
ENDBRANCH   1  10
TORSDOF 1
ENDMDL
MODEL 5
REMARK VINA RESULT: -2.908585048      1.948      2.740
REMARK  1 active torsions:
REMARK  status: ('A' for Active; 'I' for Inactive)
REMARK    1  A    between atoms: N1_1  and  C1_5 
ROOT
HETATM    1  C1  UNL     1       9.266  -0.458   9.327  1.00  0.00     0.252 C 
HETATM    2 CL1  UNL     1       8.917   1.216   8.936  1.00  0.00    -0.076 Cl
HETATM    3  S1  UNL     1      10.654  -1.194   8.401  1.00  0.00    -0.109 SA
HETATM    4  C2  UNL     1       9.203  -1.934   7.689  1.00  0.00     0.059 C 
HETATM    5  C3  UNL     1       8.770  -1.178   6.430  1.00  0.00     0.016 C 
HETATM    6  C4  UNL     1       7.459  -1.817   6.021  1.00  0.00     0.001 C 
HETATM    7  C5  UNL     1       6.462  -1.604   7.104  1.00  0.00     0.001 C 
HETATM    8  C6  UNL     1       6.981  -1.002   8.350  1.00  0.00     0.010 C 
HETATM    9  C7  UNL     1       8.305  -1.486   8.812  1.00  0.00     0.062 C 
ENDROOT
BRANCH   1  10
HETATM   10  N1  UNL     1       9.580  -0.572  10.757  1.00  0.00    -0.047 N 
ATOM     11  H13 UNL     1       9.238   0.227  11.292  1.00  0.00     0.277 HD
ATOM     12  H12 UNL     1       9.032  -1.300  11.216  1.00  0.00     0.277 HD
ATOM     13  H11 UNL     1      10.583  -0.714  10.875  1.00  0.00     0.277 HD
ENDBRANCH   1  10
TORSDOF 1
ENDMDL
