MODEL 1
REMARK VINA RESULT: -7.129650690      0.000      0.000
REMARK  1 active torsions:
REMARK  status: ('A' for Active; 'I' for Inactive)
REMARK    1  A    between atoms: C5_9  and  N2_10 
ROOT
HETATM    1  F1  UNL     1       9.057   0.966   9.385  1.00  0.00    -0.198 F 
HETATM    2  C1  UNL     1       8.449  -0.032  10.129  1.00  0.00     0.300 C 
HETATM    3  F2  UNL     1       9.392  -1.028  10.307  1.00  0.00    -0.198 F 
HETATM    4  C2  UNL     1       8.067   0.485  11.491  1.00  0.00     0.089 C 
HETATM    5  C3  UNL     1       6.752   1.208  11.496  1.00  0.00     0.026 C 
HETATM    6  C4  UNL     1       5.668   0.352  10.900  1.00  0.00     0.121 C 
HETATM    7  N1  UNL     1       6.083  -0.368   9.737  1.00  0.00    -0.375 N 
ATOM      8  H1  UNL     1       5.352  -0.767   9.149  1.00  0.00     0.160 HD
HETATM    9  C5  UNL     1       7.299  -0.555   9.371  1.00  0.00     0.148 C 
ENDROOT
BRANCH   9  10
HETATM   10  N2  UNL     1       7.574  -1.293   8.186  1.00  0.00    -0.366 N 
HETATM   11  C6  UNL     1       6.555  -1.911   7.337  1.00  0.00     0.124 C 
HETATM   12  C7  UNL     1       7.087  -1.506   5.954  1.00  0.00     0.021 C 
HETATM   13  C8  UNL     1       8.540  -1.850   6.100  1.00  0.00     0.021 C 
HETATM   14  C9  UNL     1       8.830  -1.603   7.560  1.00  0.00     0.124 C 
ENDBRANCH   9  10
TORSDOF 1
ENDMDL
MODEL 2
REMARK VINA RESULT: -6.686585306      0.796      1.458
REMARK  1 active torsions:
REMARK  status: ('A' for Active; 'I' for Inactive)
REMARK    1  A    between atoms: C5_9  and  N2_10 
ROOT
HETATM    1  F1  UNL     1       9.063   1.173   9.777  1.00  0.00    -0.198 F 
HETATM    2  C1  UNL     1       8.452   0.041  10.290  1.00  0.00     0.300 C 
HETATM    3  F2  UNL     1       9.462  -0.836  10.638  1.00  0.00    -0.198 F 
HETATM    4  C2  UNL     1       7.686   0.378  11.543  1.00  0.00     0.089 C 
HETATM    5  C3  UNL     1       6.316   0.922  11.265  1.00  0.00     0.026 C 
HETATM    6  C4  UNL     1       5.542  -0.010  10.372  1.00  0.00     0.121 C 
HETATM    7  N1  UNL     1       6.321  -0.561   9.309  1.00  0.00    -0.375 N 
ATOM      8  H1  UNL     1       5.816  -0.996   8.537  1.00  0.00     0.160 HD
HETATM    9  C5  UNL     1       7.602  -0.555   9.243  1.00  0.00     0.148 C 
ENDROOT
BRANCH   9  10
HETATM   10  N2  UNL     1       8.255  -1.140   8.123  1.00  0.00    -0.366 N 
HETATM   11  C6  UNL     1       9.658  -0.920   7.771  1.00  0.00     0.124 C 
HETATM   12  C7  UNL     1      10.074  -2.360   7.439  1.00  0.00     0.021 C 
HETATM   13  C8  UNL     1       8.931  -2.790   6.569  1.00  0.00     0.021 C 
HETATM   14  C9  UNL     1       7.747  -2.034   7.119  1.00  0.00     0.124 C 
ENDBRANCH   9  10
TORSDOF 1
ENDMDL
MODEL 3
REMARK VINA RESULT: -6.195903923      0.872      4.235
REMARK  1 active torsions:
REMARK  status: ('A' for Active; 'I' for Inactive)
REMARK    1  A    between atoms: C5_9  and  N2_10 
ROOT
HETATM    1  F1  UNL     1       9.754  -1.214   9.914  1.00  0.00    -0.198 F 
HETATM    2  C1  UNL     1       9.122  -0.496   8.912  1.00  0.00     0.300 C 
HETATM    3  F2  UNL     1       9.362   0.842   9.168  1.00  0.00    -0.198 F 
HETATM    4  C2  UNL     1       9.724  -0.820   7.570  1.00  0.00     0.089 C 
HETATM    5  C3  UNL     1       9.154  -2.065   6.957  1.00  0.00     0.026 C 
HETATM    6  C4  UNL     1       7.652  -1.989   6.890  1.00  0.00     0.121 C 
HETATM    7  N1  UNL     1       7.056  -1.433   8.064  1.00  0.00    -0.375 N 
ATOM      8  H1  UNL     1       6.054  -1.575   8.190  1.00  0.00     0.160 HD
HETATM    9  C5  UNL     1       7.675  -0.770   8.972  1.00  0.00     0.148 C 
ENDROOT
BRANCH   9  10
HETATM   10  N2  UNL     1       6.958  -0.271  10.094  1.00  0.00    -0.366 N 
HETATM   11  C6  UNL     1       7.574   0.153  11.352  1.00  0.00     0.124 C 
HETATM   12  C7  UNL     1       6.795   1.453  11.599  1.00  0.00     0.021 C 
HETATM   13  C8  UNL     1       5.391   0.995  11.335  1.00  0.00     0.021 C 
HETATM   14  C9  UNL     1       5.546  -0.068  10.275  1.00  0.00     0.124 C 
ENDBRANCH   9  10
TORSDOF 1
ENDMDL
MODEL 4
REMARK VINA RESULT: -6.103821930      1.011      1.117
REMARK  1 active torsions:
REMARK  status: ('A' for Active; 'I' for Inactive)
REMARK    1  A    between atoms: C5_9  and  N2_10 
ROOT
HETATM    1  F1  UNL     1       9.606   0.516   8.570  1.00  0.00    -0.198 F 
HETATM    2  C1  UNL     1       9.033  -0.499   9.319  1.00  0.00     0.300 C 
HETATM    3  F2  UNL     1       9.973  -1.509   9.409  1.00  0.00    -0.198 F 
HETATM    4  C2  UNL     1       8.739  -0.022  10.718  1.00  0.00     0.089 C 
HETATM    5  C3  UNL     1       7.436   0.714  10.824  1.00  0.00     0.026 C 
HETATM    6  C4  UNL     1       6.308  -0.113  10.269  1.00  0.00     0.121 C 
HETATM    7  N1  UNL     1       6.643  -0.800   9.062  1.00  0.00    -0.375 N 
ATOM      8  H1  UNL     1       5.873  -1.173   8.507  1.00  0.00     0.160 HD
HETATM    9  C5  UNL     1       7.832  -0.987   8.616  1.00  0.00     0.148 C 
ENDROOT
BRANCH   9  10
HETATM   10  N2  UNL     1       8.027  -1.690   7.396  1.00  0.00    -0.366 N 
HETATM   11  C6  UNL     1       7.123  -1.625   6.246  1.00  0.00     0.124 C 
HETATM   12  C7  UNL     1       8.151  -1.486   5.114  1.00  0.00     0.021 C 
HETATM   13  C8  UNL     1       9.133  -2.555   5.492  1.00  0.00     0.021 C 
HETATM   14  C9  UNL     1       9.082  -2.582   6.999  1.00  0.00     0.124 C 
ENDBRANCH   9  10
TORSDOF 1
ENDMDL
MODEL 5
REMARK VINA RESULT: -5.673178976      2.513      3.641
REMARK  1 active torsions:
REMARK  status: ('A' for Active; 'I' for Inactive)
REMARK    1  A    between atoms: C5_9  and  N2_10 
ROOT
HETATM    1  F1  UNL     1       6.589  -3.031   7.594  1.00  0.00    -0.198 F 
HETATM    2  C1  UNL     1       7.117  -1.772   7.361  1.00  0.00     0.300 C 
HETATM    3  F2  UNL     1       7.005  -1.537   6.003  1.00  0.00    -0.198 F 
HETATM    4  C2  UNL     1       6.308  -0.720   8.074  1.00  0.00     0.089 C 
HETATM    5  C3  UNL     1       6.701  -0.554   9.513  1.00  0.00     0.026 C 
HETATM    6  C4  UNL     1       8.178  -0.300   9.638  1.00  0.00     0.121 C 
HETATM    7  N1  UNL     1       8.973  -1.111   8.770  1.00  0.00    -0.375 N 
ATOM      8  H1  UNL     1       9.971  -1.171   8.971  1.00  0.00     0.160 HD
HETATM    9  C5  UNL     1       8.536  -1.771   7.759  1.00  0.00     0.148 C 
ENDROOT
BRANCH   9  10
HETATM   10  N2  UNL     1       9.438  -2.542   6.976  1.00  0.00    -0.366 N 
HETATM   11  C6  UNL     1      10.763  -2.977   7.421  1.00  0.00     0.124 C 
HETATM   12  C7  UNL     1      10.739  -4.431   6.931  1.00  0.00     0.021 C 
HETATM   13  C8  UNL     1      10.216  -4.250   5.536  1.00  0.00     0.021 C 
HETATM   14  C9  UNL     1       9.297  -3.059   5.642  1.00  0.00     0.124 C 
ENDBRANCH   9  10
TORSDOF 1
ENDMDL
