MODEL 1
REMARK VINA RESULT: -1.955785266      0.000      0.000
REMARK  0 active torsions:
REMARK  status: ('A' for Active; 'I' for Inactive)
ROOT
HETATM    1  C1  UNL     1       9.418  -0.994   9.906  1.00  0.00     0.046 C 
HETATM    2  C2  UNL     1       9.087  -0.788   8.427  1.00  0.00     0.123 C 
HETATM    3  C3  UNL     1       9.704   0.560   8.048  1.00  0.00     0.046 C 
HETATM    4  C4  UNL     1       7.604  -0.806   8.260  1.00  0.00     0.100 C 
HETATM    5  C5  UNL     1       7.334  -1.841   7.202  1.00  0.00     0.225 C 
HETATM    6  F1  UNL     1       6.771  -2.966   7.785  1.00  0.00    -0.224 F 
HETATM    7  C6  UNL     1       6.507  -1.313   6.132  1.00  0.00     0.106 C 
HETATM    8  N1  UNL     1       5.835  -0.903   5.258  1.00  0.00    -0.194 NA
HETATM    9  C7  UNL     1       8.670  -2.227   6.649  1.00  0.00     0.168 C 
HETATM   10  C8  UNL     1       8.900  -1.718   5.254  1.00  0.00     0.050 C 
HETATM   11  C9  UNL     1       8.833  -3.753   6.565  1.00  0.00     0.050 C 
HETATM   12  N2  UNL     1       9.664  -1.777   7.586  1.00  0.00    -0.054 N 
ATOM     13  H21 UNL     1      10.077  -2.545   8.115  1.00  0.00     0.279 HD
ATOM     14  H22 UNL     1      10.513  -1.449   7.126  1.00  0.00     0.279 HD
ENDROOT
TORSDOF 0
ENDMDL
MODEL 2
REMARK VINA RESULT: -1.889379555      1.425      1.599
REMARK  0 active torsions:
REMARK  status: ('A' for Active; 'I' for Inactive)
ROOT
HETATM    1  C1  UNL     1       9.152  -0.870   9.569  1.00  0.00     0.046 C 
HETATM    2  C2  UNL     1       9.632  -1.205   8.155  1.00  0.00     0.123 C 
HETATM    3  C3  UNL     1      10.976  -0.492   7.996  1.00  0.00     0.046 C 
HETATM    4  C4  UNL     1       8.613  -0.728   7.176  1.00  0.00     0.100 C 
HETATM    5  C5  UNL     1       8.283  -1.927   6.328  1.00  0.00     0.225 C 
HETATM    6  F1  UNL     1       7.015  -2.389   6.649  1.00  0.00    -0.224 F 
HETATM    7  C6  UNL     1       8.411  -1.636   4.912  1.00  0.00     0.106 C 
HETATM    8  N1  UNL     1       8.507  -1.416   3.760  1.00  0.00    -0.194 NA
HETATM    9  C7  UNL     1       9.271  -2.986   6.706  1.00  0.00     0.168 C 
HETATM   10  C8  UNL     1      10.291  -3.250   5.635  1.00  0.00     0.050 C 
HETATM   11  C9  UNL     1       8.586  -4.338   6.967  1.00  0.00     0.050 C 
HETATM   12  N2  UNL     1       9.855  -2.594   7.960  1.00  0.00    -0.054 N 
ATOM     13  H21 UNL     1       9.516  -3.156   8.741  1.00  0.00     0.279 HD
ATOM     14  H22 UNL     1      10.842  -2.843   8.025  1.00  0.00     0.279 HD
ENDROOT
TORSDOF 0
ENDMDL
MODEL 3
REMARK VINA RESULT: -1.689363776      1.924      3.547
REMARK  0 active torsions:
REMARK  status: ('A' for Active; 'I' for Inactive)
ROOT
HETATM    1  C1  UNL     1       5.957  -0.770   7.999  1.00  0.00     0.046 C 
HETATM    2  C2  UNL     1       6.916  -1.804   7.406  1.00  0.00     0.123 C 
HETATM    3  C3  UNL     1       6.210  -3.153   7.552  1.00  0.00     0.046 C 
HETATM    4  C4  UNL     1       8.205  -1.749   8.153  1.00  0.00     0.100 C 
HETATM    5  C5  UNL     1       9.267  -1.557   7.105  1.00  0.00     0.225 C 
HETATM    6  F1  UNL     1       9.759  -0.263   7.173  1.00  0.00    -0.224 F 
HETATM    7  C6  UNL     1      10.323  -2.546   7.221  1.00  0.00     0.106 C 
HETATM    8  N1  UNL     1      11.189  -3.338   7.303  1.00  0.00    -0.194 NA
HETATM    9  C7  UNL     1       8.580  -1.722   5.785  1.00  0.00     0.168 C 
HETATM   10  C8  UNL     1       8.952  -2.996   5.082  1.00  0.00     0.050 C 
HETATM   11  C9  UNL     1       8.942  -0.590   4.809  1.00  0.00     0.050 C 
HETATM   12  N2  UNL     1       7.167  -1.598   6.023  1.00  0.00    -0.054 N 
ATOM     13  H21 UNL     1       6.792  -0.711   5.687  1.00  0.00     0.279 HD
ATOM     14  H22 UNL     1       6.617  -2.218   5.429  1.00  0.00     0.279 HD
ENDROOT
TORSDOF 0
ENDMDL
MODEL 4
REMARK VINA RESULT: -1.681746008      1.811      3.341
REMARK  0 active torsions:
REMARK  status: ('A' for Active; 'I' for Inactive)
ROOT
HETATM    1  C1  UNL     1       8.279   0.337   3.955  1.00  0.00     0.046 C 
HETATM    2  C2  UNL     1       8.087  -1.047   4.578  1.00  0.00     0.123 C 
HETATM    3  C3  UNL     1       8.074  -2.030   3.406  1.00  0.00     0.046 C 
HETATM    4  C4  UNL     1       6.808  -1.055   5.346  1.00  0.00     0.100 C 
HETATM    5  C5  UNL     1       7.175  -1.525   6.728  1.00  0.00     0.225 C 
HETATM    6  F1  UNL     1       7.108  -0.461   7.614  1.00  0.00    -0.224 F 
HETATM    7  C6  UNL     1       6.347  -2.639   7.154  1.00  0.00     0.106 C 
HETATM    8  N1  UNL     1       5.684  -3.540   7.517  1.00  0.00    -0.194 NA
HETATM    9  C7  UNL     1       8.601  -1.972   6.648  1.00  0.00     0.168 C 
HETATM   10  C8  UNL     1       8.758  -3.463   6.742  1.00  0.00     0.050 C 
HETATM   11  C9  UNL     1       9.445  -1.394   7.797  1.00  0.00     0.050 C 
HETATM   12  N2  UNL     1       9.153  -1.420   5.441  1.00  0.00    -0.054 N 
ATOM     13  H21 UNL     1       9.795  -0.647   5.623  1.00  0.00     0.279 HD
ATOM     14  H22 UNL     1       9.816  -2.051   4.991  1.00  0.00     0.279 HD
ENDROOT
TORSDOF 0
ENDMDL
MODEL 5
REMARK VINA RESULT: -1.664832658      1.874      3.466
REMARK  0 active torsions:
REMARK  status: ('A' for Active; 'I' for Inactive)
ROOT
HETATM    1  C1  UNL     1      11.294  -3.936   5.758  1.00  0.00     0.046 C 
HETATM    2  C2  UNL     1      10.434  -3.463   6.932  1.00  0.00     0.123 C 
HETATM    3  C3  UNL     1      10.495  -4.586   7.969  1.00  0.00     0.046 C 
HETATM    4  C4  UNL     1       9.048  -3.212   6.441  1.00  0.00     0.100 C 
HETATM    5  C5  UNL     1       8.723  -1.805   6.864  1.00  0.00     0.225 C 
HETATM    6  F1  UNL     1       8.720  -0.974   5.754  1.00  0.00    -0.224 F 
HETATM    7  C6  UNL     1       7.471  -1.738   7.594  1.00  0.00     0.106 C 
HETATM    8  N1  UNL     1       6.456  -1.665   8.186  1.00  0.00    -0.194 NA
HETATM    9  C7  UNL     1       9.841  -1.374   7.761  1.00  0.00     0.168 C 
HETATM   10  C8  UNL     1       9.434  -1.270   9.204  1.00  0.00     0.050 C 
HETATM   11  C9  UNL     1      10.373   0.018   7.381  1.00  0.00     0.050 C 
HETATM   12  N2  UNL     1      10.934  -2.283   7.546  1.00  0.00    -0.054 N 
ATOM     13  H21 UNL     1      11.695  -1.860   7.013  1.00  0.00     0.279 HD
ATOM     14  H22 UNL     1      11.453  -2.479   8.402  1.00  0.00     0.279 HD
ENDROOT
TORSDOF 0
ENDMDL
