MODEL 1
REMARK VINA RESULT: -6.060603806      0.000      0.000
REMARK  2 active torsions:
REMARK  status: ('A' for Active; 'I' for Inactive)
REMARK    1  A    between atoms: C6_6  and  C7_7 
REMARK    2  A    between atoms: C8_10  and  O1_11 
ROOT
HETATM    1  C1  UNL     1       9.397  -0.069   9.756  1.00  0.00     0.014 C 
HETATM    2  C2  UNL     1       8.789  -1.220   8.947  1.00  0.00     0.031 C 
HETATM    3  C3  UNL     1       7.417  -0.848   8.571  1.00  0.00     0.008 C 
HETATM    4  C4  UNL     1       6.829  -1.560   7.396  1.00  0.00     0.001 C 
HETATM    5  C5  UNL     1       7.797  -1.976   6.350  1.00  0.00     0.014 C 
HETATM    6  C6  UNL     1       8.962  -2.671   7.038  1.00  0.00     0.100 C 
HETATM    7  C8  UNL     1       9.691  -1.566   7.759  1.00  0.00     0.158 C 
HETATM    8  C9  UNL     1      11.003  -1.911   8.214  1.00  0.00     0.098 C 
HETATM    9  N1  UNL     1      12.065  -2.171   8.592  1.00  0.00    -0.194 NA
ENDROOT
BRANCH   7  10
HETATM   10  O1  UNL     1       9.681  -0.413   6.949  1.00  0.00    -0.374 OA
ATOM     11  H1  UNL     1       9.080  -0.617   6.242  1.00  0.00     0.212 HD
ENDBRANCH   7  10
BRANCH   6  12
HETATM   12  C7  UNL     1       9.808  -3.447   6.075  1.00  0.00     0.361 C 
HETATM   13  F1  UNL     1       9.248  -3.258   4.802  1.00  0.00    -0.214 F 
HETATM   14  F2  UNL     1       9.613  -4.798   6.331  1.00  0.00    -0.214 F 
ENDBRANCH   6  12
TORSDOF 2
ENDMDL
MODEL 2
REMARK VINA RESULT: -5.626898773      2.175      2.863
REMARK  2 active torsions:
REMARK  status: ('A' for Active; 'I' for Inactive)
REMARK    1  A    between atoms: C6_6  and  C7_7 
REMARK    2  A    between atoms: C8_10  and  O1_11 
ROOT
HETATM    1  C1  UNL     1      11.265  -1.277   8.303  1.00  0.00     0.014 C 
HETATM    2  C2  UNL     1       9.812  -1.569   8.695  1.00  0.00     0.031 C 
HETATM    3  C3  UNL     1       9.392  -0.574   9.692  1.00  0.00     0.008 C 
HETATM    4  C4  UNL     1       7.921  -0.349   9.835  1.00  0.00     0.001 C 
HETATM    5  C5  UNL     1       7.121  -0.543   8.601  1.00  0.00     0.014 C 
HETATM    6  C6  UNL     1       7.537  -1.865   7.973  1.00  0.00     0.100 C 
HETATM    7  C8  UNL     1       8.927  -1.615   7.446  1.00  0.00     0.158 C 
HETATM    8  C9  UNL     1       9.407  -2.603   6.531  1.00  0.00     0.098 C 
HETATM    9  N1  UNL     1       9.816  -3.393   5.791  1.00  0.00    -0.194 NA
ENDROOT
BRANCH   7  10
HETATM   10  O1  UNL     1       8.981  -0.310   6.916  1.00  0.00    -0.374 OA
ATOM     11  H1  UNL     1       9.768   0.072   7.286  1.00  0.00     0.212 HD
ENDBRANCH   7  10
BRANCH   6  12
HETATM   12  C7  UNL     1       6.558  -2.338   6.943  1.00  0.00     0.361 C 
HETATM   13  F1  UNL     1       5.934  -1.192   6.425  1.00  0.00    -0.214 F 
HETATM   14  F2  UNL     1       5.536  -3.008   7.603  1.00  0.00    -0.214 F 
ENDBRANCH   6  12
TORSDOF 2
ENDMDL
MODEL 3
REMARK VINA RESULT: -5.105820661      0.636      1.071
REMARK  2 active torsions:
REMARK  status: ('A' for Active; 'I' for Inactive)
REMARK    1  A    between atoms: C6_6  and  C7_7 
REMARK    2  A    between atoms: C8_10  and  O1_11 
ROOT
HETATM    1  C1  UNL     1       9.469   0.129   9.717  1.00  0.00     0.014 C 
HETATM    2  C2  UNL     1       8.680  -1.038   9.113  1.00  0.00     0.031 C 
HETATM    3  C3  UNL     1       7.269  -0.638   9.008  1.00  0.00     0.008 C 
HETATM    4  C4  UNL     1       6.434  -1.384   8.019  1.00  0.00     0.001 C 
HETATM    5  C5  UNL     1       7.153  -1.880   6.819  1.00  0.00     0.014 C 
HETATM    6  C6  UNL     1       8.420  -2.580   7.286  1.00  0.00     0.100 C 
HETATM    7  C8  UNL     1       9.308  -1.468   7.784  1.00  0.00     0.158 C 
HETATM    8  C9  UNL     1      10.677  -1.834   7.975  1.00  0.00     0.098 C 
HETATM    9  N1  UNL     1      11.788  -2.111   8.139  1.00  0.00    -0.194 NA
ENDROOT
BRANCH   7  10
HETATM   10  O1  UNL     1       9.155  -0.354   6.934  1.00  0.00    -0.374 OA
ATOM     11  H1  UNL     1       9.938   0.166   7.070  1.00  0.00     0.212 HD
ENDBRANCH   7  10
BRANCH   6  12
HETATM   12  C7  UNL     1       9.030  -3.428   6.212  1.00  0.00     0.361 C 
HETATM   13  F1  UNL     1      10.160  -4.041   6.775  1.00  0.00    -0.214 F 
HETATM   14  F2  UNL     1       9.554  -2.577   5.247  1.00  0.00    -0.214 F 
ENDBRANCH   6  12
TORSDOF 2
ENDMDL
MODEL 4
REMARK VINA RESULT: -5.033699815      3.073      4.379
REMARK  2 active torsions:
REMARK  status: ('A' for Active; 'I' for Inactive)
REMARK    1  A    between atoms: C6_6  and  C7_7 
REMARK    2  A    between atoms: C8_10  and  O1_11 
ROOT
HETATM    1  C1  UNL     1       9.310  -3.501   5.657  1.00  0.00     0.014 C 
HETATM    2  C2  UNL     1       9.520  -2.999   7.090  1.00  0.00     0.031 C 
HETATM    3  C3  UNL     1      10.965  -2.906   7.342  1.00  0.00     0.008 C 
HETATM    4  C4  UNL     1      11.395  -1.993   8.443  1.00  0.00     0.001 C 
HETATM    5  C5  UNL     1      10.527  -0.811   8.670  1.00  0.00     0.014 C 
HETATM    6  C6  UNL     1       9.085  -1.290   8.724  1.00  0.00     0.100 C 
HETATM    7  C8  UNL     1       8.762  -1.686   7.306  1.00  0.00     0.158 C 
HETATM    8  C9  UNL     1       7.369  -1.865   7.036  1.00  0.00     0.098 C 
HETATM    9  N1  UNL     1       6.247  -2.017   6.799  1.00  0.00    -0.194 NA
ENDROOT
BRANCH   7  10
HETATM   10  O1  UNL     1       9.373  -0.767   6.430  1.00  0.00    -0.374 OA
ATOM     11  H1  UNL     1      10.267  -0.691   6.740  1.00  0.00     0.212 HD
ENDBRANCH   7  10
BRANCH   6  12
HETATM   12  C7  UNL     1       8.165  -0.260   9.305  1.00  0.00     0.361 C 
HETATM   13  F1  UNL     1       8.876   0.950   9.324  1.00  0.00    -0.214 F 
HETATM   14  F2  UNL     1       7.982  -0.563  10.648  1.00  0.00    -0.214 F 
ENDBRANCH   6  12
TORSDOF 2
ENDMDL
MODEL 5
REMARK VINA RESULT: -4.551035625      2.721      3.650
REMARK  2 active torsions:
REMARK  status: ('A' for Active; 'I' for Inactive)
REMARK    1  A    between atoms: C6_6  and  C7_7 
REMARK    2  A    between atoms: C8_10  and  O1_11 
ROOT
HETATM    1  C1  UNL     1       9.315  -2.658   4.992  1.00  0.00     0.014 C 
HETATM    2  C2  UNL     1       8.632  -1.624   5.893  1.00  0.00     0.031 C 
HETATM    3  C3  UNL     1       7.208  -1.563   5.532  1.00  0.00     0.008 C 
HETATM    4  C4  UNL     1       6.276  -1.027   6.570  1.00  0.00     0.001 C 
HETATM    5  C5  UNL     1       6.672  -1.280   7.977  1.00  0.00     0.014 C 
HETATM    6  C6  UNL     1       8.136  -0.896   8.131  1.00  0.00     0.100 C 
HETATM    7  C8  UNL     1       8.889  -1.955   7.366  1.00  0.00     0.158 C 
HETATM    8  C9  UNL     1      10.294  -1.998   7.629  1.00  0.00     0.098 C 
HETATM    9  N1  UNL     1      11.433  -2.048   7.826  1.00  0.00    -0.194 NA
ENDROOT
BRANCH   7  10
HETATM   10  O1  UNL     1       8.257  -3.198   7.574  1.00  0.00    -0.374 OA
ATOM     11  H1  UNL     1       8.911  -3.846   7.341  1.00  0.00     0.212 HD
ENDBRANCH   7  10
BRANCH   6  12
HETATM   12  C7  UNL     1       8.540  -0.762   9.567  1.00  0.00     0.361 C 
HETATM   13  F1  UNL     1       7.365  -0.518  10.296  1.00  0.00    -0.214 F 
HETATM   14  F2  UNL     1       9.267   0.414   9.696  1.00  0.00    -0.214 F 
ENDBRANCH   6  12
TORSDOF 2
ENDMDL
