MODEL 1
REMARK VINA RESULT: -4.868934626      0.000      0.000
REMARK  2 active torsions:
REMARK  status: ('A' for Active; 'I' for Inactive)
REMARK    1  A    between atoms: C2_2  and  C3_3 
REMARK    2  A    between atoms: C3_3  and  N1_4 
ROOT
HETATM    1  C3  UNL     1      50.597 -51.306  17.706  1.00  0.00     0.138 C 
HETATM    2  C4  UNL     1      51.413 -50.063  17.911  1.00  0.00     0.042 C 
HETATM    3  C5  UNL     1      51.975 -49.643  16.569  1.00  0.00     0.022 C 
HETATM    4  C6  UNL     1      52.931 -50.777  16.181  1.00  0.00     0.114 C 
HETATM    5  N2  UNL     1      52.121 -51.912  15.866  1.00  0.00    -0.419 N 
ATOM      6  H2  UNL     1      52.169 -52.375  14.959  1.00  0.00     0.153 HD
HETATM    7  C7  UNL     1      51.250 -52.354  16.888  1.00  0.00     0.152 C 
ENDROOT
BRANCH   1   8
HETATM    8  C2  UNL     1      49.245 -50.876  17.162  1.00  0.00     0.036 C 
HETATM    9  C1  UNL     1      48.329 -50.381  18.235  1.00  0.00     0.007 C 
ENDBRANCH   1   8
BRANCH   1  10
HETATM   10  N1  UNL     1      50.387 -51.882  19.046  1.00  0.00    -0.069 N 
ATOM     11  H13 UNL     1      49.530 -52.431  19.109  1.00  0.00     0.275 HD
ATOM     12  H12 UNL     1      51.046 -52.630  19.261  1.00  0.00     0.275 HD
ATOM     13  H11 UNL     1      50.418 -51.120  19.724  1.00  0.00     0.275 HD
ENDBRANCH   1  10
TORSDOF 2
ENDMDL
MODEL 2
REMARK VINA RESULT: -4.596944025      1.542      3.451
REMARK  2 active torsions:
REMARK  status: ('A' for Active; 'I' for Inactive)
REMARK    1  A    between atoms: C2_2  and  C3_3 
REMARK    2  A    between atoms: C3_3  and  N1_4 
ROOT
HETATM    1  C3  UNL     1      51.465 -50.903  17.636  1.00  0.00     0.138 C 
HETATM    2  C4  UNL     1      50.373 -51.745  18.231  1.00  0.00     0.042 C 
HETATM    3  C5  UNL     1      49.048 -51.240  17.700  1.00  0.00     0.022 C 
HETATM    4  C6  UNL     1      48.920 -49.824  18.275  1.00  0.00     0.114 C 
HETATM    5  N2  UNL     1      49.883 -49.014  17.599  1.00  0.00    -0.419 N 
ATOM      6  H2  UNL     1      49.617 -48.176  17.082  1.00  0.00     0.153 HD
HETATM    7  C7  UNL     1      51.227 -49.443  17.691  1.00  0.00     0.152 C 
ENDROOT
BRANCH   1   8
HETATM    8  C2  UNL     1      51.718 -51.418  16.229  1.00  0.00     0.036 C 
HETATM    9  C1  UNL     1      53.111 -51.142  15.763  1.00  0.00     0.007 C 
ENDBRANCH   1   8
BRANCH   1  10
HETATM   10  N1  UNL     1      52.669 -51.169  18.442  1.00  0.00    -0.069 N 
ATOM     11  H13 UNL     1      53.473 -51.438  17.873  1.00  0.00     0.275 HD
ATOM     12  H12 UNL     1      53.067 -50.321  18.848  1.00  0.00     0.275 HD
ATOM     13  H11 UNL     1      52.431 -51.869  19.145  1.00  0.00     0.275 HD
ENDBRANCH   1  10
TORSDOF 2
ENDMDL
MODEL 3
REMARK VINA RESULT: -4.532616021      1.605      1.972
REMARK  2 active torsions:
REMARK  status: ('A' for Active; 'I' for Inactive)
REMARK    1  A    between atoms: C2_2  and  C3_3 
REMARK    2  A    between atoms: C3_3  and  N1_4 
ROOT
HETATM    1  C3  UNL     1      50.569 -50.278  17.670  1.00  0.00     0.138 C 
HETATM    2  C4  UNL     1      50.669 -50.599  16.207  1.00  0.00     0.042 C 
HETATM    3  C5  UNL     1      51.558 -51.814  16.051  1.00  0.00     0.022 C 
HETATM    4  C6  UNL     1      52.938 -51.343  16.527  1.00  0.00     0.114 C 
HETATM    5  N2  UNL     1      52.851 -51.170  17.942  1.00  0.00    -0.419 N 
ATOM      6  H2  UNL     1      53.467 -51.666  18.587  1.00  0.00     0.153 HD
HETATM    7  C7  UNL     1      51.860 -50.270  18.396  1.00  0.00     0.152 C 
ENDROOT
BRANCH   1   8
HETATM    8  C2  UNL     1      49.548 -51.228  18.273  1.00  0.00     0.036 C 
HETATM    9  C1  UNL     1      48.148 -50.718  18.142  1.00  0.00     0.007 C 
ENDBRANCH   1   8
BRANCH   1  10
HETATM   10  N1  UNL     1      50.025 -48.912  17.753  1.00  0.00    -0.069 N 
ATOM     11  H13 UNL     1      49.572 -48.615  16.888  1.00  0.00     0.275 HD
ATOM     12  H12 UNL     1      49.210 -48.848  18.363  1.00  0.00     0.275 HD
ATOM     13  H11 UNL     1      50.781 -48.288  18.036  1.00  0.00     0.275 HD
ENDBRANCH   1  10
TORSDOF 2
ENDMDL
MODEL 4
REMARK VINA RESULT: -4.495647203      1.481      2.872
REMARK  2 active torsions:
REMARK  status: ('A' for Active; 'I' for Inactive)
REMARK    1  A    between atoms: C2_2  and  C3_3 
REMARK    2  A    between atoms: C3_3  and  N1_4 
ROOT
HETATM    1  C3  UNL     1      51.736 -51.582  16.550  1.00  0.00     0.138 C 
HETATM    2  C4  UNL     1      52.516 -50.340  16.870  1.00  0.00     0.042 C 
HETATM    3  C5  UNL     1      51.812 -49.621  18.001  1.00  0.00     0.022 C 
HETATM    4  C6  UNL     1      50.465 -49.194  17.405  1.00  0.00     0.114 C 
HETATM    5  N2  UNL     1      49.693 -50.384  17.230  1.00  0.00    -0.419 N 
ATOM      6  H2  UNL     1      48.778 -50.503  17.664  1.00  0.00     0.153 HD
HETATM    7  C7  UNL     1      50.274 -51.386  16.420  1.00  0.00     0.152 C 
ENDROOT
BRANCH   1   8
HETATM    8  C2  UNL     1      52.111 -52.631  17.583  1.00  0.00     0.036 C 
HETATM    9  C1  UNL     1      50.916 -53.332  18.145  1.00  0.00     0.007 C 
ENDBRANCH   1   8
BRANCH   1  10
HETATM   10  N1  UNL     1      52.222 -52.042  15.237  1.00  0.00    -0.069 N 
ATOM     11  H13 UNL     1      51.694 -52.838  14.878  1.00  0.00     0.275 HD
ATOM     12  H12 UNL     1      52.008 -51.386  14.486  1.00  0.00     0.275 HD
ATOM     13  H11 UNL     1      53.220 -52.236  15.320  1.00  0.00     0.275 HD
ENDBRANCH   1  10
TORSDOF 2
ENDMDL
MODEL 5
REMARK VINA RESULT: -4.434107870      1.372      1.464
REMARK  2 active torsions:
REMARK  status: ('A' for Active; 'I' for Inactive)
REMARK    1  A    between atoms: C2_2  and  C3_3 
REMARK    2  A    between atoms: C3_3  and  N1_4 
ROOT
HETATM    1  C3  UNL     1      50.338 -50.964  17.432  1.00  0.00     0.138 C 
HETATM    2  C4  UNL     1      51.329 -51.301  18.508  1.00  0.00     0.042 C 
HETATM    3  C5  UNL     1      52.720 -51.081  17.952  1.00  0.00     0.022 C 
HETATM    4  C6  UNL     1      52.857 -52.126  16.838  1.00  0.00     0.114 C 
HETATM    5  N2  UNL     1      52.000 -51.712  15.773  1.00  0.00    -0.419 N 
ATOM      6  H2  UNL     1      52.351 -51.545  14.831  1.00  0.00     0.153 HD
HETATM    7  C7  UNL     1      50.635 -51.549  16.105  1.00  0.00     0.152 C 
ENDROOT
BRANCH   1   8
HETATM    8  C2  UNL     1      50.196 -49.452  17.404  1.00  0.00     0.036 C 
HETATM    9  C1  UNL     1      48.955 -48.982  18.094  1.00  0.00     0.007 C 
ENDBRANCH   1   8
BRANCH   1  10
HETATM   10  N1  UNL     1      49.052 -51.534  17.870  1.00  0.00    -0.069 N 
ATOM     11  H13 UNL     1      48.542 -50.918  18.504  1.00  0.00     0.275 HD
ATOM     12  H12 UNL     1      48.359 -51.564  17.121  1.00  0.00     0.275 HD
ATOM     13  H11 UNL     1      49.235 -52.453  18.275  1.00  0.00     0.275 HD
ENDBRANCH   1  10
TORSDOF 2
ENDMDL
