MODEL 1
REMARK VINA RESULT: -5.993199559      0.000      0.000
REMARK  3 active torsions:
REMARK  status: ('A' for Active; 'I' for Inactive)
REMARK    1  A    between atoms: C2_2  and  C3_3 
REMARK    2  A    between atoms: C6_6  and  N1_7 
REMARK    3  A    between atoms: C7_11  and  N2_12 
ROOT
HETATM    1  C3  UNL     1      49.852 -50.750  17.469  1.00  0.00    -0.013 C 
HETATM    2  C4  UNL     1      50.562 -49.554  16.960  1.00  0.00     0.007 C 
HETATM    3  C5  UNL     1      51.992 -49.868  16.615  1.00  0.00     0.035 C 
HETATM    4  C6  UNL     1      52.210 -51.257  16.125  1.00  0.00     0.213 C 
HETATM    5  C7  UNL     1      51.625 -52.327  16.978  1.00  0.00     0.214 C 
HETATM    6  C8  UNL     1      50.866 -51.670  18.123  1.00  0.00     0.039 C 
ENDROOT
BRANCH   4   7
HETATM    7  N1  UNL     1      53.652 -51.482  16.057  1.00  0.00    -0.073 N 
ATOM      8  H13 UNL     1      54.192 -50.626  16.181  1.00  0.00     0.274 HD
ATOM      9  H12 UNL     1      54.013 -51.989  16.866  1.00  0.00     0.274 HD
ATOM     10  H11 UNL     1      53.850 -51.953  15.174  1.00  0.00     0.274 HD
ENDBRANCH   4   7
BRANCH   5  11
HETATM   11  N2  UNL     1      52.544 -53.325  17.414  1.00  0.00    -0.073 N 
ATOM     12  H23 UNL     1      52.379 -54.197  16.912  1.00  0.00     0.274 HD
ATOM     13  H22 UNL     1      53.484 -53.104  17.086  1.00  0.00     0.274 HD
ATOM     14  H21 UNL     1      52.554 -53.495  18.420  1.00  0.00     0.274 HD
ENDBRANCH   5  11
BRANCH   1  15
HETATM   15  C2  UNL     1      48.676 -50.462  18.351  1.00  0.00     0.000 C 
HETATM   16  C1  UNL     1      48.201 -49.059  18.324  1.00  0.00     0.005 C 
ENDBRANCH   1  15
TORSDOF 3
ENDMDL
MODEL 2
REMARK VINA RESULT: -5.867360031      1.148      1.565
REMARK  3 active torsions:
REMARK  status: ('A' for Active; 'I' for Inactive)
REMARK    1  A    between atoms: C2_2  and  C3_3 
REMARK    2  A    between atoms: C6_6  and  N1_7 
REMARK    3  A    between atoms: C7_11  and  N2_12 
ROOT
HETATM    1  C3  UNL     1      50.278 -50.223  17.535  1.00  0.00    -0.013 C 
HETATM    2  C4  UNL     1      51.703 -49.900  17.297  1.00  0.00     0.007 C 
HETATM    3  C5  UNL     1      52.577 -51.113  17.460  1.00  0.00     0.035 C 
HETATM    4  C6  UNL     1      51.921 -52.393  17.074  1.00  0.00     0.213 C 
HETATM    5  C7  UNL     1      50.580 -52.622  17.677  1.00  0.00     0.214 C 
HETATM    6  C8  UNL     1      50.203 -51.395  18.496  1.00  0.00     0.039 C 
ENDROOT
BRANCH   4   7
HETATM    7  N1  UNL     1      52.792 -53.485  17.500  1.00  0.00    -0.073 N 
ATOM      8  H13 UNL     1      53.284 -53.926  16.723  1.00  0.00     0.274 HD
ATOM      9  H12 UNL     1      53.613 -53.160  18.012  1.00  0.00     0.274 HD
ATOM     10  H11 UNL     1      52.226 -54.142  18.036  1.00  0.00     0.274 HD
ENDBRANCH   4   7
BRANCH   5  11
HETATM   11  N2  UNL     1      50.442 -53.842  18.400  1.00  0.00    -0.073 N 
ATOM     12  H23 UNL     1      50.104 -53.654  19.344  1.00  0.00     0.274 HD
ATOM     13  H22 UNL     1      49.657 -54.381  18.033  1.00  0.00     0.274 HD
ATOM     14  H21 UNL     1      51.280 -54.423  18.437  1.00  0.00     0.274 HD
ENDBRANCH   5  11
BRANCH   1  15
HETATM   15  C2  UNL     1      49.428 -49.066  17.965  1.00  0.00     0.000 C 
HETATM   16  C1  UNL     1      48.026 -49.408  18.296  1.00  0.00     0.005 C 
ENDBRANCH   1  15
TORSDOF 3
ENDMDL
MODEL 3
REMARK VINA RESULT: -5.716307875      0.902      2.097
REMARK  3 active torsions:
REMARK  status: ('A' for Active; 'I' for Inactive)
REMARK    1  A    between atoms: C2_2  and  C3_3 
REMARK    2  A    between atoms: C6_6  and  N1_7 
REMARK    3  A    between atoms: C7_11  and  N2_12 
ROOT
HETATM    1  C3  UNL     1      50.477 -50.129  17.933  1.00  0.00    -0.013 C 
HETATM    2  C4  UNL     1      49.986 -51.387  18.540  1.00  0.00     0.007 C 
HETATM    3  C5  UNL     1      50.796 -52.571  18.087  1.00  0.00     0.035 C 
HETATM    4  C6  UNL     1      52.228 -52.261  17.816  1.00  0.00     0.213 C 
HETATM    5  C7  UNL     1      52.464 -51.088  16.932  1.00  0.00     0.214 C 
HETATM    6  C8  UNL     1      51.119 -50.457  16.598  1.00  0.00     0.039 C 
ENDROOT
BRANCH   4   7
HETATM    7  N1  UNL     1      52.821 -53.430  17.172  1.00  0.00    -0.073 N 
ATOM      8  H13 UNL     1      52.695 -53.430  16.160  1.00  0.00     0.274 HD
ATOM      9  H12 UNL     1      53.841 -53.414  17.181  1.00  0.00     0.274 HD
ATOM     10  H11 UNL     1      52.433 -54.260  17.620  1.00  0.00     0.274 HD
ENDBRANCH   4   7
BRANCH   5  11
HETATM   11  N2  UNL     1      53.262 -51.349  15.781  1.00  0.00    -0.073 N 
ATOM     12  H23 UNL     1      54.245 -51.422  16.044  1.00  0.00     0.274 HD
ATOM     13  H22 UNL     1      53.096 -52.297  15.445  1.00  0.00     0.274 HD
ATOM     14  H21 UNL     1      53.152 -50.682  15.016  1.00  0.00     0.274 HD
ENDBRANCH   5  11
BRANCH   1  15
HETATM   15  C2  UNL     1      49.461 -49.033  17.834  1.00  0.00     0.000 C 
HETATM   16  C1  UNL     1      48.082 -49.422  18.209  1.00  0.00     0.005 C 
ENDBRANCH   1  15
TORSDOF 3
ENDMDL
MODEL 4
REMARK VINA RESULT: -5.542400679      1.138      2.154
REMARK  3 active torsions:
REMARK  status: ('A' for Active; 'I' for Inactive)
REMARK    1  A    between atoms: C2_2  and  C3_3 
REMARK    2  A    between atoms: C6_6  and  N1_7 
REMARK    3  A    between atoms: C7_11  and  N2_12 
ROOT
HETATM    1  C3  UNL     1      49.637 -50.981  17.738  1.00  0.00    -0.013 C 
HETATM    2  C4  UNL     1      49.717 -52.095  18.710  1.00  0.00     0.007 C 
HETATM    3  C5  UNL     1      50.817 -53.057  18.357  1.00  0.00     0.035 C 
HETATM    4  C6  UNL     1      51.991 -52.423  17.694  1.00  0.00     0.213 C 
HETATM    5  C7  UNL     1      51.666 -51.545  16.538  1.00  0.00     0.214 C 
HETATM    6  C8  UNL     1      50.151 -51.473  16.398  1.00  0.00     0.039 C 
ENDROOT
BRANCH   4   7
HETATM    7  N1  UNL     1      52.857 -53.494  17.207  1.00  0.00    -0.073 N 
ATOM      8  H13 UNL     1      52.924 -54.276  17.858  1.00  0.00     0.274 HD
ATOM      9  H12 UNL     1      52.454 -54.005  16.422  1.00  0.00     0.274 HD
ATOM     10  H11 UNL     1      53.765 -53.082  16.988  1.00  0.00     0.274 HD
ENDBRANCH   4   7
BRANCH   5  11
HETATM   11  N2  UNL     1      52.326 -51.875  15.320  1.00  0.00    -0.073 N 
ATOM     12  H23 UNL     1      53.294 -51.556  15.348  1.00  0.00     0.274 HD
ATOM     13  H22 UNL     1      52.472 -52.883  15.262  1.00  0.00     0.274 HD
ATOM     14  H21 UNL     1      51.869 -51.538  14.473  1.00  0.00     0.274 HD
ENDBRANCH   5  11
BRANCH   1  15
HETATM   15  C2  UNL     1      48.297 -50.320  17.638  1.00  0.00     0.000 C 
HETATM   16  C1  UNL     1      48.214 -48.975  18.253  1.00  0.00     0.005 C 
ENDBRANCH   1  15
TORSDOF 3
ENDMDL
MODEL 5
REMARK VINA RESULT: -5.023784045      1.172      1.666
REMARK  3 active torsions:
REMARK  status: ('A' for Active; 'I' for Inactive)
REMARK    1  A    between atoms: C2_2  and  C3_3 
REMARK    2  A    between atoms: C6_6  and  N1_7 
REMARK    3  A    between atoms: C7_11  and  N2_12 
ROOT
HETATM    1  C3  UNL     1      49.677 -51.034  17.864  1.00  0.00    -0.013 C 
HETATM    2  C4  UNL     1      49.565 -51.598  16.499  1.00  0.00     0.007 C 
HETATM    3  C5  UNL     1      50.902 -51.645  15.811  1.00  0.00     0.035 C 
HETATM    4  C6  UNL     1      52.052 -51.868  16.731  1.00  0.00     0.213 C 
HETATM    5  C7  UNL     1      52.098 -50.969  17.915  1.00  0.00     0.214 C 
HETATM    6  C8  UNL     1      50.859 -50.084  17.898  1.00  0.00     0.039 C 
ENDROOT
BRANCH   4   7
HETATM    7  N1  UNL     1      53.279 -51.658  15.966  1.00  0.00    -0.073 N 
ATOM      8  H13 UNL     1      54.009 -52.332  16.196  1.00  0.00     0.274 HD
ATOM      9  H12 UNL     1      53.177 -51.899  14.980  1.00  0.00     0.274 HD
ATOM     10  H11 UNL     1      53.571 -50.691  16.109  1.00  0.00     0.274 HD
ENDBRANCH   4   7
BRANCH   5  11
HETATM   11  N2  UNL     1      53.309 -50.235  18.072  1.00  0.00    -0.073 N 
ATOM     12  H23 UNL     1      53.264 -49.366  17.541  1.00  0.00     0.274 HD
ATOM     13  H22 UNL     1      53.373 -49.863  19.020  1.00  0.00     0.274 HD
ATOM     14  H21 UNL     1      54.160 -50.746  17.838  1.00  0.00     0.274 HD
ENDBRANCH   5  11
BRANCH   1  15
HETATM   15  C2  UNL     1      48.421 -50.418  18.401  1.00  0.00     0.000 C 
HETATM   16  C1  UNL     1      48.321 -48.950  18.228  1.00  0.00     0.005 C 
ENDBRANCH   1  15
TORSDOF 3
ENDMDL
