MODEL 1
REMARK VINA RESULT: -6.778814030      0.000      0.000
REMARK  2 active torsions:
REMARK  status: ('A' for Active; 'I' for Inactive)
REMARK    1  A    between atoms: N3_4  and  C2_6 
REMARK    2  A    between atoms: N4_9  and  N5_10 
ROOT
HETATM    1  C2  UNL     1       6.011   1.068  19.086  1.00  0.00     0.087 C 
HETATM    2  C3  UNL     1       6.833   2.348  18.883  1.00  0.00     0.046 C 
HETATM    3  C4  UNL     1       6.817   3.154  20.193  1.00  0.00     0.146 C 
HETATM    4  N4  UNL     1       7.401   2.294  21.200  1.00  0.00    -0.309 N 
HETATM    5  C7  UNL     1       7.778   0.954  20.831  1.00  0.00     0.146 C 
HETATM    6  C8  UNL     1       6.674   0.204  20.105  1.00  0.00     0.046 C 
ENDROOT
BRANCH   4   7
HETATM    7  N5  UNL     1       7.601   2.731  22.491  1.00  0.00    -0.191 N 
HETATM    8  C5  UNL     1       8.223   2.081  23.474  1.00  0.00     0.177 A 
HETATM    9  C6  UNL     1       8.206   2.876  24.618  1.00  0.00     0.135 A 
HETATM   10 CL1  UNL     1       8.890   2.488  26.190  1.00  0.00    -0.062 Cl
HETATM   11  N6  UNL     1       7.550   4.001  24.245  1.00  0.00    -0.271 N 
HETATM   12  N7  UNL     1       7.196   3.898  22.971  1.00  0.00     0.001 NA
ATOM     13  H6  UNL     1       7.359   4.801  24.848  1.00  0.00     0.185 HD
ENDBRANCH   4   7
BRANCH   1  14
HETATM   14  N3  UNL     1       5.793   0.469  17.812  1.00  0.00    -0.362 N 
HETATM   15  C1  UNL     1       5.101  -0.578  17.618  1.00  0.00     0.197 C 
HETATM   16  N1  UNL     1       4.944  -1.107  16.265  1.00  0.00    -0.067 NA
HETATM   17  N2  UNL     1       4.424  -1.346  18.598  1.00  0.00    -0.067 NA
ATOM     18  H3  UNL     1       6.222   0.912  16.999  1.00  0.00     0.162 HD
ENDBRANCH   1  14
TORSDOF 2
ENDMDL
MODEL 2
REMARK VINA RESULT: -6.703799743      3.357      6.570
REMARK  2 active torsions:
REMARK  status: ('A' for Active; 'I' for Inactive)
REMARK    1  A    between atoms: N3_4  and  C2_6 
REMARK    2  A    between atoms: N4_9  and  N5_10 
ROOT
HETATM    1  C2  UNL     1       9.630   2.338  21.675  1.00  0.00     0.087 C 
HETATM    2  C3  UNL     1       8.574   3.420  21.406  1.00  0.00     0.046 C 
HETATM    3  C4  UNL     1       8.058   3.255  19.967  1.00  0.00     0.146 C 
HETATM    4  N4  UNL     1       7.494   1.924  19.894  1.00  0.00    -0.309 N 
HETATM    5  C7  UNL     1       7.584   1.070  21.050  1.00  0.00     0.146 C 
HETATM    6  C8  UNL     1       8.989   0.992  21.623  1.00  0.00     0.046 C 
ENDROOT
BRANCH   4   7
HETATM    7  N5  UNL     1       6.877   1.466  18.750  1.00  0.00    -0.191 N 
HETATM    8  C5  UNL     1       6.123   0.374  18.624  1.00  0.00     0.177 A 
HETATM    9  C6  UNL     1       5.694   0.276  17.301  1.00  0.00     0.135 A 
HETATM   10 CL1  UNL     1       4.676  -0.976  16.607  1.00  0.00    -0.062 Cl
HETATM   11  N6  UNL     1       6.236   1.354  16.684  1.00  0.00    -0.271 N 
HETATM   12  N7  UNL     1       6.939   2.054  17.564  1.00  0.00     0.001 NA
ATOM     13  H6  UNL     1       6.121   1.589  15.698  1.00  0.00     0.185 HD
ENDBRANCH   4   7
BRANCH   1  14
HETATM   14  N3  UNL     1      10.301   2.659  22.889  1.00  0.00    -0.362 N 
HETATM   15  C1  UNL     1       9.806   2.504  24.048  1.00  0.00     0.197 C 
HETATM   16  N1  UNL     1      10.586   2.868  25.228  1.00  0.00    -0.067 NA
HETATM   17  N2  UNL     1       8.522   1.995  24.366  1.00  0.00    -0.067 NA
ATOM     18  H3  UNL     1      11.245   3.041  22.823  1.00  0.00     0.162 HD
ENDBRANCH   1  14
TORSDOF 2
ENDMDL
MODEL 3
REMARK VINA RESULT: -6.641591731      3.247      6.683
REMARK  2 active torsions:
REMARK  status: ('A' for Active; 'I' for Inactive)
REMARK    1  A    between atoms: N3_4  and  C2_6 
REMARK    2  A    between atoms: N4_9  and  N5_10 
ROOT
HETATM    1  C2  UNL     1       8.260   2.462  22.635  1.00  0.00     0.087 C 
HETATM    2  C3  UNL     1       9.365   1.858  21.757  1.00  0.00     0.046 C 
HETATM    3  C4  UNL     1       8.708   1.023  20.645  1.00  0.00     0.146 C 
HETATM    4  N4  UNL     1       7.870   1.939  19.900  1.00  0.00    -0.309 N 
HETATM    5  C7  UNL     1       7.769   3.304  20.347  1.00  0.00     0.146 C 
HETATM    6  C8  UNL     1       7.452   3.423  21.828  1.00  0.00     0.046 C 
ENDROOT
BRANCH   4   7
HETATM    7  N5  UNL     1       7.178   1.531  18.780  1.00  0.00    -0.191 N 
HETATM    8  C5  UNL     1       6.358   0.485  18.678  1.00  0.00     0.177 A 
HETATM    9  C6  UNL     1       5.866   0.428  17.375  1.00  0.00     0.135 A 
HETATM   10 CL1  UNL     1       4.748  -0.756  16.715  1.00  0.00    -0.062 Cl
HETATM   11  N6  UNL     1       6.438   1.482  16.745  1.00  0.00    -0.271 N 
HETATM   12  N7  UNL     1       7.219   2.130  17.600  1.00  0.00     0.001 NA
ATOM     13  H6  UNL     1       6.292   1.737  15.769  1.00  0.00     0.185 HD
ENDBRANCH   4   7
BRANCH   1  14
HETATM   14  N3  UNL     1       8.862   2.994  23.811  1.00  0.00    -0.362 N 
HETATM   15  C1  UNL     1       8.653   2.559  24.986  1.00  0.00     0.197 C 
HETATM   16  N1  UNL     1       9.325   3.181  26.123  1.00  0.00    -0.067 NA
HETATM   17  N2  UNL     1       7.803   1.489  25.360  1.00  0.00    -0.067 NA
ATOM     18  H3  UNL     1       9.506   3.778  23.702  1.00  0.00     0.162 HD
ENDBRANCH   1  14
TORSDOF 2
ENDMDL
MODEL 4
REMARK VINA RESULT: -6.478020461      2.174      2.961
REMARK  2 active torsions:
REMARK  status: ('A' for Active; 'I' for Inactive)
REMARK    1  A    between atoms: N3_4  and  C2_6 
REMARK    2  A    between atoms: N4_9  and  N5_10 
ROOT
HETATM    1  C2  UNL     1       7.579   2.300  20.430  1.00  0.00     0.087 C 
HETATM    2  C3  UNL     1       8.475   3.246  21.241  1.00  0.00     0.046 C 
HETATM    3  C4  UNL     1       7.880   3.399  22.651  1.00  0.00     0.146 C 
HETATM    4  N4  UNL     1       7.850   2.068  23.219  1.00  0.00    -0.309 N 
HETATM    5  C7  UNL     1       8.275   0.958  22.405  1.00  0.00     0.146 C 
HETATM    6  C8  UNL     1       7.614   0.937  21.037  1.00  0.00     0.046 C 
ENDROOT
BRANCH   4   7
HETATM    7  N5  UNL     1       7.430   1.848  24.513  1.00  0.00    -0.191 N 
HETATM    8  C5  UNL     1       7.231   2.763  25.461  1.00  0.00     0.177 A 
HETATM    9  C6  UNL     1       6.808   2.118  26.622  1.00  0.00     0.135 A 
HETATM   10 CL1  UNL     1       6.408   2.864  28.163  1.00  0.00    -0.062 Cl
HETATM   11  N6  UNL     1       6.775   0.805  26.294  1.00  0.00    -0.271 N 
HETATM   12  N7  UNL     1       7.149   0.661  25.030  1.00  0.00     0.001 NA
ATOM     13  H6  UNL     1       6.505   0.046  26.920  1.00  0.00     0.185 HD
ENDBRANCH   4   7
BRANCH   1  14
HETATM   14  N3  UNL     1       7.966   2.379  19.062  1.00  0.00    -0.362 N 
HETATM   15  C1  UNL     1       7.205   2.106  18.082  1.00  0.00     0.197 C 
HETATM   16  N1  UNL     1       7.708   2.222  16.716  1.00  0.00    -0.067 NA
HETATM   17  N2  UNL     1       5.856   1.678  18.144  1.00  0.00    -0.067 NA
ATOM     18  H3  UNL     1       8.920   2.675  18.854  1.00  0.00     0.162 HD
ENDBRANCH   1  14
TORSDOF 2
ENDMDL
MODEL 5
REMARK VINA RESULT: -6.420116633      1.130      1.235
REMARK  2 active torsions:
REMARK  status: ('A' for Active; 'I' for Inactive)
REMARK    1  A    between atoms: N3_4  and  C2_6 
REMARK    2  A    between atoms: N4_9  and  N5_10 
ROOT
HETATM    1  C2  UNL     1       6.398   0.919  19.132  1.00  0.00     0.087 C 
HETATM    2  C3  UNL     1       6.587   2.442  19.124  1.00  0.00     0.046 C 
HETATM    3  C4  UNL     1       6.885   2.908  20.559  1.00  0.00     0.146 C 
HETATM    4  N4  UNL     1       8.094   2.219  20.960  1.00  0.00    -0.309 N 
HETATM    5  C7  UNL     1       8.682   1.268  20.052  1.00  0.00     0.146 C 
HETATM    6  C8  UNL     1       7.681   0.259  19.515  1.00  0.00     0.046 C 
ENDROOT
BRANCH   4   7
HETATM    7  N5  UNL     1       8.685   2.456  22.182  1.00  0.00    -0.191 N 
HETATM    8  C5  UNL     1       8.109   2.389  23.381  1.00  0.00     0.177 A 
HETATM    9  C6  UNL     1       9.059   2.702  24.352  1.00  0.00     0.135 A 
HETATM   10 CL1  UNL     1       8.818   2.758  26.092  1.00  0.00    -0.062 Cl
HETATM   11  N6  UNL     1      10.194   2.948  23.656  1.00  0.00    -0.271 N 
HETATM   12  N7  UNL     1       9.953   2.796  22.359  1.00  0.00     0.001 NA
ATOM     13  H6  UNL     1      11.092   3.209  24.063  1.00  0.00     0.185 HD
ENDBRANCH   4   7
BRANCH   1  14
HETATM   14  N3  UNL     1       5.852   0.528  17.876  1.00  0.00    -0.362 N 
HETATM   15  C1  UNL     1       5.207  -0.547  17.675  1.00  0.00     0.197 C 
HETATM   16  N1  UNL     1       4.690  -0.848  16.342  1.00  0.00    -0.067 NA
HETATM   17  N2  UNL     1       4.907  -1.552  18.628  1.00  0.00    -0.067 NA
ATOM     18  H3  UNL     1       5.988   1.156  17.083  1.00  0.00     0.162 HD
ENDBRANCH   1  14
TORSDOF 2
ENDMDL
