MODEL 1
REMARK VINA RESULT: -6.018426024      0.000      0.000
REMARK  3 active torsions:
REMARK  status: ('A' for Active; 'I' for Inactive)
REMARK    1  A    between atoms: C1_2  and  C2_4 
REMARK    2  A    between atoms: C3_6  and  S2_7 
REMARK    3  A    between atoms: S2_7  and  N2_8 
ROOT
HETATM    1  C2  UNL     1       6.839   0.973  19.274  1.00  0.00     0.111 A 
HETATM    2  S1  UNL     1       7.159   1.017  20.959  1.00  0.00    -0.050 SA
HETATM    3  C3  UNL     1       8.330   2.274  20.955  1.00  0.00     0.193 A 
HETATM    4  N3  UNL     1       8.404   2.581  19.676  1.00  0.00    -0.329 N 
ATOM      5  H3  UNL     1       9.040   3.317  19.368  1.00  0.00     0.168 HD
HETATM    6  C4  UNL     1       7.676   1.955  18.809  1.00  0.00     0.127 A 
HETATM    7 CL1  UNL     1       7.722   2.316  17.061  1.00  0.00    -0.063 Cl
ENDROOT
BRANCH   3   8
HETATM    8  S2  UNL     1       9.184   2.945  22.339  1.00  0.00     0.279 S 
HETATM    9  O2  UNL     1       9.707   1.881  23.224  1.00  0.00    -0.199 OA
HETATM   10  O3  UNL     1       8.224   3.789  23.116  1.00  0.00    -0.199 OA
BRANCH   8  11
HETATM   11  N2  UNL     1      10.430   3.986  21.751  1.00  0.00    -0.323 N 
ATOM     12  H22 UNL     1      10.278   4.819  21.184  1.00  0.00     0.169 HD
ATOM     13  H21 UNL     1      11.327   3.621  22.070  1.00  0.00     0.169 HD
ENDBRANCH   8  11
ENDBRANCH   3   8
BRANCH   1  14
HETATM   14  C1  UNL     1       5.914   0.116  18.511  1.00  0.00     0.275 C 
HETATM   15  N1  UNL     1       5.246  -0.954  19.151  1.00  0.00    -0.057 NA
HETATM   16  O1  UNL     1       5.705   0.314  17.302  1.00  0.00    -0.270 OA
ENDBRANCH   1  14
TORSDOF 3
ENDMDL
MODEL 2
REMARK VINA RESULT: -5.900530943      2.253      2.394
REMARK  3 active torsions:
REMARK  status: ('A' for Active; 'I' for Inactive)
REMARK    1  A    between atoms: C1_2  and  C2_4 
REMARK    2  A    between atoms: C3_6  and  S2_7 
REMARK    3  A    between atoms: S2_7  and  N2_8 
ROOT
HETATM    1  C2  UNL     1       7.139   1.823  18.773  1.00  0.00     0.111 A 
HETATM    2  S1  UNL     1       8.097   2.983  19.597  1.00  0.00    -0.050 SA
HETATM    3  C3  UNL     1       7.910   2.371  21.191  1.00  0.00     0.193 A 
HETATM    4  N3  UNL     1       7.133   1.325  20.998  1.00  0.00    -0.329 N 
ATOM      5  H3  UNL     1       6.848   0.752  21.793  1.00  0.00     0.168 HD
HETATM    6  C4  UNL     1       6.729   1.020  19.807  1.00  0.00     0.127 A 
HETATM    7 CL1  UNL     1       5.676  -0.381  19.468  1.00  0.00    -0.063 Cl
ENDROOT
BRANCH   3   8
HETATM    8  S2  UNL     1       8.604   3.016  22.674  1.00  0.00     0.279 S 
HETATM    9  O2  UNL     1       9.913   3.661  22.426  1.00  0.00    -0.199 OA
HETATM   10  O3  UNL     1       8.799   1.882  23.630  1.00  0.00    -0.199 OA
BRANCH   8  11
HETATM   11  N2  UNL     1       7.459   4.098  23.380  1.00  0.00    -0.323 N 
ATOM     12  H22 UNL     1       7.479   4.424  24.345  1.00  0.00     0.169 HD
ATOM     13  H21 UNL     1       6.772   4.344  22.668  1.00  0.00     0.169 HD
ENDBRANCH   8  11
ENDBRANCH   3   8
BRANCH   1  14
HETATM   14  C1  UNL     1       6.828   1.703  17.338  1.00  0.00     0.275 C 
HETATM   15  N1  UNL     1       5.631   1.074  16.921  1.00  0.00    -0.057 NA
HETATM   16  O1  UNL     1       7.603   2.145  16.473  1.00  0.00    -0.270 OA
ENDBRANCH   1  14
TORSDOF 3
ENDMDL
MODEL 3
REMARK VINA RESULT: -5.871472602      2.235      2.482
REMARK  3 active torsions:
REMARK  status: ('A' for Active; 'I' for Inactive)
REMARK    1  A    between atoms: C1_2  and  C2_4 
REMARK    2  A    between atoms: C3_6  and  S2_7 
REMARK    3  A    between atoms: S2_7  and  N2_8 
ROOT
HETATM    1  C2  UNL     1       6.175   0.668  18.424  1.00  0.00     0.111 A 
HETATM    2  S1  UNL     1       7.296   1.731  19.169  1.00  0.00    -0.050 SA
HETATM    3  C3  UNL     1       7.217   1.097  20.763  1.00  0.00     0.193 A 
HETATM    4  N3  UNL     1       6.344   0.119  20.630  1.00  0.00    -0.329 N 
ATOM      5  H3  UNL     1       6.093  -0.450  21.439  1.00  0.00     0.168 HD
HETATM    6  C4  UNL     1       5.804  -0.126  19.480  1.00  0.00     0.127 A 
HETATM    7 CL1  UNL     1       4.617  -1.433  19.223  1.00  0.00    -0.063 Cl
ENDROOT
BRANCH   3   8
HETATM    8  S2  UNL     1       8.099   1.651  22.181  1.00  0.00     0.279 S 
HETATM    9  O2  UNL     1       8.166   0.604  23.223  1.00  0.00    -0.199 OA
HETATM   10  O3  UNL     1       7.386   2.843  22.739  1.00  0.00    -0.199 OA
BRANCH   8  11
HETATM   11  N2  UNL     1       9.663   2.177  21.672  1.00  0.00    -0.323 N 
ATOM     12  H22 UNL     1      10.182   1.793  20.883  1.00  0.00     0.169 HD
ATOM     13  H21 UNL     1       9.966   2.926  22.293  1.00  0.00     0.169 HD
ENDBRANCH   8  11
ENDBRANCH   3   8
BRANCH   1  14
HETATM   14  C1  UNL     1       5.718   0.607  17.024  1.00  0.00     0.275 C 
HETATM   15  N1  UNL     1       4.927  -0.480  16.583  1.00  0.00    -0.057 NA
HETATM   16  O1  UNL     1       6.015   1.499  16.212  1.00  0.00    -0.270 OA
ENDBRANCH   1  14
TORSDOF 3
ENDMDL
MODEL 4
REMARK VINA RESULT: -5.841940553      1.936      2.021
REMARK  3 active torsions:
REMARK  status: ('A' for Active; 'I' for Inactive)
REMARK    1  A    between atoms: C1_2  and  C2_4 
REMARK    2  A    between atoms: C3_6  and  S2_7 
REMARK    3  A    between atoms: S2_7  and  N2_8 
ROOT
HETATM    1  C2  UNL     1       7.222   1.784  18.713  1.00  0.00     0.111 A 
HETATM    2  S1  UNL     1       8.335   2.877  19.426  1.00  0.00    -0.050 SA
HETATM    3  C3  UNL     1       8.215   2.329  21.049  1.00  0.00     0.193 A 
HETATM    4  N3  UNL     1       7.339   1.351  20.949  1.00  0.00    -0.329 N 
ATOM      5  H3  UNL     1       7.065   0.827  21.781  1.00  0.00     0.168 HD
HETATM    6  C4  UNL     1       6.822   1.050  19.801  1.00  0.00     0.127 A 
HETATM    7 CL1  UNL     1       5.630  -0.261  19.587  1.00  0.00    -0.063 Cl
ENDROOT
BRANCH   3   8
HETATM    8  S2  UNL     1       9.071   2.951  22.456  1.00  0.00     0.279 S 
HETATM    9  O2  UNL     1       9.564   1.857  23.320  1.00  0.00    -0.199 OA
HETATM   10  O3  UNL     1       8.120   3.797  23.244  1.00  0.00    -0.199 OA
BRANCH   8  11
HETATM   11  N2  UNL     1      10.342   3.980  21.903  1.00  0.00    -0.323 N 
ATOM     12  H22 UNL     1      10.530   4.207  20.927  1.00  0.00     0.169 HD
ATOM     13  H21 UNL     1      10.860   4.313  22.716  1.00  0.00     0.169 HD
ENDBRANCH   8  11
ENDBRANCH   3   8
BRANCH   1  14
HETATM   14  C1  UNL     1       6.796   1.652  17.309  1.00  0.00     0.275 C 
HETATM   15  N1  UNL     1       5.574   1.012  16.995  1.00  0.00    -0.057 NA
HETATM   16  O1  UNL     1       7.494   2.095  16.381  1.00  0.00    -0.270 OA
ENDBRANCH   1  14
TORSDOF 3
ENDMDL
MODEL 5
REMARK VINA RESULT: -5.832326022      1.076      1.278
REMARK  3 active torsions:
REMARK  status: ('A' for Active; 'I' for Inactive)
REMARK    1  A    between atoms: C1_2  and  C2_4 
REMARK    2  A    between atoms: C3_6  and  S2_7 
REMARK    3  A    between atoms: S2_7  and  N2_8 
ROOT
HETATM    1  C2  UNL     1       6.781   1.043  19.224  1.00  0.00     0.111 A 
HETATM    2  S1  UNL     1       6.997   1.146  20.923  1.00  0.00    -0.050 SA
HETATM    3  C3  UNL     1       8.122   2.443  20.951  1.00  0.00     0.193 A 
HETATM    4  N3  UNL     1       8.264   2.717  19.670  1.00  0.00    -0.329 N 
ATOM      5  H3  UNL     1       8.891   3.467  19.378  1.00  0.00     0.168 HD
HETATM    6  C4  UNL     1       7.611   2.041  18.780  1.00  0.00     0.127 A 
HETATM    7 CL1  UNL     1       7.751   2.354  17.029  1.00  0.00    -0.063 Cl
ENDROOT
BRANCH   3   8
HETATM    8  S2  UNL     1       8.867   3.184  22.363  1.00  0.00     0.279 S 
HETATM    9  O2  UNL     1       9.979   4.083  21.982  1.00  0.00    -0.199 OA
HETATM   10  O3  UNL     1       9.407   2.092  23.233  1.00  0.00    -0.199 OA
BRANCH   8  11
HETATM   11  N2  UNL     1       7.637   3.998  23.259  1.00  0.00    -0.323 N 
ATOM     12  H22 UNL     1       6.660   3.710  23.308  1.00  0.00     0.169 HD
ATOM     13  H21 UNL     1       8.058   4.804  23.720  1.00  0.00     0.169 HD
ENDBRANCH   8  11
ENDBRANCH   3   8
BRANCH   1  14
HETATM   14  C1  UNL     1       5.935   0.132  18.434  1.00  0.00     0.275 C 
HETATM   15  N1  UNL     1       5.361  -1.010  19.040  1.00  0.00    -0.057 NA
HETATM   16  O1  UNL     1       5.710   0.347  17.230  1.00  0.00    -0.270 OA
ENDBRANCH   1  14
TORSDOF 3
ENDMDL
