MODEL 1
REMARK VINA RESULT: -6.376044550      0.000      0.000
REMARK  3 active torsions:
REMARK  status: ('A' for Active; 'I' for Inactive)
REMARK    1  A    between atoms: C1_2  and  C2_4 
REMARK    2  A    between atoms: C3_7  and  S1_8 
REMARK    3  A    between atoms: S1_8  and  N3_9 
ROOT
HETATM    1  C2  UNL     1       5.829  -0.083  19.054  1.00  0.00     0.128 A 
HETATM    2  N2  UNL     1       6.289  -0.141  20.263  1.00  0.00    -0.334 N 
ATOM      3  H2  UNL     1       6.026  -0.918  20.871  1.00  0.00     0.167 HD
HETATM    4  C3  UNL     1       7.095   0.798  20.712  1.00  0.00     0.193 A 
HETATM    5  S2  UNL     1       7.233   1.842  19.375  1.00  0.00    -0.044 SA
HETATM    6  C4  UNL     1       6.224   0.995  18.288  1.00  0.00     0.109 A 
HETATM    7 CL1  UNL     1       5.779   1.370  16.612  1.00  0.00    -0.074 Cl
ENDROOT
BRANCH   4   8
HETATM    8  S1  UNL     1       7.857   0.963  22.295  1.00  0.00     0.279 S 
HETATM    9  O2  UNL     1       7.906   2.428  22.682  1.00  0.00    -0.199 OA
HETATM   10  O3  UNL     1       9.268   0.455  22.210  1.00  0.00    -0.199 OA
BRANCH   8  11
HETATM   11  N3  UNL     1       7.003   0.132  23.512  1.00  0.00    -0.323 N 
ATOM     12  H32 UNL     1       7.372  -0.693  23.986  1.00  0.00     0.169 HD
ATOM     13  H31 UNL     1       6.095   0.554  23.703  1.00  0.00     0.169 HD
ENDBRANCH   8  11
ENDBRANCH   4   8
BRANCH   1  14
HETATM   14  C1  UNL     1       4.924  -1.092  18.477  1.00  0.00     0.283 C 
HETATM   15  N1  UNL     1       4.646  -1.188  17.094  1.00  0.00    -0.056 NA
HETATM   16  O1  UNL     1       4.375  -1.904  19.253  1.00  0.00    -0.269 OA
ENDBRANCH   1  14
TORSDOF 3
ENDMDL
MODEL 2
REMARK VINA RESULT: -6.154739179      2.090      4.898
REMARK  3 active torsions:
REMARK  status: ('A' for Active; 'I' for Inactive)
REMARK    1  A    between atoms: C1_2  and  C2_4 
REMARK    2  A    between atoms: C3_7  and  S1_8 
REMARK    3  A    between atoms: S1_8  and  N3_9 
ROOT
HETATM    1  C2  UNL     1       7.131   1.077  20.516  1.00  0.00     0.128 A 
HETATM    2  N2  UNL     1       6.418   0.036  20.221  1.00  0.00    -0.334 N 
ATOM      3  H2  UNL     1       6.239  -0.675  20.931  1.00  0.00     0.167 HD
HETATM    4  C3  UNL     1       5.923  -0.108  19.010  1.00  0.00     0.193 A 
HETATM    5  S2  UNL     1       6.478   1.289  18.211  1.00  0.00    -0.044 SA
HETATM    6  C4  UNL     1       7.334   1.998  19.508  1.00  0.00     0.109 A 
HETATM    7 CL1  UNL     1       8.253   3.514  19.578  1.00  0.00    -0.074 Cl
ENDROOT
BRANCH   4   8
HETATM    8  S1  UNL     1       4.932  -1.409  18.348  1.00  0.00     0.279 S 
HETATM    9  O2  UNL     1       3.750  -1.660  19.262  1.00  0.00    -0.199 OA
HETATM   10  O3  UNL     1       5.755  -2.665  18.292  1.00  0.00    -0.199 OA
BRANCH   8  11
HETATM   11  N3  UNL     1       4.324  -1.033  16.802  1.00  0.00    -0.323 N 
ATOM     12  H32 UNL     1       3.973  -1.740  16.155  1.00  0.00     0.169 HD
ATOM     13  H31 UNL     1       4.354  -0.032  16.608  1.00  0.00     0.169 HD
ENDBRANCH   8  11
ENDBRANCH   4   8
BRANCH   1  14
HETATM   14  C1  UNL     1       7.719   1.312  21.846  1.00  0.00     0.283 C 
HETATM   15  N1  UNL     1       8.641   0.431  22.456  1.00  0.00    -0.056 NA
HETATM   16  O1  UNL     1       7.383   2.345  22.463  1.00  0.00    -0.269 OA
ENDBRANCH   1  14
TORSDOF 3
ENDMDL
MODEL 3
REMARK VINA RESULT: -6.112901801      1.065      1.232
REMARK  3 active torsions:
REMARK  status: ('A' for Active; 'I' for Inactive)
REMARK    1  A    between atoms: C1_2  and  C2_4 
REMARK    2  A    between atoms: C3_7  and  S1_8 
REMARK    3  A    between atoms: S1_8  and  N3_9 
ROOT
HETATM    1  C2  UNL     1       5.966   0.028  19.260  1.00  0.00     0.128 A 
HETATM    2  N2  UNL     1       6.460  -0.014  20.457  1.00  0.00    -0.334 N 
ATOM      3  H2  UNL     1       6.212  -0.781  21.082  1.00  0.00     0.167 HD
HETATM    4  C3  UNL     1       7.280   0.929  20.870  1.00  0.00     0.193 A 
HETATM    5  S2  UNL     1       7.383   1.954  19.514  1.00  0.00    -0.044 SA
HETATM    6  C4  UNL     1       6.343   1.094  18.468  1.00  0.00     0.109 A 
HETATM    7 CL1  UNL     1       5.853   1.446  16.799  1.00  0.00    -0.074 Cl
ENDROOT
BRANCH   4   8
HETATM    8  S1  UNL     1       8.087   1.114  22.428  1.00  0.00     0.279 S 
HETATM    9  O2  UNL     1       9.535   0.686  22.302  1.00  0.00    -0.199 OA
HETATM   10  O3  UNL     1       7.419   0.216  23.430  1.00  0.00    -0.199 OA
BRANCH   8  11
HETATM   11  N3  UNL     1       8.067   2.727  22.976  1.00  0.00    -0.323 N 
ATOM     12  H32 UNL     1       7.795   2.989  23.924  1.00  0.00     0.169 HD
ATOM     13  H31 UNL     1       8.355   3.385  22.251  1.00  0.00     0.169 HD
ENDBRANCH   8  11
ENDBRANCH   4   8
BRANCH   1  14
HETATM   14  C1  UNL     1       5.043  -0.986  18.723  1.00  0.00     0.283 C 
HETATM   15  N1  UNL     1       4.819  -1.181  17.341  1.00  0.00    -0.056 NA
HETATM   16  O1  UNL     1       4.427  -1.711  19.534  1.00  0.00    -0.269 OA
ENDBRANCH   1  14
TORSDOF 3
ENDMDL
MODEL 4
REMARK VINA RESULT: -5.939944950      1.810      1.895
REMARK  3 active torsions:
REMARK  status: ('A' for Active; 'I' for Inactive)
REMARK    1  A    between atoms: C1_2  and  C2_4 
REMARK    2  A    between atoms: C3_7  and  S1_8 
REMARK    3  A    between atoms: S1_8  and  N3_9 
ROOT
HETATM    1  C2  UNL     1       6.884   1.027  19.494  1.00  0.00     0.128 A 
HETATM    2  N2  UNL     1       7.017   0.943  20.779  1.00  0.00    -0.334 N 
ATOM      3  H2  UNL     1       6.462   0.268  21.305  1.00  0.00     0.167 HD
HETATM    4  C3  UNL     1       7.867   1.725  21.411  1.00  0.00     0.193 A 
HETATM    5  S2  UNL     1       8.535   2.649  20.146  1.00  0.00    -0.044 SA
HETATM    6  C4  UNL     1       7.665   1.963  18.846  1.00  0.00     0.109 A 
HETATM    7 CL1  UNL     1       7.724   2.330  17.111  1.00  0.00    -0.074 Cl
ENDROOT
BRANCH   4   8
HETATM    8  S1  UNL     1       8.244   1.819  23.132  1.00  0.00     0.279 S 
HETATM    9  O2  UNL     1       9.745   1.902  23.317  1.00  0.00    -0.199 OA
HETATM   10  O3  UNL     1       7.758   0.566  23.804  1.00  0.00    -0.199 OA
BRANCH   8  11
HETATM   11  N3  UNL     1       7.552   3.190  23.869  1.00  0.00    -0.323 N 
ATOM     12  H32 UNL     1       7.471   3.296  24.880  1.00  0.00     0.169 HD
ATOM     13  H31 UNL     1       7.236   3.878  23.185  1.00  0.00     0.169 HD
ENDBRANCH   8  11
ENDBRANCH   4   8
BRANCH   1  14
HETATM   14  C1  UNL     1       5.956   0.190  18.714  1.00  0.00     0.283 C 
HETATM   15  N1  UNL     1       5.701   0.385  17.337  1.00  0.00    -0.056 NA
HETATM   16  O1  UNL     1       5.366  -0.741  19.303  1.00  0.00    -0.269 OA
ENDBRANCH   1  14
TORSDOF 3
ENDMDL
MODEL 5
REMARK VINA RESULT: -5.871322316      4.834      5.910
REMARK  3 active torsions:
REMARK  status: ('A' for Active; 'I' for Inactive)
REMARK    1  A    between atoms: C1_2  and  C2_4 
REMARK    2  A    between atoms: C3_7  and  S1_8 
REMARK    3  A    between atoms: S1_8  and  N3_9 
ROOT
HETATM    1  C2  UNL     1       7.670   3.290  22.532  1.00  0.00     0.128 A 
HETATM    2  N2  UNL     1       7.216   4.161  23.376  1.00  0.00    -0.334 N 
ATOM      3  H2  UNL     1       6.764   5.010  23.037  1.00  0.00     0.167 HD
HETATM    4  C3  UNL     1       7.336   3.955  24.671  1.00  0.00     0.193 A 
HETATM    5  S2  UNL     1       8.134   2.453  24.737  1.00  0.00    -0.044 SA
HETATM    6  C4  UNL     1       8.271   2.166  23.060  1.00  0.00     0.109 A 
HETATM    7 CL1  UNL     1       8.989   0.796  22.189  1.00  0.00    -0.074 Cl
ENDROOT
BRANCH   4   8
HETATM    8  S1  UNL     1       6.816   4.963  26.023  1.00  0.00     0.279 S 
HETATM    9  O2  UNL     1       6.538   4.086  27.228  1.00  0.00    -0.199 OA
HETATM   10  O3  UNL     1       5.538   5.658  25.646  1.00  0.00    -0.199 OA
BRANCH   8  11
HETATM   11  N3  UNL     1       7.999   6.103  26.470  1.00  0.00    -0.323 N 
ATOM     12  H32 UNL     1       8.660   5.949  27.231  1.00  0.00     0.169 HD
ATOM     13  H31 UNL     1       7.963   6.944  25.892  1.00  0.00     0.169 HD
ENDBRANCH   8  11
ENDBRANCH   4   8
BRANCH   1  14
HETATM   14  C1  UNL     1       7.574   3.445  21.070  1.00  0.00     0.283 C 
HETATM   15  N1  UNL     1       8.673   3.789  20.250  1.00  0.00    -0.056 NA
HETATM   16  O1  UNL     1       6.462   3.263  20.530  1.00  0.00    -0.269 OA
ENDBRANCH   1  14
TORSDOF 3
ENDMDL
