MODEL 1
REMARK VINA RESULT: -5.097425436      0.000      0.000
REMARK  1 active torsions:
REMARK  status: ('A' for Active; 'I' for Inactive)
REMARK    1  A    between atoms: N1_5  and  N2_7 
ROOT
HETATM    1  C1  UNL     1      23.089   2.559   8.156  1.00  0.00     0.050 C 
HETATM    2  C2  UNL     1      22.058   1.655   7.624  1.00  0.00    -0.011 C 
HETATM    3  C3  UNL     1      21.738   0.524   8.262  1.00  0.00     0.035 C 
HETATM    4  C4  UNL     1      20.724  -0.385   7.758  1.00  0.00     0.033 C 
HETATM    5  N1  UNL     1      20.216  -1.261   8.502  1.00  0.00    -0.311 N 
ATOM      6  H1  UNL     1      19.510  -1.861   8.075  1.00  0.00     0.186 HD
HETATM    7  C5  UNL     1      20.292  -0.267   6.348  1.00  0.00     0.002 C 
HETATM    8  C6  UNL     1      18.829   0.181   6.366  1.00  0.00     0.021 C 
HETATM    9  C7  UNL     1      20.396  -1.581   5.600  1.00  0.00     0.021 C 
HETATM   10  C8  UNL     1      21.125   0.752   5.599  1.00  0.00     0.099 C 
HETATM   11  C9  UNL     1      21.361   2.016   6.355  1.00  0.00     0.268 C 
HETATM   12  F1  UNL     1      22.183   2.818   5.595  1.00  0.00    -0.201 F 
HETATM   13  F2  UNL     1      20.194   2.700   6.623  1.00  0.00    -0.201 F 
ENDROOT
BRANCH   5  14
HETATM   14  N2  UNL     1      20.503  -1.506   9.830  1.00  0.00    -0.345 N 
ATOM     15  H22 UNL     1      20.971  -0.744  10.319  1.00  0.00     0.176 HD
ATOM     16  H21 UNL     1      20.300  -2.352  10.363  1.00  0.00     0.176 HD
ENDBRANCH   5  14
TORSDOF 1
ENDMDL
MODEL 2
REMARK VINA RESULT: -4.883346287      5.025      6.107
REMARK  1 active torsions:
REMARK  status: ('A' for Active; 'I' for Inactive)
REMARK    1  A    between atoms: N1_5  and  N2_7 
ROOT
HETATM    1  C1  UNL     1      22.184  -5.054   7.996  1.00  0.00     0.050 C 
HETATM    2  C2  UNL     1      22.151  -4.521   6.625  1.00  0.00    -0.011 C 
HETATM    3  C3  UNL     1      21.328  -3.520   6.295  1.00  0.00     0.035 C 
HETATM    4  C4  UNL     1      21.277  -2.976   4.950  1.00  0.00     0.033 C 
HETATM    5  N1  UNL     1      20.747  -1.859   4.726  1.00  0.00    -0.311 N 
ATOM      6  H1  UNL     1      20.751  -1.545   3.756  1.00  0.00     0.186 HD
HETATM    7  C5  UNL     1      21.860  -3.758   3.837  1.00  0.00     0.002 C 
HETATM    8  C6  UNL     1      23.062  -2.966   3.318  1.00  0.00     0.021 C 
HETATM    9  C7  UNL     1      20.878  -3.966   2.701  1.00  0.00     0.021 C 
HETATM   10  C8  UNL     1      22.315  -5.125   4.302  1.00  0.00     0.099 C 
HETATM   11  C9  UNL     1      23.058  -5.109   5.596  1.00  0.00     0.268 C 
HETATM   12  F1  UNL     1      23.349  -6.411   5.935  1.00  0.00    -0.201 F 
HETATM   13  F2  UNL     1      24.235  -4.394   5.524  1.00  0.00    -0.201 F 
ENDROOT
BRANCH   5  14
HETATM   14  N2  UNL     1      20.161  -1.007   5.640  1.00  0.00    -0.345 N 
ATOM     15  H22 UNL     1      19.714  -1.466   6.434  1.00  0.00     0.176 HD
ATOM     16  H21 UNL     1      20.129   0.012   5.608  1.00  0.00     0.176 HD
ENDBRANCH   5  14
TORSDOF 1
ENDMDL
MODEL 3
REMARK VINA RESULT: -4.628772927      3.815      5.153
REMARK  1 active torsions:
REMARK  status: ('A' for Active; 'I' for Inactive)
REMARK    1  A    between atoms: N1_5  and  N2_7 
ROOT
HETATM    1  C1  UNL     1      21.941  -4.400   5.643  1.00  0.00     0.050 C 
HETATM    2  C2  UNL     1      21.499  -3.503   6.722  1.00  0.00    -0.011 C 
HETATM    3  C3  UNL     1      20.911  -2.334   6.449  1.00  0.00     0.035 C 
HETATM    4  C4  UNL     1      20.466  -1.431   7.494  1.00  0.00     0.033 C 
HETATM    5  N1  UNL     1      19.652  -0.506   7.246  1.00  0.00    -0.311 N 
ATOM      6  H1  UNL     1      19.388   0.086   8.033  1.00  0.00     0.186 HD
HETATM    7  C5  UNL     1      20.987  -1.612   8.868  1.00  0.00     0.002 C 
HETATM    8  C6  UNL     1      19.801  -2.027   9.742  1.00  0.00     0.021 C 
HETATM    9  C7  UNL     1      21.593  -0.341   9.428  1.00  0.00     0.021 C 
HETATM   10  C8  UNL     1      22.053  -2.686   8.916  1.00  0.00     0.099 C 
HETATM   11  C9  UNL     1      21.713  -3.914   8.140  1.00  0.00     0.268 C 
HETATM   12  F1  UNL     1      22.787  -4.772   8.210  1.00  0.00    -0.201 F 
HETATM   13  F2  UNL     1      20.596  -4.558   8.630  1.00  0.00    -0.201 F 
ENDROOT
BRANCH   5  14
HETATM   14  N2  UNL     1      19.074  -0.199   6.031  1.00  0.00    -0.345 N 
ATOM     15  H22 UNL     1      19.638   0.393   5.421  1.00  0.00     0.176 HD
ATOM     16  H21 UNL     1      18.162  -0.495   5.684  1.00  0.00     0.176 HD
ENDBRANCH   5  14
TORSDOF 1
ENDMDL
MODEL 4
REMARK VINA RESULT: -4.537595181      3.024      3.841
REMARK  1 active torsions:
REMARK  status: ('A' for Active; 'I' for Inactive)
REMARK    1  A    between atoms: N1_5  and  N2_7 
ROOT
HETATM    1  C1  UNL     1      22.232  -0.649  10.352  1.00  0.00     0.050 C 
HETATM    2  C2  UNL     1      21.571  -0.568   9.040  1.00  0.00    -0.011 C 
HETATM    3  C3  UNL     1      21.616   0.553   8.313  1.00  0.00     0.035 C 
HETATM    4  C4  UNL     1      20.973   0.658   7.017  1.00  0.00     0.033 C 
HETATM    5  N1  UNL     1      21.275   1.580   6.219  1.00  0.00    -0.311 N 
ATOM      6  H1  UNL     1      20.780   1.586   5.327  1.00  0.00     0.186 HD
HETATM    7  C5  UNL     1      19.947  -0.341   6.642  1.00  0.00     0.002 C 
HETATM    8  C6  UNL     1      20.517  -1.146   5.472  1.00  0.00     0.021 C 
HETATM    9  C7  UNL     1      18.644   0.302   6.211  1.00  0.00     0.021 C 
HETATM   10  C8  UNL     1      19.637  -1.273   7.795  1.00  0.00     0.099 C 
HETATM   11  C9  UNL     1      20.845  -1.763   8.520  1.00  0.00     0.268 C 
HETATM   12  F1  UNL     1      20.421  -2.537   9.577  1.00  0.00    -0.201 F 
HETATM   13  F2  UNL     1      21.673  -2.521   7.719  1.00  0.00    -0.201 F 
ENDROOT
BRANCH   5  14
HETATM   14  N2  UNL     1      22.201   2.586   6.408  1.00  0.00    -0.345 N 
ATOM     15  H22 UNL     1      22.596   2.639   7.347  1.00  0.00     0.176 HD
ATOM     16  H21 UNL     1      22.526   3.269   5.724  1.00  0.00     0.176 HD
ENDBRANCH   5  14
TORSDOF 1
ENDMDL
MODEL 5
REMARK VINA RESULT: -4.476205428      5.614      6.818
REMARK  1 active torsions:
REMARK  status: ('A' for Active; 'I' for Inactive)
REMARK    1  A    between atoms: N1_5  and  N2_7 
ROOT
HETATM    1  C1  UNL     1      20.961  -3.045   5.787  1.00  0.00     0.050 C 
HETATM    2  C2  UNL     1      21.687  -4.028   6.606  1.00  0.00    -0.011 C 
HETATM    3  C3  UNL     1      22.414  -4.996   6.038  1.00  0.00     0.035 C 
HETATM    4  C4  UNL     1      23.140  -5.977   6.822  1.00  0.00     0.033 C 
HETATM    5  N1  UNL     1      24.052  -6.671   6.305  1.00  0.00    -0.311 N 
ATOM      6  H1  UNL     1      24.515  -7.338   6.922  1.00  0.00     0.186 HD
HETATM    7  C5  UNL     1      22.793  -6.153   8.250  1.00  0.00     0.002 C 
HETATM    8  C6  UNL     1      24.005  -5.693   9.064  1.00  0.00     0.021 C 
HETATM    9  C7  UNL     1      22.485  -7.596   8.596  1.00  0.00     0.021 C 
HETATM   10  C8  UNL     1      21.583  -5.325   8.630  1.00  0.00     0.099 C 
HETATM   11  C9  UNL     1      21.608  -3.933   8.093  1.00  0.00     0.268 C 
HETATM   12  F1  UNL     1      20.429  -3.319   8.450  1.00  0.00    -0.201 F 
HETATM   13  F2  UNL     1      22.662  -3.194   8.586  1.00  0.00    -0.201 F 
ENDROOT
BRANCH   5  14
HETATM   14  N2  UNL     1      24.498  -6.635   5.000  1.00  0.00    -0.345 N 
ATOM     15  H22 UNL     1      25.280  -6.004   4.827  1.00  0.00     0.176 HD
ATOM     16  H21 UNL     1      24.135  -7.162   4.205  1.00  0.00     0.176 HD
ENDBRANCH   5  14
TORSDOF 1
ENDMDL
