MODEL 1
REMARK VINA RESULT: -4.068662956      0.000      0.000
REMARK  1 active torsions:
REMARK  status: ('A' for Active; 'I' for Inactive)
REMARK    1  A    between atoms: C6_7  and  N2_8 
ROOT
HETATM    1  C1  UNL     1       1.638  34.667 -17.153  1.00  0.00     0.145 C 
HETATM    2  N1  UNL     1       0.624  34.205 -16.295  1.00  0.00    -0.391 N 
HETATM    3  C2  UNL     1      -0.714  34.348 -16.731  1.00  0.00     0.118 C 
HETATM    4  C3  UNL     1      -1.433  35.557 -16.271  1.00  0.00     0.020 C 
HETATM    5  C4  UNL     1      -1.117  36.040 -14.912  1.00  0.00     0.005 C 
HETATM    6  C5  UNL     1       0.160  35.599 -14.322  1.00  0.00     0.054 C 
HETATM    7  C6  UNL     1       0.796  34.403 -14.909  1.00  0.00     0.279 C 
ENDROOT
BRANCH   7   8
HETATM    8  N2  UNL     1       2.218  34.424 -14.554  1.00  0.00    -0.059 N 
ATOM      9  H23 UNL     1       2.732  35.117 -15.100  1.00  0.00     0.276 HD
ATOM     10  H22 UNL     1       2.367  34.818 -13.624  1.00  0.00     0.276 HD
ATOM     11  H21 UNL     1       2.631  33.496 -14.639  1.00  0.00     0.276 HD
ENDBRANCH   7   8
TORSDOF 1
ENDMDL
MODEL 2
REMARK VINA RESULT: -4.018259242      3.797      4.692
REMARK  1 active torsions:
REMARK  status: ('A' for Active; 'I' for Inactive)
REMARK    1  A    between atoms: C6_7  and  N2_8 
ROOT
HETATM    1  C1  UNL     1       3.814  35.550 -15.672  1.00  0.00     0.145 C 
HETATM    2  N1  UNL     1       4.151  35.597 -14.307  1.00  0.00    -0.391 N 
HETATM    3  C2  UNL     1       3.128  35.316 -13.373  1.00  0.00     0.118 C 
HETATM    4  C3  UNL     1       2.400  36.479 -12.820  1.00  0.00     0.020 C 
HETATM    5  C4  UNL     1       3.186  37.710 -12.601  1.00  0.00     0.005 C 
HETATM    6  C5  UNL     1       4.451  37.842 -13.346  1.00  0.00     0.054 C 
HETATM    7  C6  UNL     1       5.046  36.603 -13.887  1.00  0.00     0.279 C 
ENDROOT
BRANCH   7   8
HETATM    8  N2  UNL     1       5.965  36.975 -14.967  1.00  0.00    -0.059 N 
ATOM      9  H23 UNL     1       6.727  36.303 -15.060  1.00  0.00     0.276 HD
ATOM     10  H22 UNL     1       5.536  36.852 -15.884  1.00  0.00     0.276 HD
ATOM     11  H21 UNL     1       6.313  37.925 -14.840  1.00  0.00     0.276 HD
ENDBRANCH   7   8
TORSDOF 1
ENDMDL
MODEL 3
REMARK VINA RESULT: -3.958018066      4.908      5.699
REMARK  1 active torsions:
REMARK  status: ('A' for Active; 'I' for Inactive)
REMARK    1  A    between atoms: C6_7  and  N2_8 
ROOT
HETATM    1  C1  UNL     1       4.789  37.089 -16.950  1.00  0.00     0.145 C 
HETATM    2  N1  UNL     1       5.289  36.638 -15.715  1.00  0.00    -0.391 N 
HETATM    3  C2  UNL     1       4.413  35.900 -14.887  1.00  0.00     0.118 C 
HETATM    4  C3  UNL     1       3.680  36.664 -13.853  1.00  0.00     0.020 C 
HETATM    5  C4  UNL     1       4.399  37.793 -13.229  1.00  0.00     0.005 C 
HETATM    6  C5  UNL     1       5.548  38.349 -13.965  1.00  0.00     0.054 C 
HETATM    7  C6  UNL     1       6.157  37.496 -15.007  1.00  0.00     0.279 C 
ENDROOT
BRANCH   7   8
HETATM    8  N2  UNL     1       6.905  38.362 -15.922  1.00  0.00    -0.059 N 
ATOM      9  H23 UNL     1       6.295  38.783 -16.624  1.00  0.00     0.276 HD
ATOM     10  H22 UNL     1       7.220  39.215 -15.460  1.00  0.00     0.276 HD
ATOM     11  H21 UNL     1       7.680  37.858 -16.351  1.00  0.00     0.276 HD
ENDBRANCH   7   8
TORSDOF 1
ENDMDL
MODEL 4
REMARK VINA RESULT: -3.945021507      3.982      4.832
REMARK  1 active torsions:
REMARK  status: ('A' for Active; 'I' for Inactive)
REMARK    1  A    between atoms: C6_7  and  N2_8 
ROOT
HETATM    1  C1  UNL     1       4.600  36.475 -15.732  1.00  0.00     0.145 C 
HETATM    2  N1  UNL     1       4.675  36.206 -14.354  1.00  0.00    -0.391 N 
HETATM    3  C2  UNL     1       3.808  35.217 -13.834  1.00  0.00     0.118 C 
HETATM    4  C3  UNL     1       2.529  35.693 -13.263  1.00  0.00     0.020 C 
HETATM    5  C4  UNL     1       2.560  36.992 -12.560  1.00  0.00     0.005 C 
HETATM    6  C5  UNL     1       3.681  37.898 -12.869  1.00  0.00     0.054 C 
HETATM    7  C6  UNL     1       4.882  37.297 -13.483  1.00  0.00     0.279 C 
ENDROOT
BRANCH   7   8
HETATM    8  N2  UNL     1       5.634  38.365 -14.148  1.00  0.00    -0.059 N 
ATOM      9  H23 UNL     1       5.612  39.231 -13.609  1.00  0.00     0.276 HD
ATOM     10  H22 UNL     1       6.639  38.191 -14.121  1.00  0.00     0.276 HD
ATOM     11  H21 UNL     1       5.304  38.507 -15.102  1.00  0.00     0.276 HD
ENDBRANCH   7   8
TORSDOF 1
ENDMDL
MODEL 5
REMARK VINA RESULT: -3.915813043      5.051      6.198
REMARK  1 active torsions:
REMARK  status: ('A' for Active; 'I' for Inactive)
REMARK    1  A    between atoms: C6_7  and  N2_8 
ROOT
HETATM    1  C1  UNL     1       7.237  37.743 -14.573  1.00  0.00     0.145 C 
HETATM    2  N1  UNL     1       5.856  37.960 -14.731  1.00  0.00    -0.391 N 
HETATM    3  C2  UNL     1       4.998  37.451 -13.729  1.00  0.00     0.118 C 
HETATM    4  C3  UNL     1       4.408  36.117 -13.979  1.00  0.00     0.020 C 
HETATM    5  C4  UNL     1       4.068  35.794 -15.379  1.00  0.00     0.005 C 
HETATM    6  C5  UNL     1       4.735  36.581 -16.432  1.00  0.00     0.054 C 
HETATM    7  C6  UNL     1       5.324  37.876 -16.034  1.00  0.00     0.279 C 
ENDROOT
BRANCH   7   8
HETATM    8  N2  UNL     1       6.327  38.245 -17.037  1.00  0.00    -0.059 N 
ATOM      9  H23 UNL     1       7.274  38.175 -16.665  1.00  0.00     0.276 HD
ATOM     10  H22 UNL     1       6.398  37.542 -17.774  1.00  0.00     0.276 HD
ATOM     11  H21 UNL     1       6.140  39.171 -17.419  1.00  0.00     0.276 HD
ENDBRANCH   7   8
TORSDOF 1
ENDMDL
