MODEL 1
REMARK VINA RESULT: -5.485367910      0.000      0.000
REMARK  1 active torsions:
REMARK  status: ('A' for Active; 'I' for Inactive)
REMARK    1  A    between atoms: C5_6  and  O2_7 
ROOT
HETATM    1  C1  UNL     1      -0.555  35.799 -14.397  1.00  0.00     0.010 C 
HETATM    2  C2  UNL     1      -1.522  36.506 -15.276  1.00  0.00    -0.012 C 
HETATM    3  C3  UNL     1      -2.128  35.585 -16.340  1.00  0.00     0.031 C 
HETATM    4  C4  UNL     1      -3.087  36.377 -17.184  1.00  0.00     0.171 C 
HETATM    5  O1  UNL     1      -3.983  37.127 -16.481  1.00  0.00    -0.361 OA
HETATM    6  C5  UNL     1      -3.450  37.950 -15.527  1.00  0.00     0.257 C 
HETATM    7  C6  UNL     1      -2.728  37.051 -14.513  1.00  0.00     0.065 C 
ENDROOT
BRANCH   6   8
HETATM    8  O2  UNL     1      -4.455  38.594 -14.835  1.00  0.00    -0.371 OA
ATOM      9  H2  UNL     1      -4.945  39.160 -15.419  1.00  0.00     0.212 HD
ENDBRANCH   6   8
TORSDOF 1
ENDMDL
MODEL 2
REMARK VINA RESULT: -4.614971696      7.775      8.678
REMARK  1 active torsions:
REMARK  status: ('A' for Active; 'I' for Inactive)
REMARK    1  A    between atoms: C5_6  and  O2_7 
ROOT
HETATM    1  C1  UNL     1       5.006  37.678 -13.779  1.00  0.00     0.010 C 
HETATM    2  C2  UNL     1       5.222  37.924 -15.228  1.00  0.00    -0.012 C 
HETATM    3  C3  UNL     1       6.698  38.148 -15.571  1.00  0.00     0.031 C 
HETATM    4  C4  UNL     1       6.827  38.394 -17.048  1.00  0.00     0.171 C 
HETATM    5  O1  UNL     1       6.174  37.493 -17.836  1.00  0.00    -0.361 OA
HETATM    6  C5  UNL     1       4.855  37.285 -17.535  1.00  0.00     0.257 C 
HETATM    7  C6  UNL     1       4.805  36.741 -16.101  1.00  0.00     0.065 C 
ENDROOT
BRANCH   6   8
HETATM    8  O2  UNL     1       4.329  36.301 -18.347  1.00  0.00    -0.371 OA
ATOM      9  H2  UNL     1       4.997  35.660 -18.561  1.00  0.00     0.212 HD
ENDBRANCH   6   8
TORSDOF 1
ENDMDL
MODEL 3
REMARK VINA RESULT: -4.595236170      0.996      2.372
REMARK  1 active torsions:
REMARK  status: ('A' for Active; 'I' for Inactive)
REMARK    1  A    between atoms: C5_6  and  O2_7 
ROOT
HETATM    1  C1  UNL     1      -0.263  35.646 -14.279  1.00  0.00     0.010 C 
HETATM    2  C2  UNL     1      -1.572  36.024 -14.871  1.00  0.00    -0.012 C 
HETATM    3  C3  UNL     1      -1.947  37.481 -14.585  1.00  0.00     0.031 C 
HETATM    4  C4  UNL     1      -3.280  37.777 -15.212  1.00  0.00     0.171 C 
HETATM    5  O1  UNL     1      -3.399  37.388 -16.514  1.00  0.00    -0.361 OA
HETATM    6  C5  UNL     1      -3.064  36.087 -16.778  1.00  0.00     0.257 C 
HETATM    7  C6  UNL     1      -1.587  35.920 -16.396  1.00  0.00     0.065 C 
ENDROOT
BRANCH   6   8
HETATM    8  O2  UNL     1      -3.149  35.838 -18.132  1.00  0.00    -0.371 OA
ATOM      9  H2  UNL     1      -2.282  35.825 -18.519  1.00  0.00     0.212 HD
ENDBRANCH   6   8
TORSDOF 1
ENDMDL
MODEL 4
REMARK VINA RESULT: -4.543786267      2.409      3.246
REMARK  1 active torsions:
REMARK  status: ('A' for Active; 'I' for Inactive)
REMARK    1  A    between atoms: C5_6  and  O2_7 
ROOT
HETATM    1  C1  UNL     1      -3.743  37.931 -15.368  1.00  0.00     0.010 C 
HETATM    2  C2  UNL     1      -2.851  36.742 -15.382  1.00  0.00    -0.012 C 
HETATM    3  C3  UNL     1      -2.518  36.277 -16.803  1.00  0.00     0.031 C 
HETATM    4  C4  UNL     1      -1.621  35.073 -16.727  1.00  0.00     0.171 C 
HETATM    5  O1  UNL     1      -0.551  35.209 -15.890  1.00  0.00    -0.361 OA
HETATM    6  C5  UNL     1      -0.841  35.628 -14.619  1.00  0.00     0.257 C 
HETATM    7  C6  UNL     1      -1.490  37.013 -14.742  1.00  0.00     0.065 C 
ENDROOT
BRANCH   6   8
HETATM    8  O2  UNL     1       0.322  35.801 -13.897  1.00  0.00    -0.371 OA
ATOM      9  H2  UNL     1       0.163  35.640 -12.975  1.00  0.00     0.212 HD
ENDBRANCH   6   8
TORSDOF 1
ENDMDL
MODEL 5
REMARK VINA RESULT: -4.483023505      2.720      4.000
REMARK  1 active torsions:
REMARK  status: ('A' for Active; 'I' for Inactive)
REMARK    1  A    between atoms: C5_6  and  O2_7 
ROOT
HETATM    1  C1  UNL     1       0.992  35.514 -13.197  1.00  0.00     0.010 C 
HETATM    2  C2  UNL     1       0.112  35.165 -14.342  1.00  0.00    -0.012 C 
HETATM    3  C3  UNL     1      -0.898  36.271 -14.663  1.00  0.00     0.031 C 
HETATM    4  C4  UNL     1      -1.749  35.836 -15.823  1.00  0.00     0.171 C 
HETATM    5  O1  UNL     1      -1.053  35.351 -16.892  1.00  0.00    -0.361 OA
HETATM    6  C5  UNL     1      -0.147  34.365 -16.613  1.00  0.00     0.257 C 
HETATM    7  C6  UNL     1       0.883  34.964 -15.645  1.00  0.00     0.065 C 
ENDROOT
BRANCH   6   8
HETATM    8  O2  UNL     1       0.544  34.014 -17.754  1.00  0.00    -0.371 OA
ATOM      9  H2  UNL     1       1.394  33.656 -17.527  1.00  0.00     0.212 HD
ENDBRANCH   6   8
TORSDOF 1
ENDMDL
