MODEL 1
REMARK VINA RESULT: -4.041143324      0.000      0.000
REMARK  1 active torsions:
REMARK  status: ('A' for Active; 'I' for Inactive)
REMARK    1  A    between atoms: C6_7  and  O2_8 
ROOT
HETATM    1  C1  UNL     1       3.863  35.653 -19.217  1.00  0.00     0.048 C 
HETATM    2  C2  UNL     1       4.238  35.875 -20.673  1.00  0.00     0.079 C 
HETATM    3  C3  UNL     1       3.471  37.083 -21.191  1.00  0.00     0.048 C 
HETATM    4  O1  UNL     1       5.571  36.173 -20.724  1.00  0.00    -0.378 OA
HETATM    5  C4  UNL     1       6.171  35.436 -21.710  1.00  0.00     0.171 C 
HETATM    6  C5  UNL     1       5.324  34.210 -21.958  1.00  0.00     0.061 C 
HETATM    7  C6  UNL     1       3.956  34.701 -21.541  1.00  0.00     0.153 C 
ENDROOT
BRANCH   7   8
HETATM    8  O2  UNL     1       3.286  35.048 -22.733  1.00  0.00    -0.392 OA
ATOM      9  H2  UNL     1       2.376  34.775 -22.740  1.00  0.00     0.210 HD
ENDBRANCH   7   8
TORSDOF 1
ENDMDL
MODEL 2
REMARK VINA RESULT: -3.905566568      5.524      6.904
REMARK  1 active torsions:
REMARK  status: ('A' for Active; 'I' for Inactive)
REMARK    1  A    between atoms: C6_7  and  O2_8 
ROOT
HETATM    1  C1  UNL     1       4.450  38.173 -13.453  1.00  0.00     0.048 C 
HETATM    2  C2  UNL     1       5.307  37.405 -14.445  1.00  0.00     0.079 C 
HETATM    3  C3  UNL     1       6.382  36.654 -13.674  1.00  0.00     0.048 C 
HETATM    4  O1  UNL     1       4.513  36.481 -15.062  1.00  0.00    -0.378 OA
HETATM    5  C4  UNL     1       4.727  36.518 -16.415  1.00  0.00     0.171 C 
HETATM    6  C5  UNL     1       5.276  37.881 -16.764  1.00  0.00     0.061 C 
HETATM    7  C6  UNL     1       5.949  38.275 -15.467  1.00  0.00     0.153 C 
ENDROOT
BRANCH   7   8
HETATM    8  O2  UNL     1       7.321  37.999 -15.640  1.00  0.00    -0.392 OA
ATOM      9  H2  UNL     1       7.776  37.852 -14.819  1.00  0.00     0.210 HD
ENDBRANCH   7   8
TORSDOF 1
ENDMDL
MODEL 3
REMARK VINA RESULT: -3.778806055      5.587      7.116
REMARK  1 active torsions:
REMARK  status: ('A' for Active; 'I' for Inactive)
REMARK    1  A    between atoms: C6_7  and  O2_8 
ROOT
HETATM    1  C1  UNL     1       6.754  36.641 -13.701  1.00  0.00     0.048 C 
HETATM    2  C2  UNL     1       5.383  36.978 -14.262  1.00  0.00     0.079 C 
HETATM    3  C3  UNL     1       5.017  38.389 -13.826  1.00  0.00     0.048 C 
HETATM    4  O1  UNL     1       5.472  36.971 -15.625  1.00  0.00    -0.378 OA
HETATM    5  C4  UNL     1       4.422  36.266 -16.152  1.00  0.00     0.171 C 
HETATM    6  C5  UNL     1       3.922  35.311 -15.094  1.00  0.00     0.061 C 
HETATM    7  C6  UNL     1       4.319  36.035 -13.826  1.00  0.00     0.153 C 
ENDROOT
BRANCH   7   8
HETATM    8  O2  UNL     1       3.156  36.690 -13.370  1.00  0.00    -0.392 OA
ATOM      9  H2  UNL     1       2.542  36.882 -14.068  1.00  0.00     0.210 HD
ENDBRANCH   7   8
TORSDOF 1
ENDMDL
MODEL 4
REMARK VINA RESULT: -3.618294645      6.478      7.754
REMARK  1 active torsions:
REMARK  status: ('A' for Active; 'I' for Inactive)
REMARK    1  A    between atoms: C6_7  and  O2_8 
ROOT
HETATM    1  C1  UNL     1       3.964  38.102 -13.123  1.00  0.00     0.048 C 
HETATM    2  C2  UNL     1       4.937  37.218 -13.884  1.00  0.00     0.079 C 
HETATM    3  C3  UNL     1       4.440  35.782 -13.814  1.00  0.00     0.048 C 
HETATM    4  O1  UNL     1       4.919  37.603 -15.195  1.00  0.00    -0.378 OA
HETATM    5  C4  UNL     1       6.202  37.722 -15.659  1.00  0.00     0.171 C 
HETATM    6  C5  UNL     1       7.108  37.956 -14.474  1.00  0.00     0.061 C 
HETATM    7  C6  UNL     1       6.328  37.286 -13.364  1.00  0.00     0.153 C 
ENDROOT
BRANCH   7   8
HETATM    8  O2  UNL     1       6.913  36.014 -13.189  1.00  0.00    -0.392 OA
ATOM      9  H2  UNL     1       7.773  35.944 -13.586  1.00  0.00     0.210 HD
ENDBRANCH   7   8
TORSDOF 1
ENDMDL
MODEL 5
REMARK VINA RESULT: -3.521087430      5.603      6.979
REMARK  1 active torsions:
REMARK  status: ('A' for Active; 'I' for Inactive)
REMARK    1  A    between atoms: C6_7  and  O2_8 
ROOT
HETATM    1  C1  UNL     1       4.953  38.148 -16.921  1.00  0.00     0.048 C 
HETATM    2  C2  UNL     1       5.178  37.277 -15.697  1.00  0.00     0.079 C 
HETATM    3  C3  UNL     1       4.398  35.982 -15.876  1.00  0.00     0.048 C 
HETATM    4  O1  UNL     1       6.506  36.961 -15.644  1.00  0.00    -0.378 OA
HETATM    5  C4  UNL     1       6.975  37.151 -14.371  1.00  0.00     0.171 C 
HETATM    6  C5  UNL     1       6.070  38.145 -13.683  1.00  0.00     0.061 C 
HETATM    7  C6  UNL     1       4.769  37.928 -14.424  1.00  0.00     0.153 C 
ENDROOT
BRANCH   7   8
HETATM    8  O2  UNL     1       3.987  37.089 -13.604  1.00  0.00    -0.392 OA
ATOM      9  H2  UNL     1       4.508  36.569 -13.002  1.00  0.00     0.210 HD
ENDBRANCH   7   8
TORSDOF 1
ENDMDL
