MODEL 1
REMARK VINA RESULT: -5.084440191      0.000      0.000
REMARK  1 active torsions:
REMARK  status: ('A' for Active; 'I' for Inactive)
REMARK    1  A    between atoms: O1_1  and  C1_3 
ROOT
HETATM    1  C1  UNL     1      -2.274  35.927 -17.008  1.00  0.00     0.189 A 
HETATM    2  C2  UNL     1      -1.356  35.582 -15.913  1.00  0.00     0.071 C 
HETATM    3  C3  UNL     1      -1.406  36.406 -14.694  1.00  0.00     0.006 C 
HETATM    4  C4  UNL     1      -2.650  37.185 -14.462  1.00  0.00     0.003 C 
HETATM    5  C5  UNL     1      -3.280  37.756 -15.680  1.00  0.00     0.037 C 
HETATM    6  C6  UNL     1      -3.320  36.818 -16.855  1.00  0.00     0.187 A 
HETATM    7  O2  UNL     1      -3.659  35.489 -16.679  1.00  0.00    -0.342 OA
ENDROOT
BRANCH   1   8
HETATM    8  O1  UNL     1      -1.885  35.476 -18.281  1.00  0.00    -0.363 OA
ATOM      9  H1  UNL     1      -1.624  36.157 -18.890  1.00  0.00     0.213 HD
ENDBRANCH   1   8
TORSDOF 1
ENDMDL
MODEL 2
REMARK VINA RESULT: -4.981224904      1.844      2.997
REMARK  1 active torsions:
REMARK  status: ('A' for Active; 'I' for Inactive)
REMARK    1  A    between atoms: O1_1  and  C1_3 
ROOT
HETATM    1  C1  UNL     1      -2.799  37.318 -15.455  1.00  0.00     0.189 A 
HETATM    2  C2  UNL     1      -3.127  36.659 -16.728  1.00  0.00     0.071 C 
HETATM    3  C3  UNL     1      -2.205  35.622 -17.217  1.00  0.00     0.006 C 
HETATM    4  C4  UNL     1      -1.311  34.990 -16.211  1.00  0.00     0.003 C 
HETATM    5  C5  UNL     1      -0.792  35.902 -15.159  1.00  0.00     0.037 C 
HETATM    6  C6  UNL     1      -1.817  36.851 -14.601  1.00  0.00     0.187 A 
HETATM    7  O2  UNL     1      -3.096  36.410 -14.311  1.00  0.00    -0.342 OA
ENDROOT
BRANCH   1   8
HETATM    8  O1  UNL     1      -3.383  38.582 -15.266  1.00  0.00    -0.363 OA
ATOM      9  H1  UNL     1      -2.787  39.267 -14.986  1.00  0.00     0.213 HD
ENDBRANCH   1   8
TORSDOF 1
ENDMDL
MODEL 3
REMARK VINA RESULT: -4.545947646      1.780      2.836
REMARK  1 active torsions:
REMARK  status: ('A' for Active; 'I' for Inactive)
REMARK    1  A    between atoms: O1_1  and  C1_3 
ROOT
HETATM    1  C1  UNL     1      -3.013  37.202 -14.788  1.00  0.00     0.189 A 
HETATM    2  C2  UNL     1      -1.678  36.621 -14.581  1.00  0.00     0.071 C 
HETATM    3  C3  UNL     1      -1.197  35.647 -15.573  1.00  0.00     0.006 C 
HETATM    4  C4  UNL     1      -1.843  35.676 -16.911  1.00  0.00     0.003 C 
HETATM    5  C5  UNL     1      -3.302  35.957 -16.907  1.00  0.00     0.037 C 
HETATM    6  C6  UNL     1      -3.718  37.057 -15.969  1.00  0.00     0.187 A 
HETATM    7  O2  UNL     1      -2.972  38.218 -15.876  1.00  0.00    -0.342 OA
ENDROOT
BRANCH   1   8
HETATM    8  O1  UNL     1      -3.629  37.716 -13.633  1.00  0.00    -0.363 OA
ATOM      9  H1  UNL     1      -3.147  37.587 -12.825  1.00  0.00     0.213 HD
ENDBRANCH   1   8
TORSDOF 1
ENDMDL
MODEL 4
REMARK VINA RESULT: -4.503580397      7.239      7.886
REMARK  1 active torsions:
REMARK  status: ('A' for Active; 'I' for Inactive)
REMARK    1  A    between atoms: O1_1  and  C1_3 
ROOT
HETATM    1  C1  UNL     1       5.151  37.121 -17.555  1.00  0.00     0.189 A 
HETATM    2  C2  UNL     1       4.363  36.240 -16.681  1.00  0.00     0.071 C 
HETATM    3  C3  UNL     1       4.581  36.346 -15.229  1.00  0.00     0.006 C 
HETATM    4  C4  UNL     1       5.189  37.608 -14.733  1.00  0.00     0.003 C 
HETATM    5  C5  UNL     1       6.232  38.200 -15.609  1.00  0.00     0.037 C 
HETATM    6  C6  UNL     1       5.893  38.184 -17.074  1.00  0.00     0.187 A 
HETATM    7  O2  UNL     1       4.619  38.512 -17.502  1.00  0.00    -0.342 OA
ENDROOT
BRANCH   1   8
HETATM    8  O1  UNL     1       5.291  36.680 -18.882  1.00  0.00    -0.363 OA
ATOM      9  H1  UNL     1       5.950  37.135 -19.393  1.00  0.00     0.213 HD
ENDBRANCH   1   8
TORSDOF 1
ENDMDL
MODEL 5
REMARK VINA RESULT: -4.469941635      1.661      2.118
REMARK  1 active torsions:
REMARK  status: ('A' for Active; 'I' for Inactive)
REMARK    1  A    between atoms: O1_1  and  C1_3 
ROOT
HETATM    1  C1  UNL     1      -0.279  34.816 -16.682  1.00  0.00     0.189 A 
HETATM    2  C2  UNL     1       0.234  35.022 -15.319  1.00  0.00     0.071 C 
HETATM    3  C3  UNL     1      -0.512  35.936 -14.440  1.00  0.00     0.006 C 
HETATM    4  C4  UNL     1      -1.931  36.199 -14.794  1.00  0.00     0.003 C 
HETATM    5  C5  UNL     1      -2.217  36.292 -16.249  1.00  0.00     0.037 C 
HETATM    6  C6  UNL     1      -1.531  35.245 -17.083  1.00  0.00     0.187 A 
HETATM    7  O2  UNL     1      -1.477  33.931 -16.655  1.00  0.00    -0.342 OA
ENDROOT
BRANCH   1   8
HETATM    8  O1  UNL     1       0.667  34.363 -17.617  1.00  0.00    -0.363 OA
ATOM      9  H1  UNL     1       0.373  34.356 -18.521  1.00  0.00     0.213 HD
ENDBRANCH   1   8
TORSDOF 1
ENDMDL
