MODEL 1
REMARK VINA RESULT: -4.402249697      0.000      0.000
REMARK  1 active torsions:
REMARK  status: ('A' for Active; 'I' for Inactive)
REMARK    1  A    between atoms: C6_6  and  O1_7 
ROOT
HETATM    1  C1  UNL     1       1.376  34.416 -15.645  1.00  0.00     0.010 C 
HETATM    2  C2  UNL     1       1.831  34.567 -14.191  1.00  0.00    -0.016 C 
HETATM    3  C3  UNL     1       3.278  34.887 -14.073  1.00  0.00     0.004 C 
HETATM    4  C4  UNL     1       3.575  36.340 -13.833  1.00  0.00     0.003 C 
HETATM    5  C5  UNL     1       2.887  36.911 -12.637  1.00  0.00     0.032 C 
HETATM    6  C6  UNL     1       1.577  36.198 -12.334  1.00  0.00     0.118 C 
HETATM    7  C7  UNL     1       1.000  35.723 -13.634  1.00  0.00     0.035 C 
ENDROOT
BRANCH   6   8
HETATM    8  O1  UNL     1       1.907  35.139 -11.473  1.00  0.00    -0.396 OA
ATOM      9  H1  UNL     1       2.499  35.505 -10.827  1.00  0.00     0.210 HD
ENDBRANCH   6   8
TORSDOF 1
ENDMDL
MODEL 2
REMARK VINA RESULT: -4.371762609      3.444      4.778
REMARK  1 active torsions:
REMARK  status: ('A' for Active; 'I' for Inactive)
REMARK    1  A    between atoms: C6_6  and  O1_7 
ROOT
HETATM    1  C1  UNL     1       3.609  37.783 -12.832  1.00  0.00     0.010 C 
HETATM    2  C2  UNL     1       4.879  37.265 -13.511  1.00  0.00    -0.016 C 
HETATM    3  C3  UNL     1       4.597  36.242 -14.553  1.00  0.00     0.004 C 
HETATM    4  C4  UNL     1       4.612  36.767 -15.959  1.00  0.00     0.003 C 
HETATM    5  C5  UNL     1       5.882  37.457 -16.337  1.00  0.00     0.032 C 
HETATM    6  C6  UNL     1       6.574  38.084 -15.134  1.00  0.00     0.118 C 
HETATM    7  C7  UNL     1       5.513  38.497 -14.158  1.00  0.00     0.035 C 
ENDROOT
BRANCH   6   8
HETATM    8  O1  UNL     1       7.422  37.091 -14.620  1.00  0.00    -0.396 OA
ATOM      9  H1  UNL     1       7.335  36.348 -15.203  1.00  0.00     0.210 HD
ENDBRANCH   6   8
TORSDOF 1
ENDMDL
MODEL 3
REMARK VINA RESULT: -4.307041589      3.284      4.415
REMARK  1 active torsions:
REMARK  status: ('A' for Active; 'I' for Inactive)
REMARK    1  A    between atoms: C6_6  and  O1_7 
ROOT
HETATM    1  C1  UNL     1       3.224  36.429 -13.453  1.00  0.00     0.010 C 
HETATM    2  C2  UNL     1       4.660  36.386 -13.982  1.00  0.00    -0.016 C 
HETATM    3  C3  UNL     1       4.724  36.345 -15.467  1.00  0.00     0.004 C 
HETATM    4  C4  UNL     1       5.016  37.669 -16.112  1.00  0.00     0.003 C 
HETATM    5  C5  UNL     1       6.268  38.320 -15.624  1.00  0.00     0.032 C 
HETATM    6  C6  UNL     1       6.600  37.925 -14.193  1.00  0.00     0.118 C 
HETATM    7  C7  UNL     1       5.308  37.674 -13.474  1.00  0.00     0.035 C 
ENDROOT
BRANCH   6   8
HETATM    8  O1  UNL     1       7.395  36.772 -14.288  1.00  0.00    -0.396 OA
ATOM      9  H1  UNL     1       8.051  36.852 -13.606  1.00  0.00     0.210 HD
ENDBRANCH   6   8
TORSDOF 1
ENDMDL
MODEL 4
REMARK VINA RESULT: -4.281845792      3.784      5.179
REMARK  1 active torsions:
REMARK  status: ('A' for Active; 'I' for Inactive)
REMARK    1  A    between atoms: C6_6  and  O1_7 
ROOT
HETATM    1  C1  UNL     1       7.422  38.464 -17.191  1.00  0.00     0.010 C 
HETATM    2  C2  UNL     1       6.284  38.524 -16.169  1.00  0.00    -0.016 C 
HETATM    3  C3  UNL     1       5.019  37.936 -16.683  1.00  0.00     0.004 C 
HETATM    4  C4  UNL     1       4.750  36.535 -16.212  1.00  0.00     0.003 C 
HETATM    5  C5  UNL     1       4.748  36.383 -14.727  1.00  0.00     0.032 C 
HETATM    6  C6  UNL     1       5.646  37.404 -14.044  1.00  0.00     0.118 C 
HETATM    7  C7  UNL     1       6.783  37.711 -14.974  1.00  0.00     0.035 C 
ENDROOT
BRANCH   6   8
HETATM    8  O1  UNL     1       4.836  38.523 -13.797  1.00  0.00    -0.396 OA
ATOM      9  H1  UNL     1       5.002  38.770 -12.896  1.00  0.00     0.210 HD
ENDBRANCH   6   8
TORSDOF 1
ENDMDL
MODEL 5
REMARK VINA RESULT: -4.177283384      2.666      4.328
REMARK  1 active torsions:
REMARK  status: ('A' for Active; 'I' for Inactive)
REMARK    1  A    between atoms: C6_6  and  O1_7 
ROOT
HETATM    1  C1  UNL     1       7.408  37.926 -14.419  1.00  0.00     0.010 C 
HETATM    2  C2  UNL     1       5.899  37.736 -14.247  1.00  0.00    -0.016 C 
HETATM    3  C3  UNL     1       5.151  37.900 -15.521  1.00  0.00     0.004 C 
HETATM    4  C4  UNL     1       4.771  36.609 -16.189  1.00  0.00     0.003 C 
HETATM    5  C5  UNL     1       3.985  35.684 -15.319  1.00  0.00     0.032 C 
HETATM    6  C6  UNL     1       4.304  35.874 -13.843  1.00  0.00     0.118 C 
HETATM    7  C7  UNL     1       5.736  36.305 -13.734  1.00  0.00     0.035 C 
ENDROOT
BRANCH   6   8
HETATM    8  O1  UNL     1       3.411  36.853 -13.381  1.00  0.00    -0.396 OA
ATOM      9  H1  UNL     1       3.246  37.424 -14.122  1.00  0.00     0.210 HD
ENDBRANCH   6   8
TORSDOF 1
ENDMDL
