MODEL 1
REMARK VINA RESULT: -5.831938308      0.000      0.000
REMARK  11 active torsions:
REMARK  status: ('A' for Active; 'I' for Inactive)
REMARK    1  A    between atoms: C2_2  and  C3_3 
REMARK    2  A    between atoms: C3_3  and  C4_4 
REMARK    3  A    between atoms: C4_4  and  C5_5 
REMARK    4  A    between atoms: C5_5  and  C6_6 
REMARK    5  A    between atoms: C6_6  and  C7_7 
REMARK    6  A    between atoms: C7_7  and  C8_8 
REMARK    7  A    between atoms: C7_7  and  N1_11 
REMARK    8  A    between atoms: C8_8  and  C9_9 
REMARK    9  A    between atoms: N1_11  and  C11_14 
REMARK   10  A    between atoms: C11_14  and  C12_15 
REMARK   11  A    between atoms: C12_15  and  C13_16 
ROOT
HETATM    1  C7  UNL     1       3.372  -0.155   7.148  1.00  0.00     0.185 C 
ENDROOT
BRANCH   1   2
HETATM    2  C6  UNL     1       2.265   0.797   7.253  1.00  0.00     0.033 C 
BRANCH   2   3
HETATM    3  C5  UNL     1       0.924   0.269   7.626  1.00  0.00     0.002 C 
BRANCH   3   4
HETATM    4  C4  UNL     1       0.626   0.523   9.119  1.00  0.00     0.000 C 
BRANCH   4   5
HETATM    5  C3  UNL     1      -0.117  -0.633   9.735  1.00  0.00    -0.000 C 
BRANCH   5   6
HETATM    6  C2  UNL     1       0.186  -0.598  11.225  1.00  0.00    -0.005 C 
HETATM    7  C1  UNL     1       1.129   0.544  11.554  1.00  0.00     0.005 C 
ENDBRANCH   5   6
ENDBRANCH   4   5
ENDBRANCH   3   4
ENDBRANCH   2   3
ENDBRANCH   1   2
BRANCH   1   8
HETATM    8  C8  UNL     1       4.398  -0.296   8.183  1.00  0.00     0.032 C 
BRANCH   8   9
HETATM    9  C9  UNL     1       4.030  -0.762   9.535  1.00  0.00    -0.002 C 
HETATM   10  C10 UNL     1       3.246  -2.092   9.453  1.00  0.00     0.005 C 
ENDBRANCH   8   9
ENDBRANCH   1   8
BRANCH   1  11
HETATM   11  N1  UNL     1       4.017  -0.164   5.798  1.00  0.00    -0.071 N 
ATOM     12  H12 UNL     1       3.444  -0.645   5.104  1.00  0.00     0.277 HD
ATOM     13  H11 UNL     1       4.022   0.763   5.370  1.00  0.00     0.277 HD
BRANCH  11  14
HETATM   14  C11 UNL     1       5.335  -0.723   5.888  1.00  0.00     0.233 C 
BRANCH  14  15
HETATM   15  C12 UNL     1       5.722  -1.434   4.593  1.00  0.00     0.032 C 
BRANCH  15  16
HETATM   16  C13 UNL     1       6.013  -0.314   3.588  1.00  0.00    -0.013 A 
HETATM   17  C14 UNL     1       7.295   0.487   3.786  1.00  0.00     0.005 A 
HETATM   18  C15 UNL     1       7.217  -0.507   2.673  1.00  0.00     0.005 A 
ENDBRANCH  15  16
ENDBRANCH  14  15
ENDBRANCH  11  14
ENDBRANCH   1  11
TORSDOF 11
ENDMDL
MODEL 2
REMARK VINA RESULT: -5.696395943      0.791      2.234
REMARK  11 active torsions:
REMARK  status: ('A' for Active; 'I' for Inactive)
REMARK    1  A    between atoms: C2_2  and  C3_3 
REMARK    2  A    between atoms: C3_3  and  C4_4 
REMARK    3  A    between atoms: C4_4  and  C5_5 
REMARK    4  A    between atoms: C5_5  and  C6_6 
REMARK    5  A    between atoms: C6_6  and  C7_7 
REMARK    6  A    between atoms: C7_7  and  C8_8 
REMARK    7  A    between atoms: C7_7  and  N1_11 
REMARK    8  A    between atoms: C8_8  and  C9_9 
REMARK    9  A    between atoms: N1_11  and  C11_14 
REMARK   10  A    between atoms: C11_14  and  C12_15 
REMARK   11  A    between atoms: C12_15  and  C13_16 
ROOT
HETATM    1  C7  UNL     1       4.146   0.019   7.694  1.00  0.00     0.185 C 
ENDROOT
BRANCH   1   2
HETATM    2  C6  UNL     1       4.214  -0.566   9.034  1.00  0.00     0.033 C 
BRANCH   2   3
HETATM    3  C5  UNL     1       3.329  -1.724   9.336  1.00  0.00     0.002 C 
BRANCH   3   4
HETATM    4  C4  UNL     1       2.262  -1.345  10.384  1.00  0.00     0.000 C 
BRANCH   4   5
HETATM    5  C3  UNL     1       2.472   0.053  10.902  1.00  0.00    -0.000 C 
BRANCH   5   6
HETATM    6  C2  UNL     1       1.099   0.583  11.286  1.00  0.00    -0.005 C 
HETATM    7  C1  UNL     1       0.067  -0.528  11.257  1.00  0.00     0.005 C 
ENDBRANCH   5   6
ENDBRANCH   4   5
ENDBRANCH   3   4
ENDBRANCH   2   3
ENDBRANCH   1   2
BRANCH   1   8
HETATM    8  C8  UNL     1       2.884   0.220   6.978  1.00  0.00     0.032 C 
BRANCH   8   9
HETATM    9  C9  UNL     1       1.852   1.119   7.531  1.00  0.00    -0.002 C 
HETATM   10  C10 UNL     1       0.496   0.384   7.636  1.00  0.00     0.005 C 
ENDBRANCH   8   9
ENDBRANCH   1   8
BRANCH   1  11
HETATM   11  N1  UNL     1       5.172  -0.533   6.755  1.00  0.00    -0.071 N 
ATOM     12  H12 UNL     1       6.056  -0.027   6.814  1.00  0.00     0.277 HD
ATOM     13  H11 UNL     1       5.507  -1.451   7.051  1.00  0.00     0.277 HD
BRANCH  11  14
HETATM   14  C11 UNL     1       4.652  -0.556   5.418  1.00  0.00     0.233 C 
BRANCH  14  15
HETATM   15  C12 UNL     1       5.609  -1.271   4.467  1.00  0.00     0.032 C 
BRANCH  15  16
HETATM   16  C13 UNL     1       6.010  -0.218   3.428  1.00  0.00    -0.013 A 
HETATM   17  C14 UNL     1       7.286   0.572   3.690  1.00  0.00     0.005 A 
HETATM   18  C15 UNL     1       7.284  -0.486   2.635  1.00  0.00     0.005 A 
ENDBRANCH  15  16
ENDBRANCH  14  15
ENDBRANCH  11  14
ENDBRANCH   1  11
TORSDOF 11
ENDMDL
MODEL 3
REMARK VINA RESULT: -5.665458068      1.436      7.344
REMARK  11 active torsions:
REMARK  status: ('A' for Active; 'I' for Inactive)
REMARK    1  A    between atoms: C2_2  and  C3_3 
REMARK    2  A    between atoms: C3_3  and  C4_4 
REMARK    3  A    between atoms: C4_4  and  C5_5 
REMARK    4  A    between atoms: C5_5  and  C6_6 
REMARK    5  A    between atoms: C6_6  and  C7_7 
REMARK    6  A    between atoms: C7_7  and  C8_8 
REMARK    7  A    between atoms: C7_7  and  N1_11 
REMARK    8  A    between atoms: C8_8  and  C9_9 
REMARK    9  A    between atoms: N1_11  and  C11_14 
REMARK   10  A    between atoms: C11_14  and  C12_15 
REMARK   11  A    between atoms: C12_15  and  C13_16 
ROOT
HETATM    1  C7  UNL     1       4.547  -0.451   5.554  1.00  0.00     0.185 C 
ENDROOT
BRANCH   1   2
HETATM    2  C6  UNL     1       4.555  -0.866   4.151  1.00  0.00     0.033 C 
BRANCH   2   3
HETATM    3  C5  UNL     1       5.276  -0.007   3.172  1.00  0.00     0.002 C 
BRANCH   3   4
HETATM    4  C4  UNL     1       6.721  -0.505   2.957  1.00  0.00     0.000 C 
BRANCH   4   5
HETATM    5  C3  UNL     1       7.691   0.644   2.872  1.00  0.00    -0.000 C 
BRANCH   5   6
HETATM    6  C2  UNL     1       9.013   0.059   2.400  1.00  0.00    -0.005 C 
HETATM    7  C1  UNL     1       8.804  -0.842   1.198  1.00  0.00     0.005 C 
ENDBRANCH   5   6
ENDBRANCH   4   5
ENDBRANCH   3   4
ENDBRANCH   2   3
ENDBRANCH   1   2
BRANCH   1   8
HETATM    8  C8  UNL     1       5.601  -0.823   6.499  1.00  0.00     0.032 C 
BRANCH   8   9
HETATM    9  C9  UNL     1       6.830  -0.010   6.599  1.00  0.00    -0.002 C 
HETATM   10  C10 UNL     1       6.533   1.463   6.236  1.00  0.00     0.005 C 
ENDBRANCH   8   9
ENDBRANCH   1   8
BRANCH   1  11
HETATM   11  N1  UNL     1       3.210  -0.606   6.207  1.00  0.00    -0.071 N 
ATOM     12  H12 UNL     1       2.456  -0.683   5.524  1.00  0.00     0.277 HD
ATOM     13  H11 UNL     1       3.104  -1.520   6.649  1.00  0.00     0.277 HD
BRANCH  11  14
HETATM   14  C11 UNL     1       2.989   0.468   7.134  1.00  0.00     0.233 C 
BRANCH  14  15
HETATM   15  C12 UNL     1       1.596   0.383   7.753  1.00  0.00     0.032 C 
BRANCH  15  16
HETATM   16  C13 UNL     1       1.438  -1.075   8.196  1.00  0.00    -0.013 A 
HETATM   17  C14 UNL     1       2.073  -1.476   9.521  1.00  0.00     0.005 A 
HETATM   18  C15 UNL     1       0.590  -1.328   9.438  1.00  0.00     0.005 A 
ENDBRANCH  15  16
ENDBRANCH  14  15
ENDBRANCH  11  14
ENDBRANCH   1  11
TORSDOF 11
ENDMDL
MODEL 4
REMARK VINA RESULT: -5.643839205      0.992      1.260
REMARK  11 active torsions:
REMARK  status: ('A' for Active; 'I' for Inactive)
REMARK    1  A    between atoms: C2_2  and  C3_3 
REMARK    2  A    between atoms: C3_3  and  C4_4 
REMARK    3  A    between atoms: C4_4  and  C5_5 
REMARK    4  A    between atoms: C5_5  and  C6_6 
REMARK    5  A    between atoms: C6_6  and  C7_7 
REMARK    6  A    between atoms: C7_7  and  C8_8 
REMARK    7  A    between atoms: C7_7  and  N1_11 
REMARK    8  A    between atoms: C8_8  and  C9_9 
REMARK    9  A    between atoms: N1_11  and  C11_14 
REMARK   10  A    between atoms: C11_14  and  C12_15 
REMARK   11  A    between atoms: C12_15  and  C13_16 
ROOT
HETATM    1  C7  UNL     1       3.493   0.028   6.975  1.00  0.00     0.185 C 
ENDROOT
BRANCH   1   2
HETATM    2  C6  UNL     1       2.360   0.834   7.430  1.00  0.00     0.033 C 
BRANCH   2   3
HETATM    3  C5  UNL     1       2.434   1.439   8.788  1.00  0.00     0.002 C 
BRANCH   3   4
HETATM    4  C4  UNL     1       1.265   0.956   9.673  1.00  0.00     0.000 C 
BRANCH   4   5
HETATM    5  C3  UNL     1       0.336   0.049   8.909  1.00  0.00    -0.000 C 
BRANCH   5   6
HETATM    6  C2  UNL     1      -0.287  -0.890   9.930  1.00  0.00    -0.005 C 
HETATM    7  C1  UNL     1       0.131  -0.508  11.337  1.00  0.00     0.005 C 
ENDBRANCH   5   6
ENDBRANCH   4   5
ENDBRANCH   3   4
ENDBRANCH   2   3
ENDBRANCH   1   2
BRANCH   1   8
HETATM    8  C8  UNL     1       4.051  -1.074   7.762  1.00  0.00     0.032 C 
BRANCH   8   9
HETATM    9  C9  UNL     1       3.164  -2.121   8.307  1.00  0.00    -0.002 C 
HETATM   10  C10 UNL     1       3.257  -2.158   9.850  1.00  0.00     0.005 C 
ENDBRANCH   8   9
ENDBRANCH   1   8
BRANCH   1  11
HETATM   11  N1  UNL     1       4.606   0.846   6.399  1.00  0.00    -0.071 N 
ATOM     12  H12 UNL     1       4.678   1.762   6.844  1.00  0.00     0.277 HD
ATOM     13  H11 UNL     1       5.523   0.482   6.660  1.00  0.00     0.277 HD
BRANCH  11  14
HETATM   14  C11 UNL     1       4.453   0.949   4.976  1.00  0.00     0.233 C 
BRANCH  14  15
HETATM   15  C12 UNL     1       5.096  -0.240   4.265  1.00  0.00     0.032 C 
BRANCH  15  16
HETATM   16  C13 UNL     1       6.073   0.372   3.256  1.00  0.00    -0.013 A 
HETATM   17  C14 UNL     1       7.520   0.544   3.700  1.00  0.00     0.005 A 
HETATM   18  C15 UNL     1       7.178  -0.539   2.730  1.00  0.00     0.005 A 
ENDBRANCH  15  16
ENDBRANCH  14  15
ENDBRANCH  11  14
ENDBRANCH   1  11
TORSDOF 11
ENDMDL
MODEL 5
REMARK VINA RESULT: -5.477497662      1.825      7.478
REMARK  11 active torsions:
REMARK  status: ('A' for Active; 'I' for Inactive)
REMARK    1  A    between atoms: C2_2  and  C3_3 
REMARK    2  A    between atoms: C3_3  and  C4_4 
REMARK    3  A    between atoms: C4_4  and  C5_5 
REMARK    4  A    between atoms: C5_5  and  C6_6 
REMARK    5  A    between atoms: C6_6  and  C7_7 
REMARK    6  A    between atoms: C7_7  and  C8_8 
REMARK    7  A    between atoms: C7_7  and  N1_11 
REMARK    8  A    between atoms: C8_8  and  C9_9 
REMARK    9  A    between atoms: N1_11  and  C11_14 
REMARK   10  A    between atoms: C11_14  and  C12_15 
REMARK   11  A    between atoms: C12_15  and  C13_16 
ROOT
HETATM    1  C7  UNL     1       5.192  -0.261   4.844  1.00  0.00     0.185 C 
ENDROOT
BRANCH   1   2
HETATM    2  C6  UNL     1       5.416  -0.182   3.400  1.00  0.00     0.033 C 
BRANCH   2   3
HETATM    3  C5  UNL     1       6.763  -0.546   2.882  1.00  0.00     0.002 C 
BRANCH   3   4
HETATM    4  C4  UNL     1       7.672   0.696   2.785  1.00  0.00     0.000 C 
BRANCH   4   5
HETATM    5  C3  UNL     1       9.112   0.345   3.053  1.00  0.00    -0.000 C 
BRANCH   5   6
HETATM    6  C2  UNL     1       9.953   1.314   2.237  1.00  0.00    -0.005 C 
HETATM    7  C1  UNL     1       9.128   1.940   1.128  1.00  0.00     0.005 C 
ENDBRANCH   5   6
ENDBRANCH   4   5
ENDBRANCH   3   4
ENDBRANCH   2   3
ENDBRANCH   1   2
BRANCH   1   8
HETATM    8  C8  UNL     1       6.113  -0.945   5.754  1.00  0.00     0.032 C 
BRANCH   8   9
HETATM    9  C9  UNL     1       6.977  -0.163   6.661  1.00  0.00    -0.002 C 
HETATM   10  C10 UNL     1       6.907   1.341   6.310  1.00  0.00     0.005 C 
ENDBRANCH   8   9
ENDBRANCH   1   8
BRANCH   1  11
HETATM   11  N1  UNL     1       3.782  -0.607   5.205  1.00  0.00    -0.071 N 
ATOM     12  H12 UNL     1       3.123  -0.346   4.470  1.00  0.00     0.277 HD
ATOM     13  H11 UNL     1       3.621  -1.614   5.198  1.00  0.00     0.277 HD
BRANCH  11  14
HETATM   14  C11 UNL     1       3.440  -0.017   6.468  1.00  0.00     0.233 C 
BRANCH  14  15
HETATM   15  C12 UNL     1       2.517  -0.930   7.271  1.00  0.00     0.032 C 
BRANCH  15  16
HETATM   16  C13 UNL     1       3.400  -1.533   8.369  1.00  0.00    -0.013 A 
HETATM   17  C14 UNL     1       4.074  -0.566   9.335  1.00  0.00     0.005 A 
HETATM   18  C15 UNL     1       2.913  -1.379   9.805  1.00  0.00     0.005 A 
ENDBRANCH  15  16
ENDBRANCH  14  15
ENDBRANCH  11  14
ENDBRANCH   1  11
TORSDOF 11
ENDMDL
