MODEL 1
REMARK VINA RESULT: -6.638117021      0.000      0.000
REMARK  11 active torsions:
REMARK  status: ('A' for Active; 'I' for Inactive)
REMARK    1  A    between atoms: C2_2  and  C3_3 
REMARK    2  A    between atoms: C3_3  and  C4_4 
REMARK    3  A    between atoms: C4_4  and  N1_5 
REMARK    4  A    between atoms: N1_5  and  C5_8 
REMARK    5  A    between atoms: C5_8  and  C6_9 
REMARK    6  A    between atoms: C6_9  and  C7_10 
REMARK    7  A    between atoms: C7_10  and  C8_11 
REMARK    8  A    between atoms: C8_11  and  C9_12 
REMARK    9  A    between atoms: C9_12  and  C10_13 
REMARK   10  A    between atoms: C10_13  and  C11_14 
REMARK   11  A    between atoms: C11_14  and  C12_15 
ROOT
HETATM    1  C7  UNL     1       4.038  -0.085   5.945  1.00  0.00     0.005 C 
ENDROOT
BRANCH   1   2
HETATM    2  C6  UNL     1       5.118  -0.173   7.064  1.00  0.00     0.028 C 
BRANCH   2   3
HETATM    3  C5  UNL     1       4.319  -0.303   8.338  1.00  0.00     0.232 C 
BRANCH   3   4
HETATM    4  N1  UNL     1       3.563  -1.516   8.338  1.00  0.00    -0.075 N 
ATOM      5  H12 UNL     1       4.187  -2.320   8.404  1.00  0.00     0.277 HD
ATOM      6  H11 UNL     1       3.160  -1.681   7.416  1.00  0.00     0.277 HD
BRANCH   4   7
HETATM    7  C4  UNL     1       2.553  -1.589   9.340  1.00  0.00     0.236 C 
BRANCH   7   8
HETATM    8  C3  UNL     1       1.190  -1.604   8.685  1.00  0.00     0.054 C 
BRANCH   8   9
HETATM    9  C2  UNL     1       0.637  -0.221   8.672  1.00  0.00    -0.035 C 
HETATM   10  C1  UNL     1       0.778   0.587   7.630  1.00  0.00     0.007 C 
ENDBRANCH   8   9
ENDBRANCH   7   8
ENDBRANCH   4   7
ENDBRANCH   3   4
ENDBRANCH   2   3
ENDBRANCH   1   2
BRANCH   1  11
HETATM   11  C8  UNL     1       4.474   0.812   4.864  1.00  0.00     0.027 C 
BRANCH  11  12
HETATM   12  C9  UNL     1       4.808   0.126   3.604  1.00  0.00    -0.030 C 
BRANCH  12  13
HETATM   13  C10 UNL     1       6.172  -0.221   3.212  1.00  0.00    -0.026 C 
BRANCH  13  14
HETATM   14  C11 UNL     1       7.342   0.546   3.676  1.00  0.00     0.060 C 
BRANCH  14  15
HETATM   15  C12 UNL     1       8.505   0.393   2.699  1.00  0.00    -0.080 C 
HETATM   16  C13 UNL     1       9.571   1.150   2.712  1.00  0.00    -0.024 C 
HETATM   17  C14 UNL     1      10.502   0.749   1.647  1.00  0.00     0.027 C 
HETATM   18  C15 UNL     1      10.027  -0.593   1.201  1.00  0.00     0.008 C 
HETATM   19  C16 UNL     1       8.568  -0.614   1.634  1.00  0.00     0.034 C 
ENDBRANCH  14  15
ENDBRANCH  13  14
ENDBRANCH  12  13
ENDBRANCH  11  12
ENDBRANCH   1  11
TORSDOF 11
ENDMDL
MODEL 2
REMARK VINA RESULT: -6.556305125      0.930      1.310
REMARK  11 active torsions:
REMARK  status: ('A' for Active; 'I' for Inactive)
REMARK    1  A    between atoms: C2_2  and  C3_3 
REMARK    2  A    between atoms: C3_3  and  C4_4 
REMARK    3  A    between atoms: C4_4  and  N1_5 
REMARK    4  A    between atoms: N1_5  and  C5_8 
REMARK    5  A    between atoms: C5_8  and  C6_9 
REMARK    6  A    between atoms: C6_9  and  C7_10 
REMARK    7  A    between atoms: C7_10  and  C8_11 
REMARK    8  A    between atoms: C8_11  and  C9_12 
REMARK    9  A    between atoms: C9_12  and  C10_13 
REMARK   10  A    between atoms: C10_13  and  C11_14 
REMARK   11  A    between atoms: C11_14  and  C12_15 
ROOT
HETATM    1  C7  UNL     1       4.801   0.933   6.078  1.00  0.00     0.005 C 
ENDROOT
BRANCH   1   2
HETATM    2  C6  UNL     1       4.485  -0.536   6.486  1.00  0.00     0.028 C 
BRANCH   2   3
HETATM    3  C5  UNL     1       3.924  -0.419   7.883  1.00  0.00     0.232 C 
BRANCH   3   4
HETATM    4  N1  UNL     1       3.587   0.937   8.178  1.00  0.00    -0.075 N 
ATOM      5  H12 UNL     1       3.625   1.504   7.331  1.00  0.00     0.277 HD
ATOM      6  H11 UNL     1       4.332   1.378   8.718  1.00  0.00     0.277 HD
BRANCH   4   7
HETATM    7  C4  UNL     1       2.333   1.110   8.834  1.00  0.00     0.236 C 
BRANCH   7   8
HETATM    8  C3  UNL     1       1.226   0.563   7.961  1.00  0.00     0.054 C 
BRANCH   8   9
HETATM    9  C2  UNL     1       0.259  -0.187   8.811  1.00  0.00    -0.035 C 
HETATM   10  C1  UNL     1       0.587  -1.313   9.431  1.00  0.00     0.007 C 
ENDBRANCH   8   9
ENDBRANCH   7   8
ENDBRANCH   4   7
ENDBRANCH   3   4
ENDBRANCH   2   3
ENDBRANCH   1   2
BRANCH   1  11
HETATM   11  C8  UNL     1       4.601   1.132   4.635  1.00  0.00     0.027 C 
BRANCH  11  12
HETATM   12  C9  UNL     1       4.971  -0.028   3.806  1.00  0.00    -0.030 C 
BRANCH  12  13
HETATM   13  C10 UNL     1       6.283  -0.187   3.182  1.00  0.00    -0.026 C 
BRANCH  13  14
HETATM   14  C11 UNL     1       7.467   0.561   3.642  1.00  0.00     0.060 C 
BRANCH  14  15
HETATM   15  C12 UNL     1       8.614   0.413   2.645  1.00  0.00    -0.080 C 
HETATM   16  C13 UNL     1       9.693   1.150   2.663  1.00  0.00    -0.024 C 
HETATM   17  C14 UNL     1      10.603   0.761   1.576  1.00  0.00     0.027 C 
HETATM   18  C15 UNL     1      10.100  -0.562   1.104  1.00  0.00     0.008 C 
HETATM   19  C16 UNL     1       8.646  -0.569   1.556  1.00  0.00     0.034 C 
ENDBRANCH  14  15
ENDBRANCH  13  14
ENDBRANCH  12  13
ENDBRANCH  11  12
ENDBRANCH   1  11
TORSDOF 11
ENDMDL
MODEL 3
REMARK VINA RESULT: -6.550922215      0.989      1.345
REMARK  11 active torsions:
REMARK  status: ('A' for Active; 'I' for Inactive)
REMARK    1  A    between atoms: C2_2  and  C3_3 
REMARK    2  A    between atoms: C3_3  and  C4_4 
REMARK    3  A    between atoms: C4_4  and  N1_5 
REMARK    4  A    between atoms: N1_5  and  C5_8 
REMARK    5  A    between atoms: C5_8  and  C6_9 
REMARK    6  A    between atoms: C6_9  and  C7_10 
REMARK    7  A    between atoms: C7_10  and  C8_11 
REMARK    8  A    between atoms: C8_11  and  C9_12 
REMARK    9  A    between atoms: C9_12  and  C10_13 
REMARK   10  A    between atoms: C10_13  and  C11_14 
REMARK   11  A    between atoms: C11_14  and  C12_15 
ROOT
HETATM    1  C7  UNL     1       5.879  -0.185   6.762  1.00  0.00     0.005 C 
ENDROOT
BRANCH   1   2
HETATM    2  C6  UNL     1       4.327  -0.202   6.630  1.00  0.00     0.028 C 
BRANCH   2   3
HETATM    3  C5  UNL     1       3.846   0.581   7.828  1.00  0.00     0.232 C 
BRANCH   3   4
HETATM    4  N1  UNL     1       4.136  -0.121   9.038  1.00  0.00    -0.075 N 
ATOM      5  H12 UNL     1       4.881   0.350   9.551  1.00  0.00     0.277 HD
ATOM      6  H11 UNL     1       4.597  -1.007   8.831  1.00  0.00     0.277 HD
BRANCH   4   7
HETATM    7  C4  UNL     1       3.010  -0.335   9.886  1.00  0.00     0.236 C 
BRANCH   7   8
HETATM    8  C3  UNL     1       2.409  -1.693   9.597  1.00  0.00     0.054 C 
BRANCH   8   9
HETATM    9  C2  UNL     1       1.043  -1.513   9.031  1.00  0.00    -0.035 C 
HETATM   10  C1  UNL     1       0.450  -0.328   8.978  1.00  0.00     0.007 C 
ENDBRANCH   8   9
ENDBRANCH   7   8
ENDBRANCH   4   7
ENDBRANCH   3   4
ENDBRANCH   2   3
ENDBRANCH   1   2
BRANCH   1  11
HETATM   11  C8  UNL     1       6.464   0.883   5.938  1.00  0.00     0.027 C 
BRANCH  11  12
HETATM   12  C9  UNL     1       5.670   1.235   4.748  1.00  0.00    -0.030 C 
BRANCH  12  13
HETATM   13  C10 UNL     1       6.041   0.850   3.388  1.00  0.00    -0.026 C 
BRANCH  13  14
HETATM   14  C11 UNL     1       6.771  -0.398   3.097  1.00  0.00     0.060 C 
BRANCH  14  15
HETATM   15  C12 UNL     1       8.139  -0.090   2.493  1.00  0.00    -0.080 C 
HETATM   16  C13 UNL     1       8.910   0.885   2.897  1.00  0.00    -0.024 C 
HETATM   17  C14 UNL     1      10.154   0.917   2.115  1.00  0.00     0.027 C 
HETATM   18  C15 UNL     1      10.205  -0.398   1.411  1.00  0.00     0.008 C 
HETATM   19  C16 UNL     1       8.750  -0.845   1.394  1.00  0.00     0.034 C 
ENDBRANCH  14  15
ENDBRANCH  13  14
ENDBRANCH  12  13
ENDBRANCH  11  12
ENDBRANCH   1  11
TORSDOF 11
ENDMDL
MODEL 4
REMARK VINA RESULT: -6.449251820      1.303      1.774
REMARK  11 active torsions:
REMARK  status: ('A' for Active; 'I' for Inactive)
REMARK    1  A    between atoms: C2_2  and  C3_3 
REMARK    2  A    between atoms: C3_3  and  C4_4 
REMARK    3  A    between atoms: C4_4  and  N1_5 
REMARK    4  A    between atoms: N1_5  and  C5_8 
REMARK    5  A    between atoms: C5_8  and  C6_9 
REMARK    6  A    between atoms: C6_9  and  C7_10 
REMARK    7  A    between atoms: C7_10  and  C8_11 
REMARK    8  A    between atoms: C8_11  and  C9_12 
REMARK    9  A    between atoms: C9_12  and  C10_13 
REMARK   10  A    between atoms: C10_13  and  C11_14 
REMARK   11  A    between atoms: C11_14  and  C12_15 
ROOT
HETATM    1  C7  UNL     1       5.131  -0.147   7.166  1.00  0.00     0.005 C 
ENDROOT
BRANCH   1   2
HETATM    2  C6  UNL     1       3.726   0.360   6.726  1.00  0.00     0.028 C 
BRANCH   2   3
HETATM    3  C5  UNL     1       2.810  -0.809   6.998  1.00  0.00     0.232 C 
BRANCH   3   4
HETATM    4  N1  UNL     1       1.638  -0.379   7.695  1.00  0.00    -0.075 N 
ATOM      5  H12 UNL     1       0.864  -0.259   7.042  1.00  0.00     0.277 HD
ATOM      6  H11 UNL     1       1.750   0.582   8.015  1.00  0.00     0.277 HD
BRANCH   4   7
HETATM    7  C4  UNL     1       1.247  -1.220   8.777  1.00  0.00     0.236 C 
BRANCH   7   8
HETATM    8  C3  UNL     1       2.352  -1.266   9.808  1.00  0.00     0.054 C 
BRANCH   8   9
HETATM    9  C2  UNL     1       2.395   0.032  10.539  1.00  0.00    -0.035 C 
HETATM   10  C1  UNL     1       1.360   0.487  11.232  1.00  0.00     0.007 C 
ENDBRANCH   8   9
ENDBRANCH   7   8
ENDBRANCH   4   7
ENDBRANCH   3   4
ENDBRANCH   2   3
ENDBRANCH   1   2
BRANCH   1  11
HETATM   11  C8  UNL     1       6.140   0.146   6.137  1.00  0.00     0.027 C 
BRANCH  11  12
HETATM   12  C9  UNL     1       5.697   1.102   5.108  1.00  0.00    -0.030 C 
BRANCH  12  13
HETATM   13  C10 UNL     1       6.076   1.004   3.700  1.00  0.00    -0.026 C 
BRANCH  13  14
HETATM   14  C11 UNL     1       6.612  -0.239   3.116  1.00  0.00     0.060 C 
BRANCH  14  15
HETATM   15  C12 UNL     1       8.006  -0.003   2.540  1.00  0.00    -0.080 C 
HETATM   16  C13 UNL     1       8.806   0.950   2.940  1.00  0.00    -0.024 C 
HETATM   17  C14 UNL     1      10.070   0.911   2.191  1.00  0.00     0.027 C 
HETATM   18  C15 UNL     1      10.085  -0.423   1.522  1.00  0.00     0.008 C 
HETATM   19  C16 UNL     1       8.613  -0.811   1.477  1.00  0.00     0.034 C 
ENDBRANCH  14  15
ENDBRANCH  13  14
ENDBRANCH  12  13
ENDBRANCH  11  12
ENDBRANCH   1  11
TORSDOF 11
ENDMDL
MODEL 5
REMARK VINA RESULT: -6.422297086      1.030      1.615
REMARK  11 active torsions:
REMARK  status: ('A' for Active; 'I' for Inactive)
REMARK    1  A    between atoms: C2_2  and  C3_3 
REMARK    2  A    between atoms: C3_3  and  C4_4 
REMARK    3  A    between atoms: C4_4  and  N1_5 
REMARK    4  A    between atoms: N1_5  and  C5_8 
REMARK    5  A    between atoms: C5_8  and  C6_9 
REMARK    6  A    between atoms: C6_9  and  C7_10 
REMARK    7  A    between atoms: C7_10  and  C8_11 
REMARK    8  A    between atoms: C8_11  and  C9_12 
REMARK    9  A    between atoms: C9_12  and  C10_13 
REMARK   10  A    between atoms: C10_13  and  C11_14 
REMARK   11  A    between atoms: C11_14  and  C12_15 
ROOT
HETATM    1  C7  UNL     1       4.483   0.877   6.045  1.00  0.00     0.005 C 
ENDROOT
BRANCH   1   2
HETATM    2  C6  UNL     1       4.830  -0.606   6.374  1.00  0.00     0.028 C 
BRANCH   2   3
HETATM    3  C5  UNL     1       3.877  -0.971   7.486  1.00  0.00     0.232 C 
BRANCH   3   4
HETATM    4  N1  UNL     1       2.524  -0.917   7.027  1.00  0.00    -0.075 N 
ATOM      5  H12 UNL     1       2.314  -1.731   6.450  1.00  0.00     0.277 HD
ATOM      6  H11 UNL     1       2.415  -0.177   6.335  1.00  0.00     0.277 HD
BRANCH   4   7
HETATM    7  C4  UNL     1       1.551  -0.778   8.059  1.00  0.00     0.236 C 
BRANCH   7   8
HETATM    8  C3  UNL     1       1.175   0.679   8.208  1.00  0.00     0.054 C 
BRANCH   8   9
HETATM    9  C2  UNL     1       1.727   1.198   9.491  1.00  0.00    -0.035 C 
HETATM   10  C1  UNL     1       1.705   0.487  10.610  1.00  0.00     0.007 C 
ENDBRANCH   8   9
ENDBRANCH   7   8
ENDBRANCH   4   7
ENDBRANCH   3   4
ENDBRANCH   2   3
ENDBRANCH   1   2
BRANCH   1  11
HETATM   11  C8  UNL     1       4.504   1.111   4.594  1.00  0.00     0.027 C 
BRANCH  11  12
HETATM   12  C9  UNL     1       4.921  -0.056   3.797  1.00  0.00    -0.030 C 
BRANCH  12  13
HETATM   13  C10 UNL     1       6.195  -0.131   3.084  1.00  0.00    -0.026 C 
BRANCH  13  14
HETATM   14  C11 UNL     1       7.415   0.527   3.585  1.00  0.00     0.060 C 
BRANCH  14  15
HETATM   15  C12 UNL     1       8.572   0.323   2.610  1.00  0.00    -0.080 C 
HETATM   16  C13 UNL     1       8.601  -0.615   1.701  1.00  0.00    -0.024 C 
HETATM   17  C14 UNL     1       9.848  -0.545   0.925  1.00  0.00     0.027 C 
HETATM   18  C15 UNL     1      10.428   0.792   1.243  1.00  0.00     0.008 C 
HETATM   19  C16 UNL     1       9.783   1.150   2.575  1.00  0.00     0.034 C 
ENDBRANCH  14  15
ENDBRANCH  13  14
ENDBRANCH  12  13
ENDBRANCH  11  12
ENDBRANCH   1  11
TORSDOF 11
ENDMDL
