MODEL 1
REMARK VINA RESULT: -6.413478170      0.000      0.000
REMARK  11 active torsions:
REMARK  status: ('A' for Active; 'I' for Inactive)
REMARK    1  A    between atoms: C2_2  and  C3_3 
REMARK    2  A    between atoms: C3_3  and  C4_4 
REMARK    3  A    between atoms: C4_4  and  C5_5 
REMARK    4  A    between atoms: C6_6  and  C7_7 
REMARK    5  A    between atoms: C7_7  and  C8_8 
REMARK    6  A    between atoms: C8_8  and  C9_9 
REMARK    7  A    between atoms: C9_9  and  C10_10 
REMARK    8  A    between atoms: C10_10  and  C11_11 
REMARK    9  A    between atoms: C10_10  and  C14_14 
REMARK   10  A    between atoms: C11_11  and  C12_12 
REMARK   11  A    between atoms: C14_14  and  C15_15 
ROOT
HETATM    1  C8  UNL     1       4.399  -0.536   9.436  1.00  0.00     0.008 C 
ENDROOT
BRANCH   1   2
HETATM    2  C7  UNL     1       4.664   0.110   8.044  1.00  0.00     0.027 C 
BRANCH   2   3
HETATM    3  C6  UNL     1       4.669  -0.880   6.971  1.00  0.00    -0.031 C 
HETATM    4  C5  UNL     1       4.529  -0.559   5.714  1.00  0.00    -0.031 C 
BRANCH   4   5
HETATM    5  C4  UNL     1       4.353   0.810   5.239  1.00  0.00     0.027 C 
BRANCH   5   6
HETATM    6  C3  UNL     1       5.338   1.183   4.139  1.00  0.00     0.003 C 
BRANCH   6   7
HETATM    7  C2  UNL     1       5.762  -0.053   3.363  1.00  0.00    -0.004 C 
HETATM    8  C1  UNL     1       7.231   0.053   2.962  1.00  0.00     0.005 C 
ENDBRANCH   6   7
ENDBRANCH   5   6
ENDBRANCH   4   5
ENDBRANCH   2   3
ENDBRANCH   1   2
BRANCH   1   9
HETATM    9  C9  UNL     1       3.339  -1.537   9.348  1.00  0.00     0.034 C 
BRANCH   9  10
HETATM   10  C10 UNL     1       2.057  -1.307   9.984  1.00  0.00    -0.079 C 
BRANCH  10  11
HETATM   11  C11 UNL     1       0.900  -1.454   8.932  1.00  0.00     0.034 C 
BRANCH  11  12
HETATM   12  C12 UNL     1       1.284  -0.940   7.596  1.00  0.00    -0.000 C 
HETATM   13  C13 UNL     1       0.925   0.555   7.563  1.00  0.00     0.005 C 
ENDBRANCH  11  12
ENDBRANCH  10  11
BRANCH  10  14
HETATM   14  C14 UNL     1       1.679  -0.310  10.970  1.00  0.00     0.017 C 
BRANCH  14  15
HETATM   15  C15 UNL     1       0.324   0.145  11.286  1.00  0.00     0.100 C 
HETATM   16  N1  UNL     1      -0.570  -0.577  12.082  1.00  0.00    -0.115 NA
ENDBRANCH  14  15
ENDBRANCH  10  14
ENDBRANCH   9  10
ENDBRANCH   1   9
TORSDOF 11
ENDMDL
MODEL 2
REMARK VINA RESULT: -6.242548215      1.239      2.270
REMARK  11 active torsions:
REMARK  status: ('A' for Active; 'I' for Inactive)
REMARK    1  A    between atoms: C2_2  and  C3_3 
REMARK    2  A    between atoms: C3_3  and  C4_4 
REMARK    3  A    between atoms: C4_4  and  C5_5 
REMARK    4  A    between atoms: C6_6  and  C7_7 
REMARK    5  A    between atoms: C7_7  and  C8_8 
REMARK    6  A    between atoms: C8_8  and  C9_9 
REMARK    7  A    between atoms: C9_9  and  C10_10 
REMARK    8  A    between atoms: C10_10  and  C11_11 
REMARK    9  A    between atoms: C10_10  and  C14_14 
REMARK   10  A    between atoms: C11_11  and  C12_12 
REMARK   11  A    between atoms: C14_14  and  C15_15 
ROOT
HETATM    1  C8  UNL     1       2.013   0.939   7.318  1.00  0.00     0.008 C 
ENDROOT
BRANCH   1   2
HETATM    2  C7  UNL     1       3.089   0.096   6.572  1.00  0.00     0.027 C 
BRANCH   2   3
HETATM    3  C6  UNL     1       4.423   0.677   6.693  1.00  0.00    -0.031 C 
HETATM    4  C5  UNL     1       5.105   1.099   5.664  1.00  0.00    -0.031 C 
BRANCH   4   5
HETATM    5  C4  UNL     1       4.621   1.039   4.288  1.00  0.00     0.027 C 
BRANCH   5   6
HETATM    6  C3  UNL     1       5.372   0.018   3.444  1.00  0.00     0.003 C 
BRANCH   6   7
HETATM    7  C2  UNL     1       6.868   0.280   3.498  1.00  0.00    -0.004 C 
HETATM    8  C1  UNL     1       7.582  -0.508   2.402  1.00  0.00     0.005 C 
ENDBRANCH   6   7
ENDBRANCH   5   6
ENDBRANCH   4   5
ENDBRANCH   2   3
ENDBRANCH   1   2
BRANCH   1   9
HETATM    9  C9  UNL     1       2.467   1.284   8.663  1.00  0.00     0.034 C 
BRANCH   9  10
HETATM   10  C10 UNL     1       1.781   0.758   9.826  1.00  0.00    -0.079 C 
BRANCH  10  11
HETATM   11  C11 UNL     1       2.782  -0.059  10.718  1.00  0.00     0.034 C 
BRANCH  11  12
HETATM   12  C12 UNL     1       3.808  -0.765   9.913  1.00  0.00    -0.000 C 
HETATM   13  C13 UNL     1       3.245  -2.156   9.576  1.00  0.00     0.005 C 
ENDBRANCH  11  12
ENDBRANCH  10  11
BRANCH  10  14
HETATM   14  C14 UNL     1       0.458   0.167   9.932  1.00  0.00     0.017 C 
BRANCH  14  15
HETATM   15  C15 UNL     1       0.021  -0.838  10.902  1.00  0.00     0.100 C 
HETATM   16  N1  UNL     1      -0.647  -0.530  12.091  1.00  0.00    -0.115 NA
ENDBRANCH  14  15
ENDBRANCH  10  14
ENDBRANCH   9  10
ENDBRANCH   1   9
TORSDOF 11
ENDMDL
MODEL 3
REMARK VINA RESULT: -6.212193519      1.172      1.698
REMARK  11 active torsions:
REMARK  status: ('A' for Active; 'I' for Inactive)
REMARK    1  A    between atoms: C2_2  and  C3_3 
REMARK    2  A    between atoms: C3_3  and  C4_4 
REMARK    3  A    between atoms: C4_4  and  C5_5 
REMARK    4  A    between atoms: C6_6  and  C7_7 
REMARK    5  A    between atoms: C7_7  and  C8_8 
REMARK    6  A    between atoms: C8_8  and  C9_9 
REMARK    7  A    between atoms: C9_9  and  C10_10 
REMARK    8  A    between atoms: C10_10  and  C11_11 
REMARK    9  A    between atoms: C10_10  and  C14_14 
REMARK   10  A    between atoms: C11_11  and  C12_12 
REMARK   11  A    between atoms: C14_14  and  C15_15 
ROOT
HETATM    1  C8  UNL     1       3.807   1.143   8.194  1.00  0.00     0.008 C 
ENDROOT
BRANCH   1   2
HETATM    2  C7  UNL     1       4.075   0.610   6.755  1.00  0.00     0.027 C 
BRANCH   2   3
HETATM    3  C6  UNL     1       5.175  -0.349   6.721  1.00  0.00    -0.031 C 
HETATM    4  C5  UNL     1       5.478  -1.037   5.654  1.00  0.00    -0.031 C 
BRANCH   4   5
HETATM    5  C4  UNL     1       4.763  -0.930   4.387  1.00  0.00     0.027 C 
BRANCH   5   6
HETATM    6  C3  UNL     1       5.426   0.040   3.417  1.00  0.00     0.003 C 
BRANCH   6   7
HETATM    7  C2  UNL     1       6.811  -0.455   3.034  1.00  0.00    -0.004 C 
HETATM    8  C1  UNL     1       7.847   0.642   3.270  1.00  0.00     0.005 C 
ENDBRANCH   6   7
ENDBRANCH   5   6
ENDBRANCH   4   5
ENDBRANCH   2   3
ENDBRANCH   1   2
BRANCH   1   9
HETATM    9  C9  UNL     1       2.373   1.283   8.434  1.00  0.00     0.034 C 
BRANCH   9  10
HETATM   10  C10 UNL     1       1.698   0.411   9.375  1.00  0.00    -0.079 C 
BRANCH  10  11
HETATM   11  C11 UNL     1       0.823  -0.641   8.603  1.00  0.00     0.034 C 
BRANCH  11  12
HETATM   12  C12 UNL     1       1.636  -1.748   8.044  1.00  0.00    -0.000 C 
HETATM   13  C13 UNL     1       2.702  -2.104   9.093  1.00  0.00     0.005 C 
ENDBRANCH  11  12
ENDBRANCH  10  11
BRANCH  10  14
HETATM   14  C14 UNL     1       1.053   0.732  10.636  1.00  0.00     0.017 C 
BRANCH  14  15
HETATM   15  C15 UNL     1       0.647  -0.210  11.680  1.00  0.00     0.100 C 
HETATM   16  N1  UNL     1      -0.686  -0.514  11.974  1.00  0.00    -0.115 NA
ENDBRANCH  14  15
ENDBRANCH  10  14
ENDBRANCH   9  10
ENDBRANCH   1   9
TORSDOF 11
ENDMDL
MODEL 4
REMARK VINA RESULT: -6.178436267      1.180      1.587
REMARK  11 active torsions:
REMARK  status: ('A' for Active; 'I' for Inactive)
REMARK    1  A    between atoms: C2_2  and  C3_3 
REMARK    2  A    between atoms: C3_3  and  C4_4 
REMARK    3  A    between atoms: C4_4  and  C5_5 
REMARK    4  A    between atoms: C6_6  and  C7_7 
REMARK    5  A    between atoms: C7_7  and  C8_8 
REMARK    6  A    between atoms: C8_8  and  C9_9 
REMARK    7  A    between atoms: C9_9  and  C10_10 
REMARK    8  A    between atoms: C10_10  and  C11_11 
REMARK    9  A    between atoms: C10_10  and  C14_14 
REMARK   10  A    between atoms: C11_11  and  C12_12 
REMARK   11  A    between atoms: C14_14  and  C15_15 
ROOT
HETATM    1  C8  UNL     1       3.472   1.252   8.428  1.00  0.00     0.008 C 
ENDROOT
BRANCH   1   2
HETATM    2  C7  UNL     1       4.029   0.823   7.039  1.00  0.00     0.027 C 
BRANCH   2   3
HETATM    3  C6  UNL     1       5.146  -0.109   7.158  1.00  0.00    -0.031 C 
HETATM    4  C5  UNL     1       5.552  -0.856   6.168  1.00  0.00    -0.031 C 
BRANCH   4   5
HETATM    5  C4  UNL     1       4.944  -0.847   4.841  1.00  0.00     0.027 C 
BRANCH   5   6
HETATM    6  C3  UNL     1       5.975  -0.794   3.722  1.00  0.00     0.003 C 
BRANCH   6   7
HETATM    7  C2  UNL     1       6.415   0.639   3.470  1.00  0.00    -0.004 C 
HETATM    8  C1  UNL     1       7.924   0.697   3.248  1.00  0.00     0.005 C 
ENDBRANCH   6   7
ENDBRANCH   5   6
ENDBRANCH   4   5
ENDBRANCH   2   3
ENDBRANCH   1   2
BRANCH   1   9
HETATM    9  C9  UNL     1       3.774   0.242   9.439  1.00  0.00     0.034 C 
BRANCH   9  10
HETATM   10  C10 UNL     1       2.749  -0.200  10.364  1.00  0.00    -0.079 C 
BRANCH  10  11
HETATM   11  C11 UNL     1       2.433  -1.721  10.132  1.00  0.00     0.034 C 
BRANCH  11  12
HETATM   12  C12 UNL     1       2.762  -2.161   8.755  1.00  0.00    -0.000 C 
HETATM   13  C13 UNL     1       1.527  -1.885   7.881  1.00  0.00     0.005 C 
ENDBRANCH  11  12
ENDBRANCH  10  11
BRANCH  10  14
HETATM   14  C14 UNL     1       1.538   0.476  10.795  1.00  0.00     0.017 C 
BRANCH  14  15
HETATM   15  C15 UNL     1       0.187  -0.085  10.841  1.00  0.00     0.100 C 
HETATM   16  N1  UNL     1      -0.438  -0.510  12.018  1.00  0.00    -0.115 NA
ENDBRANCH  14  15
ENDBRANCH  10  14
ENDBRANCH   9  10
ENDBRANCH   1   9
TORSDOF 11
ENDMDL
MODEL 5
REMARK VINA RESULT: -6.154443271      0.991      1.398
REMARK  11 active torsions:
REMARK  status: ('A' for Active; 'I' for Inactive)
REMARK    1  A    between atoms: C2_2  and  C3_3 
REMARK    2  A    between atoms: C3_3  and  C4_4 
REMARK    3  A    between atoms: C4_4  and  C5_5 
REMARK    4  A    between atoms: C6_6  and  C7_7 
REMARK    5  A    between atoms: C7_7  and  C8_8 
REMARK    6  A    between atoms: C8_8  and  C9_9 
REMARK    7  A    between atoms: C9_9  and  C10_10 
REMARK    8  A    between atoms: C10_10  and  C11_11 
REMARK    9  A    between atoms: C10_10  and  C14_14 
REMARK   10  A    between atoms: C11_11  and  C12_12 
REMARK   11  A    between atoms: C14_14  and  C15_15 
ROOT
HETATM    1  C8  UNL     1       3.446  -1.669   8.276  1.00  0.00     0.008 C 
ENDROOT
BRANCH   1   2
HETATM    2  C7  UNL     1       4.215  -1.312   6.970  1.00  0.00     0.027 C 
BRANCH   2   3
HETATM    3  C6  UNL     1       5.087  -0.155   7.144  1.00  0.00    -0.031 C 
HETATM    4  C5  UNL     1       5.113   0.844   6.304  1.00  0.00    -0.031 C 
BRANCH   4   5
HETATM    5  C4  UNL     1       4.282   0.920   5.107  1.00  0.00     0.027 C 
BRANCH   5   6
HETATM    6  C3  UNL     1       4.952   0.302   3.887  1.00  0.00     0.003 C 
BRANCH   6   7
HETATM    7  C2  UNL     1       6.409   0.727   3.807  1.00  0.00    -0.004 C 
HETATM    8  C1  UNL     1       7.185  -0.219   2.894  1.00  0.00     0.005 C 
ENDBRANCH   6   7
ENDBRANCH   5   6
ENDBRANCH   4   5
ENDBRANCH   2   3
ENDBRANCH   1   2
BRANCH   1   9
HETATM    9  C9  UNL     1       2.008  -1.733   8.028  1.00  0.00     0.034 C 
BRANCH   9  10
HETATM   10  C10 UNL     1       1.072  -1.206   9.000  1.00  0.00    -0.079 C 
BRANCH  10  11
HETATM   11  C11 UNL     1       0.482   0.159   8.496  1.00  0.00     0.034 C 
BRANCH  11  12
HETATM   12  C12 UNL     1       1.489   0.979   7.781  1.00  0.00    -0.000 C 
HETATM   13  C13 UNL     1       2.277   1.761   8.846  1.00  0.00     0.005 C 
ENDBRANCH  11  12
ENDBRANCH  10  11
BRANCH  10  14
HETATM   14  C14 UNL     1       1.160  -1.179  10.450  1.00  0.00     0.017 C 
BRANCH  14  15
HETATM   15  C15 UNL     1       0.462  -0.265  11.356  1.00  0.00     0.100 C 
HETATM   16  N1  UNL     1      -0.682  -0.614  12.081  1.00  0.00    -0.115 NA
ENDBRANCH  14  15
ENDBRANCH  10  14
ENDBRANCH   9  10
ENDBRANCH   1   9
TORSDOF 11
ENDMDL
