MODEL 1
REMARK VINA RESULT: -4.425904919      0.000      0.000
REMARK  9 active torsions:
REMARK  status: ('A' for Active; 'I' for Inactive)
REMARK    1  A    between atoms: C2_2  and  C3_3 
REMARK    2  A    between atoms: C3_3  and  C4_4 
REMARK    3  A    between atoms: C6_6  and  C7_7 
REMARK    4  A    between atoms: C7_7  and  O1_8 
REMARK    5  A    between atoms: C7_7  and  C8_10 
REMARK    6  A    between atoms: C11_13  and  O2_14 
REMARK    7  A    between atoms: O2_14  and  C12_15 
REMARK    8  A    between atoms: C14_17  and  C15_18 
REMARK    9  A    between atoms: C16_19  and  C17_20 
ROOT
HETATM    1  C4  UNL     1      11.875   0.425  -3.133  1.00  0.00    -0.041 A 
HETATM    2  C5  UNL     1      10.873   0.378  -2.045  1.00  0.00     0.022 A 
HETATM    3  C6  UNL     1      11.362   0.441  -0.721  1.00  0.00     0.000 A 
HETATM    4  C10 UNL     1      12.702   0.555  -0.530  1.00  0.00     0.052 A 
HETATM    5  C11 UNL     1      13.643   0.607  -1.575  1.00  0.00     0.080 A 
HETATM    6  C14 UNL     1      13.151   0.526  -2.843  1.00  0.00     0.004 A 
ENDROOT
BRANCH   3   7
HETATM    7  C7  UNL     1      10.456   0.255   0.276  1.00  0.00     0.075 C 
BRANCH   7   8
HETATM    8  O1  UNL     1       9.185  -0.269  -0.038  1.00  0.00    -0.360 OA
ATOM      9  H1  UNL     1       8.474  -0.162   0.582  1.00  0.00     0.217 HD
ENDBRANCH   7   8
BRANCH   7  10
HETATM   10  C8  UNL     1      10.377   0.439   1.760  1.00  0.00     0.027 C 
HETATM   11  C9  UNL     1       9.930   1.358   2.479  1.00  0.00     0.014 C 
ENDBRANCH   7  10
ENDBRANCH   3   7
BRANCH   1  12
HETATM   12  C3  UNL     1      11.264   0.572  -4.464  1.00  0.00     0.066 C 
BRANCH  12  13
HETATM   13  C2  UNL     1      10.789   1.925  -4.781  1.00  0.00    -0.032 C 
HETATM   14  C1  UNL     1      10.421   2.546  -5.824  1.00  0.00     0.007 C 
ENDBRANCH  12  13
ENDBRANCH   1  12
BRANCH   5  15
HETATM   15  O2  UNL     1      15.021   0.741  -1.293  1.00  0.00    -0.351 OA
BRANCH  15  16
HETATM   16  C12 UNL     1      15.334   1.947  -0.553  1.00  0.00     0.171 C 
HETATM   17  C13 UNL     1      16.820   1.846  -0.124  1.00  0.00     0.034 C 
ENDBRANCH  15  16
ENDBRANCH   5  15
BRANCH   6  18
HETATM   18  C15 UNL     1      14.223   0.437  -3.914  1.00  0.00     0.011 C 
HETATM   19  C16 UNL     1      14.802   1.185  -4.743  1.00  0.00    -0.026 C 
BRANCH  19  20
HETATM   20  C17 UNL     1      15.851   0.502  -5.640  1.00  0.00     0.022 C 
HETATM   21  C18 UNL     1      16.449   1.493  -6.604  1.00  0.00     0.009 C 
ENDBRANCH  19  20
ENDBRANCH   6  18
TORSDOF 9
ENDMDL
MODEL 2
REMARK VINA RESULT: -4.340042237      2.146      2.518
REMARK  9 active torsions:
REMARK  status: ('A' for Active; 'I' for Inactive)
REMARK    1  A    between atoms: C2_2  and  C3_3 
REMARK    2  A    between atoms: C3_3  and  C4_4 
REMARK    3  A    between atoms: C6_6  and  C7_7 
REMARK    4  A    between atoms: C7_7  and  O1_8 
REMARK    5  A    between atoms: C7_7  and  C8_10 
REMARK    6  A    between atoms: C11_13  and  O2_14 
REMARK    7  A    between atoms: O2_14  and  C12_15 
REMARK    8  A    between atoms: C14_17  and  C15_18 
REMARK    9  A    between atoms: C16_19  and  C17_20 
ROOT
HETATM    1  C4  UNL     1      12.508  -0.392  -2.644  1.00  0.00    -0.041 A 
HETATM    2  C5  UNL     1      11.429  -0.459  -1.634  1.00  0.00     0.022 A 
HETATM    3  C6  UNL     1      11.144   0.727  -0.921  1.00  0.00     0.000 A 
HETATM    4  C10 UNL     1      11.859   1.845  -1.212  1.00  0.00     0.052 A 
HETATM    5  C11 UNL     1      12.876   1.897  -2.182  1.00  0.00     0.080 A 
HETATM    6  C14 UNL     1      13.147   0.737  -2.844  1.00  0.00     0.004 A 
ENDROOT
BRANCH   3   7
HETATM    7  C7  UNL     1      10.254   0.628   0.103  1.00  0.00     0.075 C 
BRANCH   7   8
HETATM    8  O1  UNL     1       9.883   1.792   0.807  1.00  0.00    -0.360 OA
ATOM      9  H1  UNL     1       8.987   2.100   0.753  1.00  0.00     0.217 HD
ENDBRANCH   7   8
BRANCH   7  10
HETATM   10  C8  UNL     1       9.451  -0.437   0.783  1.00  0.00     0.027 C 
HETATM   11  C9  UNL     1       8.600  -0.407   1.698  1.00  0.00     0.014 C 
ENDBRANCH   7  10
ENDBRANCH   3   7
BRANCH   1  12
HETATM   12  C3  UNL     1      12.584  -1.602  -3.478  1.00  0.00     0.066 C 
BRANCH  12  13
HETATM   13  C2  UNL     1      11.633  -1.643  -4.596  1.00  0.00    -0.032 C 
HETATM   14  C1  UNL     1      11.400  -2.419  -5.573  1.00  0.00     0.007 C 
ENDBRANCH  12  13
ENDBRANCH   1  12
BRANCH   5  15
HETATM   15  O2  UNL     1      13.564   3.105  -2.437  1.00  0.00    -0.351 OA
BRANCH  15  16
HETATM   16  C12 UNL     1      12.678   4.198  -2.786  1.00  0.00     0.171 C 
HETATM   17  C13 UNL     1      13.538   5.487  -2.824  1.00  0.00     0.034 C 
ENDBRANCH  15  16
ENDBRANCH   5  15
BRANCH   6  18
HETATM   18  C15 UNL     1      14.351   0.821  -3.765  1.00  0.00     0.011 C 
HETATM   19  C16 UNL     1      14.604   0.866  -4.996  1.00  0.00    -0.026 C 
BRANCH  19  20
HETATM   20  C17 UNL     1      16.096   0.925  -5.370  1.00  0.00     0.022 C 
HETATM   21  C18 UNL     1      16.264   1.260  -6.829  1.00  0.00     0.009 C 
ENDBRANCH  19  20
ENDBRANCH   6  18
TORSDOF 9
ENDMDL
MODEL 3
REMARK VINA RESULT: -4.235707625      1.682      3.829
REMARK  9 active torsions:
REMARK  status: ('A' for Active; 'I' for Inactive)
REMARK    1  A    between atoms: C2_2  and  C3_3 
REMARK    2  A    between atoms: C3_3  and  C4_4 
REMARK    3  A    between atoms: C6_6  and  C7_7 
REMARK    4  A    between atoms: C7_7  and  O1_8 
REMARK    5  A    between atoms: C7_7  and  C8_10 
REMARK    6  A    between atoms: C11_13  and  O2_14 
REMARK    7  A    between atoms: O2_14  and  C12_15 
REMARK    8  A    between atoms: C14_17  and  C15_18 
REMARK    9  A    between atoms: C16_19  and  C17_20 
ROOT
HETATM    1  C4  UNL     1      13.535   0.045  -1.769  1.00  0.00    -0.041 A 
HETATM    2  C5  UNL     1      12.559  -0.119  -0.669  1.00  0.00     0.022 A 
HETATM    3  C6  UNL     1      11.314   0.532  -0.815  1.00  0.00     0.000 A 
HETATM    4  C10 UNL     1      11.086   1.247  -1.947  1.00  0.00     0.052 A 
HETATM    5  C11 UNL     1      12.020   1.387  -2.989  1.00  0.00     0.080 A 
HETATM    6  C14 UNL     1      13.221   0.767  -2.819  1.00  0.00     0.004 A 
ENDROOT
BRANCH   3   7
HETATM    7  C7  UNL     1      10.475   0.498   0.256  1.00  0.00     0.075 C 
BRANCH   7   8
HETATM    8  O1  UNL     1       9.189  -0.057   0.105  1.00  0.00    -0.360 OA
ATOM      9  H1  UNL     1       8.995  -0.575  -0.668  1.00  0.00     0.217 HD
ENDBRANCH   7   8
BRANCH   7  10
HETATM   10  C8  UNL     1      10.494   0.897   1.699  1.00  0.00     0.027 C 
HETATM   11  C9  UNL     1       9.587   1.132   2.527  1.00  0.00     0.014 C 
ENDBRANCH   7  10
ENDBRANCH   3   7
BRANCH   1  12
HETATM   12  C3  UNL     1      14.705  -0.837  -1.629  1.00  0.00     0.066 C 
BRANCH  12  13
HETATM   13  C2  UNL     1      14.510  -2.207  -2.120  1.00  0.00    -0.032 C 
HETATM   14  C1  UNL     1      15.230  -3.241  -2.261  1.00  0.00     0.007 C 
ENDBRANCH  12  13
ENDBRANCH   1  12
BRANCH   5  15
HETATM   15  O2  UNL     1      11.700   2.138  -4.143  1.00  0.00    -0.351 OA
BRANCH  15  16
HETATM   16  C12 UNL     1      10.635   1.543  -4.928  1.00  0.00     0.171 C 
HETATM   17  C13 UNL     1      10.281   2.551  -6.051  1.00  0.00     0.034 C 
ENDBRANCH  15  16
ENDBRANCH   5  15
BRANCH   6  18
HETATM   18  C15 UNL     1      14.235   1.080  -3.905  1.00  0.00     0.011 C 
HETATM   19  C16 UNL     1      14.809   0.503  -4.864  1.00  0.00    -0.026 C 
BRANCH  19  20
HETATM   20  C17 UNL     1      15.816   1.360  -5.653  1.00  0.00     0.022 C 
HETATM   21  C18 UNL     1      16.378   0.581  -6.813  1.00  0.00     0.009 C 
ENDBRANCH  19  20
ENDBRANCH   6  18
TORSDOF 9
ENDMDL
MODEL 4
REMARK VINA RESULT: -4.212509387      1.357      1.764
REMARK  9 active torsions:
REMARK  status: ('A' for Active; 'I' for Inactive)
REMARK    1  A    between atoms: C2_2  and  C3_3 
REMARK    2  A    between atoms: C3_3  and  C4_4 
REMARK    3  A    between atoms: C6_6  and  C7_7 
REMARK    4  A    between atoms: C7_7  and  O1_8 
REMARK    5  A    between atoms: C7_7  and  C8_10 
REMARK    6  A    between atoms: C11_13  and  O2_14 
REMARK    7  A    between atoms: O2_14  and  C12_15 
REMARK    8  A    between atoms: C14_17  and  C15_18 
REMARK    9  A    between atoms: C16_19  and  C17_20 
ROOT
HETATM    1  C4  UNL     1      12.035   1.309  -2.950  1.00  0.00    -0.041 A 
HETATM    2  C5  UNL     1      11.089   1.237  -1.815  1.00  0.00     0.022 A 
HETATM    3  C6  UNL     1      11.452   0.406  -0.731  1.00  0.00     0.000 A 
HETATM    4  C10 UNL     1      12.636  -0.256  -0.790  1.00  0.00     0.052 A 
HETATM    5  C11 UNL     1      13.530  -0.171  -1.873  1.00  0.00     0.080 A 
HETATM    6  C14 UNL     1      13.152   0.621  -2.915  1.00  0.00     0.004 A 
ENDROOT
BRANCH   3   7
HETATM    7  C7  UNL     1      10.519   0.230   0.244  1.00  0.00     0.075 C 
BRANCH   7   8
HETATM    8  O1  UNL     1       9.218  -0.176  -0.114  1.00  0.00    -0.360 OA
ATOM      9  H1  UNL     1       8.830  -0.926   0.320  1.00  0.00     0.217 HD
ENDBRANCH   7   8
BRANCH   7  10
HETATM   10  C8  UNL     1      10.433   0.331   1.735  1.00  0.00     0.027 C 
HETATM   11  C9  UNL     1       9.643   0.923   2.503  1.00  0.00     0.014 C 
ENDBRANCH   7  10
ENDBRANCH   3   7
BRANCH   1  12
HETATM   12  C3  UNL     1      11.680   2.355  -3.922  1.00  0.00     0.066 C 
BRANCH  12  13
HETATM   13  C2  UNL     1      10.696   1.953  -4.934  1.00  0.00    -0.032 C 
HETATM   14  C1  UNL     1      10.239   2.438  -6.013  1.00  0.00     0.007 C 
ENDBRANCH  12  13
ENDBRANCH   1  12
BRANCH   5  15
HETATM   15  O2  UNL     1      14.752  -0.881  -1.851  1.00  0.00    -0.351 OA
BRANCH  15  16
HETATM   16  C12 UNL     1      14.608  -2.242  -1.373  1.00  0.00     0.171 C 
HETATM   17  C13 UNL     1      15.263  -3.167  -2.429  1.00  0.00     0.034 C 
ENDBRANCH  15  16
ENDBRANCH   5  15
BRANCH   6  18
HETATM   18  C15 UNL     1      14.086   0.551  -4.110  1.00  0.00     0.011 C 
HETATM   19  C16 UNL     1      15.077   1.167  -4.579  1.00  0.00    -0.026 C 
BRANCH  19  20
HETATM   20  C17 UNL     1      15.630   0.630  -5.911  1.00  0.00     0.022 C 
HETATM   21  C18 UNL     1      16.637   1.587  -6.492  1.00  0.00     0.009 C 
ENDBRANCH  19  20
ENDBRANCH   6  18
TORSDOF 9
ENDMDL
MODEL 5
REMARK VINA RESULT: -3.927968270      1.839      3.954
REMARK  9 active torsions:
REMARK  status: ('A' for Active; 'I' for Inactive)
REMARK    1  A    between atoms: C2_2  and  C3_3 
REMARK    2  A    between atoms: C3_3  and  C4_4 
REMARK    3  A    between atoms: C6_6  and  C7_7 
REMARK    4  A    between atoms: C7_7  and  O1_8 
REMARK    5  A    between atoms: C7_7  and  C8_10 
REMARK    6  A    between atoms: C11_13  and  O2_14 
REMARK    7  A    between atoms: O2_14  and  C12_15 
REMARK    8  A    between atoms: C14_17  and  C15_18 
REMARK    9  A    between atoms: C16_19  and  C17_20 
ROOT
HETATM    1  C4  UNL     1      13.240   1.431  -1.736  1.00  0.00    -0.041 A 
HETATM    2  C5  UNL     1      12.264   1.294  -0.633  1.00  0.00     0.022 A 
HETATM    3  C6  UNL     1      11.125   0.494  -0.881  1.00  0.00     0.000 A 
HETATM    4  C10 UNL     1      11.006  -0.105  -2.094  1.00  0.00     0.052 A 
HETATM    5  C11 UNL     1      11.948   0.027  -3.131  1.00  0.00     0.080 A 
HETATM    6  C14 UNL     1      13.027   0.818  -2.877  1.00  0.00     0.004 A 
ENDROOT
BRANCH   3   7
HETATM    7  C7  UNL     1      10.162   0.486   0.080  1.00  0.00     0.075 C 
BRANCH   7   8
HETATM    8  O1  UNL     1       9.795   1.699   0.697  1.00  0.00    -0.360 OA
ATOM      9  H1  UNL     1       9.681   1.724   1.639  1.00  0.00     0.217 HD
ENDBRANCH   7   8
BRANCH   7  10
HETATM   10  C8  UNL     1       9.267  -0.508   0.752  1.00  0.00     0.027 C 
HETATM   11  C9  UNL     1       8.529  -0.443   1.759  1.00  0.00     0.014 C 
ENDBRANCH   7  10
ENDBRANCH   3   7
BRANCH   1  12
HETATM   12  C3  UNL     1      14.484   2.096  -1.317  1.00  0.00     0.066 C 
BRANCH  12  13
HETATM   13  C2  UNL     1      15.554   1.190  -0.880  1.00  0.00    -0.032 C 
HETATM   14  C1  UNL     1      16.749   1.312  -0.474  1.00  0.00     0.007 C 
ENDBRANCH  12  13
ENDBRANCH   1  12
BRANCH   5  15
HETATM   15  O2  UNL     1      11.758  -0.642  -4.361  1.00  0.00    -0.351 OA
BRANCH  15  16
HETATM   16  C12 UNL     1      11.825  -2.085  -4.238  1.00  0.00     0.171 C 
HETATM   17  C13 UNL     1      11.423  -2.679  -5.612  1.00  0.00     0.034 C 
ENDBRANCH  15  16
ENDBRANCH   5  15
BRANCH   6  18
HETATM   18  C15 UNL     1      13.925   1.038  -4.082  1.00  0.00     0.011 C 
HETATM   19  C16 UNL     1      14.998   0.592  -4.562  1.00  0.00    -0.026 C 
BRANCH  19  20
HETATM   20  C17 UNL     1      15.468   1.247  -5.873  1.00  0.00     0.022 C 
HETATM   21  C18 UNL     1      16.745   0.612  -6.354  1.00  0.00     0.009 C 
ENDBRANCH  19  20
ENDBRANCH   6  18
TORSDOF 9
ENDMDL
