MODEL 1
REMARK VINA RESULT: -6.080406283      0.000      0.000
REMARK  7 active torsions:
REMARK  status: ('A' for Active; 'I' for Inactive)
REMARK    1  A    between atoms: C2_2  and  C3_3 
REMARK    2  A    between atoms: C3_3  and  C4_4 
REMARK    3  A    between atoms: C4_4  and  C5_5 
REMARK    4  A    between atoms: C6_7  and  C7_8 
REMARK    5  A    between atoms: C6_7  and  O2_10 
REMARK    6  A    between atoms: O2_10  and  C9_11 
REMARK    7  A    between atoms: C9_11  and  C10_12 
ROOT
HETATM    1  O2  UNL     1       4.268  -0.086   6.263  1.00  0.00    -0.350 OA
ENDROOT
BRANCH   1   2
HETATM    2  C6  UNL     1       5.348  -0.361   5.499  1.00  0.00     0.055 C 
HETATM    3  C4  UNL     1       5.446  -0.062   4.196  1.00  0.00     0.009 C 
BRANCH   3   4
HETATM    4  C3  UNL     1       6.644  -0.414   3.384  1.00  0.00     0.044 C 
BRANCH   4   5
HETATM    5  C2  UNL     1       7.482   0.788   3.005  1.00  0.00     0.000 C 
HETATM    6  C1  UNL     1       8.931   0.334   2.866  1.00  0.00     0.005 C 
ENDBRANCH   4   5
ENDBRANCH   3   4
BRANCH   3   7
HETATM    7  C5  UNL     1       4.384   0.699   3.553  1.00  0.00     0.268 C 
HETATM    8  O1  UNL     1       4.101   1.892   3.888  1.00  0.00    -0.302 OA
ENDBRANCH   3   7
BRANCH   2   9
HETATM    9  C7  UNL     1       6.470  -1.064   6.212  1.00  0.00     0.061 C 
HETATM   10  C8  UNL     1       7.393  -0.022   6.841  1.00  0.00     0.012 C 
ENDBRANCH   2   9
ENDBRANCH   1   2
BRANCH   1  11
HETATM   11  C9  UNL     1       3.876   0.794   7.208  1.00  0.00     0.215 C 
BRANCH  11  12
HETATM   12  C10 UNL     1       2.857   0.385   8.199  1.00  0.00    -0.022 A 
HETATM   13  C11 UNL     1       1.529   0.649   8.086  1.00  0.00    -0.053 A 
HETATM   14  C12 UNL     1       0.991   1.156   6.816  1.00  0.00     0.049 C 
HETATM   15  C13 UNL     1       0.615   0.393   9.130  1.00  0.00     0.014 A 
HETATM   16  C14 UNL     1       1.040  -0.142  10.317  1.00  0.00    -0.061 A 
HETATM   17  C15 UNL     1       0.072  -0.392  11.424  1.00  0.00     0.048 C 
HETATM   18  C16 UNL     1       2.391  -0.419  10.444  1.00  0.00     0.014 A 
HETATM   19  C17 UNL     1       3.287  -0.165   9.412  1.00  0.00    -0.053 A 
HETATM   20  C18 UNL     1       4.721  -0.503   9.634  1.00  0.00     0.049 C 
ENDBRANCH  11  12
ENDBRANCH   1  11
TORSDOF 7
ENDMDL
MODEL 2
REMARK VINA RESULT: -6.019919914      1.240      1.306
REMARK  7 active torsions:
REMARK  status: ('A' for Active; 'I' for Inactive)
REMARK    1  A    between atoms: C2_2  and  C3_3 
REMARK    2  A    between atoms: C3_3  and  C4_4 
REMARK    3  A    between atoms: C4_4  and  C5_5 
REMARK    4  A    between atoms: C6_7  and  C7_8 
REMARK    5  A    between atoms: C6_7  and  O2_10 
REMARK    6  A    between atoms: O2_10  and  C9_11 
REMARK    7  A    between atoms: C9_11  and  C10_12 
ROOT
HETATM    1  O2  UNL     1       4.009   0.340   6.032  1.00  0.00    -0.350 OA
ENDROOT
BRANCH   1   2
HETATM    2  C6  UNL     1       5.178   0.674   5.443  1.00  0.00     0.055 C 
HETATM    3  C4  UNL     1       5.444   0.497   4.141  1.00  0.00     0.009 C 
BRANCH   3   4
HETATM    4  C3  UNL     1       6.761   0.849   3.540  1.00  0.00     0.044 C 
BRANCH   4   5
HETATM    5  C2  UNL     1       7.434  -0.319   2.852  1.00  0.00     0.000 C 
HETATM    6  C1  UNL     1       8.790   0.152   2.334  1.00  0.00     0.005 C 
ENDBRANCH   4   5
ENDBRANCH   3   4
BRANCH   3   7
HETATM    7  C5  UNL     1       4.396   0.013   3.254  1.00  0.00     0.268 C 
HETATM    8  O1  UNL     1       4.010  -1.198   3.249  1.00  0.00    -0.302 OA
ENDBRANCH   3   7
BRANCH   2   9
HETATM    9  C7  UNL     1       6.211   1.260   6.364  1.00  0.00     0.061 C 
HETATM   10  C8  UNL     1       7.031   0.127   6.981  1.00  0.00     0.012 C 
ENDBRANCH   2   9
ENDBRANCH   1   2
BRANCH   1  11
HETATM   11  C9  UNL     1       3.424  -0.724   6.622  1.00  0.00     0.215 C 
BRANCH  11  12
HETATM   12  C10 UNL     1       2.609  -0.517   7.839  1.00  0.00    -0.022 A 
HETATM   13  C11 UNL     1       1.730   0.507   8.008  1.00  0.00    -0.053 A 
HETATM   14  C12 UNL     1       1.355   1.344   6.860  1.00  0.00     0.049 C 
HETATM   15  C13 UNL     1       1.101   0.767   9.244  1.00  0.00     0.014 A 
HETATM   16  C14 UNL     1       1.355  -0.017  10.337  1.00  0.00    -0.061 A 
HETATM   17  C15 UNL     1       0.700   0.275  11.646  1.00  0.00     0.048 C 
HETATM   18  C16 UNL     1       2.245  -1.065  10.178  1.00  0.00     0.014 A 
HETATM   19  C17 UNL     1       2.863  -1.317   8.958  1.00  0.00    -0.053 A 
HETATM   20  C18 UNL     1       3.800  -2.472   8.876  1.00  0.00     0.049 C 
ENDBRANCH  11  12
ENDBRANCH   1  11
TORSDOF 7
ENDMDL
MODEL 3
REMARK VINA RESULT: -6.018600997      1.511      2.585
REMARK  7 active torsions:
REMARK  status: ('A' for Active; 'I' for Inactive)
REMARK    1  A    between atoms: C2_2  and  C3_3 
REMARK    2  A    between atoms: C3_3  and  C4_4 
REMARK    3  A    between atoms: C4_4  and  C5_5 
REMARK    4  A    between atoms: C6_7  and  C7_8 
REMARK    5  A    between atoms: C6_7  and  O2_10 
REMARK    6  A    between atoms: O2_10  and  C9_11 
REMARK    7  A    between atoms: C9_11  and  C10_12 
ROOT
HETATM    1  O2  UNL     1       4.265  -0.553   6.227  1.00  0.00    -0.350 OA
ENDROOT
BRANCH   1   2
HETATM    2  C6  UNL     1       4.879   0.076   5.201  1.00  0.00     0.055 C 
HETATM    3  C4  UNL     1       5.604  -0.546   4.261  1.00  0.00     0.009 C 
BRANCH   3   4
HETATM    4  C3  UNL     1       6.292   0.191   3.165  1.00  0.00     0.044 C 
BRANCH   4   5
HETATM    5  C2  UNL     1       7.790   0.288   3.359  1.00  0.00     0.000 C 
HETATM    6  C1  UNL     1       8.468  -0.199   2.082  1.00  0.00     0.005 C 
ENDBRANCH   4   5
ENDBRANCH   3   4
BRANCH   3   7
HETATM    7  C5  UNL     1       5.672  -2.001   4.253  1.00  0.00     0.268 C 
HETATM    8  O1  UNL     1       6.202  -2.665   5.198  1.00  0.00    -0.302 OA
ENDBRANCH   3   7
BRANCH   2   9
HETATM    9  C7  UNL     1       4.714   1.570   5.179  1.00  0.00     0.061 C 
HETATM   10  C8  UNL     1       5.742   2.200   6.118  1.00  0.00     0.012 C 
ENDBRANCH   2   9
ENDBRANCH   1   2
BRANCH   1  11
HETATM   11  C9  UNL     1       3.032  -0.971   6.586  1.00  0.00     0.215 C 
BRANCH  11  12
HETATM   12  C10 UNL     1       2.522  -0.643   7.935  1.00  0.00    -0.022 A 
HETATM   13  C11 UNL     1       2.700  -1.425   9.032  1.00  0.00    -0.053 A 
HETATM   14  C12 UNL     1       3.647  -2.548   8.983  1.00  0.00     0.049 C 
HETATM   15  C13 UNL     1       2.055  -1.165  10.260  1.00  0.00     0.014 A 
HETATM   16  C14 UNL     1       1.211  -0.095  10.394  1.00  0.00    -0.061 A 
HETATM   17  C15 UNL     1       0.517   0.164  11.689  1.00  0.00     0.048 C 
HETATM   18  C16 UNL     1       1.023   0.712   9.284  1.00  0.00     0.014 A 
HETATM   19  C17 UNL     1       1.662   0.451   8.077  1.00  0.00    -0.053 A 
HETATM   20  C18 UNL     1       1.408   1.377   6.939  1.00  0.00     0.049 C 
ENDBRANCH  11  12
ENDBRANCH   1  11
TORSDOF 7
ENDMDL
MODEL 4
REMARK VINA RESULT: -5.963914425      0.841      1.950
REMARK  7 active torsions:
REMARK  status: ('A' for Active; 'I' for Inactive)
REMARK    1  A    between atoms: C2_2  and  C3_3 
REMARK    2  A    between atoms: C3_3  and  C4_4 
REMARK    3  A    between atoms: C4_4  and  C5_5 
REMARK    4  A    between atoms: C6_7  and  C7_8 
REMARK    5  A    between atoms: C6_7  and  O2_10 
REMARK    6  A    between atoms: O2_10  and  C9_11 
REMARK    7  A    between atoms: C9_11  and  C10_12 
ROOT
HETATM    1  O2  UNL     1       4.252  -0.245   6.252  1.00  0.00    -0.350 OA
ENDROOT
BRANCH   1   2
HETATM    2  C6  UNL     1       5.352  -0.448   5.496  1.00  0.00     0.055 C 
HETATM    3  C4  UNL     1       5.447  -0.121   4.200  1.00  0.00     0.009 C 
BRANCH   3   4
HETATM    4  C3  UNL     1       6.671  -0.394   3.395  1.00  0.00     0.044 C 
BRANCH   4   5
HETATM    5  C2  UNL     1       7.507   0.843   3.144  1.00  0.00     0.000 C 
HETATM    6  C1  UNL     1       8.936   0.399   2.847  1.00  0.00     0.005 C 
ENDBRANCH   4   5
ENDBRANCH   3   4
BRANCH   3   7
HETATM    7  C5  UNL     1       4.353   0.594   3.559  1.00  0.00     0.268 C 
HETATM    8  O1  UNL     1       4.004   1.765   3.909  1.00  0.00    -0.302 OA
ENDBRANCH   3   7
BRANCH   2   9
HETATM    9  C7  UNL     1       6.503  -1.103   6.208  1.00  0.00     0.061 C 
HETATM   10  C8  UNL     1       7.308  -0.034   6.946  1.00  0.00     0.012 C 
ENDBRANCH   2   9
ENDBRANCH   1   2
BRANCH   1  11
HETATM   11  C9  UNL     1       3.090  -0.861   6.562  1.00  0.00     0.215 C 
BRANCH  11  12
HETATM   12  C10 UNL     1       2.497  -0.653   7.901  1.00  0.00    -0.022 A 
HETATM   13  C11 UNL     1       2.716  -1.464   8.970  1.00  0.00    -0.053 A 
HETATM   14  C12 UNL     1       3.778  -2.477   8.913  1.00  0.00     0.049 C 
HETATM   15  C13 UNL     1       2.000  -1.332  10.178  1.00  0.00     0.014 A 
HETATM   16  C14 UNL     1       1.042  -0.364  10.322  1.00  0.00    -0.061 A 
HETATM   17  C15 UNL     1       0.275  -0.241  11.596  1.00  0.00     0.048 C 
HETATM   18  C16 UNL     1       0.811   0.471   9.241  1.00  0.00     0.014 A 
HETATM   19  C17 UNL     1       1.520   0.336   8.052  1.00  0.00    -0.053 A 
HETATM   20  C18 UNL     1       1.211   1.284   6.946  1.00  0.00     0.049 C 
ENDBRANCH  11  12
ENDBRANCH   1  11
TORSDOF 7
ENDMDL
MODEL 5
REMARK VINA RESULT: -5.915891507      1.364      6.863
REMARK  7 active torsions:
REMARK  status: ('A' for Active; 'I' for Inactive)
REMARK    1  A    between atoms: C2_2  and  C3_3 
REMARK    2  A    between atoms: C3_3  and  C4_4 
REMARK    3  A    between atoms: C4_4  and  C5_5 
REMARK    4  A    between atoms: C6_7  and  C7_8 
REMARK    5  A    between atoms: C6_7  and  O2_10 
REMARK    6  A    between atoms: O2_10  and  C9_11 
REMARK    7  A    between atoms: C9_11  and  C10_12 
ROOT
HETATM    1  O2  UNL     1       3.816  -0.057   7.071  1.00  0.00    -0.350 OA
ENDROOT
BRANCH   1   2
HETATM    2  C6  UNL     1       3.194   0.026   8.267  1.00  0.00     0.055 C 
HETATM    3  C4  UNL     1       2.069   0.722   8.485  1.00  0.00     0.009 C 
BRANCH   3   4
HETATM    4  C3  UNL     1       1.434   0.813   9.829  1.00  0.00     0.044 C 
BRANCH   4   5
HETATM    5  C2  UNL     1       0.289  -0.160  10.015  1.00  0.00     0.000 C 
HETATM    6  C1  UNL     1       0.384  -0.743  11.421  1.00  0.00     0.005 C 
ENDBRANCH   4   5
ENDBRANCH   3   4
BRANCH   3   7
HETATM    7  C5  UNL     1       1.389   1.356   7.364  1.00  0.00     0.268 C 
HETATM    8  O1  UNL     1       0.269   0.946   6.925  1.00  0.00    -0.302 OA
ENDBRANCH   3   7
BRANCH   2   9
HETATM    9  C7  UNL     1       3.866  -0.716   9.387  1.00  0.00     0.061 C 
HETATM   10  C8  UNL     1       3.329  -2.146   9.433  1.00  0.00     0.012 C 
ENDBRANCH   2   9
ENDBRANCH   1   2
BRANCH   1  11
HETATM   11  C9  UNL     1       4.637  -0.889   6.395  1.00  0.00     0.215 C 
BRANCH  11  12
HETATM   12  C10 UNL     1       5.568  -0.328   5.392  1.00  0.00    -0.022 A 
HETATM   13  C11 UNL     1       5.374  -0.387   4.048  1.00  0.00    -0.053 A 
HETATM   14  C12 UNL     1       4.069  -0.807   3.517  1.00  0.00     0.049 C 
HETATM   15  C13 UNL     1       6.363   0.005   3.122  1.00  0.00     0.014 A 
HETATM   16  C14 UNL     1       7.578   0.469   3.551  1.00  0.00    -0.061 A 
HETATM   17  C15 UNL     1       8.628   0.865   2.567  1.00  0.00     0.048 C 
HETATM   18  C16 UNL     1       7.789   0.538   4.918  1.00  0.00     0.014 A 
HETATM   19  C17 UNL     1       6.809   0.150   5.826  1.00  0.00    -0.053 A 
HETATM   20  C18 UNL     1       7.120   0.266   7.278  1.00  0.00     0.049 C 
ENDBRANCH  11  12
ENDBRANCH   1  11
TORSDOF 7
ENDMDL
