MODEL 1
REMARK VINA RESULT: -7.434495299      0.000      0.000
REMARK  9 active torsions:
REMARK  status: ('A' for Active; 'I' for Inactive)
REMARK    1  A    between atoms: C2_2  and  C3_3 
REMARK    2  A    between atoms: C3_3  and  C4_4 
REMARK    3  A    between atoms: C4_4  and  C5_5 
REMARK    4  A    between atoms: C4_4  and  C8_8 
REMARK    5  A    between atoms: C5_5  and  C6_6 
REMARK    6  A    between atoms: C8_8  and  C9_10 
REMARK    7  A    between atoms: C9_10  and  C10_11 
REMARK    8  A    between atoms: C10_11  and  C11_12 
REMARK    9  A    between atoms: C14_15  and  C15_16 
ROOT
HETATM    1  C9  UNL     1       4.792   0.729   7.045  1.00  0.00     0.083 C 
ENDROOT
BRANCH   1   2
HETATM    2  C8  UNL     1       6.043   0.507   6.311  1.00  0.00     0.132 C 
HETATM    3  O1  UNL     1       6.956  -0.161   6.872  1.00  0.00    -0.298 OA
BRANCH   2   4
HETATM    4  C4  UNL     1       6.408   0.964   4.953  1.00  0.00     0.062 C 
BRANCH   4   5
HETATM    5  C3  UNL     1       5.137   1.149   4.109  1.00  0.00     0.038 C 
BRANCH   5   6
HETATM    6  C2  UNL     1       4.790  -0.028   3.300  1.00  0.00    -0.036 C 
HETATM    7  C1  UNL     1       4.187  -1.060   3.881  1.00  0.00     0.007 C 
ENDBRANCH   5   6
ENDBRANCH   4   5
BRANCH   4   8
HETATM    8  C5  UNL     1       7.290   0.027   4.172  1.00  0.00     0.038 C 
BRANCH   8   9
HETATM    9  C6  UNL     1       8.266   0.747   3.316  1.00  0.00    -0.036 C 
HETATM   10  C7  UNL     1       8.684   0.233   2.178  1.00  0.00     0.007 C 
ENDBRANCH   8   9
ENDBRANCH   4   8
ENDBRANCH   2   4
ENDBRANCH   1   2
BRANCH   1  11
HETATM   11  C10 UNL     1       4.039  -0.494   7.391  1.00  0.00     0.046 C 
BRANCH  11  12
HETATM   12  C11 UNL     1       3.020  -0.268   8.455  1.00  0.00    -0.052 A 
HETATM   13  C12 UNL     1       2.308   0.904   8.500  1.00  0.00     0.008 A 
HETATM   14  C13 UNL     1       1.360   1.181   9.462  1.00  0.00     0.015 A 
HETATM   15  C14 UNL     1       1.124   0.209  10.429  1.00  0.00     0.002 A 
HETATM   16  C16 UNL     1       1.844  -0.966  10.375  1.00  0.00     0.021 A 
HETATM   17  C17 UNL     1       2.794  -1.243   9.413  1.00  0.00    -0.055 A 
HETATM   18  C18 UNL     1       3.552  -2.512   9.375  1.00  0.00     0.049 C 
BRANCH  15  19
HETATM   19  C15 UNL     1       0.141   0.435  11.472  1.00  0.00     0.269 C 
HETATM   20  O2  UNL     1      -0.540  -0.500  11.956  1.00  0.00    -0.301 OA
ENDBRANCH  15  19
ENDBRANCH  11  12
ENDBRANCH   1  11
TORSDOF 9
ENDMDL
MODEL 2
REMARK VINA RESULT: -7.402487622      1.334      2.169
REMARK  9 active torsions:
REMARK  status: ('A' for Active; 'I' for Inactive)
REMARK    1  A    between atoms: C2_2  and  C3_3 
REMARK    2  A    between atoms: C3_3  and  C4_4 
REMARK    3  A    between atoms: C4_4  and  C5_5 
REMARK    4  A    between atoms: C4_4  and  C8_8 
REMARK    5  A    between atoms: C5_5  and  C6_6 
REMARK    6  A    between atoms: C8_8  and  C9_10 
REMARK    7  A    between atoms: C9_10  and  C10_11 
REMARK    8  A    between atoms: C10_11  and  C11_12 
REMARK    9  A    between atoms: C14_15  and  C15_16 
ROOT
HETATM    1  C9  UNL     1       4.235   1.048   6.769  1.00  0.00     0.083 C 
ENDROOT
BRANCH   1   2
HETATM    2  C8  UNL     1       4.958   1.136   5.495  1.00  0.00     0.132 C 
HETATM    3  O1  UNL     1       4.325   1.519   4.472  1.00  0.00    -0.298 OA
BRANCH   2   4
HETATM    4  C4  UNL     1       6.379   0.833   5.220  1.00  0.00     0.062 C 
BRANCH   4   5
HETATM    5  C3  UNL     1       6.632   0.865   3.705  1.00  0.00     0.038 C 
BRANCH   5   6
HETATM    6  C2  UNL     1       8.027   0.590   3.334  1.00  0.00    -0.036 C 
HETATM    7  C1  UNL     1       8.279  -0.136   2.249  1.00  0.00     0.007 C 
ENDBRANCH   5   6
ENDBRANCH   4   5
BRANCH   4   8
HETATM    8  C5  UNL     1       6.853  -0.516   5.689  1.00  0.00     0.038 C 
BRANCH   8   9
HETATM    9  C6  UNL     1       5.849  -1.584   5.456  1.00  0.00    -0.036 C 
HETATM   10  C7  UNL     1       5.770  -2.206   4.298  1.00  0.00     0.007 C 
ENDBRANCH   8   9
ENDBRANCH   4   8
ENDBRANCH   2   4
ENDBRANCH   1   2
BRANCH   1  11
HETATM   11  C10 UNL     1       3.146   0.051   6.806  1.00  0.00     0.046 C 
BRANCH  11  12
HETATM   12  C11 UNL     1       2.467  -0.018   8.132  1.00  0.00    -0.052 A 
HETATM   13  C12 UNL     1       1.673   1.014   8.563  1.00  0.00     0.008 A 
HETATM   14  C13 UNL     1       1.025   1.019   9.779  1.00  0.00     0.015 A 
HETATM   15  C14 UNL     1       1.195  -0.091  10.601  1.00  0.00     0.002 A 
HETATM   16  C16 UNL     1       1.994  -1.125  10.159  1.00  0.00     0.021 A 
HETATM   17  C17 UNL     1       2.643  -1.129   8.941  1.00  0.00    -0.055 A 
HETATM   18  C18 UNL     1       3.493  -2.251   8.488  1.00  0.00     0.049 C 
BRANCH  15  19
HETATM   19  C15 UNL     1       0.543  -0.152  11.896  1.00  0.00     0.269 C 
HETATM   20  O2  UNL     1      -0.651  -0.513  12.021  1.00  0.00    -0.301 OA
ENDBRANCH  15  19
ENDBRANCH  11  12
ENDBRANCH   1  11
TORSDOF 9
ENDMDL
MODEL 3
REMARK VINA RESULT: -7.314881524      0.999      2.625
REMARK  9 active torsions:
REMARK  status: ('A' for Active; 'I' for Inactive)
REMARK    1  A    between atoms: C2_2  and  C3_3 
REMARK    2  A    between atoms: C3_3  and  C4_4 
REMARK    3  A    between atoms: C4_4  and  C5_5 
REMARK    4  A    between atoms: C4_4  and  C8_8 
REMARK    5  A    between atoms: C5_5  and  C6_6 
REMARK    6  A    between atoms: C8_8  and  C9_10 
REMARK    7  A    between atoms: C9_10  and  C10_11 
REMARK    8  A    between atoms: C10_11  and  C11_12 
REMARK    9  A    between atoms: C14_15  and  C15_16 
ROOT
HETATM    1  C9  UNL     1       4.637  -0.847   6.882  1.00  0.00     0.083 C 
ENDROOT
BRANCH   1   2
HETATM    2  C8  UNL     1       5.808  -0.586   6.038  1.00  0.00     0.132 C 
HETATM    3  O1  UNL     1       6.858  -0.151   6.589  1.00  0.00    -0.298 OA
BRANCH   2   4
HETATM    4  C4  UNL     1       5.950  -0.765   4.577  1.00  0.00     0.062 C 
BRANCH   4   5
HETATM    5  C3  UNL     1       7.269  -0.135   4.103  1.00  0.00     0.038 C 
BRANCH   5   6
HETATM    6  C2  UNL     1       7.447  -0.167   2.645  1.00  0.00    -0.036 C 
HETATM    7  C1  UNL     1       8.677  -0.202   2.142  1.00  0.00     0.007 C 
ENDBRANCH   5   6
ENDBRANCH   4   5
BRANCH   4   8
HETATM    8  C5  UNL     1       4.868  -0.137   3.742  1.00  0.00     0.038 C 
BRANCH   8   9
HETATM    9  C6  UNL     1       4.389   1.149   4.307  1.00  0.00    -0.036 C 
HETATM   10  C7  UNL     1       5.133   2.235   4.258  1.00  0.00     0.007 C 
ENDBRANCH   8   9
ENDBRANCH   4   8
ENDBRANCH   2   4
ENDBRANCH   1   2
BRANCH   1  11
HETATM   11  C10 UNL     1       4.188   0.293   7.708  1.00  0.00     0.046 C 
BRANCH  11  12
HETATM   12  C11 UNL     1       3.007  -0.033   8.556  1.00  0.00    -0.052 A 
HETATM   13  C12 UNL     1       3.151  -0.790   9.690  1.00  0.00     0.008 A 
HETATM   14  C13 UNL     1       2.101  -1.136  10.513  1.00  0.00     0.015 A 
HETATM   15  C14 UNL     1       0.834  -0.683  10.160  1.00  0.00     0.002 A 
HETATM   16  C16 UNL     1       0.698   0.079   9.018  1.00  0.00     0.021 A 
HETATM   17  C17 UNL     1       1.750   0.424   8.194  1.00  0.00    -0.055 A 
HETATM   18  C18 UNL     1       1.579   1.244   6.975  1.00  0.00     0.049 C 
BRANCH  15  19
HETATM   19  C15 UNL     1      -0.318  -1.011  10.980  1.00  0.00     0.269 C 
HETATM   20  O2  UNL     1      -0.523  -0.458  12.086  1.00  0.00    -0.301 OA
ENDBRANCH  15  19
ENDBRANCH  11  12
ENDBRANCH   1  11
TORSDOF 9
ENDMDL
MODEL 4
REMARK VINA RESULT: -7.313830695      1.284      2.425
REMARK  9 active torsions:
REMARK  status: ('A' for Active; 'I' for Inactive)
REMARK    1  A    between atoms: C2_2  and  C3_3 
REMARK    2  A    between atoms: C3_3  and  C4_4 
REMARK    3  A    between atoms: C4_4  and  C5_5 
REMARK    4  A    between atoms: C4_4  and  C8_8 
REMARK    5  A    between atoms: C5_5  and  C6_6 
REMARK    6  A    between atoms: C8_8  and  C9_10 
REMARK    7  A    between atoms: C9_10  and  C10_11 
REMARK    8  A    between atoms: C10_11  and  C11_12 
REMARK    9  A    between atoms: C14_15  and  C15_16 
ROOT
HETATM    1  C9  UNL     1       3.594  -0.807   6.155  1.00  0.00     0.083 C 
ENDROOT
BRANCH   1   2
HETATM    2  C8  UNL     1       4.750  -0.883   5.254  1.00  0.00     0.132 C 
HETATM    3  O1  UNL     1       5.595  -1.802   5.441  1.00  0.00    -0.298 OA
BRANCH   2   4
HETATM    4  C4  UNL     1       5.085  -0.009   4.109  1.00  0.00     0.062 C 
BRANCH   4   5
HETATM    5  C3  UNL     1       6.372  -0.508   3.435  1.00  0.00     0.038 C 
BRANCH   5   6
HETATM    6  C2  UNL     1       7.212   0.570   2.896  1.00  0.00    -0.036 C 
HETATM    7  C1  UNL     1       8.533   0.421   2.887  1.00  0.00     0.007 C 
ENDBRANCH   5   6
ENDBRANCH   4   5
BRANCH   4   8
HETATM    8  C5  UNL     1       5.331   1.436   4.452  1.00  0.00     0.038 C 
BRANCH   8   9
HETATM    9  C6  UNL     1       5.643   1.634   5.890  1.00  0.00    -0.036 C 
HETATM   10  C7  UNL     1       6.858   1.432   6.358  1.00  0.00     0.007 C 
ENDBRANCH   8   9
ENDBRANCH   4   8
ENDBRANCH   2   4
ENDBRANCH   1   2
BRANCH   1  11
HETATM   11  C10 UNL     1       3.721  -1.579   7.408  1.00  0.00     0.046 C 
BRANCH  11  12
HETATM   12  C11 UNL     1       2.784  -1.117   8.472  1.00  0.00    -0.052 A 
HETATM   13  C12 UNL     1       1.439  -1.363   8.371  1.00  0.00     0.008 A 
HETATM   14  C13 UNL     1       0.518  -0.957   9.312  1.00  0.00     0.015 A 
HETATM   15  C14 UNL     1       0.996  -0.262  10.419  1.00  0.00     0.002 A 
HETATM   16  C16 UNL     1       2.351  -0.019  10.512  1.00  0.00     0.021 A 
HETATM   17  C17 UNL     1       3.273  -0.426   9.569  1.00  0.00    -0.055 A 
HETATM   18  C18 UNL     1       4.721  -0.156   9.693  1.00  0.00     0.049 C 
BRANCH  15  19
HETATM   19  C15 UNL     1       0.082   0.198  11.448  1.00  0.00     0.269 C 
HETATM   20  O2  UNL     1      -0.627  -0.598  12.109  1.00  0.00    -0.301 OA
ENDBRANCH  15  19
ENDBRANCH  11  12
ENDBRANCH   1  11
TORSDOF 9
ENDMDL
MODEL 5
REMARK VINA RESULT: -7.241399715      0.592      1.500
REMARK  9 active torsions:
REMARK  status: ('A' for Active; 'I' for Inactive)
REMARK    1  A    between atoms: C2_2  and  C3_3 
REMARK    2  A    between atoms: C3_3  and  C4_4 
REMARK    3  A    between atoms: C4_4  and  C5_5 
REMARK    4  A    between atoms: C4_4  and  C8_8 
REMARK    5  A    between atoms: C5_5  and  C6_6 
REMARK    6  A    between atoms: C8_8  and  C9_10 
REMARK    7  A    between atoms: C9_10  and  C10_11 
REMARK    8  A    between atoms: C10_11  and  C11_12 
REMARK    9  A    between atoms: C14_15  and  C15_16 
ROOT
HETATM    1  C9  UNL     1       5.160   0.576   7.269  1.00  0.00     0.083 C 
ENDROOT
BRANCH   1   2
HETATM    2  C8  UNL     1       6.241   0.317   6.312  1.00  0.00     0.132 C 
HETATM    3  O1  UNL     1       7.111  -0.549   6.612  1.00  0.00    -0.298 OA
BRANCH   2   4
HETATM    4  C4  UNL     1       6.473   0.941   4.992  1.00  0.00     0.062 C 
BRANCH   4   5
HETATM    5  C3  UNL     1       5.129   1.181   4.288  1.00  0.00     0.038 C 
BRANCH   5   6
HETATM    6  C2  UNL     1       4.726   0.084   3.396  1.00  0.00    -0.036 C 
HETATM    7  C1  UNL     1       4.130  -0.986   3.912  1.00  0.00     0.007 C 
ENDBRANCH   5   6
ENDBRANCH   4   5
BRANCH   4   8
HETATM    8  C5  UNL     1       7.303   0.131   4.032  1.00  0.00     0.038 C 
BRANCH   8   9
HETATM    9  C6  UNL     1       8.289   0.960   3.294  1.00  0.00    -0.036 C 
HETATM   10  C7  UNL     1       9.314   0.411   2.675  1.00  0.00     0.007 C 
ENDBRANCH   8   9
ENDBRANCH   4   8
ENDBRANCH   2   4
ENDBRANCH   1   2
BRANCH   1  11
HETATM   11  C10 UNL     1       4.099  -0.450   7.314  1.00  0.00     0.046 C 
BRANCH  11  12
HETATM   12  C11 UNL     1       3.103  -0.209   8.396  1.00  0.00    -0.052 A 
HETATM   13  C12 UNL     1       3.316  -0.697   9.660  1.00  0.00     0.008 A 
HETATM   14  C13 UNL     1       2.433  -0.519  10.704  1.00  0.00     0.015 A 
HETATM   15  C14 UNL     1       1.269   0.198  10.443  1.00  0.00     0.002 A 
HETATM   16  C16 UNL     1       1.063   0.684   9.169  1.00  0.00     0.021 A 
HETATM   17  C17 UNL     1       1.947   0.505   8.124  1.00  0.00    -0.055 A 
HETATM   18  C18 UNL     1       1.705   1.040   6.767  1.00  0.00     0.049 C 
BRANCH  15  19
HETATM   19  C15 UNL     1       0.294   0.422  11.495  1.00  0.00     0.269 C 
HETATM   20  O2  UNL     1      -0.430  -0.502  11.935  1.00  0.00    -0.301 OA
ENDBRANCH  15  19
ENDBRANCH  11  12
ENDBRANCH   1  11
TORSDOF 9
ENDMDL
