MODEL 1
REMARK VINA RESULT: -7.130796502      0.000      0.000
REMARK  9 active torsions:
REMARK  status: ('A' for Active; 'I' for Inactive)
REMARK    1  A    between atoms: C2_2  and  C3_3 
REMARK    2  A    between atoms: C3_3  and  C6_6 
REMARK    3  A    between atoms: C6_6  and  C7_7 
REMARK    4  A    between atoms: C7_7  and  O1_8 
REMARK    5  A    between atoms: C7_7  and  C8_10 
REMARK    6  A    between atoms: C8_10  and  C9_11 
REMARK    7  A    between atoms: C9_11  and  C10_12 
REMARK    8  A    between atoms: C10_12  and  O2_13 
REMARK    9  A    between atoms: O2_13  and  C11_14 
ROOT
HETATM    1  C9  UNL     1       5.373  -0.534   5.768  1.00  0.00     0.029 C 
ENDROOT
BRANCH   1   2
HETATM    2  C8  UNL     1       5.714  -0.904   4.344  1.00  0.00     0.034 C 
BRANCH   2   3
HETATM    3  C7  UNL     1       6.161   0.289   3.531  1.00  0.00     0.122 C 
BRANCH   3   4
HETATM    4  C6  UNL     1       7.651   0.405   3.694  1.00  0.00     0.070 C 
BRANCH   4   5
HETATM    5  C3  UNL     1       8.437   0.401   2.467  1.00  0.00    -0.061 C 
HETATM    6  C4  UNL     1       8.594  -0.656   1.709  1.00  0.00    -0.024 C 
HETATM    7  C5  UNL     1       9.413  -0.539   0.457  1.00  0.00     0.036 C 
BRANCH   5   8
HETATM    8  C2  UNL     1       9.068   1.659   2.067  1.00  0.00    -0.004 C 
HETATM    9  C1  UNL     1       8.418   2.546   1.345  1.00  0.00     0.012 C 
ENDBRANCH   5   8
ENDBRANCH   4   5
ENDBRANCH   3   4
BRANCH   3  10
HETATM   10  O1  UNL     1       5.576   1.468   3.974  1.00  0.00    -0.395 OA
ATOM     11  H1  UNL     1       4.691   1.511   3.632  1.00  0.00     0.210 HD
ENDBRANCH   3  10
ENDBRANCH   2   3
ENDBRANCH   1   2
BRANCH   1  12
HETATM   12  C10 UNL     1       3.920  -0.612   6.074  1.00  0.00     0.175 C 
BRANCH  12  13
HETATM   13  O2  UNL     1       3.700  -1.149   7.321  1.00  0.00    -0.351 OA
BRANCH  13  14
HETATM   14  C11 UNL     1       2.982  -0.805   8.412  1.00  0.00     0.075 A 
HETATM   15  C12 UNL     1       1.618  -0.861   8.547  1.00  0.00     0.044 A 
HETATM   16  C13 UNL     1       0.937  -0.488   9.705  1.00  0.00    -0.059 A 
HETATM   17  C14 UNL     1      -0.547  -0.569   9.800  1.00  0.00     0.048 C 
HETATM   18  C15 UNL     1       1.702  -0.040  10.759  1.00  0.00     0.007 A 
HETATM   19  C16 UNL     1       3.069   0.023  10.639  1.00  0.00     0.010 A 
HETATM   20  C17 UNL     1       3.739  -0.343   9.503  1.00  0.00    -0.029 A 
HETATM   21  C18 UNL     1       5.232  -0.255   9.426  1.00  0.00     0.051 C 
ENDBRANCH  13  14
ENDBRANCH  12  13
ENDBRANCH   1  12
TORSDOF 9
ENDMDL
MODEL 2
REMARK VINA RESULT: -7.007054962      1.343      1.487
REMARK  9 active torsions:
REMARK  status: ('A' for Active; 'I' for Inactive)
REMARK    1  A    between atoms: C2_2  and  C3_3 
REMARK    2  A    between atoms: C3_3  and  C6_6 
REMARK    3  A    between atoms: C6_6  and  C7_7 
REMARK    4  A    between atoms: C7_7  and  O1_8 
REMARK    5  A    between atoms: C7_7  and  C8_10 
REMARK    6  A    between atoms: C8_10  and  C9_11 
REMARK    7  A    between atoms: C9_11  and  C10_12 
REMARK    8  A    between atoms: C10_12  and  O2_13 
REMARK    9  A    between atoms: O2_13  and  C11_14 
ROOT
HETATM    1  C9  UNL     1       5.404   0.289   6.499  1.00  0.00     0.029 C 
ENDROOT
BRANCH   1   2
HETATM    2  C8  UNL     1       6.376   0.949   5.549  1.00  0.00     0.034 C 
BRANCH   2   3
HETATM    3  C7  UNL     1       6.889  -0.005   4.495  1.00  0.00     0.122 C 
BRANCH   3   4
HETATM    4  C6  UNL     1       6.885   0.735   3.186  1.00  0.00     0.070 C 
BRANCH   4   5
HETATM    5  C3  UNL     1       8.051   0.543   2.333  1.00  0.00    -0.061 C 
HETATM    6  C4  UNL     1       8.370  -0.605   1.787  1.00  0.00    -0.024 C 
HETATM    7  C5  UNL     1       9.587  -0.680   0.911  1.00  0.00     0.036 C 
BRANCH   5   8
HETATM    8  C2  UNL     1       8.895   1.710   2.073  1.00  0.00    -0.004 C 
HETATM    9  C1  UNL     1       8.520   2.643   1.224  1.00  0.00     0.012 C 
ENDBRANCH   5   8
ENDBRANCH   4   5
ENDBRANCH   3   4
BRANCH   3  10
HETATM   10  O1  UNL     1       6.078  -1.125   4.370  1.00  0.00    -0.395 OA
ATOM     11  H1  UNL     1       5.688  -1.310   5.216  1.00  0.00     0.210 HD
ENDBRANCH   3  10
ENDBRANCH   2   3
ENDBRANCH   1   2
BRANCH   1  12
HETATM   12  C10 UNL     1       3.985   0.649   6.246  1.00  0.00     0.175 C 
BRANCH  12  13
HETATM   13  O2  UNL     1       3.128  -0.239   6.853  1.00  0.00    -0.351 OA
BRANCH  13  14
HETATM   14  C11 UNL     1       2.625  -0.407   8.095  1.00  0.00     0.075 A 
HETATM   15  C12 UNL     1       1.797   0.455   8.768  1.00  0.00     0.044 A 
HETATM   16  C13 UNL     1       1.313   0.221  10.055  1.00  0.00    -0.059 A 
HETATM   17  C14 UNL     1       0.414   1.190  10.740  1.00  0.00     0.048 C 
HETATM   18  C15 UNL     1       1.706  -0.951  10.663  1.00  0.00     0.007 A 
HETATM   19  C16 UNL     1       2.536  -1.824  10.002  1.00  0.00     0.010 A 
HETATM   20  C17 UNL     1       3.011  -1.596   8.740  1.00  0.00    -0.029 A 
HETATM   21  C18 UNL     1       3.914  -2.582   8.066  1.00  0.00     0.051 C 
ENDBRANCH  13  14
ENDBRANCH  12  13
ENDBRANCH   1  12
TORSDOF 9
ENDMDL
MODEL 3
REMARK VINA RESULT: -6.955859461      1.371      2.187
REMARK  9 active torsions:
REMARK  status: ('A' for Active; 'I' for Inactive)
REMARK    1  A    between atoms: C2_2  and  C3_3 
REMARK    2  A    between atoms: C3_3  and  C6_6 
REMARK    3  A    between atoms: C6_6  and  C7_7 
REMARK    4  A    between atoms: C7_7  and  O1_8 
REMARK    5  A    between atoms: C7_7  and  C8_10 
REMARK    6  A    between atoms: C8_10  and  C9_11 
REMARK    7  A    between atoms: C9_11  and  C10_12 
REMARK    8  A    between atoms: C10_12  and  O2_13 
REMARK    9  A    between atoms: O2_13  and  C11_14 
ROOT
HETATM    1  C9  UNL     1       6.298   0.525   6.096  1.00  0.00     0.029 C 
ENDROOT
BRANCH   1   2
HETATM    2  C8  UNL     1       6.128  -0.688   5.213  1.00  0.00     0.034 C 
BRANCH   2   3
HETATM    3  C7  UNL     1       6.299  -0.364   3.747  1.00  0.00     0.122 C 
BRANCH   3   4
HETATM    4  C6  UNL     1       7.437   0.611   3.637  1.00  0.00     0.070 C 
BRANCH   4   5
HETATM    5  C3  UNL     1       8.292   0.477   2.465  1.00  0.00    -0.061 C 
HETATM    6  C4  UNL     1       8.465  -0.650   1.818  1.00  0.00    -0.024 C 
HETATM    7  C5  UNL     1       9.357  -0.666   0.611  1.00  0.00     0.036 C 
BRANCH   5   8
HETATM    8  C2  UNL     1       8.977   1.679   1.988  1.00  0.00    -0.004 C 
HETATM    9  C1  UNL     1       8.332   2.606   1.313  1.00  0.00     0.012 C 
ENDBRANCH   5   8
ENDBRANCH   4   5
ENDBRANCH   3   4
BRANCH   3  10
HETATM   10  O1  UNL     1       5.162   0.224   3.210  1.00  0.00    -0.395 OA
ATOM     11  H1  UNL     1       4.487  -0.441   3.134  1.00  0.00     0.210 HD
ENDBRANCH   3  10
ENDBRANCH   2   3
ENDBRANCH   1   2
BRANCH   1  12
HETATM   12  C10 UNL     1       5.081   1.373   6.185  1.00  0.00     0.175 C 
BRANCH  12  13
HETATM   13  O2  UNL     1       3.942   0.606   6.261  1.00  0.00    -0.351 OA
BRANCH  13  14
HETATM   14  C11 UNL     1       3.241   0.005   7.246  1.00  0.00     0.075 A 
HETATM   15  C12 UNL     1       3.697  -0.964   8.104  1.00  0.00     0.044 A 
HETATM   16  C13 UNL     1       2.917  -1.547   9.102  1.00  0.00    -0.059 A 
HETATM   17  C14 UNL     1       3.463  -2.595  10.008  1.00  0.00     0.048 C 
HETATM   18  C15 UNL     1       1.617  -1.107   9.211  1.00  0.00     0.007 A 
HETATM   19  C16 UNL     1       1.144  -0.138   8.358  1.00  0.00     0.010 A 
HETATM   20  C17 UNL     1       1.908   0.435   7.379  1.00  0.00    -0.029 A 
HETATM   21  C18 UNL     1       1.342   1.488   6.477  1.00  0.00     0.051 C 
ENDBRANCH  13  14
ENDBRANCH  12  13
ENDBRANCH   1  12
TORSDOF 9
ENDMDL
MODEL 4
REMARK VINA RESULT: -6.950334577      1.215      1.382
REMARK  9 active torsions:
REMARK  status: ('A' for Active; 'I' for Inactive)
REMARK    1  A    between atoms: C2_2  and  C3_3 
REMARK    2  A    between atoms: C3_3  and  C6_6 
REMARK    3  A    between atoms: C6_6  and  C7_7 
REMARK    4  A    between atoms: C7_7  and  O1_8 
REMARK    5  A    between atoms: C7_7  and  C8_10 
REMARK    6  A    between atoms: C8_10  and  C9_11 
REMARK    7  A    between atoms: C9_11  and  C10_12 
REMARK    8  A    between atoms: C10_12  and  O2_13 
REMARK    9  A    between atoms: O2_13  and  C11_14 
ROOT
HETATM    1  C9  UNL     1       4.649  -0.039   3.795  1.00  0.00     0.029 C 
ENDROOT
BRANCH   1   2
HETATM    2  C8  UNL     1       5.573   1.075   4.225  1.00  0.00     0.034 C 
BRANCH   2   3
HETATM    3  C7  UNL     1       7.031   0.696   4.097  1.00  0.00     0.122 C 
BRANCH   3   4
HETATM    4  C6  UNL     1       7.183  -0.055   2.804  1.00  0.00     0.070 C 
BRANCH   4   5
HETATM    5  C3  UNL     1       8.392   0.217   2.037  1.00  0.00    -0.061 C 
HETATM    6  C4  UNL     1       9.019  -0.688   1.326  1.00  0.00    -0.024 C 
HETATM    7  C5  UNL     1      10.248  -0.289   0.562  1.00  0.00     0.036 C 
BRANCH   5   8
HETATM    8  C2  UNL     1       8.914   1.584   2.064  1.00  0.00    -0.004 C 
HETATM    9  C1  UNL     1       8.401   2.521   1.296  1.00  0.00     0.012 C 
ENDBRANCH   5   8
ENDBRANCH   4   5
ENDBRANCH   3   4
BRANCH   3  10
HETATM   10  O1  UNL     1       7.446  -0.126   5.135  1.00  0.00    -0.395 OA
ATOM     11  H1  UNL     1       6.993   0.138   5.928  1.00  0.00     0.210 HD
ENDBRANCH   3  10
ENDBRANCH   2   3
ENDBRANCH   1   2
BRANCH   1  12
HETATM   12  C10 UNL     1       4.040  -0.781   4.929  1.00  0.00     0.175 C 
BRANCH  12  13
HETATM   13  O2  UNL     1       3.681   0.070   5.948  1.00  0.00    -0.351 OA
BRANCH  13  14
HETATM   14  C11 UNL     1       3.241  -0.067   7.218  1.00  0.00     0.075 A 
HETATM   15  C12 UNL     1       1.934  -0.121   7.632  1.00  0.00     0.044 A 
HETATM   16  C13 UNL     1       1.548  -0.263   8.965  1.00  0.00    -0.059 A 
HETATM   17  C14 UNL     1       0.113  -0.317   9.360  1.00  0.00     0.048 C 
HETATM   18  C15 UNL     1       2.556  -0.350   9.898  1.00  0.00     0.007 A 
HETATM   19  C16 UNL     1       3.870  -0.296   9.499  1.00  0.00     0.010 A 
HETATM   20  C17 UNL     1       4.251  -0.158   8.193  1.00  0.00    -0.029 A 
HETATM   21  C18 UNL     1       5.699  -0.105   7.813  1.00  0.00     0.051 C 
ENDBRANCH  13  14
ENDBRANCH  12  13
ENDBRANCH   1  12
TORSDOF 9
ENDMDL
MODEL 5
REMARK VINA RESULT: -6.937868407      1.104      1.928
REMARK  9 active torsions:
REMARK  status: ('A' for Active; 'I' for Inactive)
REMARK    1  A    between atoms: C2_2  and  C3_3 
REMARK    2  A    between atoms: C3_3  and  C6_6 
REMARK    3  A    between atoms: C6_6  and  C7_7 
REMARK    4  A    between atoms: C7_7  and  O1_8 
REMARK    5  A    between atoms: C7_7  and  C8_10 
REMARK    6  A    between atoms: C8_10  and  C9_11 
REMARK    7  A    between atoms: C9_11  and  C10_12 
REMARK    8  A    between atoms: C10_12  and  O2_13 
REMARK    9  A    between atoms: O2_13  and  C11_14 
ROOT
HETATM    1  C9  UNL     1       6.546   0.994   5.924  1.00  0.00     0.029 C 
ENDROOT
BRANCH   1   2
HETATM    2  C8  UNL     1       6.586  -0.361   5.258  1.00  0.00     0.034 C 
BRANCH   2   3
HETATM    3  C7  UNL     1       6.521  -0.264   3.751  1.00  0.00     0.122 C 
BRANCH   3   4
HETATM    4  C6  UNL     1       7.392   0.891   3.342  1.00  0.00     0.070 C 
BRANCH   4   5
HETATM    5  C3  UNL     1       8.335   0.637   2.260  1.00  0.00    -0.061 C 
HETATM    6  C4  UNL     1       8.535  -0.548   1.735  1.00  0.00    -0.024 C 
HETATM    7  C5  UNL     1       9.521  -0.688   0.612  1.00  0.00     0.036 C 
BRANCH   5   8
HETATM    8  C2  UNL     1       9.081   1.779   1.734  1.00  0.00    -0.004 C 
HETATM    9  C1  UNL     1       8.468   2.763   1.112  1.00  0.00     0.012 C 
ENDBRANCH   5   8
ENDBRANCH   4   5
ENDBRANCH   3   4
BRANCH   3  10
HETATM   10  O1  UNL     1       5.230  -0.022   3.302  1.00  0.00    -0.395 OA
ATOM     11  H1  UNL     1       4.873  -0.834   2.962  1.00  0.00     0.210 HD
ENDBRANCH   3  10
ENDBRANCH   2   3
ENDBRANCH   1   2
BRANCH   1  12
HETATM   12  C10 UNL     1       5.247   1.302   6.575  1.00  0.00     0.175 C 
BRANCH  12  13
HETATM   13  O2  UNL     1       4.846   0.277   7.401  1.00  0.00    -0.351 OA
BRANCH  13  14
HETATM   14  C11 UNL     1       3.693  -0.091   8.001  1.00  0.00     0.075 A 
HETATM   15  C12 UNL     1       3.305   0.205   9.283  1.00  0.00     0.044 A 
HETATM   16  C13 UNL     1       2.098  -0.210   9.844  1.00  0.00    -0.059 A 
HETATM   17  C14 UNL     1       1.724   0.141  11.242  1.00  0.00     0.048 C 
HETATM   18  C15 UNL     1       1.266  -0.961   9.043  1.00  0.00     0.007 A 
HETATM   19  C16 UNL     1       1.642  -1.267   7.757  1.00  0.00     0.010 A 
HETATM   20  C17 UNL     1       2.826  -0.860   7.205  1.00  0.00    -0.029 A 
HETATM   21  C18 UNL     1       3.185  -1.223   5.797  1.00  0.00     0.051 C 
ENDBRANCH  13  14
ENDBRANCH  12  13
ENDBRANCH   1  12
TORSDOF 9
ENDMDL
