MODEL 1
REMARK VINA RESULT: -6.131782761      0.000      0.000
REMARK  9 active torsions:
REMARK  status: ('A' for Active; 'I' for Inactive)
REMARK    1  A    between atoms: C2_2  and  C3_3 
REMARK    2  A    between atoms: C3_3  and  C4_4 
REMARK    3  A    between atoms: C4_4  and  C5_5 
REMARK    4  A    between atoms: C5_5  and  C6_6 
REMARK    5  A    between atoms: C6_6  and  C7_7 
REMARK    6  A    between atoms: C7_7  and  C8_8 
REMARK    7  A    between atoms: C10_10  and  C11_11 
REMARK    8  A    between atoms: C11_11  and  O1_12 
REMARK    9  A    between atoms: C15_17  and  O2_18 
ROOT
HETATM    1  C8  UNL     1       4.489   0.510   5.988  1.00  0.00    -0.024 A 
HETATM    2  C9  UNL     1       3.161   0.193   6.328  1.00  0.00     0.019 A 
HETATM    3  C10 UNL     1       2.805  -0.380   7.522  1.00  0.00    -0.028 A 
HETATM    4  C12 UNL     1       3.754  -0.674   8.461  1.00  0.00    -0.051 A 
HETATM    5  C13 UNL     1       3.409  -1.291   9.762  1.00  0.00     0.049 C 
HETATM    6  C14 UNL     1       5.054  -0.379   8.167  1.00  0.00     0.044 A 
HETATM    7  C15 UNL     1       5.417   0.209   6.940  1.00  0.00     0.075 A 
ENDROOT
BRANCH   1   8
HETATM    8  C7  UNL     1       4.759   1.088   4.655  1.00  0.00     0.041 C 
BRANCH   8   9
HETATM    9  C6  UNL     1       5.418   0.260   3.658  1.00  0.00     0.005 C 
BRANCH   9  10
HETATM   10  C5  UNL     1       6.712   0.521   3.055  1.00  0.00     0.001 C 
BRANCH  10  11
HETATM   11  C4  UNL     1       7.710  -0.555   2.903  1.00  0.00     0.004 C 
BRANCH  11  12
HETATM   12  C3  UNL     1       8.615  -0.325   1.677  1.00  0.00     0.026 C 
BRANCH  12  13
HETATM   13  C2  UNL     1       9.965  -0.032   2.230  1.00  0.00    -0.037 C 
HETATM   14  C1  UNL     1      10.374   1.218   2.358  1.00  0.00     0.007 C 
ENDBRANCH  12  13
ENDBRANCH  11  12
ENDBRANCH  10  11
ENDBRANCH   9  10
ENDBRANCH   8   9
ENDBRANCH   1   8
BRANCH   7  15
HETATM   15  O2  UNL     1       6.753   0.484   6.716  1.00  0.00    -0.355 OA
HETATM   16  C16 UNL     1       7.659  -0.565   6.473  1.00  0.00     0.210 C 
ENDBRANCH   7  15
BRANCH   3  17
HETATM   17  C11 UNL     1       1.368  -0.666   7.761  1.00  0.00     0.203 C 
BRANCH  17  18
HETATM   18  O1  UNL     1       0.616   0.490   7.884  1.00  0.00    -0.396 OA
ATOM     19  H1  UNL     1       0.007   0.600   7.164  1.00  0.00     0.209 HD
ENDBRANCH  17  18
ENDBRANCH   3  17
TORSDOF 9
ENDMDL
MODEL 2
REMARK VINA RESULT: -5.947765429      1.609      2.607
REMARK  9 active torsions:
REMARK  status: ('A' for Active; 'I' for Inactive)
REMARK    1  A    between atoms: C2_2  and  C3_3 
REMARK    2  A    between atoms: C3_3  and  C4_4 
REMARK    3  A    between atoms: C4_4  and  C5_5 
REMARK    4  A    between atoms: C5_5  and  C6_6 
REMARK    5  A    between atoms: C6_6  and  C7_7 
REMARK    6  A    between atoms: C7_7  and  C8_8 
REMARK    7  A    between atoms: C10_10  and  C11_11 
REMARK    8  A    between atoms: C11_11  and  O1_12 
REMARK    9  A    between atoms: C15_17  and  O2_18 
ROOT
HETATM    1  C8  UNL     1       5.221   0.271   6.840  1.00  0.00    -0.024 A 
HETATM    2  C9  UNL     1       4.818  -0.152   8.121  1.00  0.00     0.019 A 
HETATM    3  C10 UNL     1       3.508  -0.194   8.522  1.00  0.00    -0.028 A 
HETATM    4  C12 UNL     1       2.508   0.182   7.670  1.00  0.00    -0.051 A 
HETATM    5  C13 UNL     1       1.082   0.150   8.067  1.00  0.00     0.049 C 
HETATM    6  C14 UNL     1       2.860   0.597   6.418  1.00  0.00     0.044 A 
HETATM    7  C15 UNL     1       4.207   0.640   6.007  1.00  0.00     0.075 A 
ENDROOT
BRANCH   1   8
HETATM    8  C7  UNL     1       6.666   0.314   6.532  1.00  0.00     0.041 C 
BRANCH   8   9
HETATM    9  C6  UNL     1       7.241  -0.763   5.743  1.00  0.00     0.005 C 
BRANCH   9  10
HETATM   10  C5  UNL     1       7.676  -0.669   4.362  1.00  0.00     0.001 C 
BRANCH  10  11
HETATM   11  C4  UNL     1       7.963   0.640   3.745  1.00  0.00     0.004 C 
BRANCH  11  12
HETATM   12  C3  UNL     1       7.789   0.600   2.214  1.00  0.00     0.026 C 
BRANCH  12  13
HETATM   13  C2  UNL     1       8.468  -0.647   1.771  1.00  0.00    -0.037 C 
HETATM   14  C1  UNL     1       9.242  -0.638   0.700  1.00  0.00     0.007 C 
ENDBRANCH  12  13
ENDBRANCH  11  12
ENDBRANCH  10  11
ENDBRANCH   9  10
ENDBRANCH   8   9
ENDBRANCH   1   8
BRANCH   7  15
HETATM   15  O2  UNL     1       4.487   1.066   4.723  1.00  0.00    -0.355 OA
HETATM   16  C16 UNL     1       4.347   0.180   3.638  1.00  0.00     0.210 C 
ENDBRANCH   7  15
BRANCH   3  17
HETATM   17  C11 UNL     1       3.212  -0.660   9.901  1.00  0.00     0.203 C 
BRANCH  17  18
HETATM   18  O1  UNL     1       3.108  -2.038   9.978  1.00  0.00    -0.396 OA
ATOM     19  H1  UNL     1       2.217  -2.322  10.144  1.00  0.00     0.209 HD
ENDBRANCH  17  18
ENDBRANCH   3  17
TORSDOF 9
ENDMDL
MODEL 3
REMARK VINA RESULT: -5.908897757      1.523      2.500
REMARK  9 active torsions:
REMARK  status: ('A' for Active; 'I' for Inactive)
REMARK    1  A    between atoms: C2_2  and  C3_3 
REMARK    2  A    between atoms: C3_3  and  C4_4 
REMARK    3  A    between atoms: C4_4  and  C5_5 
REMARK    4  A    between atoms: C5_5  and  C6_6 
REMARK    5  A    between atoms: C6_6  and  C7_7 
REMARK    6  A    between atoms: C7_7  and  C8_8 
REMARK    7  A    between atoms: C10_10  and  C11_11 
REMARK    8  A    between atoms: C11_11  and  O1_12 
REMARK    9  A    between atoms: C15_17  and  O2_18 
ROOT
HETATM    1  C8  UNL     1       5.377   0.228   6.763  1.00  0.00    -0.024 A 
HETATM    2  C9  UNL     1       5.019  -0.235   8.043  1.00  0.00     0.019 A 
HETATM    3  C10 UNL     1       3.721  -0.337   8.471  1.00  0.00    -0.028 A 
HETATM    4  C12 UNL     1       2.688   0.016   7.648  1.00  0.00    -0.051 A 
HETATM    5  C13 UNL     1       1.273  -0.081   8.074  1.00  0.00     0.049 C 
HETATM    6  C14 UNL     1       2.996   0.469   6.398  1.00  0.00     0.044 A 
HETATM    7  C15 UNL     1       4.331   0.572   5.959  1.00  0.00     0.075 A 
ENDROOT
BRANCH   1   8
HETATM    8  C7  UNL     1       6.812   0.334   6.425  1.00  0.00     0.041 C 
BRANCH   8   9
HETATM    9  C6  UNL     1       7.311  -0.397   5.272  1.00  0.00     0.005 C 
BRANCH   9  10
HETATM   10  C5  UNL     1       7.899   0.188   4.082  1.00  0.00     0.001 C 
BRANCH  10  11
HETATM   11  C4  UNL     1       8.039  -0.596   2.840  1.00  0.00     0.004 C 
BRANCH  11  12
HETATM   12  C3  UNL     1       9.321  -0.223   2.071  1.00  0.00     0.026 C 
BRANCH  12  13
HETATM   13  C2  UNL     1       9.441   1.254   2.193  1.00  0.00    -0.037 C 
HETATM   14  C1  UNL     1       9.014   2.038   1.219  1.00  0.00     0.007 C 
ENDBRANCH  12  13
ENDBRANCH  11  12
ENDBRANCH  10  11
ENDBRANCH   9  10
ENDBRANCH   8   9
ENDBRANCH   1   8
BRANCH   7  15
HETATM   15  O2  UNL     1       4.566   1.034   4.678  1.00  0.00    -0.355 OA
HETATM   16  C16 UNL     1       4.385   0.179   3.575  1.00  0.00     0.210 C 
ENDBRANCH   7  15
BRANCH   3  17
HETATM   17  C11 UNL     1       3.474  -0.840   9.846  1.00  0.00     0.203 C 
BRANCH  17  18
HETATM   18  O1  UNL     1       3.508  -2.222   9.913  1.00  0.00    -0.396 OA
ATOM     19  H1  UNL     1       2.689  -2.616   9.637  1.00  0.00     0.209 HD
ENDBRANCH  17  18
ENDBRANCH   3  17
TORSDOF 9
ENDMDL
MODEL 4
REMARK VINA RESULT: -5.865109594      2.392      6.853
REMARK  9 active torsions:
REMARK  status: ('A' for Active; 'I' for Inactive)
REMARK    1  A    between atoms: C2_2  and  C3_3 
REMARK    2  A    between atoms: C3_3  and  C4_4 
REMARK    3  A    between atoms: C4_4  and  C5_5 
REMARK    4  A    between atoms: C5_5  and  C6_6 
REMARK    5  A    between atoms: C6_6  and  C7_7 
REMARK    6  A    between atoms: C7_7  and  C8_8 
REMARK    7  A    between atoms: C10_10  and  C11_11 
REMARK    8  A    between atoms: C11_11  and  O1_12 
REMARK    9  A    between atoms: C15_17  and  O2_18 
ROOT
HETATM    1  C8  UNL     1       3.466   0.710   6.848  1.00  0.00    -0.024 A 
HETATM    2  C9  UNL     1       3.934   0.475   5.541  1.00  0.00     0.019 A 
HETATM    3  C10 UNL     1       5.217   0.083   5.260  1.00  0.00    -0.028 A 
HETATM    4  C12 UNL     1       6.123  -0.103   6.267  1.00  0.00    -0.051 A 
HETATM    5  C13 UNL     1       7.517  -0.526   6.003  1.00  0.00     0.049 C 
HETATM    6  C14 UNL     1       5.705   0.115   7.548  1.00  0.00     0.044 A 
HETATM    7  C15 UNL     1       4.386   0.517   7.835  1.00  0.00     0.075 A 
ENDROOT
BRANCH   1   8
HETATM    8  C7  UNL     1       2.072   1.169   7.028  1.00  0.00     0.041 C 
BRANCH   8   9
HETATM    9  C6  UNL     1       1.079   0.212   7.487  1.00  0.00     0.005 C 
BRANCH   9  10
HETATM   10  C5  UNL     1       1.315  -1.193   7.765  1.00  0.00     0.001 C 
BRANCH  10  11
HETATM   11  C4  UNL     1       1.307  -1.705   9.149  1.00  0.00     0.004 C 
BRANCH  11  12
HETATM   12  C3  UNL     1       0.042  -1.267   9.912  1.00  0.00     0.026 C 
BRANCH  12  13
HETATM   13  C2  UNL     1       0.535  -0.600  11.147  1.00  0.00    -0.037 C 
HETATM   14  C1  UNL     1       0.869   0.678  11.125  1.00  0.00     0.007 C 
ENDBRANCH  12  13
ENDBRANCH  11  12
ENDBRANCH  10  11
ENDBRANCH   9  10
ENDBRANCH   8   9
ENDBRANCH   1   8
BRANCH   7  15
HETATM   15  O2  UNL     1       4.034   0.713   9.157  1.00  0.00    -0.355 OA
HETATM   16  C16 UNL     1       4.314  -0.277  10.117  1.00  0.00     0.210 C 
ENDBRANCH   7  15
BRANCH   3  17
HETATM   17  C11 UNL     1       5.588  -0.134   3.839  1.00  0.00     0.203 C 
BRANCH  17  18
HETATM   18  O1  UNL     1       6.368   0.894   3.338  1.00  0.00    -0.396 OA
ATOM     19  H1  UNL     1       6.057   1.203   2.495  1.00  0.00     0.209 HD
ENDBRANCH  17  18
ENDBRANCH   3  17
TORSDOF 9
ENDMDL
MODEL 5
REMARK VINA RESULT: -5.633247600      2.213      7.265
REMARK  9 active torsions:
REMARK  status: ('A' for Active; 'I' for Inactive)
REMARK    1  A    between atoms: C2_2  and  C3_3 
REMARK    2  A    between atoms: C3_3  and  C4_4 
REMARK    3  A    between atoms: C4_4  and  C5_5 
REMARK    4  A    between atoms: C5_5  and  C6_6 
REMARK    5  A    between atoms: C6_6  and  C7_7 
REMARK    6  A    between atoms: C7_7  and  C8_8 
REMARK    7  A    between atoms: C10_10  and  C11_11 
REMARK    8  A    between atoms: C11_11  and  O1_12 
REMARK    9  A    between atoms: C15_17  and  O2_18 
ROOT
HETATM    1  C8  UNL     1       4.279   0.235   7.928  1.00  0.00    -0.024 A 
HETATM    2  C9  UNL     1       5.456  -0.177   7.276  1.00  0.00     0.019 A 
HETATM    3  C10 UNL     1       5.663  -0.028   5.929  1.00  0.00    -0.028 A 
HETATM    4  C12 UNL     1       4.707   0.547   5.140  1.00  0.00    -0.051 A 
HETATM    5  C13 UNL     1       4.893   0.726   3.681  1.00  0.00     0.049 C 
HETATM    6  C14 UNL     1       3.551   0.960   5.737  1.00  0.00     0.044 A 
HETATM    7  C15 UNL     1       3.340   0.806   7.121  1.00  0.00     0.075 A 
ENDROOT
BRANCH   1   8
HETATM    8  C7  UNL     1       4.150  -0.015   9.379  1.00  0.00     0.041 C 
BRANCH   8   9
HETATM    9  C6  UNL     1       3.887  -1.371   9.831  1.00  0.00     0.005 C 
BRANCH   9  10
HETATM   10  C5  UNL     1       2.581  -1.937  10.112  1.00  0.00     0.001 C 
BRANCH  10  11
HETATM   11  C4  UNL     1       1.435  -1.683   9.217  1.00  0.00     0.004 C 
BRANCH  11  12
HETATM   12  C3  UNL     1       0.165  -1.316  10.008  1.00  0.00     0.026 C 
BRANCH  12  13
HETATM   13  C2  UNL     1       0.618  -0.391  11.081  1.00  0.00    -0.037 C 
HETATM   14  C1  UNL     1       0.712   0.905  10.845  1.00  0.00     0.007 C 
ENDBRANCH  12  13
ENDBRANCH  11  12
ENDBRANCH  10  11
ENDBRANCH   9  10
ENDBRANCH   8   9
ENDBRANCH   1   8
BRANCH   7  15
HETATM   15  O2  UNL     1       2.147   1.254   7.656  1.00  0.00    -0.355 OA
HETATM   16  C16 UNL     1       0.925   0.894   7.057  1.00  0.00     0.210 C 
ENDBRANCH   7  15
BRANCH   3  17
HETATM   17  C11 UNL     1       6.949  -0.503   5.361  1.00  0.00     0.203 C 
BRANCH  17  18
HETATM   18  O1  UNL     1       7.855  -0.864   6.343  1.00  0.00    -0.396 OA
ATOM     19  H1  UNL     1       7.444  -0.962   7.193  1.00  0.00     0.209 HD
ENDBRANCH  17  18
ENDBRANCH   3  17
TORSDOF 9
ENDMDL
