MODEL 1
REMARK VINA RESULT: -6.597323824      0.000      0.000
REMARK  8 active torsions:
REMARK  status: ('A' for Active; 'I' for Inactive)
REMARK    1  A    between atoms: C2_2  and  C4_4 
REMARK    2  A    between atoms: C4_4  and  C5_5 
REMARK    3  A    between atoms: C5_5  and  C6_6 
REMARK    4  A    between atoms: C5_5  and  C12_15 
REMARK    5  A    between atoms: C6_6  and  C7_7 
REMARK    6  A    between atoms: C10_10  and  C11_11 
REMARK    7  A    between atoms: C11_11  and  O1_12 
REMARK    8  A    between atoms: C12_15  and  C13_16 
ROOT
HETATM    1  C5  UNL     1       3.698   0.451   7.269  1.00  0.00    -0.007 C 
ENDROOT
BRANCH   1   2
HETATM    2  C4  UNL     1       3.442  -0.964   7.781  1.00  0.00     0.009 C 
BRANCH   2   3
HETATM    3  C2  UNL     1       4.321  -1.369   8.921  1.00  0.00    -0.022 C 
HETATM    4  C1  UNL     1       3.473  -2.278   9.806  1.00  0.00     0.009 C 
HETATM    5  C3  UNL     1       4.794  -0.242   9.774  1.00  0.00     0.009 C 
ENDBRANCH   2   3
ENDBRANCH   1   2
BRANCH   1   6
HETATM    6  C6  UNL     1       2.431   1.189   7.501  1.00  0.00     0.069 C 
BRANCH   6   7
HETATM    7  C7  UNL     1       1.501   0.563   8.486  1.00  0.00     0.053 A 
HETATM    8  C8  UNL     1       0.430  -0.257   8.343  1.00  0.00     0.035 A 
HETATM    9  C9  UNL     1      -0.074  -0.540   9.596  1.00  0.00     0.037 A 
HETATM   10  C10 UNL     1       0.760   0.157  10.455  1.00  0.00     0.076 A 
HETATM   11  O2  UNL     1       1.667   0.789   9.775  1.00  0.00    -0.317 OA
BRANCH  10  12
HETATM   12  C11 UNL     1       0.611   0.161  11.940  1.00  0.00     0.229 C 
BRANCH  12  13
HETATM   13  O1  UNL     1      -0.566  -0.482  12.323  1.00  0.00    -0.394 OA
ATOM     14  H1  UNL     1      -0.718  -0.381  13.256  1.00  0.00     0.209 HD
ENDBRANCH  12  13
ENDBRANCH  10  12
ENDBRANCH   6   7
ENDBRANCH   1   6
BRANCH   1  15
HETATM   15  C12 UNL     1       4.168   0.437   5.881  1.00  0.00     0.013 C 
BRANCH  15  16
HETATM   16  C13 UNL     1       5.562   0.195   5.494  1.00  0.00    -0.051 C 
HETATM   17  C14 UNL     1       5.886   1.061   4.217  1.00  0.00     0.014 C 
HETATM   18  C15 UNL     1       6.651   0.615   6.446  1.00  0.00     0.014 C 
HETATM   19  C16 UNL     1       5.861  -1.218   5.059  1.00  0.00     0.014 C 
ENDBRANCH  15  16
ENDBRANCH   1  15
TORSDOF 8
ENDMDL
MODEL 2
REMARK VINA RESULT: -6.302546238      1.178      2.531
REMARK  8 active torsions:
REMARK  status: ('A' for Active; 'I' for Inactive)
REMARK    1  A    between atoms: C2_2  and  C4_4 
REMARK    2  A    between atoms: C4_4  and  C5_5 
REMARK    3  A    between atoms: C5_5  and  C6_6 
REMARK    4  A    between atoms: C5_5  and  C12_15 
REMARK    5  A    between atoms: C6_6  and  C7_7 
REMARK    6  A    between atoms: C10_10  and  C11_11 
REMARK    7  A    between atoms: C11_11  and  O1_12 
REMARK    8  A    between atoms: C12_15  and  C13_16 
ROOT
HETATM    1  C5  UNL     1       4.318  -0.035   7.461  1.00  0.00    -0.007 C 
ENDROOT
BRANCH   1   2
HETATM    2  C4  UNL     1       3.119   0.893   7.278  1.00  0.00     0.009 C 
BRANCH   2   3
HETATM    3  C2  UNL     1       1.938   0.243   6.630  1.00  0.00    -0.022 C 
HETATM    4  C1  UNL     1       0.711   0.752   7.381  1.00  0.00     0.009 C 
HETATM    5  C3  UNL     1       1.920  -1.244   6.716  1.00  0.00     0.009 C 
ENDBRANCH   2   3
ENDBRANCH   1   2
BRANCH   1   6
HETATM    6  C6  UNL     1       4.519  -0.134   8.929  1.00  0.00     0.069 C 
BRANCH   6   7
HETATM    7  C7  UNL     1       3.324  -0.575   9.706  1.00  0.00     0.053 A 
HETATM    8  C8  UNL     1       2.858  -1.801  10.055  1.00  0.00     0.035 A 
HETATM    9  C9  UNL     1       1.697  -1.636  10.783  1.00  0.00     0.037 A 
HETATM   10  C10 UNL     1       1.528  -0.262  10.831  1.00  0.00     0.076 A 
HETATM   11  O2  UNL     1       2.493   0.326  10.194  1.00  0.00    -0.317 OA
BRANCH  10  12
HETATM   12  C11 UNL     1       0.390   0.414  11.523  1.00  0.00     0.229 C 
BRANCH  12  13
HETATM   13  O1  UNL     1      -0.440  -0.521  12.142  1.00  0.00    -0.394 OA
ATOM     14  H1  UNL     1      -1.352  -0.356  11.929  1.00  0.00     0.209 HD
ENDBRANCH  12  13
ENDBRANCH  10  12
ENDBRANCH   6   7
ENDBRANCH   1   6
BRANCH   1  15
HETATM   15  C12 UNL     1       5.478   0.440   6.702  1.00  0.00     0.013 C 
BRANCH  15  16
HETATM   16  C13 UNL     1       5.617   0.296   5.250  1.00  0.00    -0.051 C 
HETATM   17  C14 UNL     1       7.134   0.022   4.916  1.00  0.00     0.014 C 
HETATM   18  C15 UNL     1       4.930  -0.863   4.577  1.00  0.00     0.014 C 
HETATM   19  C16 UNL     1       5.290   1.537   4.457  1.00  0.00     0.014 C 
ENDBRANCH  15  16
ENDBRANCH   1  15
TORSDOF 8
ENDMDL
MODEL 3
REMARK VINA RESULT: -6.280169463      0.783      1.040
REMARK  8 active torsions:
REMARK  status: ('A' for Active; 'I' for Inactive)
REMARK    1  A    between atoms: C2_2  and  C4_4 
REMARK    2  A    between atoms: C4_4  and  C5_5 
REMARK    3  A    between atoms: C5_5  and  C6_6 
REMARK    4  A    between atoms: C5_5  and  C12_15 
REMARK    5  A    between atoms: C6_6  and  C7_7 
REMARK    6  A    between atoms: C10_10  and  C11_11 
REMARK    7  A    between atoms: C11_11  and  O1_12 
REMARK    8  A    between atoms: C12_15  and  C13_16 
ROOT
HETATM    1  C5  UNL     1       3.488   0.091   7.110  1.00  0.00    -0.007 C 
ENDROOT
BRANCH   1   2
HETATM    2  C4  UNL     1       3.498  -1.331   7.665  1.00  0.00     0.009 C 
BRANCH   2   3
HETATM    3  C2  UNL     1       4.348  -1.504   8.884  1.00  0.00    -0.022 C 
HETATM    4  C1  UNL     1       3.512  -2.314   9.870  1.00  0.00     0.009 C 
HETATM    5  C3  UNL     1       4.727  -0.235   9.565  1.00  0.00     0.009 C 
ENDBRANCH   2   3
ENDBRANCH   1   2
BRANCH   1   6
HETATM    6  C6  UNL     1       2.081   0.550   7.228  1.00  0.00     0.069 C 
BRANCH   6   7
HETATM    7  C7  UNL     1       1.530   0.565   8.615  1.00  0.00     0.053 A 
HETATM    8  C8  UNL     1       1.622   1.464   9.627  1.00  0.00     0.035 A 
HETATM    9  C9  UNL     1       0.916   0.977  10.709  1.00  0.00     0.037 A 
HETATM   10  C10 UNL     1       0.421  -0.237  10.262  1.00  0.00     0.076 A 
HETATM   11  O2  UNL     1       0.797  -0.446   9.038  1.00  0.00    -0.317 OA
BRANCH  10  12
HETATM   12  C11 UNL     1      -0.420  -1.150  11.092  1.00  0.00     0.229 C 
BRANCH  12  13
HETATM   13  O1  UNL     1      -0.694  -0.579  12.336  1.00  0.00    -0.394 OA
ATOM     14  H1  UNL     1      -1.064  -1.223  12.928  1.00  0.00     0.209 HD
ENDBRANCH  12  13
ENDBRANCH  10  12
ENDBRANCH   6   7
ENDBRANCH   1   6
BRANCH   1  15
HETATM   15  C12 UNL     1       4.050   0.137   5.757  1.00  0.00     0.013 C 
BRANCH  15  16
HETATM   16  C13 UNL     1       5.471   0.355   5.471  1.00  0.00    -0.051 C 
HETATM   17  C14 UNL     1       5.597   1.074   4.073  1.00  0.00     0.014 C 
HETATM   18  C15 UNL     1       6.248   1.278   6.373  1.00  0.00     0.014 C 
HETATM   19  C16 UNL     1       6.283  -0.905   5.306  1.00  0.00     0.014 C 
ENDBRANCH  15  16
ENDBRANCH   1  15
TORSDOF 8
ENDMDL
MODEL 4
REMARK VINA RESULT: -5.990944870      1.225      2.389
REMARK  8 active torsions:
REMARK  status: ('A' for Active; 'I' for Inactive)
REMARK    1  A    between atoms: C2_2  and  C4_4 
REMARK    2  A    between atoms: C4_4  and  C5_5 
REMARK    3  A    between atoms: C5_5  and  C6_6 
REMARK    4  A    between atoms: C5_5  and  C12_15 
REMARK    5  A    between atoms: C6_6  and  C7_7 
REMARK    6  A    between atoms: C10_10  and  C11_11 
REMARK    7  A    between atoms: C11_11  and  O1_12 
REMARK    8  A    between atoms: C12_15  and  C13_16 
ROOT
HETATM    1  C5  UNL     1       3.974  -0.669   7.317  1.00  0.00    -0.007 C 
ENDROOT
BRANCH   1   2
HETATM    2  C4  UNL     1       4.028   0.622   8.128  1.00  0.00     0.009 C 
BRANCH   2   3
HETATM    3  C2  UNL     1       2.975   1.619   7.761  1.00  0.00    -0.022 C 
HETATM    4  C1  UNL     1       2.349   2.076   9.075  1.00  0.00     0.009 C 
HETATM    5  C3  UNL     1       1.876   1.080   6.913  1.00  0.00     0.009 C 
ENDBRANCH   2   3
ENDBRANCH   1   2
BRANCH   1   6
HETATM    6  C6  UNL     1       3.642  -1.736   8.295  1.00  0.00     0.069 C 
BRANCH   6   7
HETATM    7  C7  UNL     1       2.352  -1.554   9.022  1.00  0.00     0.053 A 
HETATM    8  C8  UNL     1       1.071  -1.877   8.712  1.00  0.00     0.035 A 
HETATM    9  C9  UNL     1       0.256  -1.477   9.752  1.00  0.00     0.037 A 
HETATM   10  C10 UNL     1       1.133  -0.914  10.664  1.00  0.00     0.076 A 
HETATM   11  O2  UNL     1       2.346  -0.976  10.208  1.00  0.00    -0.317 OA
BRANCH  10  12
HETATM   12  C11 UNL     1       0.714  -0.331  11.973  1.00  0.00     0.229 C 
BRANCH  12  13
HETATM   13  O1  UNL     1      -0.633  -0.595  12.226  1.00  0.00    -0.394 OA
ATOM     14  H1  UNL     1      -0.909  -1.390  11.785  1.00  0.00     0.209 HD
ENDBRANCH  12  13
ENDBRANCH  10  12
ENDBRANCH   6   7
ENDBRANCH   1   6
BRANCH   1  15
HETATM   15  C12 UNL     1       5.213  -0.876   6.563  1.00  0.00     0.013 C 
BRANCH  15  16
HETATM   16  C13 UNL     1       5.715   0.055   5.548  1.00  0.00    -0.051 C 
HETATM   17  C14 UNL     1       6.631  -0.744   4.543  1.00  0.00     0.014 C 
HETATM   18  C15 UNL     1       4.722   0.707   4.622  1.00  0.00     0.014 C 
HETATM   19  C16 UNL     1       6.619   1.140   6.077  1.00  0.00     0.014 C 
ENDBRANCH  15  16
ENDBRANCH   1  15
TORSDOF 8
ENDMDL
MODEL 5
REMARK VINA RESULT: -5.945661223      1.316      1.505
REMARK  8 active torsions:
REMARK  status: ('A' for Active; 'I' for Inactive)
REMARK    1  A    between atoms: C2_2  and  C4_4 
REMARK    2  A    between atoms: C4_4  and  C5_5 
REMARK    3  A    between atoms: C5_5  and  C6_6 
REMARK    4  A    between atoms: C5_5  and  C12_15 
REMARK    5  A    between atoms: C6_6  and  C7_7 
REMARK    6  A    between atoms: C10_10  and  C11_11 
REMARK    7  A    between atoms: C11_11  and  O1_12 
REMARK    8  A    between atoms: C12_15  and  C13_16 
ROOT
HETATM    1  C5  UNL     1       3.605  -0.375   6.635  1.00  0.00    -0.007 C 
ENDROOT
BRANCH   1   2
HETATM    2  C4  UNL     1       4.410  -0.813   7.856  1.00  0.00     0.009 C 
BRANCH   2   3
HETATM    3  C2  UNL     1       4.723   0.295   8.810  1.00  0.00    -0.022 C 
HETATM    4  C1  UNL     1       4.383  -0.235  10.200  1.00  0.00     0.009 C 
HETATM    5  C3  UNL     1       3.925   1.537   8.606  1.00  0.00     0.009 C 
ENDBRANCH   2   3
ENDBRANCH   1   2
BRANCH   1   6
HETATM    6  C6  UNL     1       2.304  -1.081   6.748  1.00  0.00     0.069 C 
BRANCH   6   7
HETATM    7  C7  UNL     1       1.452  -0.666   7.901  1.00  0.00     0.053 A 
HETATM    8  C8  UNL     1       0.553   0.337   8.062  1.00  0.00     0.035 A 
HETATM    9  C9  UNL     1       0.046   0.267   9.344  1.00  0.00     0.037 A 
HETATM   10  C10 UNL     1       0.700  -0.820   9.901  1.00  0.00     0.076 A 
HETATM   11  O2  UNL     1       1.511  -1.341   9.032  1.00  0.00    -0.317 OA
BRANCH  10  12
HETATM   12  C11 UNL     1       0.480  -1.298  11.298  1.00  0.00     0.229 C 
BRANCH  12  13
HETATM   13  O1  UNL     1      -0.409  -0.463  11.975  1.00  0.00    -0.394 OA
ATOM     14  H1  UNL     1      -1.276  -0.511  11.591  1.00  0.00     0.209 HD
ENDBRANCH  12  13
ENDBRANCH  10  12
ENDBRANCH   6   7
ENDBRANCH   1   6
BRANCH   1  15
HETATM   15  C12 UNL     1       4.345  -0.622   5.394  1.00  0.00     0.013 C 
BRANCH  15  16
HETATM   16  C13 UNL     1       5.591   0.062   5.038  1.00  0.00    -0.051 C 
HETATM   17  C14 UNL     1       5.725   0.076   3.467  1.00  0.00     0.014 C 
HETATM   18  C15 UNL     1       5.728   1.522   5.380  1.00  0.00     0.014 C 
HETATM   19  C16 UNL     1       6.848  -0.631   5.503  1.00  0.00     0.014 C 
ENDBRANCH  15  16
ENDBRANCH   1  15
TORSDOF 8
ENDMDL
