MODEL 1
REMARK VINA RESULT: -5.891591389      0.000      0.000
REMARK  12 active torsions:
REMARK  status: ('A' for Active; 'I' for Inactive)
REMARK    1  A    between atoms: C2_2  and  C3_3 
REMARK    2  A    between atoms: C3_3  and  N1_4 
REMARK    3  A    between atoms: N1_4  and  C4_5 
REMARK    4  A    between atoms: N1_4  and  C7_8 
REMARK    5  A    between atoms: C4_5  and  C5_6 
REMARK    6  A    between atoms: C7_8  and  C8_9 
REMARK    7  A    between atoms: C14_16  and  O2_17 
REMARK    8  A    between atoms: O2_17  and  C15_18 
REMARK    9  A    between atoms: C15_18  and  C16_19 
REMARK   10  A    between atoms: C16_19  and  C17_20 
REMARK   11  A    between atoms: C17_20  and  N2_21 
REMARK   12  A    between atoms: N2_21  and  C19_23 
ROOT
HETATM    1  C8  UNL     1     -12.103  25.750   5.975  1.00  0.00     0.072 A 
HETATM    2  C9  UNL     1     -11.573  27.035   6.212  1.00  0.00     0.175 A 
HETATM    3  O1  UNL     1     -12.568  27.875   6.310  1.00  0.00    -0.303 OA
HETATM    4  C10 UNL     1     -13.738  27.248   6.156  1.00  0.00     0.158 A 
HETATM    5  C11 UNL     1     -15.035  27.882   6.215  1.00  0.00     0.015 A 
HETATM    6  C12 UNL     1     -16.195  27.179   6.030  1.00  0.00     0.018 A 
HETATM    7  C13 UNL     1     -17.439  27.785   6.153  1.00  0.00     0.038 A 
HETATM    8  C14 UNL     1     -17.536  29.126   6.470  1.00  0.00     0.068 A 
HETATM    9  C22 UNL     1     -16.373  29.838   6.655  1.00  0.00     0.038 A 
HETATM   10  C23 UNL     1     -15.139  29.211   6.526  1.00  0.00     0.018 A 
HETATM   11  N3  UNL     1     -13.421  25.957   5.951  1.00  0.00    -0.333 N 
ATOM     12  H3  UNL     1     -14.109  25.220   5.795  1.00  0.00     0.168 HD
ENDROOT
BRANCH   1  13
HETATM   13  C7  UNL     1     -11.298  24.517   5.875  1.00  0.00     0.122 C 
BRANCH  13  14
HETATM   14  N1  UNL     1     -11.966  23.295   5.875  1.00  0.00    -0.361 N 
BRANCH  14  15
HETATM   15  C3  UNL     1     -12.318  22.720   4.665  1.00  0.00     0.090 C 
BRANCH  15  16
HETATM   16  C2  UNL     1     -12.712  21.293   4.756  1.00  0.00     0.007 C 
HETATM   17  C1  UNL     1     -11.919  20.255   4.474  1.00  0.00     0.012 C 
ENDBRANCH  15  16
ENDBRANCH  14  15
BRANCH  14  18
HETATM   18  C4  UNL     1     -12.668  22.926   7.049  1.00  0.00     0.154 C 
BRANCH  18  19
HETATM   19  C5  UNL     1     -11.724  22.605   8.167  1.00  0.00    -0.017 C 
HETATM   20  C6  UNL     1     -11.641  21.374   8.615  1.00  0.00     0.008 C 
ENDBRANCH  18  19
ENDBRANCH  14  18
ENDBRANCH  13  14
ENDBRANCH   1  13
BRANCH   8  21
HETATM   21  O2  UNL     1     -18.754  29.749   6.601  1.00  0.00    -0.351 OA
BRANCH  21  22
HETATM   22  C15 UNL     1     -19.916  29.004   6.893  1.00  0.00     0.177 C 
BRANCH  22  23
HETATM   23  C16 UNL     1     -20.364  29.291   8.312  1.00  0.00     0.057 C 
BRANCH  23  24
HETATM   24  C17 UNL     1     -20.737  28.003   8.992  1.00  0.00     0.274 C 
BRANCH  24  25
HETATM   25  N2  UNL     1     -19.890  26.905   8.521  1.00  0.00     0.088 N 
HETATM   26  C18 UNL     1     -20.737  25.696   8.437  1.00  0.00     0.310 C 
BRANCH  25  27
HETATM   27  C19 UNL     1     -18.805  26.667   9.439  1.00  0.00     0.214 C 
HETATM   28  C20 UNL     1     -19.249  26.464  10.847  1.00  0.00     0.042 C 
HETATM   29  C21 UNL     1     -18.022  25.448   8.994  1.00  0.00     0.042 C 
ENDBRANCH  25  27
ENDBRANCH  24  25
ENDBRANCH  23  24
ENDBRANCH  22  23
ENDBRANCH  21  22
ENDBRANCH   8  21
TORSDOF 12
ENDMDL
MODEL 2
REMARK VINA RESULT: -5.850777669      0.473      1.737
REMARK  12 active torsions:
REMARK  status: ('A' for Active; 'I' for Inactive)
REMARK    1  A    between atoms: C2_2  and  C3_3 
REMARK    2  A    between atoms: C3_3  and  N1_4 
REMARK    3  A    between atoms: N1_4  and  C4_5 
REMARK    4  A    between atoms: N1_4  and  C7_8 
REMARK    5  A    between atoms: C4_5  and  C5_6 
REMARK    6  A    between atoms: C7_8  and  C8_9 
REMARK    7  A    between atoms: C14_16  and  O2_17 
REMARK    8  A    between atoms: O2_17  and  C15_18 
REMARK    9  A    between atoms: C15_18  and  C16_19 
REMARK   10  A    between atoms: C16_19  and  C17_20 
REMARK   11  A    between atoms: C17_20  and  N2_21 
REMARK   12  A    between atoms: N2_21  and  C19_23 
ROOT
HETATM    1  C8  UNL     1     -12.170  25.659   5.924  1.00  0.00     0.072 A 
HETATM    2  C9  UNL     1     -11.615  26.935   6.155  1.00  0.00     0.175 A 
HETATM    3  O1  UNL     1     -12.594  27.792   6.267  1.00  0.00    -0.303 OA
HETATM    4  C10 UNL     1     -13.777  27.184   6.129  1.00  0.00     0.158 A 
HETATM    5  C11 UNL     1     -15.062  27.840   6.207  1.00  0.00     0.015 A 
HETATM    6  C12 UNL     1     -16.236  27.156   6.038  1.00  0.00     0.018 A 
HETATM    7  C13 UNL     1     -17.468  27.783   6.179  1.00  0.00     0.038 A 
HETATM    8  C14 UNL     1     -17.538  29.126   6.498  1.00  0.00     0.068 A 
HETATM    9  C22 UNL     1     -16.361  29.818   6.667  1.00  0.00     0.038 A 
HETATM   10  C23 UNL     1     -15.140  29.170   6.520  1.00  0.00     0.018 A 
HETATM   11  N3  UNL     1     -13.484  25.889   5.919  1.00  0.00    -0.333 N 
ATOM     12  H3  UNL     1     -14.187  25.164   5.772  1.00  0.00     0.168 HD
ENDROOT
BRANCH   1  13
HETATM   13  C7  UNL     1     -11.387  24.413   5.812  1.00  0.00     0.122 C 
BRANCH  13  14
HETATM   14  N1  UNL     1     -12.062  23.201   5.930  1.00  0.00    -0.361 N 
BRANCH  14  15
HETATM   15  C3  UNL     1     -12.014  22.518   7.134  1.00  0.00     0.090 C 
BRANCH  15  16
HETATM   16  C2  UNL     1     -13.107  22.860   8.076  1.00  0.00     0.007 C 
HETATM   17  C1  UNL     1     -14.408  22.637   7.862  1.00  0.00     0.012 C 
ENDBRANCH  15  16
ENDBRANCH  14  15
BRANCH  14  18
HETATM   18  C4  UNL     1     -12.356  22.490   4.739  1.00  0.00     0.154 C 
BRANCH  18  19
HETATM   19  C5  UNL     1     -12.384  21.012   4.984  1.00  0.00    -0.017 C 
HETATM   20  C6  UNL     1     -11.964  20.190   4.051  1.00  0.00     0.008 C 
ENDBRANCH  18  19
ENDBRANCH  14  18
ENDBRANCH  13  14
ENDBRANCH   1  13
BRANCH   8  21
HETATM   21  O2  UNL     1     -18.743  29.769   6.647  1.00  0.00    -0.351 OA
BRANCH  21  22
HETATM   22  C15 UNL     1     -19.913  29.043   6.956  1.00  0.00     0.177 C 
BRANCH  22  23
HETATM   23  C16 UNL     1     -20.284  29.267   8.408  1.00  0.00     0.057 C 
BRANCH  23  24
HETATM   24  C17 UNL     1     -20.710  27.963   9.025  1.00  0.00     0.274 C 
BRANCH  24  25
HETATM   25  N2  UNL     1     -19.881  26.862   8.533  1.00  0.00     0.088 N 
HETATM   26  C18 UNL     1     -20.746  25.668   8.424  1.00  0.00     0.310 C 
BRANCH  25  27
HETATM   27  C19 UNL     1     -18.800  26.589   9.445  1.00  0.00     0.214 C 
HETATM   28  C20 UNL     1     -19.245  26.393  10.854  1.00  0.00     0.042 C 
HETATM   29  C21 UNL     1     -18.054  25.350   8.992  1.00  0.00     0.042 C 
ENDBRANCH  25  27
ENDBRANCH  24  25
ENDBRANCH  23  24
ENDBRANCH  22  23
ENDBRANCH  21  22
ENDBRANCH   8  21
TORSDOF 12
ENDMDL
MODEL 3
REMARK VINA RESULT: -5.810758826      1.961      3.221
REMARK  12 active torsions:
REMARK  status: ('A' for Active; 'I' for Inactive)
REMARK    1  A    between atoms: C2_2  and  C3_3 
REMARK    2  A    between atoms: C3_3  and  N1_4 
REMARK    3  A    between atoms: N1_4  and  C4_5 
REMARK    4  A    between atoms: N1_4  and  C7_8 
REMARK    5  A    between atoms: C4_5  and  C5_6 
REMARK    6  A    between atoms: C7_8  and  C8_9 
REMARK    7  A    between atoms: C14_16  and  O2_17 
REMARK    8  A    between atoms: O2_17  and  C15_18 
REMARK    9  A    between atoms: C15_18  and  C16_19 
REMARK   10  A    between atoms: C16_19  and  C17_20 
REMARK   11  A    between atoms: C17_20  and  N2_21 
REMARK   12  A    between atoms: N2_21  and  C19_23 
ROOT
HETATM    1  C8  UNL     1     -14.402  24.508   5.620  1.00  0.00     0.072 A 
HETATM    2  C9  UNL     1     -15.715  23.996   5.585  1.00  0.00     0.175 A 
HETATM    3  O1  UNL     1     -16.543  24.981   5.807  1.00  0.00    -0.303 OA
HETATM    4  C10 UNL     1     -15.882  26.127   5.991  1.00  0.00     0.158 A 
HETATM    5  C11 UNL     1     -16.496  27.409   6.250  1.00  0.00     0.015 A 
HETATM    6  C12 UNL     1     -15.753  28.542   6.447  1.00  0.00     0.018 A 
HETATM    7  C13 UNL     1     -16.354  29.781   6.631  1.00  0.00     0.038 A 
HETATM    8  C14 UNL     1     -17.731  29.900   6.619  1.00  0.00     0.068 A 
HETATM    9  C22 UNL     1     -18.482  28.764   6.426  1.00  0.00     0.038 A 
HETATM   10  C23 UNL     1     -17.859  27.534   6.244  1.00  0.00     0.018 A 
HETATM   11  N3  UNL     1     -14.581  25.805   5.873  1.00  0.00    -0.333 N 
ATOM     12  H3  UNL     1     -13.819  26.477   5.967  1.00  0.00     0.168 HD
ENDROOT
BRANCH   1  13
HETATM   13  C7  UNL     1     -13.186  23.716   5.344  1.00  0.00     0.122 C 
BRANCH  13  14
HETATM   14  N1  UNL     1     -12.211  23.646   6.334  1.00  0.00    -0.361 N 
BRANCH  14  15
HETATM   15  C3  UNL     1     -12.569  23.227   7.605  1.00  0.00     0.090 C 
BRANCH  15  16
HETATM   16  C2  UNL     1     -11.868  22.005   8.068  1.00  0.00     0.007 C 
HETATM   17  C1  UNL     1     -11.885  21.532   9.318  1.00  0.00     0.012 C 
ENDBRANCH  15  16
ENDBRANCH  14  15
BRANCH  14  18
HETATM   18  C4  UNL     1     -11.041  24.429   6.166  1.00  0.00     0.154 C 
BRANCH  18  19
HETATM   19  C5  UNL     1     -10.989  25.545   7.164  1.00  0.00    -0.017 C 
HETATM   20  C6  UNL     1     -11.234  26.776   6.777  1.00  0.00     0.008 C 
ENDBRANCH  18  19
ENDBRANCH  14  18
ENDBRANCH  13  14
ENDBRANCH   1  13
BRANCH   8  21
HETATM   21  O2  UNL     1     -18.351  31.114   6.796  1.00  0.00    -0.351 OA
BRANCH  21  22
HETATM   22  C15 UNL     1     -19.727  31.182   7.102  1.00  0.00     0.177 C 
BRANCH  22  23
HETATM   23  C16 UNL     1     -19.908  31.620   8.541  1.00  0.00     0.057 C 
BRANCH  23  24
HETATM   24  C17 UNL     1     -20.572  30.519   9.321  1.00  0.00     0.274 C 
BRANCH  24  25
HETATM   25  N2  UNL     1     -21.558  29.821   8.495  1.00  0.00     0.088 N 
HETATM   26  C18 UNL     1     -22.877  30.430   8.768  1.00  0.00     0.310 C 
BRANCH  25  27
HETATM   27  C19 UNL     1     -21.600  28.419   8.824  1.00  0.00     0.214 C 
HETATM   28  C20 UNL     1     -21.689  27.529   7.632  1.00  0.00     0.042 C 
HETATM   29  C21 UNL     1     -20.365  28.047   9.620  1.00  0.00     0.042 C 
ENDBRANCH  25  27
ENDBRANCH  24  25
ENDBRANCH  23  24
ENDBRANCH  22  23
ENDBRANCH  21  22
ENDBRANCH   8  21
TORSDOF 12
ENDMDL
MODEL 4
REMARK VINA RESULT: -5.809021775      2.354      3.604
REMARK  12 active torsions:
REMARK  status: ('A' for Active; 'I' for Inactive)
REMARK    1  A    between atoms: C2_2  and  C3_3 
REMARK    2  A    between atoms: C3_3  and  N1_4 
REMARK    3  A    between atoms: N1_4  and  C4_5 
REMARK    4  A    between atoms: N1_4  and  C7_8 
REMARK    5  A    between atoms: C4_5  and  C5_6 
REMARK    6  A    between atoms: C7_8  and  C8_9 
REMARK    7  A    between atoms: C14_16  and  O2_17 
REMARK    8  A    between atoms: O2_17  and  C15_18 
REMARK    9  A    between atoms: C15_18  and  C16_19 
REMARK   10  A    between atoms: C16_19  and  C17_20 
REMARK   11  A    between atoms: C17_20  and  N2_21 
REMARK   12  A    between atoms: N2_21  and  C19_23 
ROOT
HETATM    1  C8  UNL     1     -14.413  24.509   5.589  1.00  0.00     0.072 A 
HETATM    2  C9  UNL     1     -15.717  23.973   5.582  1.00  0.00     0.175 A 
HETATM    3  O1  UNL     1     -16.559  24.943   5.814  1.00  0.00    -0.303 OA
HETATM    4  C10 UNL     1     -15.916  26.103   5.979  1.00  0.00     0.158 A 
HETATM    5  C11 UNL     1     -16.549  27.375   6.242  1.00  0.00     0.015 A 
HETATM    6  C12 UNL     1     -15.824  28.523   6.418  1.00  0.00     0.018 A 
HETATM    7  C13 UNL     1     -16.445  29.751   6.607  1.00  0.00     0.038 A 
HETATM    8  C14 UNL     1     -17.823  29.845   6.620  1.00  0.00     0.068 A 
HETATM    9  C22 UNL     1     -18.556  28.693   6.447  1.00  0.00     0.038 A 
HETATM   10  C23 UNL     1     -17.913  27.475   6.261  1.00  0.00     0.018 A 
HETATM   11  N3  UNL     1     -14.612  25.805   5.839  1.00  0.00    -0.333 N 
ATOM     12  H3  UNL     1     -13.860  26.491   5.914  1.00  0.00     0.168 HD
ENDROOT
BRANCH   1  13
HETATM   13  C7  UNL     1     -13.188  23.739   5.295  1.00  0.00     0.122 C 
BRANCH  13  14
HETATM   14  N1  UNL     1     -12.205  23.670   6.279  1.00  0.00    -0.361 N 
BRANCH  14  15
HETATM   15  C3  UNL     1     -12.549  23.226   7.545  1.00  0.00     0.090 C 
BRANCH  15  16
HETATM   16  C2  UNL     1     -12.045  21.871   7.878  1.00  0.00     0.007 C 
HETATM   17  C1  UNL     1     -11.620  21.481   9.083  1.00  0.00     0.012 C 
ENDBRANCH  15  16
ENDBRANCH  14  15
BRANCH  14  18
HETATM   18  C4  UNL     1     -11.049  24.473   6.115  1.00  0.00     0.154 C 
BRANCH  18  19
HETATM   19  C5  UNL     1     -10.996  25.561   7.143  1.00  0.00    -0.017 C 
HETATM   20  C6  UNL     1     -11.228  26.804   6.788  1.00  0.00     0.008 C 
ENDBRANCH  18  19
ENDBRANCH  14  18
ENDBRANCH  13  14
ENDBRANCH   1  13
BRANCH   8  21
HETATM   21  O2  UNL     1     -18.463  31.048   6.801  1.00  0.00    -0.351 OA
BRANCH  21  22
HETATM   22  C15 UNL     1     -19.810  31.092   7.219  1.00  0.00     0.177 C 
BRANCH  22  23
HETATM   23  C16 UNL     1     -19.888  31.631   8.633  1.00  0.00     0.057 C 
BRANCH  23  24
HETATM   24  C17 UNL     1     -20.637  30.658   9.501  1.00  0.00     0.274 C 
BRANCH  24  25
HETATM   25  N2  UNL     1     -21.003  31.277  10.776  1.00  0.00     0.088 N 
HETATM   26  C18 UNL     1     -19.985  32.306  11.078  1.00  0.00     0.310 C 
BRANCH  25  27
HETATM   27  C19 UNL     1     -21.022  30.298  11.832  1.00  0.00     0.214 C 
HETATM   28  C20 UNL     1     -20.807  28.902  11.356  1.00  0.00     0.042 C 
HETATM   29  C21 UNL     1     -19.956  30.634  12.856  1.00  0.00     0.042 C 
ENDBRANCH  25  27
ENDBRANCH  24  25
ENDBRANCH  23  24
ENDBRANCH  22  23
ENDBRANCH  21  22
ENDBRANCH   8  21
TORSDOF 12
ENDMDL
MODEL 5
REMARK VINA RESULT: -5.791805376      0.711      1.772
REMARK  12 active torsions:
REMARK  status: ('A' for Active; 'I' for Inactive)
REMARK    1  A    between atoms: C2_2  and  C3_3 
REMARK    2  A    between atoms: C3_3  and  N1_4 
REMARK    3  A    between atoms: N1_4  and  C4_5 
REMARK    4  A    between atoms: N1_4  and  C7_8 
REMARK    5  A    between atoms: C4_5  and  C5_6 
REMARK    6  A    between atoms: C7_8  and  C8_9 
REMARK    7  A    between atoms: C14_16  and  O2_17 
REMARK    8  A    between atoms: O2_17  and  C15_18 
REMARK    9  A    between atoms: C15_18  and  C16_19 
REMARK   10  A    between atoms: C16_19  and  C17_20 
REMARK   11  A    between atoms: C17_20  and  N2_21 
REMARK   12  A    between atoms: N2_21  and  C19_23 
ROOT
HETATM    1  C8  UNL     1     -12.140  26.108   5.942  1.00  0.00     0.072 A 
HETATM    2  C9  UNL     1     -11.638  27.405   6.172  1.00  0.00     0.175 A 
HETATM    3  O1  UNL     1     -12.651  28.220   6.296  1.00  0.00    -0.303 OA
HETATM    4  C10 UNL     1     -13.808  27.563   6.166  1.00  0.00     0.158 A 
HETATM    5  C11 UNL     1     -15.119  28.164   6.256  1.00  0.00     0.015 A 
HETATM    6  C12 UNL     1     -16.265  27.431   6.094  1.00  0.00     0.018 A 
HETATM    7  C13 UNL     1     -17.521  28.005   6.247  1.00  0.00     0.038 A 
HETATM    8  C14 UNL     1     -17.645  29.343   6.572  1.00  0.00     0.068 A 
HETATM    9  C22 UNL     1     -16.496  30.083   6.733  1.00  0.00     0.038 A 
HETATM   10  C23 UNL     1     -15.250  29.488   6.574  1.00  0.00     0.018 A 
HETATM   11  N3  UNL     1     -13.463  26.282   5.949  1.00  0.00    -0.333 N 
ATOM     12  H3  UNL     1     -14.135  25.528   5.805  1.00  0.00     0.168 HD
ENDROOT
BRANCH   1  13
HETATM   13  C7  UNL     1     -11.306  24.896   5.819  1.00  0.00     0.122 C 
BRANCH  13  14
HETATM   14  N1  UNL     1     -11.806  23.701   6.329  1.00  0.00    -0.361 N 
BRANCH  14  15
HETATM   15  C3  UNL     1     -11.658  23.431   7.680  1.00  0.00     0.090 C 
BRANCH  15  16
HETATM   16  C2  UNL     1     -12.021  22.048   8.072  1.00  0.00     0.007 C 
HETATM   17  C1  UNL     1     -11.645  21.443   9.203  1.00  0.00     0.012 C 
ENDBRANCH  15  16
ENDBRANCH  14  15
BRANCH  14  18
HETATM   18  C4  UNL     1     -12.004  22.628   5.424  1.00  0.00     0.154 C 
BRANCH  18  19
HETATM   19  C5  UNL     1     -13.225  22.847   4.585  1.00  0.00    -0.017 C 
HETATM   20  C6  UNL     1     -14.409  22.875   5.153  1.00  0.00     0.008 C 
ENDBRANCH  18  19
ENDBRANCH  14  18
ENDBRANCH  13  14
ENDBRANCH   1  13
BRANCH   8  21
HETATM   21  O2  UNL     1     -18.875  29.934   6.732  1.00  0.00    -0.351 OA
BRANCH  21  22
HETATM   22  C15 UNL     1     -20.020  29.152   6.998  1.00  0.00     0.177 C 
BRANCH  22  23
HETATM   23  C16 UNL     1     -20.411  29.299   8.454  1.00  0.00     0.057 C 
BRANCH  23  24
HETATM   24  C17 UNL     1     -20.796  27.955   9.008  1.00  0.00     0.274 C 
BRANCH  24  25
HETATM   25  N2  UNL     1     -19.892  26.914   8.518  1.00  0.00     0.088 N 
HETATM   26  C18 UNL     1     -20.686  25.678   8.350  1.00  0.00     0.310 C 
BRANCH  25  27
HETATM   27  C19 UNL     1     -18.829  26.675   9.460  1.00  0.00     0.214 C 
HETATM   28  C20 UNL     1     -19.309  26.409  10.846  1.00  0.00     0.042 C 
HETATM   29  C21 UNL     1     -17.995  25.497   8.998  1.00  0.00     0.042 C 
ENDBRANCH  25  27
ENDBRANCH  24  25
ENDBRANCH  23  24
ENDBRANCH  22  23
ENDBRANCH  21  22
ENDBRANCH   8  21
TORSDOF 12
ENDMDL
