MODEL 1
REMARK VINA RESULT: -5.930509224      0.000      0.000
REMARK  14 active torsions:
REMARK  status: ('A' for Active; 'I' for Inactive)
REMARK    1  A    between atoms: C2_2  and  C3_3 
REMARK    2  A    between atoms: C3_3  and  C4_4 
REMARK    3  A    between atoms: C4_4  and  O1_5 
REMARK    4  A    between atoms: O1_5  and  C5_6 
REMARK    5  A    between atoms: C5_6  and  C6_7 
REMARK    6  A    between atoms: C6_7  and  O2_10 
REMARK    7  A    between atoms: O2_10  and  C9_11 
REMARK    8  A    between atoms: C9_11  and  C10_12 
REMARK    9  A    between atoms: C12_14  and  C14_16 
REMARK   10  A    between atoms: C14_16  and  N1_17 
REMARK   11  A    between atoms: N1_17  and  C15_18 
REMARK   12  A    between atoms: N1_17  and  C20_23 
REMARK   13  A    between atoms: C15_18  and  C16_19 
REMARK   14  A    between atoms: C16_19  and  C17_20 
ROOT
HETATM    1  C10 UNL     1     -16.401  24.208   7.292  1.00  0.00     0.020 A 
HETATM    2  C11 UNL     1     -17.811  24.146   6.779  1.00  0.00     0.019 A 
HETATM    3  C12 UNL     1     -17.225  25.504   7.143  1.00  0.00    -0.022 A 
HETATM    4  C13 UNL     1     -17.646  26.080   8.479  1.00  0.00     0.017 C 
ENDROOT
BRANCH   3   5
HETATM    5  C14 UNL     1     -16.802  26.391   6.044  1.00  0.00     0.134 C 
BRANCH   5   6
HETATM    6  N1  UNL     1     -17.170  27.761   6.083  1.00  0.00    -0.365 N 
BRANCH   6   7
HETATM    7  C15 UNL     1     -18.594  28.056   6.012  1.00  0.00     0.125 C 
BRANCH   7   8
HETATM    8  C16 UNL     1     -19.257  27.579   4.763  1.00  0.00     0.024 C 
BRANCH   8   9
HETATM    9  C17 UNL     1     -20.384  26.616   5.022  1.00  0.00    -0.021 C 
HETATM   10  C18 UNL     1     -20.120  25.251   4.453  1.00  0.00     0.009 C 
HETATM   11  C19 UNL     1     -20.738  26.496   6.471  1.00  0.00     0.009 C 
ENDBRANCH   8   9
ENDBRANCH   7   8
ENDBRANCH   6   7
BRANCH   6  12
HETATM   12  C20 UNL     1     -16.315  28.863   6.224  1.00  0.00     0.118 A 
HETATM   13  C21 UNL     1     -15.028  28.699   6.650  1.00  0.00     0.136 A 
HETATM   14  N2  UNL     1     -14.175  29.761   6.786  1.00  0.00    -0.371 N 
HETATM   15  C22 UNL     1     -14.642  30.977   6.487  1.00  0.00     0.104 A 
ATOM     16  H2  UNL     1     -13.216  29.629   7.105  1.00  0.00     0.164 HD
HETATM   17  C23 UNL     1     -15.928  31.193   6.055  1.00  0.00     0.106 A 
HETATM   18  N3  UNL     1     -16.727  30.125   5.936  1.00  0.00    -0.350 N 
ATOM     19  H3  UNL     1     -17.686  30.265   5.616  1.00  0.00     0.166 HD
ENDBRANCH   6  12
ENDBRANCH   5   6
ENDBRANCH   3   5
BRANCH   1  20
HETATM   20  C9  UNL     1     -15.272  23.916   6.354  1.00  0.00     0.174 C 
BRANCH  20  21
HETATM   21  O2  UNL     1     -14.272  23.261   6.980  1.00  0.00    -0.378 OA
BRANCH  21  22
HETATM   22  C6  UNL     1     -13.474  22.384   6.379  1.00  0.00     0.075 C 
HETATM   23  C7  UNL     1     -13.658  21.904   5.013  1.00  0.00     0.048 C 
HETATM   24  C8  UNL     1     -13.343  21.092   7.261  1.00  0.00     0.048 C 
BRANCH  22  25
HETATM   25  C5  UNL     1     -12.037  22.971   6.445  1.00  0.00     0.204 C 
BRANCH  25  26
HETATM   26  O1  UNL     1     -11.719  23.543   5.233  1.00  0.00    -0.388 OA
BRANCH  26  27
HETATM   27  C4  UNL     1     -11.162  24.788   5.424  1.00  0.00     0.171 C 
BRANCH  27  28
HETATM   28  C3  UNL     1     -11.041  25.217   6.861  1.00  0.00     0.052 C 
BRANCH  28  29
HETATM   29  C2  UNL     1     -11.234  26.702   6.885  1.00  0.00    -0.035 C 
HETATM   30  C1  UNL     1     -11.260  27.419   5.776  1.00  0.00     0.007 C 
ENDBRANCH  28  29
ENDBRANCH  27  28
ENDBRANCH  26  27
ENDBRANCH  25  26
ENDBRANCH  22  25
ENDBRANCH  21  22
ENDBRANCH  20  21
ENDBRANCH   1  20
TORSDOF 14
ENDMDL
MODEL 2
REMARK VINA RESULT: -5.778945316      1.002      1.324
REMARK  14 active torsions:
REMARK  status: ('A' for Active; 'I' for Inactive)
REMARK    1  A    between atoms: C2_2  and  C3_3 
REMARK    2  A    between atoms: C3_3  and  C4_4 
REMARK    3  A    between atoms: C4_4  and  O1_5 
REMARK    4  A    between atoms: O1_5  and  C5_6 
REMARK    5  A    between atoms: C5_6  and  C6_7 
REMARK    6  A    between atoms: C6_7  and  O2_10 
REMARK    7  A    between atoms: O2_10  and  C9_11 
REMARK    8  A    between atoms: C9_11  and  C10_12 
REMARK    9  A    between atoms: C12_14  and  C14_16 
REMARK   10  A    between atoms: C14_16  and  N1_17 
REMARK   11  A    between atoms: N1_17  and  C15_18 
REMARK   12  A    between atoms: N1_17  and  C20_23 
REMARK   13  A    between atoms: C15_18  and  C16_19 
REMARK   14  A    between atoms: C16_19  and  C17_20 
ROOT
HETATM    1  C10 UNL     1     -16.170  24.705   6.872  1.00  0.00     0.020 A 
HETATM    2  C11 UNL     1     -17.557  24.193   6.609  1.00  0.00     0.019 A 
HETATM    3  C12 UNL     1     -17.370  25.675   6.912  1.00  0.00    -0.022 A 
HETATM    4  C13 UNL     1     -17.709  26.120   8.320  1.00  0.00     0.017 C 
ENDROOT
BRANCH   3   5
HETATM    5  C14 UNL     1     -17.443  26.625   5.787  1.00  0.00     0.134 C 
BRANCH   5   6
HETATM    6  N1  UNL     1     -17.591  28.009   6.062  1.00  0.00    -0.365 N 
BRANCH   6   7
HETATM    7  C15 UNL     1     -18.949  28.490   6.274  1.00  0.00     0.125 C 
BRANCH   7   8
HETATM    8  C16 UNL     1     -19.995  27.716   5.543  1.00  0.00     0.024 C 
BRANCH   8   9
HETATM    9  C17 UNL     1     -21.066  27.169   6.448  1.00  0.00    -0.021 C 
HETATM   10  C18 UNL     1     -20.989  25.676   6.597  1.00  0.00     0.009 C 
HETATM   11  C19 UNL     1     -21.081  27.810   7.800  1.00  0.00     0.009 C 
ENDBRANCH   8   9
ENDBRANCH   7   8
ENDBRANCH   6   7
BRANCH   6  12
HETATM   12  C20 UNL     1     -16.569  28.959   6.194  1.00  0.00     0.118 A 
HETATM   13  C21 UNL     1     -15.306  28.582   6.550  1.00  0.00     0.136 A 
HETATM   14  N2  UNL     1     -14.293  29.494   6.675  1.00  0.00    -0.371 N 
HETATM   15  C22 UNL     1     -14.576  30.777   6.437  1.00  0.00     0.104 A 
ATOM     16  H2  UNL     1     -13.352  29.203   6.942  1.00  0.00     0.164 HD
HETATM   17  C23 UNL     1     -15.831  31.206   6.077  1.00  0.00     0.106 A 
HETATM   18  N3  UNL     1     -16.792  30.280   5.965  1.00  0.00    -0.350 N 
ATOM     19  H3  UNL     1     -17.730  30.579   5.698  1.00  0.00     0.166 HD
ENDBRANCH   6  12
ENDBRANCH   5   6
ENDBRANCH   3   5
BRANCH   1  20
HETATM   20  C9  UNL     1     -15.188  24.760   5.743  1.00  0.00     0.174 C 
BRANCH  20  21
HETATM   21  O2  UNL     1     -15.156  23.594   5.066  1.00  0.00    -0.378 OA
BRANCH  21  22
HETATM   22  C6  UNL     1     -14.045  22.897   4.847  1.00  0.00     0.075 C 
HETATM   23  C7  UNL     1     -12.939  23.353   4.009  1.00  0.00     0.048 C 
HETATM   24  C8  UNL     1     -14.410  21.467   4.315  1.00  0.00     0.048 C 
BRANCH  22  25
HETATM   25  C5  UNL     1     -13.435  22.583   6.240  1.00  0.00     0.204 C 
BRANCH  25  26
HETATM   26  O1  UNL     1     -12.114  22.970   6.261  1.00  0.00    -0.388 OA
BRANCH  26  27
HETATM   27  C4  UNL     1     -11.838  23.664   7.418  1.00  0.00     0.171 C 
BRANCH  27  28
HETATM   28  C3  UNL     1     -10.839  24.780   7.268  1.00  0.00     0.052 C 
BRANCH  28  29
HETATM   29  C2  UNL     1     -11.513  25.858   6.475  1.00  0.00    -0.035 C 
HETATM   30  C1  UNL     1     -11.218  27.134   6.645  1.00  0.00     0.007 C 
ENDBRANCH  28  29
ENDBRANCH  27  28
ENDBRANCH  26  27
ENDBRANCH  25  26
ENDBRANCH  22  25
ENDBRANCH  21  22
ENDBRANCH  20  21
ENDBRANCH   1  20
TORSDOF 14
ENDMDL
MODEL 3
REMARK VINA RESULT: -5.744568320      1.249      1.991
REMARK  14 active torsions:
REMARK  status: ('A' for Active; 'I' for Inactive)
REMARK    1  A    between atoms: C2_2  and  C3_3 
REMARK    2  A    between atoms: C3_3  and  C4_4 
REMARK    3  A    between atoms: C4_4  and  O1_5 
REMARK    4  A    between atoms: O1_5  and  C5_6 
REMARK    5  A    between atoms: C5_6  and  C6_7 
REMARK    6  A    between atoms: C6_7  and  O2_10 
REMARK    7  A    between atoms: O2_10  and  C9_11 
REMARK    8  A    between atoms: C9_11  and  C10_12 
REMARK    9  A    between atoms: C12_14  and  C14_16 
REMARK   10  A    between atoms: C14_16  and  N1_17 
REMARK   11  A    between atoms: N1_17  and  C15_18 
REMARK   12  A    between atoms: N1_17  and  C20_23 
REMARK   13  A    between atoms: C15_18  and  C16_19 
REMARK   14  A    between atoms: C16_19  and  C17_20 
ROOT
HETATM    1  C10 UNL     1     -16.232  24.316   5.854  1.00  0.00     0.020 A 
HETATM    2  C11 UNL     1     -15.549  25.567   5.384  1.00  0.00     0.019 A 
HETATM    3  C12 UNL     1     -16.972  25.669   5.919  1.00  0.00    -0.022 A 
HETATM    4  C13 UNL     1     -18.072  25.778   4.883  1.00  0.00     0.017 C 
ENDROOT
BRANCH   3   5
HETATM    5  C14 UNL     1     -17.162  26.213   7.276  1.00  0.00     0.134 C 
BRANCH   5   6
HETATM    6  N1  UNL     1     -17.570  27.564   7.427  1.00  0.00    -0.365 N 
BRANCH   6   7
HETATM    7  C15 UNL     1     -18.775  27.797   8.211  1.00  0.00     0.125 C 
BRANCH   7   8
HETATM    8  C16 UNL     1     -19.578  26.569   8.483  1.00  0.00     0.024 C 
BRANCH   8   9
HETATM    9  C17 UNL     1     -20.857  26.510   7.692  1.00  0.00    -0.021 C 
HETATM   10  C18 UNL     1     -20.976  27.634   6.702  1.00  0.00     0.009 C 
HETATM   11  C19 UNL     1     -21.060  25.202   6.995  1.00  0.00     0.009 C 
ENDBRANCH   8   9
ENDBRANCH   7   8
ENDBRANCH   6   7
BRANCH   6  12
HETATM   12  C20 UNL     1     -16.918  28.704   6.938  1.00  0.00     0.118 A 
HETATM   13  C21 UNL     1     -17.627  29.728   6.379  1.00  0.00     0.136 A 
HETATM   14  N2  UNL     1     -17.009  30.854   5.904  1.00  0.00    -0.371 N 
HETATM   15  C22 UNL     1     -15.679  30.923   6.002  1.00  0.00     0.104 A 
ATOM     16  H2  UNL     1     -17.547  31.614   5.488  1.00  0.00     0.164 HD
HETATM   17  C23 UNL     1     -14.922  29.919   6.556  1.00  0.00     0.106 A 
HETATM   18  N3  UNL     1     -15.568  28.837   7.008  1.00  0.00    -0.350 N 
ATOM     19  H3  UNL     1     -15.023  28.081   7.424  1.00  0.00     0.166 HD
ENDBRANCH   6  12
ENDBRANCH   5   6
ENDBRANCH   3   5
BRANCH   1  20
HETATM   20  C9  UNL     1     -15.754  23.653   7.108  1.00  0.00     0.174 C 
BRANCH  20  21
HETATM   21  O2  UNL     1     -14.407  23.603   7.152  1.00  0.00    -0.378 OA
BRANCH  21  22
HETATM   22  C6  UNL     1     -13.715  22.482   7.333  1.00  0.00     0.075 C 
HETATM   23  C7  UNL     1     -14.244  21.141   7.102  1.00  0.00     0.048 C 
HETATM   24  C8  UNL     1     -13.121  22.452   8.785  1.00  0.00     0.048 C 
BRANCH  22  25
HETATM   25  C5  UNL     1     -12.436  22.602   6.459  1.00  0.00     0.204 C 
BRANCH  25  26
HETATM   26  O1  UNL     1     -12.511  23.742   5.690  1.00  0.00    -0.388 OA
BRANCH  26  27
HETATM   27  C4  UNL     1     -11.298  24.394   5.683  1.00  0.00     0.171 C 
BRANCH  27  28
HETATM   28  C3  UNL     1     -10.855  24.927   7.019  1.00  0.00     0.052 C 
BRANCH  28  29
HETATM   29  C2  UNL     1     -11.228  26.377   7.051  1.00  0.00    -0.035 C 
HETATM   30  C1  UNL     1     -11.304  27.100   5.949  1.00  0.00     0.007 C 
ENDBRANCH  28  29
ENDBRANCH  27  28
ENDBRANCH  26  27
ENDBRANCH  25  26
ENDBRANCH  22  25
ENDBRANCH  21  22
ENDBRANCH  20  21
ENDBRANCH   1  20
TORSDOF 14
ENDMDL
MODEL 4
REMARK VINA RESULT: -5.674814741      1.380      2.640
REMARK  14 active torsions:
REMARK  status: ('A' for Active; 'I' for Inactive)
REMARK    1  A    between atoms: C2_2  and  C3_3 
REMARK    2  A    between atoms: C3_3  and  C4_4 
REMARK    3  A    between atoms: C4_4  and  O1_5 
REMARK    4  A    between atoms: O1_5  and  C5_6 
REMARK    5  A    between atoms: C5_6  and  C6_7 
REMARK    6  A    between atoms: C6_7  and  O2_10 
REMARK    7  A    between atoms: O2_10  and  C9_11 
REMARK    8  A    between atoms: C9_11  and  C10_12 
REMARK    9  A    between atoms: C12_14  and  C14_16 
REMARK   10  A    between atoms: C14_16  and  N1_17 
REMARK   11  A    between atoms: N1_17  and  C15_18 
REMARK   12  A    between atoms: N1_17  and  C20_23 
REMARK   13  A    between atoms: C15_18  and  C16_19 
REMARK   14  A    between atoms: C16_19  and  C17_20 
ROOT
HETATM    1  C10 UNL     1     -15.671  24.081   6.589  1.00  0.00     0.020 A 
HETATM    2  C11 UNL     1     -17.056  23.633   6.221  1.00  0.00     0.019 A 
HETATM    3  C12 UNL     1     -16.842  25.085   6.630  1.00  0.00    -0.022 A 
HETATM    4  C13 UNL     1     -17.244  25.450   8.045  1.00  0.00     0.017 C 
ENDROOT
BRANCH   3   5
HETATM    5  C14 UNL     1     -16.826  26.107   5.568  1.00  0.00     0.134 C 
BRANCH   5   6
HETATM    6  N1  UNL     1     -17.197  27.440   5.888  1.00  0.00    -0.365 N 
BRANCH   6   7
HETATM    7  C15 UNL     1     -18.621  27.699   6.047  1.00  0.00     0.125 C 
BRANCH   7   8
HETATM    8  C16 UNL     1     -19.448  27.339   4.859  1.00  0.00     0.024 C 
BRANCH   8   9
HETATM    9  C17 UNL     1     -20.431  26.233   5.135  1.00  0.00    -0.021 C 
HETATM   10  C18 UNL     1     -20.077  24.955   4.430  1.00  0.00     0.009 C 
HETATM   11  C19 UNL     1     -20.624  25.966   6.595  1.00  0.00     0.009 C 
ENDBRANCH   8   9
ENDBRANCH   7   8
ENDBRANCH   6   7
BRANCH   6  12
HETATM   12  C20 UNL     1     -16.340  28.527   6.107  1.00  0.00     0.118 A 
HETATM   13  C21 UNL     1     -15.033  28.328   6.450  1.00  0.00     0.136 A 
HETATM   14  N2  UNL     1     -14.178  29.377   6.660  1.00  0.00    -0.371 N 
HETATM   15  C22 UNL     1     -14.663  30.613   6.519  1.00  0.00     0.104 A 
ATOM     16  H2  UNL     1     -13.204  29.219   6.916  1.00  0.00     0.164 HD
HETATM   17  C23 UNL     1     -15.970  30.864   6.176  1.00  0.00     0.106 A 
HETATM   18  N3  UNL     1     -16.770  29.809   5.979  1.00  0.00    -0.350 N 
ATOM     19  H3  UNL     1     -17.743  29.975   5.723  1.00  0.00     0.166 HD
ENDBRANCH   6  12
ENDBRANCH   5   6
ENDBRANCH   3   5
BRANCH   1  20
HETATM   20  C9  UNL     1     -14.629  24.175   5.520  1.00  0.00     0.174 C 
BRANCH  20  21
HETATM   21  O2  UNL     1     -13.502  24.754   5.984  1.00  0.00    -0.378 OA
BRANCH  21  22
HETATM   22  C6  UNL     1     -12.281  24.273   5.766  1.00  0.00     0.075 C 
HETATM   23  C7  UNL     1     -11.155  25.072   5.293  1.00  0.00     0.048 C 
HETATM   24  C8  UNL     1     -12.359  23.044   4.793  1.00  0.00     0.048 C 
BRANCH  22  25
HETATM   25  C5  UNL     1     -11.820  23.612   7.093  1.00  0.00     0.204 C 
BRANCH  25  26
HETATM   26  O1  UNL     1     -12.120  22.268   7.065  1.00  0.00    -0.388 OA
BRANCH  26  27
HETATM   27  C4  UNL     1     -12.334  21.800   8.342  1.00  0.00     0.171 C 
BRANCH  27  28
HETATM   28  C3  UNL     1     -13.389  22.538   9.122  1.00  0.00     0.052 C 
BRANCH  28  29
HETATM   29  C2  UNL     1     -13.424  21.925  10.488  1.00  0.00    -0.035 C 
HETATM   30  C1  UNL     1     -12.553  21.005  10.860  1.00  0.00     0.007 C 
ENDBRANCH  28  29
ENDBRANCH  27  28
ENDBRANCH  26  27
ENDBRANCH  25  26
ENDBRANCH  22  25
ENDBRANCH  21  22
ENDBRANCH  20  21
ENDBRANCH   1  20
TORSDOF 14
ENDMDL
MODEL 5
REMARK VINA RESULT: -5.527826858      5.672      8.413
REMARK  14 active torsions:
REMARK  status: ('A' for Active; 'I' for Inactive)
REMARK    1  A    between atoms: C2_2  and  C3_3 
REMARK    2  A    between atoms: C3_3  and  C4_4 
REMARK    3  A    between atoms: C4_4  and  O1_5 
REMARK    4  A    between atoms: O1_5  and  C5_6 
REMARK    5  A    between atoms: C5_6  and  C6_7 
REMARK    6  A    between atoms: C6_7  and  O2_10 
REMARK    7  A    between atoms: O2_10  and  C9_11 
REMARK    8  A    between atoms: C9_11  and  C10_12 
REMARK    9  A    between atoms: C12_14  and  C14_16 
REMARK   10  A    between atoms: C14_16  and  N1_17 
REMARK   11  A    between atoms: N1_17  and  C15_18 
REMARK   12  A    between atoms: N1_17  and  C20_23 
REMARK   13  A    between atoms: C15_18  and  C16_19 
REMARK   14  A    between atoms: C16_19  and  C17_20 
ROOT
HETATM    1  C10 UNL     1     -12.118  21.280   7.969  1.00  0.00     0.020 A 
HETATM    2  C11 UNL     1     -11.633  21.410   9.385  1.00  0.00     0.019 A 
HETATM    3  C12 UNL     1     -13.134  21.379   9.128  1.00  0.00    -0.022 A 
HETATM    4  C13 UNL     1     -13.849  22.715   9.159  1.00  0.00     0.017 C 
ENDROOT
BRANCH   3   5
HETATM    5  C14 UNL     1     -13.861  20.132   9.429  1.00  0.00     0.134 C 
BRANCH   5   6
HETATM    6  N1  UNL     1     -13.943  19.690  10.775  1.00  0.00    -0.365 N 
BRANCH   6   7
HETATM    7  C15 UNL     1     -14.963  20.314  11.605  1.00  0.00     0.125 C 
BRANCH   7   8
HETATM    8  C16 UNL     1     -16.283  20.487  10.930  1.00  0.00     0.024 C 
BRANCH   8   9
HETATM    9  C17 UNL     1     -17.187  21.460  11.638  1.00  0.00    -0.021 C 
HETATM   10  C18 UNL     1     -17.194  22.816  10.994  1.00  0.00     0.009 C 
HETATM   11  C19 UNL     1     -18.592  20.963  11.780  1.00  0.00     0.009 C 
ENDBRANCH   8   9
ENDBRANCH   7   8
ENDBRANCH   6   7
BRANCH   6  12
HETATM   12  C20 UNL     1     -13.176  18.687  11.384  1.00  0.00     0.118 A 
HETATM   13  C21 UNL     1     -12.823  18.779  12.700  1.00  0.00     0.136 A 
HETATM   14  N2  UNL     1     -12.082  17.806  13.314  1.00  0.00    -0.371 N 
HETATM   15  C22 UNL     1     -11.708  16.752  12.583  1.00  0.00     0.104 A 
ATOM     16  H2  UNL     1     -11.823  17.883  14.298  1.00  0.00     0.164 HD
HETATM   17  C23 UNL     1     -12.037  16.615  11.256  1.00  0.00     0.106 A 
HETATM   18  N3  UNL     1     -12.764  17.590  10.696  1.00  0.00    -0.350 N 
ATOM     19  H3  UNL     1     -13.019  17.505   9.712  1.00  0.00     0.166 HD
ENDBRANCH   6  12
ENDBRANCH   5   6
ENDBRANCH   3   5
BRANCH   1  20
HETATM   20  C9  UNL     1     -11.916  19.985   7.247  1.00  0.00     0.174 C 
BRANCH  20  21
HETATM   21  O2  UNL     1     -11.578  20.192   5.958  1.00  0.00    -0.378 OA
BRANCH  21  22
HETATM   22  C6  UNL     1     -12.461  20.276   4.967  1.00  0.00     0.075 C 
HETATM   23  C7  UNL     1     -13.856  19.857   5.070  1.00  0.00     0.048 C 
HETATM   24  C8  UNL     1     -11.900  19.553   3.692  1.00  0.00     0.048 C 
BRANCH  22  25
HETATM   25  C5  UNL     1     -12.484  21.763   4.517  1.00  0.00     0.204 C 
BRANCH  25  26
HETATM   26  O1  UNL     1     -13.640  22.360   4.967  1.00  0.00    -0.388 OA
BRANCH  26  27
HETATM   27  C4  UNL     1     -13.389  23.659   5.350  1.00  0.00     0.171 C 
BRANCH  27  28
HETATM   28  C3  UNL     1     -11.933  24.035   5.406  1.00  0.00     0.052 C 
BRANCH  28  29
HETATM   29  C2  UNL     1     -11.732  24.797   6.680  1.00  0.00    -0.035 C 
HETATM   30  C1  UNL     1     -10.661  24.625   7.433  1.00  0.00     0.007 C 
ENDBRANCH  28  29
ENDBRANCH  27  28
ENDBRANCH  26  27
ENDBRANCH  25  26
ENDBRANCH  22  25
ENDBRANCH  21  22
ENDBRANCH  20  21
ENDBRANCH   1  20
TORSDOF 14
ENDMDL
