MODEL 1
REMARK VINA RESULT: -9.996695323      0.000      0.000
REMARK  19 active torsions:
REMARK  status: ('A' for Active; 'I' for Inactive)
REMARK    1  A    between atoms: N1_1  and  C1_4 
REMARK    2  A    between atoms: N5_15  and  C6_16 
REMARK    3  A    between atoms: C8_19  and  O2_20 
REMARK    4  A    between atoms: O2_20  and  C9_21 
REMARK    5  A    between atoms: C9_21  and  C10_22 
REMARK    6  A    between atoms: C9_21  and  C17_47 
REMARK    7  A    between atoms: C10_22  and  O3_23 
REMARK    8  A    between atoms: C10_22  and  C11_25 
REMARK    9  A    between atoms: C11_25  and  O4_26 
REMARK   10  A    between atoms: N6_28  and  C12_30 
REMARK   11  A    between atoms: C15_34  and  S1_35 
REMARK   12  A    between atoms: S1_35  and  N8_36 
REMARK   13  A    between atoms: N9_43  and  N10_44 
REMARK   14  A    between atoms: C17_47  and  O8_48 
REMARK   15  A    between atoms: C17_47  and  C18_50 
REMARK   16  A    between atoms: C18_50  and  O9_51 
REMARK   17  A    between atoms: C18_50  and  C19_53 
REMARK   18  A    between atoms: C19_53  and  O10_54 
REMARK   19  A    between atoms: C20_56  and  O11_57 
ROOT
HETATM    1  C9  UNL     1     -38.011   1.507   9.299  1.00  0.00     0.190 C 
ENDROOT
BRANCH   1   2
HETATM    2  O2  UNL     1     -39.180   2.252   9.159  1.00  0.00    -0.370 OA
BRANCH   2   3
HETATM    3  C8  UNL     1     -39.227   3.481   9.696  1.00  0.00     0.179 C 
HETATM    4  C7  UNL     1     -37.892   3.975  10.245  1.00  0.00     0.205 C 
HETATM    5  O1  UNL     1     -38.185   5.349  10.424  1.00  0.00    -0.361 OA
HETATM    6  C6  UNL     1     -38.534   5.667   9.113  1.00  0.00     0.261 C 
HETATM    7  C20 UNL     1     -39.553   4.583   8.734  1.00  0.00     0.198 C 
BRANCH   6   8
HETATM    8  N5  UNL     1     -39.174   6.949   8.970  1.00  0.00    -0.297 N 
HETATM    9  C2  UNL     1     -39.109   7.954   9.870  1.00  0.00     0.154 A 
HETATM   10  N2  UNL     1     -38.506   8.085  11.055  1.00  0.00    -0.174 N 
HETATM   11  C3  UNL     1     -39.835   9.020   9.389  1.00  0.00     0.094 A 
HETATM   12  C1  UNL     1     -38.596   9.216  11.770  1.00  0.00     0.677 A 
ATOM     13  H2  UNL     1     -37.963   7.305  11.426  1.00  0.00     0.186 HD
HETATM   14  N3  UNL     1     -39.311  10.240  11.278  1.00  0.00    -0.200 N 
HETATM   15  C4  UNL     1     -39.950  10.204  10.100  1.00  0.00     0.139 A 
ATOM     16  H3  UNL     1     -39.371  11.094  11.833  1.00  0.00     0.183 HD
HETATM   17  N4  UNL     1     -40.333   8.648   8.201  1.00  0.00    -0.348 N 
HETATM   18  C5  UNL     1     -39.923   7.393   7.963  1.00  0.00     0.188 A 
ATOM     19  H4  UNL     1     -40.919   9.216   7.589  1.00  0.00     0.167 HD
BRANCH  12  20
HETATM   20  N1  UNL     1     -38.011   9.344  12.925  1.00  0.00    -0.234 N 
ATOM     21  H12 UNL     1     -38.371  10.024  13.595  1.00  0.00     0.174 HD
ATOM     22  H11 UNL     1     -37.201   8.779  13.181  1.00  0.00     0.174 HD
ENDBRANCH  12  20
ENDBRANCH   6   8
BRANCH   7  23
HETATM   23  O11 UNL     1     -39.229   4.249   7.415  1.00  0.00    -0.388 OA
ATOM     24  H11 UNL     1     -39.438   3.324   7.349  1.00  0.00     0.210 HD
ENDBRANCH   7  23
ENDBRANCH   2   3
ENDBRANCH   1   2
BRANCH   1  25
HETATM   25  C10 UNL     1     -38.458   0.184   9.967  1.00  0.00     0.224 C 
BRANCH  25  26
HETATM   26  O3  UNL     1     -37.474  -0.205  10.887  1.00  0.00    -0.385 OA
ATOM     27  H3  UNL     1     -36.693  -0.454  10.406  1.00  0.00     0.210 HD
ENDBRANCH  25  26
BRANCH  25  28
HETATM   28  C11 UNL     1     -39.646   0.409  10.769  1.00  0.00     0.149 C 
HETATM   29  N6  UNL     1     -39.853   0.855  12.032  1.00  0.00    -0.323 N 
ATOM     30  H6  UNL     1     -40.817   0.678  12.315  1.00  0.00     0.169 HD
BRANCH  28  31
HETATM   31  O4  UNL     1     -40.740   0.097  10.093  1.00  0.00    -0.347 OA
ATOM     32  H4  UNL     1     -41.414  -0.239  10.673  1.00  0.00     0.219 HD
ENDBRANCH  28  31
BRANCH  29  33
HETATM   33  C12 UNL     1     -39.154   1.481  13.065  1.00  0.00     0.133 A 
HETATM   34  C13 UNL     1     -39.285   2.890  13.163  1.00  0.00     0.079 A 
HETATM   35  C14 UNL     1     -38.606   3.656  14.060  1.00  0.00     0.079 A 
HETATM   36  N7  UNL     1     -38.786   5.063  14.099  1.00  0.00    -0.101 NA
HETATM   37  C15 UNL     1     -37.746   3.030  14.916  1.00  0.00     0.173 A 
HETATM   38  C16 UNL     1     -37.595   1.674  14.846  1.00  0.00     0.293 A 
HETATM   39  O7  UNL     1     -36.814   1.081  15.618  1.00  0.00    -0.264 OA
HETATM   40  N9  UNL     1     -38.303   0.944  13.919  1.00  0.00    -0.209 N 
BRANCH  37  41
HETATM   41  S1  UNL     1     -36.851   3.976  16.093  1.00  0.00     0.264 S 
HETATM   42  O5  UNL     1     -36.700   3.198  17.366  1.00  0.00    -0.200 OA
HETATM   43  O6  UNL     1     -35.463   4.234  15.563  1.00  0.00    -0.200 OA
BRANCH  41  44
HETATM   44  N8  UNL     1     -37.623   5.477  16.398  1.00  0.00    -0.324 N 
ATOM     45  H82 UNL     1     -37.983   6.085  15.663  1.00  0.00     0.169 HD
ATOM     46  H81 UNL     1     -37.671   5.671  17.399  1.00  0.00     0.169 HD
ENDBRANCH  41  44
ENDBRANCH  37  41
BRANCH  40  47
HETATM   47  N10 UNL     1     -37.983  -0.407  13.868  1.00  0.00    -0.334 N 
ATOM     48 2H10 UNL     1     -38.707  -1.035  14.217  1.00  0.00     0.177 HD
ATOM     49 1H10 UNL     1     -37.059  -0.724  13.573  1.00  0.00     0.177 HD
ENDBRANCH  40  47
ENDBRANCH  29  33
ENDBRANCH  25  28
ENDBRANCH   1  25
BRANCH   1  50
HETATM   50  C17 UNL     1     -37.462   1.351   7.927  1.00  0.00     0.180 C 
BRANCH  50  51
HETATM   51  O8  UNL     1     -38.150   0.580   7.037  1.00  0.00    -0.390 OA
ATOM     52  H8  UNL     1     -39.059   0.375   7.223  1.00  0.00     0.210 HD
ENDBRANCH  50  51
BRANCH  50  53
HETATM   53  C18 UNL     1     -35.976   1.333   7.736  1.00  0.00     0.173 C 
BRANCH  53  54
HETATM   54  O9  UNL     1     -35.432   0.688   8.920  1.00  0.00    -0.391 OA
ATOM     55  H9  UNL     1     -34.584   0.346   8.663  1.00  0.00     0.210 HD
ENDBRANCH  53  54
BRANCH  53  56
HETATM   56  C19 UNL     1     -35.305   2.690   7.786  1.00  0.00     0.198 C 
BRANCH  56  57
HETATM   57  O10 UNL     1     -36.106   3.710   7.331  1.00  0.00    -0.398 OA
ATOM     58  H10 UNL     1     -35.643   4.338   6.789  1.00  0.00     0.209 HD
ENDBRANCH  56  57
ENDBRANCH  53  56
ENDBRANCH  50  53
ENDBRANCH   1  50
TORSDOF 19
ENDMDL
MODEL 2
REMARK VINA RESULT: -9.933614115      1.246      1.811
REMARK  19 active torsions:
REMARK  status: ('A' for Active; 'I' for Inactive)
REMARK    1  A    between atoms: N1_1  and  C1_4 
REMARK    2  A    between atoms: N5_15  and  C6_16 
REMARK    3  A    between atoms: C8_19  and  O2_20 
REMARK    4  A    between atoms: O2_20  and  C9_21 
REMARK    5  A    between atoms: C9_21  and  C10_22 
REMARK    6  A    between atoms: C9_21  and  C17_47 
REMARK    7  A    between atoms: C10_22  and  O3_23 
REMARK    8  A    between atoms: C10_22  and  C11_25 
REMARK    9  A    between atoms: C11_25  and  O4_26 
REMARK   10  A    between atoms: N6_28  and  C12_30 
REMARK   11  A    between atoms: C15_34  and  S1_35 
REMARK   12  A    between atoms: S1_35  and  N8_36 
REMARK   13  A    between atoms: N9_43  and  N10_44 
REMARK   14  A    between atoms: C17_47  and  O8_48 
REMARK   15  A    between atoms: C17_47  and  C18_50 
REMARK   16  A    between atoms: C18_50  and  O9_51 
REMARK   17  A    between atoms: C18_50  and  C19_53 
REMARK   18  A    between atoms: C19_53  and  O10_54 
REMARK   19  A    between atoms: C20_56  and  O11_57 
ROOT
HETATM    1  C9  UNL     1     -38.831   0.844  10.039  1.00  0.00     0.190 C 
ENDROOT
BRANCH   1   2
HETATM    2  O2  UNL     1     -39.532   1.863   9.394  1.00  0.00    -0.370 OA
BRANCH   2   3
HETATM    3  C8  UNL     1     -39.327   3.130   9.784  1.00  0.00     0.179 C 
HETATM    4  C7  UNL     1     -37.866   3.566   9.747  1.00  0.00     0.205 C 
HETATM    5  O1  UNL     1     -38.017   4.969   9.883  1.00  0.00    -0.361 OA
HETATM    6  C6  UNL     1     -38.819   5.206   8.769  1.00  0.00     0.261 C 
HETATM    7  C20 UNL     1     -39.947   4.174   8.905  1.00  0.00     0.198 C 
BRANCH   6   8
HETATM    8  N5  UNL     1     -39.417   6.517   8.745  1.00  0.00    -0.297 N 
HETATM    9  C2  UNL     1     -39.490   7.356   9.800  1.00  0.00     0.154 A 
HETATM   10  N2  UNL     1     -39.086   7.268  11.071  1.00  0.00    -0.174 N 
HETATM   11  C3  UNL     1     -40.119   8.512   9.397  1.00  0.00     0.094 A 
HETATM   12  C1  UNL     1     -39.281   8.268  11.943  1.00  0.00     0.677 A 
ATOM     13  H2  UNL     1     -38.618   6.419  11.387  1.00  0.00     0.186 HD
HETATM   14  N3  UNL     1     -39.898   9.384  11.524  1.00  0.00    -0.200 N 
HETATM   15  C4  UNL     1     -40.339   9.566  10.271  1.00  0.00     0.139 A 
ATOM     16  H3  UNL     1     -40.040  10.137  12.199  1.00  0.00     0.183 HD
HETATM   17  N4  UNL     1     -40.422   8.360   8.100  1.00  0.00    -0.348 N 
HETATM   18  C5  UNL     1     -39.989   7.148   7.722  1.00  0.00     0.188 A 
ATOM     19  H4  UNL     1     -40.896   9.042   7.508  1.00  0.00     0.167 HD
BRANCH  12  20
HETATM   20  N1  UNL     1     -38.890   8.182  13.181  1.00  0.00    -0.234 N 
ATOM     21  H12 UNL     1     -39.235   7.417  13.762  1.00  0.00     0.174 HD
ATOM     22  H11 UNL     1     -38.245   8.859  13.588  1.00  0.00     0.174 HD
ENDBRANCH  12  20
ENDBRANCH   6   8
BRANCH   7  23
HETATM   23  O11 UNL     1     -40.156   3.714   7.601  1.00  0.00    -0.388 OA
ATOM     24  H11 UNL     1     -40.436   4.485   7.121  1.00  0.00     0.210 HD
ENDBRANCH   7  23
ENDBRANCH   2   3
ENDBRANCH   1   2
BRANCH   1  25
HETATM   25  C10 UNL     1     -39.862   0.190  10.991  1.00  0.00     0.224 C 
BRANCH  25  26
HETATM   26  O3  UNL     1     -40.539  -0.817  10.290  1.00  0.00    -0.385 OA
ATOM     27  H3  UNL     1     -41.464  -0.601  10.270  1.00  0.00     0.210 HD
ENDBRANCH  25  26
BRANCH  25  28
HETATM   28  C11 UNL     1     -39.175  -0.503  12.065  1.00  0.00     0.149 C 
HETATM   29  N6  UNL     1     -38.519  -0.091  13.176  1.00  0.00    -0.323 N 
ATOM     30  H6  UNL     1     -37.987  -0.863  13.579  1.00  0.00     0.169 HD
BRANCH  28  31
HETATM   31  O4  UNL     1     -39.214  -1.814  11.884  1.00  0.00    -0.347 OA
ATOM     32  H4  UNL     1     -39.717  -2.237  12.569  1.00  0.00     0.219 HD
ENDBRANCH  28  31
BRANCH  29  33
HETATM   33  C12 UNL     1     -38.346   1.064  13.941  1.00  0.00     0.133 A 
HETATM   34  C13 UNL     1     -38.715   2.293  13.335  1.00  0.00     0.079 A 
HETATM   35  C14 UNL     1     -38.532   3.510  13.915  1.00  0.00     0.079 A 
HETATM   36  N7  UNL     1     -38.925   4.700  13.248  1.00  0.00    -0.101 NA
HETATM   37  C15 UNL     1     -37.957   3.551  15.153  1.00  0.00     0.173 A 
HETATM   38  C16 UNL     1     -37.588   2.386  15.762  1.00  0.00     0.293 A 
HETATM   39  O7  UNL     1     -37.061   2.399  16.893  1.00  0.00    -0.264 OA
HETATM   40  N9  UNL     1     -37.792   1.179  15.133  1.00  0.00    -0.209 N 
BRANCH  37  41
HETATM   41  S1  UNL     1     -37.705   5.099  15.941  1.00  0.00     0.264 S 
HETATM   42  O5  UNL     1     -37.964   6.214  14.972  1.00  0.00    -0.200 OA
HETATM   43  O6  UNL     1     -38.701   5.247  17.064  1.00  0.00    -0.200 OA
BRANCH  41  44
HETATM   44  N8  UNL     1     -36.118   5.218  16.580  1.00  0.00    -0.324 N 
ATOM     45  H82 UNL     1     -35.735   4.565  17.264  1.00  0.00     0.169 HD
ATOM     46  H81 UNL     1     -35.621   6.019  16.188  1.00  0.00     0.169 HD
ENDBRANCH  41  44
ENDBRANCH  37  41
BRANCH  40  47
HETATM   47  N10 UNL     1     -37.275   0.075  15.800  1.00  0.00    -0.334 N 
ATOM     48 2H10 UNL     1     -37.306  -0.799  15.276  1.00  0.00     0.177 HD
ATOM     49 1H10 UNL     1     -36.963   0.138  16.770  1.00  0.00     0.177 HD
ENDBRANCH  40  47
ENDBRANCH  29  33
ENDBRANCH  25  28
ENDBRANCH   1  25
BRANCH   1  50
HETATM   50  C17 UNL     1     -38.333  -0.049   8.961  1.00  0.00     0.180 C 
BRANCH  50  51
HETATM   51  O8  UNL     1     -37.748  -1.229   9.315  1.00  0.00    -0.390 OA
ATOM     52  H8  UNL     1     -38.033  -2.024   8.878  1.00  0.00     0.210 HD
ENDBRANCH  50  51
BRANCH  50  53
HETATM   53  C18 UNL     1     -37.776   0.561   7.711  1.00  0.00     0.173 C 
BRANCH  53  54
HETATM   54  O9  UNL     1     -38.137  -0.345   6.633  1.00  0.00    -0.391 OA
ATOM     55  H9  UNL     1     -37.620  -1.131   6.770  1.00  0.00     0.210 HD
ENDBRANCH  53  54
BRANCH  53  56
HETATM   56  C19 UNL     1     -36.264   0.567   7.617  1.00  0.00     0.198 C 
BRANCH  56  57
HETATM   57  O10 UNL     1     -35.644   0.699   8.836  1.00  0.00    -0.398 OA
ATOM     58  H10 UNL     1     -36.070   1.325   9.410  1.00  0.00     0.209 HD
ENDBRANCH  56  57
ENDBRANCH  53  56
ENDBRANCH  50  53
ENDBRANCH   1  50
TORSDOF 19
ENDMDL
MODEL 3
REMARK VINA RESULT: -9.899803545      3.608      6.494
REMARK  19 active torsions:
REMARK  status: ('A' for Active; 'I' for Inactive)
REMARK    1  A    between atoms: N1_1  and  C1_4 
REMARK    2  A    between atoms: N5_15  and  C6_16 
REMARK    3  A    between atoms: C8_19  and  O2_20 
REMARK    4  A    between atoms: O2_20  and  C9_21 
REMARK    5  A    between atoms: C9_21  and  C10_22 
REMARK    6  A    between atoms: C9_21  and  C17_47 
REMARK    7  A    between atoms: C10_22  and  O3_23 
REMARK    8  A    between atoms: C10_22  and  C11_25 
REMARK    9  A    between atoms: C11_25  and  O4_26 
REMARK   10  A    between atoms: N6_28  and  C12_30 
REMARK   11  A    between atoms: C15_34  and  S1_35 
REMARK   12  A    between atoms: S1_35  and  N8_36 
REMARK   13  A    between atoms: N9_43  and  N10_44 
REMARK   14  A    between atoms: C17_47  and  O8_48 
REMARK   15  A    between atoms: C17_47  and  C18_50 
REMARK   16  A    between atoms: C18_50  and  O9_51 
REMARK   17  A    between atoms: C18_50  and  C19_53 
REMARK   18  A    between atoms: C19_53  and  O10_54 
REMARK   19  A    between atoms: C20_56  and  O11_57 
ROOT
HETATM    1  C9  UNL     1     -36.772   3.581  14.979  1.00  0.00     0.190 C 
ENDROOT
BRANCH   1   2
HETATM    2  O2  UNL     1     -37.873   4.282  14.489  1.00  0.00    -0.370 OA
BRANCH   2   3
HETATM    3  C8  UNL     1     -37.757   4.924  13.318  1.00  0.00     0.179 C 
HETATM    4  C7  UNL     1     -38.418   4.208  12.144  1.00  0.00     0.205 C 
HETATM    5  O1  UNL     1     -38.410   5.244  11.178  1.00  0.00    -0.361 OA
HETATM    6  C6  UNL     1     -39.140   6.198  11.881  1.00  0.00     0.261 C 
HETATM    7  C20 UNL     1     -38.445   6.254  13.249  1.00  0.00     0.198 C 
BRANCH   6   8
HETATM    8  N5  UNL     1     -39.092   7.518  11.305  1.00  0.00    -0.297 N 
HETATM    9  C2  UNL     1     -39.518   7.838  10.064  1.00  0.00     0.154 A 
HETATM   10  N2  UNL     1     -40.059   7.128   9.068  1.00  0.00    -0.174 N 
HETATM   11  C3  UNL     1     -39.321   9.185   9.867  1.00  0.00     0.094 A 
HETATM   12  C1  UNL     1     -40.405   7.697   7.905  1.00  0.00     0.677 A 
ATOM     13  H2  UNL     1     -40.213   6.128   9.197  1.00  0.00     0.186 HD
HETATM   14  N3  UNL     1     -40.201   9.013   7.740  1.00  0.00    -0.200 N 
HETATM   15  C4  UNL     1     -39.665   9.808   8.677  1.00  0.00     0.139 A 
ATOM     16  H3  UNL     1     -40.469   9.433   6.849  1.00  0.00     0.183 HD
HETATM   17  N4  UNL     1     -38.775   9.668  10.993  1.00  0.00    -0.348 N 
HETATM   18  C5  UNL     1     -38.645   8.645  11.852  1.00  0.00     0.188 A 
ATOM     19  H4  UNL     1     -38.508  10.637  11.166  1.00  0.00     0.167 HD
BRANCH  12  20
HETATM   20  N1  UNL     1     -40.930   7.007   6.935  1.00  0.00    -0.234 N 
ATOM     21  H12 UNL     1     -41.547   6.224   7.156  1.00  0.00     0.174 HD
ATOM     22  H11 UNL     1     -40.743   7.228   5.957  1.00  0.00     0.174 HD
ENDBRANCH  12  20
ENDBRANCH   6   8
BRANCH   7  23
HETATM   23  O11 UNL     1     -39.495   6.355  14.168  1.00  0.00    -0.388 OA
ATOM     24  H11 UNL     1     -39.758   7.267  14.125  1.00  0.00     0.210 HD
ENDBRANCH   7  23
ENDBRANCH   2   3
ENDBRANCH   1   2
BRANCH   1  25
HETATM   25  C10 UNL     1     -36.522   4.164  16.391  1.00  0.00     0.224 C 
BRANCH  25  26
HETATM   26  O3  UNL     1     -35.227   4.697  16.430  1.00  0.00    -0.385 OA
ATOM     27  H3  UNL     1     -34.806   4.410  17.232  1.00  0.00     0.210 HD
ENDBRANCH  25  26
BRANCH  25  28
HETATM   28  C11 UNL     1     -37.397   5.298  16.621  1.00  0.00     0.149 C 
HETATM   29  N6  UNL     1     -37.197   6.638  16.679  1.00  0.00    -0.323 N 
ATOM     30  H6  UNL     1     -38.019   7.100  17.071  1.00  0.00     0.169 HD
BRANCH  28  31
HETATM   31  O4  UNL     1     -38.645   4.903  16.818  1.00  0.00    -0.347 OA
ATOM     32  H4  UNL     1     -39.256   5.611  16.649  1.00  0.00     0.219 HD
ENDBRANCH  28  31
BRANCH  29  33
HETATM   33  C12 UNL     1     -36.216   7.580  16.369  1.00  0.00     0.133 A 
HETATM   34  C13 UNL     1     -35.928   7.774  14.994  1.00  0.00     0.079 A 
HETATM   35  C14 UNL     1     -34.944   8.592  14.532  1.00  0.00     0.079 A 
HETATM   36  N7  UNL     1     -34.711   8.736  13.139  1.00  0.00    -0.101 NA
HETATM   37  C15 UNL     1     -34.188   9.267  15.448  1.00  0.00     0.173 A 
HETATM   38  C16 UNL     1     -34.438   9.100  16.780  1.00  0.00     0.293 A 
HETATM   39  O7  UNL     1     -33.760   9.706  17.635  1.00  0.00    -0.264 OA
HETATM   40  N9  UNL     1     -35.444   8.259  17.197  1.00  0.00    -0.209 N 
BRANCH  37  41
HETATM   41  S1  UNL     1     -32.910  10.337  14.898  1.00  0.00     0.264 S 
HETATM   42  O5  UNL     1     -33.493  11.651  14.469  1.00  0.00    -0.200 OA
HETATM   43  O6  UNL     1     -31.978  10.621  16.049  1.00  0.00    -0.200 OA
BRANCH  41  44
HETATM   44  N8  UNL     1     -32.019   9.631  13.615  1.00  0.00    -0.324 N 
ATOM     45  H82 UNL     1     -31.611   8.697  13.659  1.00  0.00     0.169 HD
ATOM     46  H81 UNL     1     -31.955  10.264  12.817  1.00  0.00     0.169 HD
ENDBRANCH  41  44
ENDBRANCH  37  41
BRANCH  40  47
HETATM   47  N10 UNL     1     -35.530   8.084  18.573  1.00  0.00    -0.334 N 
ATOM     48 2H10 UNL     1     -36.189   7.368  18.876  1.00  0.00     0.177 HD
ATOM     49 1H10 UNL     1     -35.021   8.689  19.219  1.00  0.00     0.177 HD
ENDBRANCH  40  47
ENDBRANCH  29  33
ENDBRANCH  25  28
ENDBRANCH   1  25
BRANCH   1  50
HETATM   50  C17 UNL     1     -37.164   2.148  14.963  1.00  0.00     0.180 C 
BRANCH  50  51
HETATM   51  O8  UNL     1     -36.430   1.282  14.206  1.00  0.00    -0.390 OA
ATOM     52  H8  UNL     1     -36.314   0.393  14.520  1.00  0.00     0.210 HD
ENDBRANCH  50  51
BRANCH  50  53
HETATM   53  C18 UNL     1     -38.615   1.790  15.071  1.00  0.00     0.173 C 
BRANCH  53  54
HETATM   54  O9  UNL     1     -38.804   1.309  16.430  1.00  0.00    -0.391 OA
ATOM     55  H9  UNL     1     -39.720   1.456  16.633  1.00  0.00     0.210 HD
ENDBRANCH  53  54
BRANCH  53  56
HETATM   56  C19 UNL     1     -39.043   0.588  14.255  1.00  0.00     0.198 C 
BRANCH  56  57
HETATM   57  O10 UNL     1     -39.015   0.812  12.899  1.00  0.00    -0.398 OA
ATOM     58  H10 UNL     1     -38.964   1.733  12.671  1.00  0.00     0.209 HD
ENDBRANCH  56  57
ENDBRANCH  53  56
ENDBRANCH  50  53
ENDBRANCH   1  50
TORSDOF 19
ENDMDL
MODEL 4
REMARK VINA RESULT: -9.717085517      2.819      6.562
REMARK  19 active torsions:
REMARK  status: ('A' for Active; 'I' for Inactive)
REMARK    1  A    between atoms: N1_1  and  C1_4 
REMARK    2  A    between atoms: N5_15  and  C6_16 
REMARK    3  A    between atoms: C8_19  and  O2_20 
REMARK    4  A    between atoms: O2_20  and  C9_21 
REMARK    5  A    between atoms: C9_21  and  C10_22 
REMARK    6  A    between atoms: C9_21  and  C17_47 
REMARK    7  A    between atoms: C10_22  and  O3_23 
REMARK    8  A    between atoms: C10_22  and  C11_25 
REMARK    9  A    between atoms: C11_25  and  O4_26 
REMARK   10  A    between atoms: N6_28  and  C12_30 
REMARK   11  A    between atoms: C15_34  and  S1_35 
REMARK   12  A    between atoms: S1_35  and  N8_36 
REMARK   13  A    between atoms: N9_43  and  N10_44 
REMARK   14  A    between atoms: C17_47  and  O8_48 
REMARK   15  A    between atoms: C17_47  and  C18_50 
REMARK   16  A    between atoms: C18_50  and  O9_51 
REMARK   17  A    between atoms: C18_50  and  C19_53 
REMARK   18  A    between atoms: C19_53  and  O10_54 
REMARK   19  A    between atoms: C20_56  and  O11_57 
ROOT
HETATM    1  C9  UNL     1     -36.933   5.812  15.746  1.00  0.00     0.190 C 
ENDROOT
BRANCH   1   2
HETATM    2  O2  UNL     1     -36.606   6.535  14.600  1.00  0.00    -0.370 OA
BRANCH   2   3
HETATM    3  C8  UNL     1     -37.457   6.512  13.563  1.00  0.00     0.179 C 
HETATM    4  C7  UNL     1     -38.921   6.352  13.958  1.00  0.00     0.205 C 
HETATM    5  O1  UNL     1     -39.552   6.685  12.734  1.00  0.00    -0.361 OA
HETATM    6  C6  UNL     1     -39.036   7.968  12.569  1.00  0.00     0.261 C 
HETATM    7  C20 UNL     1     -37.525   7.781  12.768  1.00  0.00     0.198 C 
BRANCH   6   8
HETATM    8  N5  UNL     1     -39.246   8.521  11.256  1.00  0.00    -0.297 N 
HETATM    9  C2  UNL     1     -39.458   7.800  10.134  1.00  0.00     0.154 A 
HETATM   10  N2  UNL     1     -39.533   6.488   9.888  1.00  0.00    -0.174 N 
HETATM   11  C3  UNL     1     -39.622   8.668   9.079  1.00  0.00     0.094 A 
HETATM   12  C1  UNL     1     -39.761   6.014   8.655  1.00  0.00     0.677 A 
ATOM     13  H2  UNL     1     -39.414   5.830  10.659  1.00  0.00     0.186 HD
HETATM   14  N3  UNL     1     -39.916   6.883   7.644  1.00  0.00    -0.200 N 
HETATM   15  C4  UNL     1     -39.859   8.215   7.790  1.00  0.00     0.139 A 
ATOM     16  H3  UNL     1     -40.089   6.508   6.711  1.00  0.00     0.183 HD
HETATM   17  N4  UNL     1     -39.507   9.909   9.574  1.00  0.00    -0.348 N 
HETATM   18  C5  UNL     1     -39.280   9.801  10.892  1.00  0.00     0.188 A 
ATOM     19  H4  UNL     1     -39.578  10.778   9.044  1.00  0.00     0.167 HD
BRANCH  12  20
HETATM   20  N1  UNL     1     -39.832   4.737   8.415  1.00  0.00    -0.234 N 
ATOM     21  H12 UNL     1     -40.657   4.218   8.715  1.00  0.00     0.174 HD
ATOM     22  H11 UNL     1     -39.083   4.240   7.933  1.00  0.00     0.174 HD
ENDBRANCH  12  20
ENDBRANCH   6   8
BRANCH   7  23
HETATM   23  O11 UNL     1     -37.133   8.896  13.515  1.00  0.00    -0.388 OA
ATOM     24  H11 UNL     1     -36.193   8.797  13.612  1.00  0.00     0.210 HD
ENDBRANCH   7  23
ENDBRANCH   2   3
ENDBRANCH   1   2
BRANCH   1  25
HETATM   25  C10 UNL     1     -36.192   4.461  15.591  1.00  0.00     0.224 C 
BRANCH  25  26
HETATM   26  O3  UNL     1     -35.008   4.515  16.340  1.00  0.00    -0.385 OA
ATOM     27  H3  UNL     1     -34.650   3.636  16.402  1.00  0.00     0.210 HD
ENDBRANCH  25  26
BRANCH  25  28
HETATM   28  C11 UNL     1     -36.968   3.397  16.199  1.00  0.00     0.149 C 
HETATM   29  N6  UNL     1     -37.857   2.494  15.718  1.00  0.00    -0.323 N 
ATOM     30  H6  UNL     1     -38.352   2.043  16.488  1.00  0.00     0.169 HD
BRANCH  28  31
HETATM   31  O4  UNL     1     -36.737   3.326  17.501  1.00  0.00    -0.347 OA
ATOM     32  H4  UNL     1     -37.028   4.116  17.941  1.00  0.00     0.219 HD
ENDBRANCH  28  31
BRANCH  29  33
HETATM   33  C12 UNL     1     -38.303   1.990  14.496  1.00  0.00     0.133 A 
HETATM   34  C13 UNL     1     -38.741   2.938  13.536  1.00  0.00     0.079 A 
HETATM   35  C14 UNL     1     -39.280   2.605  12.331  1.00  0.00     0.079 A 
HETATM   36  N7  UNL     1     -39.699   3.609  11.420  1.00  0.00    -0.101 NA
HETATM   37  C15 UNL     1     -39.406   1.279  12.029  1.00  0.00     0.173 A 
HETATM   38  C16 UNL     1     -38.996   0.341  12.934  1.00  0.00     0.293 A 
HETATM   39  O7  UNL     1     -39.102  -0.876  12.679  1.00  0.00    -0.264 OA
HETATM   40  N9  UNL     1     -38.459   0.729  14.140  1.00  0.00    -0.209 N 
BRANCH  37  41
HETATM   41  S1  UNL     1     -40.092   0.803  10.486  1.00  0.00     0.264 S 
HETATM   42  O5  UNL     1     -41.588   0.903  10.538  1.00  0.00    -0.200 OA
HETATM   43  O6  UNL     1     -39.620   1.761   9.422  1.00  0.00    -0.200 OA
BRANCH  41  44
HETATM   44  N8  UNL     1     -39.615  -0.788  10.059  1.00  0.00    -0.324 N 
ATOM     45  H82 UNL     1     -39.047  -1.386  10.659  1.00  0.00     0.169 HD
ATOM     46  H81 UNL     1     -39.972  -1.047   9.139  1.00  0.00     0.169 HD
ENDBRANCH  41  44
ENDBRANCH  37  41
BRANCH  40  47
HETATM   47  N10 UNL     1     -38.183  -0.311  15.020  1.00  0.00    -0.334 N 
ATOM     48 2H10 UNL     1     -38.913  -1.019  15.092  1.00  0.00     0.177 HD
ATOM     49 1H10 UNL     1     -37.343  -0.309  15.599  1.00  0.00     0.177 HD
ENDBRANCH  40  47
ENDBRANCH  29  33
ENDBRANCH  25  28
ENDBRANCH   1  25
BRANCH   1  50
HETATM   50  C17 UNL     1     -36.474   6.639  16.892  1.00  0.00     0.180 C 
BRANCH  50  51
HETATM   51  O8  UNL     1     -36.767   6.219  18.156  1.00  0.00    -0.390 OA
ATOM     52  H8  UNL     1     -37.296   6.782  18.709  1.00  0.00     0.210 HD
ENDBRANCH  50  51
BRANCH  50  53
HETATM   53  C18 UNL     1     -36.423   8.129  16.738  1.00  0.00     0.173 C 
BRANCH  53  54
HETATM   54  O9  UNL     1     -35.223   8.406  15.964  1.00  0.00    -0.391 OA
ATOM     55  H9  UNL     1     -34.738   9.054  16.462  1.00  0.00     0.210 HD
ENDBRANCH  53  54
BRANCH  53  56
HETATM   56  C19 UNL     1     -36.153   8.898  18.015  1.00  0.00     0.198 C 
BRANCH  56  57
HETATM   57  O10 UNL     1     -35.188   8.320  18.805  1.00  0.00    -0.398 OA
ATOM     58  H10 UNL     1     -35.413   8.313  19.728  1.00  0.00     0.209 HD
ENDBRANCH  56  57
ENDBRANCH  53  56
ENDBRANCH  50  53
ENDBRANCH   1  50
TORSDOF 19
ENDMDL
MODEL 5
REMARK VINA RESULT: -9.598382033      6.013      9.192
REMARK  19 active torsions:
REMARK  status: ('A' for Active; 'I' for Inactive)
REMARK    1  A    between atoms: N1_1  and  C1_4 
REMARK    2  A    between atoms: N5_15  and  C6_16 
REMARK    3  A    between atoms: C8_19  and  O2_20 
REMARK    4  A    between atoms: O2_20  and  C9_21 
REMARK    5  A    between atoms: C9_21  and  C10_22 
REMARK    6  A    between atoms: C9_21  and  C17_47 
REMARK    7  A    between atoms: C10_22  and  O3_23 
REMARK    8  A    between atoms: C10_22  and  C11_25 
REMARK    9  A    between atoms: C11_25  and  O4_26 
REMARK   10  A    between atoms: N6_28  and  C12_30 
REMARK   11  A    between atoms: C15_34  and  S1_35 
REMARK   12  A    between atoms: S1_35  and  N8_36 
REMARK   13  A    between atoms: N9_43  and  N10_44 
REMARK   14  A    between atoms: C17_47  and  O8_48 
REMARK   15  A    between atoms: C17_47  and  C18_50 
REMARK   16  A    between atoms: C18_50  and  O9_51 
REMARK   17  A    between atoms: C18_50  and  C19_53 
REMARK   18  A    between atoms: C19_53  and  O10_54 
REMARK   19  A    between atoms: C20_56  and  O11_57 
ROOT
HETATM    1  C9  UNL     1     -36.124   9.047  15.701  1.00  0.00     0.190 C 
ENDROOT
BRANCH   1   2
HETATM    2  O2  UNL     1     -35.059   8.653  14.893  1.00  0.00    -0.370 OA
BRANCH   2   3
HETATM    3  C8  UNL     1     -34.057   9.519  14.682  1.00  0.00     0.179 C 
HETATM    4  C7  UNL     1     -33.416  10.055  15.958  1.00  0.00     0.205 C 
HETATM    5  O1  UNL     1     -32.244  10.646  15.424  1.00  0.00    -0.361 OA
HETATM    6  C6  UNL     1     -31.695   9.520  14.816  1.00  0.00     0.261 C 
HETATM    7  C20 UNL     1     -32.856   8.946  13.992  1.00  0.00     0.198 C 
BRANCH   6   8
HETATM    8  N5  UNL     1     -30.609   9.809  13.914  1.00  0.00    -0.297 N 
HETATM    9  C2  UNL     1     -29.888  10.951  13.909  1.00  0.00     0.154 A 
HETATM   10  N2  UNL     1     -29.930  12.065  14.646  1.00  0.00    -0.174 N 
HETATM   11  C3  UNL     1     -28.938  10.864  12.917  1.00  0.00     0.094 A 
HETATM   12  C1  UNL     1     -29.079  13.080  14.438  1.00  0.00     0.677 A 
ATOM     13  H2  UNL     1     -30.627  12.146  15.386  1.00  0.00     0.186 HD
HETATM   14  N3  UNL     1     -28.163  12.970  13.463  1.00  0.00    -0.200 N 
HETATM   15  C4  UNL     1     -28.042  11.893  12.673  1.00  0.00     0.139 A 
ATOM     16  H3  UNL     1     -27.522  13.750  13.316  1.00  0.00     0.183 HD
HETATM   17  N4  UNL     1     -29.096   9.669  12.330  1.00  0.00    -0.348 N 
HETATM   18  C5  UNL     1     -30.110   9.045  12.946  1.00  0.00     0.188 A 
ATOM     19  H4  UNL     1     -28.544   9.302  11.555  1.00  0.00     0.167 HD
BRANCH  12  20
HETATM   20  N1  UNL     1     -29.121  14.165  15.154  1.00  0.00    -0.234 N 
ATOM     21  H12 UNL     1     -29.972  14.391  15.669  1.00  0.00     0.174 HD
ATOM     22  H11 UNL     1     -28.323  14.798  15.215  1.00  0.00     0.174 HD
ENDBRANCH  12  20
ENDBRANCH   6   8
BRANCH   7  23
HETATM   23  O11 UNL     1     -32.755   7.563  14.165  1.00  0.00    -0.388 OA
ATOM     24  H11 UNL     1     -33.472   7.208  13.652  1.00  0.00     0.210 HD
ENDBRANCH   7  23
ENDBRANCH   2   3
ENDBRANCH   1   2
BRANCH   1  25
HETATM   25  C10 UNL     1     -37.330   9.177  14.739  1.00  0.00     0.224 C 
BRANCH  25  26
HETATM   26  O3  UNL     1     -37.620  10.538  14.571  1.00  0.00    -0.385 OA
ATOM     27  H3  UNL     1     -37.512  10.975  15.408  1.00  0.00     0.210 HD
ENDBRANCH  25  26
BRANCH  25  28
HETATM   28  C11 UNL     1     -36.961   8.710  13.416  1.00  0.00     0.149 C 
HETATM   29  N6  UNL     1     -36.727   7.485  12.886  1.00  0.00    -0.323 N 
ATOM     30  H6  UNL     1     -36.286   7.574  11.971  1.00  0.00     0.169 HD
BRANCH  28  31
HETATM   31  O4  UNL     1     -36.828   9.724  12.575  1.00  0.00    -0.347 OA
ATOM     32  H4  UNL     1     -37.618   9.847  12.063  1.00  0.00     0.219 HD
ENDBRANCH  28  31
BRANCH  29  33
HETATM   33  C12 UNL     1     -36.905   6.138  13.207  1.00  0.00     0.133 A 
HETATM   34  C13 UNL     1     -38.176   5.576  12.925  1.00  0.00     0.079 A 
HETATM   35  C14 UNL     1     -38.533   4.304  13.252  1.00  0.00     0.079 A 
HETATM   36  N7  UNL     1     -39.826   3.809  12.940  1.00  0.00    -0.101 NA
HETATM   37  C15 UNL     1     -37.613   3.523  13.890  1.00  0.00     0.173 A 
HETATM   38  C16 UNL     1     -36.380   4.036  14.178  1.00  0.00     0.293 A 
HETATM   39  O7  UNL     1     -35.523   3.341  14.761  1.00  0.00    -0.264 OA
HETATM   40  N9  UNL     1     -36.067   5.330  13.828  1.00  0.00    -0.209 N 
BRANCH  37  41
HETATM   41  S1  UNL     1     -38.028   1.875  14.328  1.00  0.00     0.264 S 
HETATM   42  O5  UNL     1     -36.781   1.051  14.457  1.00  0.00    -0.200 OA
HETATM   43  O6  UNL     1     -38.698   1.880  15.679  1.00  0.00    -0.200 OA
BRANCH  41  44
HETATM   44  N8  UNL     1     -39.089   1.176  13.177  1.00  0.00    -0.324 N 
ATOM     45  H82 UNL     1     -39.484   1.690  12.389  1.00  0.00     0.169 HD
ATOM     46  H81 UNL     1     -39.267   0.194  13.387  1.00  0.00     0.169 HD
ENDBRANCH  41  44
ENDBRANCH  37  41
BRANCH  40  47
HETATM   47  N10 UNL     1     -34.827   5.774  14.273  1.00  0.00    -0.334 N 
ATOM     48 2H10 UNL     1     -34.355   6.427  13.648  1.00  0.00     0.177 HD
ATOM     49 1H10 UNL     1     -34.403   5.403  15.123  1.00  0.00     0.177 HD
ENDBRANCH  40  47
ENDBRANCH  29  33
ENDBRANCH  25  28
ENDBRANCH   1  25
BRANCH   1  50
HETATM   50  C17 UNL     1     -36.267   7.985  16.730  1.00  0.00     0.180 C 
BRANCH  50  51
HETATM   51  O8  UNL     1     -37.010   6.882  16.427  1.00  0.00    -0.390 OA
ATOM     52  H8  UNL     1     -37.935   6.886  16.646  1.00  0.00     0.210 HD
ENDBRANCH  50  51
BRANCH  50  53
HETATM   53  C18 UNL     1     -36.311   8.375  18.176  1.00  0.00     0.173 C 
BRANCH  53  54
HETATM   54  O9  UNL     1     -34.957   8.198  18.676  1.00  0.00    -0.391 OA
ATOM     55  H9  UNL     1     -34.395   8.671  18.074  1.00  0.00     0.210 HD
ENDBRANCH  53  54
BRANCH  53  56
HETATM   56  C19 UNL     1     -37.097   7.438  19.071  1.00  0.00     0.198 C 
BRANCH  56  57
HETATM   57  O10 UNL     1     -36.424   7.089  20.218  1.00  0.00    -0.398 OA
ATOM     58  H10 UNL     1     -36.918   6.504  20.780  1.00  0.00     0.209 HD
ENDBRANCH  56  57
ENDBRANCH  53  56
ENDBRANCH  50  53
ENDBRANCH   1  50
TORSDOF 19
ENDMDL
