MODEL 1
REMARK VINA RESULT: -9.110194331      0.000      0.000
REMARK  19 active torsions:
REMARK  status: ('A' for Active; 'I' for Inactive)
REMARK    1  A    between atoms: N1_2  and  C2_3 
REMARK    2  A    between atoms: N1_2  and  C16_47 
REMARK    3  A    between atoms: C3_6  and  N3_7 
REMARK    4  A    between atoms: N3_7  and  C4_8 
REMARK    5  A    between atoms: N3_7  and  C6_12 
REMARK    6  A    between atoms: C4_8  and  C5_9 
REMARK    7  A    between atoms: C5_9  and  O1_10 
REMARK    8  A    between atoms: C6_12  and  C7_13 
REMARK    9  A    between atoms: C7_13  and  O2_14 
REMARK   10  A    between atoms: N5_20  and  C10_21 
REMARK   11  A    between atoms: C10_21  and  O3_22 
REMARK   12  A    between atoms: C11_24  and  O4_25 
REMARK   13  A    between atoms: C12_27  and  N6_28 
REMARK   14  A    between atoms: C13_32  and  O5_33 
REMARK   15  A    between atoms: C14_35  and  N7_36 
REMARK   16  A    between atoms: N7_36  and  S1_38 
REMARK   17  A    between atoms: S1_38  and  N8_39 
REMARK   18  A    between atoms: C18_49  and  N10_50 
REMARK   19  A    between atoms: C19_53  and  N11_54 
ROOT
HETATM    1  C2  UNL     1     -37.701   6.931  11.959  1.00  0.00     0.688 A 
HETATM    2  N2  UNL     1     -38.125   8.017  11.236  1.00  0.00    -0.174 N 
ATOM      3  H2  UNL     1     -37.875   8.954  11.552  1.00  0.00     0.186 HD
HETATM    4  C3  UNL     1     -38.865   7.875  10.119  1.00  0.00     0.150 A 
HETATM    5  C8  UNL     1     -39.186   6.603   9.726  1.00  0.00     0.123 A 
HETATM    6  N4  UNL     1     -39.884   6.088   8.714  1.00  0.00    -0.346 N 
ATOM      7  H4  UNL     1     -40.339   6.639   7.986  1.00  0.00     0.167 HD
HETATM    8  C9  UNL     1     -39.909   4.773   8.781  1.00  0.00     0.188 A 
HETATM    9  N5  UNL     1     -39.198   4.382   9.883  1.00  0.00    -0.289 N 
HETATM   10  C15 UNL     1     -38.756   5.493  10.464  1.00  0.00     0.157 A 
HETATM   11  N9  UNL     1     -38.026   5.688  11.558  1.00  0.00    -0.173 N 
ATOM     12  H9  UNL     1     -37.708   4.885  12.100  1.00  0.00     0.186 HD
ENDROOT
BRANCH   9  13
HETATM   13  C10 UNL     1     -39.060   3.008  10.215  1.00  0.00     0.192 C 
HETATM   14  C11 UNL     1     -40.371   2.286  10.500  1.00  0.00     0.209 C 
HETATM   15  C12 UNL     1     -39.837   0.868  10.721  1.00  0.00     0.247 C 
HETATM   16  C13 UNL     1     -38.614   0.743   9.870  1.00  0.00     0.179 C 
HETATM   17  C14 UNL     1     -38.457   2.119   9.198  1.00  0.00     0.184 C 
BRANCH  13  18
HETATM   18  O3  UNL     1     -38.306   2.825  11.405  1.00  0.00    -0.366 OA
ATOM     19  H3  UNL     1     -38.846   2.908  12.181  1.00  0.00     0.212 HD
ENDBRANCH  13  18
BRANCH  14  20
HETATM   20  O4  UNL     1     -41.210   2.278   9.393  1.00  0.00    -0.388 OA
ATOM     21  H4  UNL     1     -42.124   2.215   9.642  1.00  0.00     0.210 HD
ENDBRANCH  14  20
BRANCH  15  22
HETATM   22  N6  UNL     1     -40.859  -0.075  10.378  1.00  0.00    -0.070 N 
ATOM     23  H63 UNL     1     -41.725   0.379  10.087  1.00  0.00     0.274 HD
ATOM     24  H62 UNL     1     -40.657  -0.568   9.508  1.00  0.00     0.274 HD
ATOM     25  H61 UNL     1     -41.000  -0.713  11.161  1.00  0.00     0.274 HD
ENDBRANCH  15  22
BRANCH  16  26
HETATM   26  O5  UNL     1     -38.733  -0.253   8.903  1.00  0.00    -0.391 OA
ATOM     27  H5  UNL     1     -39.347  -0.023   8.215  1.00  0.00     0.210 HD
ENDBRANCH  16  26
BRANCH  17  28
HETATM   28  N7  UNL     1     -37.061   2.364   9.000  1.00  0.00    -0.291 N 
ATOM     29  H7  UNL     1     -36.553   3.075   9.526  1.00  0.00     0.174 HD
BRANCH  28  30
HETATM   30  S1  UNL     1     -36.306   1.389   7.830  1.00  0.00     0.313 S 
HETATM   31  O6  UNL     1     -35.186   2.228   7.228  1.00  0.00    -0.183 OA
HETATM   32  O7  UNL     1     -35.606   0.231   8.498  1.00  0.00    -0.183 OA
BRANCH  30  33
HETATM   33  N8  UNL     1     -37.333   0.851   6.581  1.00  0.00    -0.312 N 
ATOM     34  H82 UNL     1     -38.259   0.470   6.775  1.00  0.00     0.170 HD
ATOM     35  H81 UNL     1     -36.947   0.943   5.642  1.00  0.00     0.170 HD
ENDBRANCH  30  33
ENDBRANCH  28  30
ENDBRANCH  17  28
ENDBRANCH   9  13
BRANCH   4  36
HETATM   36  N3  UNL     1     -39.282   9.001   9.369  1.00  0.00    -0.361 N 
BRANCH  36  37
HETATM   37  C4  UNL     1     -39.115   9.100   7.933  1.00  0.00     0.150 C 
BRANCH  37  38
HETATM   38  C5  UNL     1     -40.346   9.381   7.158  1.00  0.00     0.183 C 
BRANCH  38  39
HETATM   39  O1  UNL     1     -40.974   8.156   6.818  1.00  0.00    -0.399 OA
ATOM     40  H1  UNL     1     -41.904   8.305   6.689  1.00  0.00     0.209 HD
ENDBRANCH  38  39
ENDBRANCH  37  38
ENDBRANCH  36  37
BRANCH  36  41
HETATM   41  C6  UNL     1     -39.901  10.096  10.103  1.00  0.00     0.150 C 
BRANCH  41  42
HETATM   42  C7  UNL     1     -41.141   9.758  10.833  1.00  0.00     0.183 C 
BRANCH  42  43
HETATM   43  O2  UNL     1     -40.968   9.359  12.128  1.00  0.00    -0.399 OA
ATOM     44  H2  UNL     1     -41.397   8.545  12.365  1.00  0.00     0.209 HD
ENDBRANCH  42  43
ENDBRANCH  41  42
ENDBRANCH  36  41
ENDBRANCH   4  36
BRANCH   1  45
HETATM   45  N1  UNL     1     -36.951   7.254  13.108  1.00  0.00    -0.184 N 
HETATM   46  C1  UNL     1     -36.178   8.503  13.085  1.00  0.00     0.175 C 
BRANCH  45  47
HETATM   47  C16 UNL     1     -36.832   6.460  14.269  1.00  0.00     0.095 A 
HETATM   48  C17 UNL     1     -37.115   6.999  15.523  1.00  0.00     0.073 A 
HETATM   49  C18 UNL     1     -36.970   6.267  16.705  1.00  0.00     0.148 A 
HETATM   50  C19 UNL     1     -36.536   4.974  16.650  1.00  0.00     0.134 A 
HETATM   51  N12 UNL     1     -36.265   4.460  15.429  1.00  0.00    -0.327 N 
HETATM   52  C20 UNL     1     -36.403   5.164  14.274  1.00  0.00     0.145 A 
ATOM     53  H12 UNL     1     -35.941   3.495  15.371  1.00  0.00     0.168 HD
HETATM   54  N13 UNL     1     -36.108   4.489  13.052  1.00  0.00    -0.080 NA
BRANCH  49  55
HETATM   55  N10 UNL     1     -37.285   6.903  17.928  1.00  0.00    -0.112 N 
HETATM   56  O8  UNL     1     -38.192   6.424  18.666  1.00  0.00    -0.532 OA
HETATM   57  O9  UNL     1     -36.676   8.020  18.395  1.00  0.00    -0.532 OA
ENDBRANCH  49  55
BRANCH  50  58
HETATM   58  N11 UNL     1     -36.382   4.210  17.674  1.00  0.00    -0.383 N 
ATOM     59 2H11 UNL     1     -37.202   3.718  18.030  1.00  0.00     0.157 HD
ATOM     60 1H11 UNL     1     -35.499   4.068  18.164  1.00  0.00     0.157 HD
ENDBRANCH  50  58
ENDBRANCH  45  47
ENDBRANCH   1  45
TORSDOF 19
ENDMDL
MODEL 2
REMARK VINA RESULT: -9.099393635      6.410     10.290
REMARK  19 active torsions:
REMARK  status: ('A' for Active; 'I' for Inactive)
REMARK    1  A    between atoms: N1_2  and  C2_3 
REMARK    2  A    between atoms: N1_2  and  C16_47 
REMARK    3  A    between atoms: C3_6  and  N3_7 
REMARK    4  A    between atoms: N3_7  and  C4_8 
REMARK    5  A    between atoms: N3_7  and  C6_12 
REMARK    6  A    between atoms: C4_8  and  C5_9 
REMARK    7  A    between atoms: C5_9  and  O1_10 
REMARK    8  A    between atoms: C6_12  and  C7_13 
REMARK    9  A    between atoms: C7_13  and  O2_14 
REMARK   10  A    between atoms: N5_20  and  C10_21 
REMARK   11  A    between atoms: C10_21  and  O3_22 
REMARK   12  A    between atoms: C11_24  and  O4_25 
REMARK   13  A    between atoms: C12_27  and  N6_28 
REMARK   14  A    between atoms: C13_32  and  O5_33 
REMARK   15  A    between atoms: C14_35  and  N7_36 
REMARK   16  A    between atoms: N7_36  and  S1_38 
REMARK   17  A    between atoms: S1_38  and  N8_39 
REMARK   18  A    between atoms: C18_49  and  N10_50 
REMARK   19  A    between atoms: C19_53  and  N11_54 
ROOT
HETATM    1  C2  UNL     1     -34.734   9.695  15.511  1.00  0.00     0.688 A 
HETATM    2  N2  UNL     1     -35.868   9.968  14.790  1.00  0.00    -0.174 N 
ATOM      3  H2  UNL     1     -36.732   9.475  15.015  1.00  0.00     0.186 HD
HETATM    4  C3  UNL     1     -35.868  10.872  13.791  1.00  0.00     0.150 A 
HETATM    5  C8  UNL     1     -34.690  11.514  13.513  1.00  0.00     0.123 A 
HETATM    6  N4  UNL     1     -34.317  12.432  12.623  1.00  0.00    -0.346 N 
ATOM      7  H4  UNL     1     -34.936  12.850  11.929  1.00  0.00     0.167 HD
HETATM    8  C9  UNL     1     -33.040  12.728  12.760  1.00  0.00     0.188 A 
HETATM    9  N5  UNL     1     -32.530  11.977  13.784  1.00  0.00    -0.289 N 
HETATM   10  C15 UNL     1     -33.531  11.235  14.247  1.00  0.00     0.157 A 
HETATM   11  N9  UNL     1     -33.585  10.335  15.224  1.00  0.00    -0.173 N 
ATOM     12  H9  UNL     1     -32.744  10.127  15.763  1.00  0.00     0.186 HD
ENDROOT
BRANCH   9  13
HETATM   13  C10 UNL     1     -31.162  12.081  14.155  1.00  0.00     0.192 C 
HETATM   14  C11 UNL     1     -30.224  11.149  13.399  1.00  0.00     0.209 C 
HETATM   15  C12 UNL     1     -28.886  11.600  13.991  1.00  0.00     0.247 C 
HETATM   16  C13 UNL     1     -29.045  13.048  14.331  1.00  0.00     0.179 C 
HETATM   17  C14 UNL     1     -30.498  13.386  13.951  1.00  0.00     0.184 C 
BRANCH  13  18
HETATM   18  O3  UNL     1     -30.958  11.737  15.518  1.00  0.00    -0.366 OA
ATOM     19  H3  UNL     1     -30.038  11.761  15.754  1.00  0.00     0.212 HD
ENDBRANCH  13  18
BRANCH  14  20
HETATM   20  O4  UNL     1     -30.220  11.412  12.035  1.00  0.00    -0.388 OA
ATOM     21  H4  UNL     1     -29.941  12.299  11.847  1.00  0.00     0.210 HD
ENDBRANCH  14  20
BRANCH  15  22
HETATM   22  N6  UNL     1     -27.847  11.359  13.035  1.00  0.00    -0.070 N 
ATOM     23  H63 UNL     1     -27.201  10.630  13.339  1.00  0.00     0.274 HD
ATOM     24  H62 UNL     1     -28.194  10.900  12.193  1.00  0.00     0.274 HD
ATOM     25  H61 UNL     1     -27.371  12.237  12.831  1.00  0.00     0.274 HD
ENDBRANCH  15  22
BRANCH  16  26
HETATM   26  O5  UNL     1     -28.162  13.864  13.627  1.00  0.00    -0.391 OA
ATOM     27  H5  UNL     1     -28.469  14.067  12.752  1.00  0.00     0.210 HD
ENDBRANCH  16  26
BRANCH  17  28
HETATM   28  N7  UNL     1     -30.970  14.399  14.844  1.00  0.00    -0.291 N 
ATOM     29  H7  UNL     1     -31.214  14.199  15.813  1.00  0.00     0.174 HD
BRANCH  28  30
HETATM   30  S1  UNL     1     -31.097  15.959  14.179  1.00  0.00     0.313 S 
HETATM   31  O6  UNL     1     -32.066  15.852  13.010  1.00  0.00    -0.183 OA
HETATM   32  O7  UNL     1     -31.776  16.883  15.161  1.00  0.00    -0.183 OA
BRANCH  30  33
HETATM   33  N8  UNL     1     -29.627  16.619  13.627  1.00  0.00    -0.312 N 
ATOM     34  H82 UNL     1     -29.113  17.314  14.169  1.00  0.00     0.170 HD
ATOM     35  H81 UNL     1     -29.312  16.264  12.724  1.00  0.00     0.170 HD
ENDBRANCH  30  33
ENDBRANCH  28  30
ENDBRANCH  17  28
ENDBRANCH   9  13
BRANCH   4  36
HETATM   36  N3  UNL     1     -37.048  11.161  13.065  1.00  0.00    -0.361 N 
BRANCH  36  37
HETATM   37  C4  UNL     1     -37.858  12.338  13.307  1.00  0.00     0.150 C 
BRANCH  37  38
HETATM   38  C5  UNL     1     -37.668  13.459  12.357  1.00  0.00     0.183 C 
BRANCH  38  39
HETATM   39  O1  UNL     1     -36.727  14.373  12.893  1.00  0.00    -0.399 OA
ATOM     40  H1  UNL     1     -35.848  14.048  12.735  1.00  0.00     0.209 HD
ENDBRANCH  38  39
ENDBRANCH  37  38
ENDBRANCH  36  37
BRANCH  36  41
HETATM   41  C6  UNL     1     -37.444  10.211  12.034  1.00  0.00     0.150 C 
BRANCH  41  42
HETATM   42  C7  UNL     1     -38.506   9.257  12.415  1.00  0.00     0.183 C 
BRANCH  42  43
HETATM   43  O2  UNL     1     -38.320   8.618  13.608  1.00  0.00    -0.399 OA
ATOM     44  H2  UNL     1     -38.825   8.959  14.337  1.00  0.00     0.209 HD
ENDBRANCH  42  43
ENDBRANCH  41  42
ENDBRANCH  36  41
ENDBRANCH   4  36
BRANCH   1  45
HETATM   45  N1  UNL     1     -34.900   8.715  16.509  1.00  0.00    -0.184 N 
HETATM   46  C1  UNL     1     -34.139   8.878  17.755  1.00  0.00     0.175 C 
BRANCH  45  47
HETATM   47  C16 UNL     1     -35.698   7.555  16.406  1.00  0.00     0.095 A 
HETATM   48  C17 UNL     1     -35.416   6.588  15.443  1.00  0.00     0.073 A 
HETATM   49  C18 UNL     1     -36.203   5.445  15.273  1.00  0.00     0.148 A 
HETATM   50  C19 UNL     1     -37.293   5.250  16.071  1.00  0.00     0.134 A 
HETATM   51  N12 UNL     1     -37.558   6.194  17.003  1.00  0.00    -0.327 N 
HETATM   52  C20 UNL     1     -36.799   7.308  17.176  1.00  0.00     0.145 A 
ATOM     53  H12 UNL     1     -38.368   6.062  17.607  1.00  0.00     0.168 HD
HETATM   54  N13 UNL     1     -37.178   8.208  18.216  1.00  0.00    -0.080 NA
BRANCH  49  55
HETATM   55  N10 UNL     1     -35.832   4.521  14.268  1.00  0.00    -0.112 N 
HETATM   56  O8  UNL     1     -35.326   3.411  14.596  1.00  0.00    -0.532 OA
HETATM   57  O9  UNL     1     -35.979   4.730  12.938  1.00  0.00    -0.532 OA
ENDBRANCH  49  55
BRANCH  50  58
HETATM   58  N11 UNL     1     -38.073   4.229  16.007  1.00  0.00    -0.383 N 
ATOM     59 2H11 UNL     1     -38.600   3.978  16.844  1.00  0.00     0.157 HD
ATOM     60 1H11 UNL     1     -38.196   3.643  15.181  1.00  0.00     0.157 HD
ENDBRANCH  50  58
ENDBRANCH  45  47
ENDBRANCH   1  45
TORSDOF 19
ENDMDL
MODEL 3
REMARK VINA RESULT: -9.020939307      3.184      7.533
REMARK  19 active torsions:
REMARK  status: ('A' for Active; 'I' for Inactive)
REMARK    1  A    between atoms: N1_2  and  C2_3 
REMARK    2  A    between atoms: N1_2  and  C16_47 
REMARK    3  A    between atoms: C3_6  and  N3_7 
REMARK    4  A    between atoms: N3_7  and  C4_8 
REMARK    5  A    between atoms: N3_7  and  C6_12 
REMARK    6  A    between atoms: C4_8  and  C5_9 
REMARK    7  A    between atoms: C5_9  and  O1_10 
REMARK    8  A    between atoms: C6_12  and  C7_13 
REMARK    9  A    between atoms: C7_13  and  O2_14 
REMARK   10  A    between atoms: N5_20  and  C10_21 
REMARK   11  A    between atoms: C10_21  and  O3_22 
REMARK   12  A    between atoms: C11_24  and  O4_25 
REMARK   13  A    between atoms: C12_27  and  N6_28 
REMARK   14  A    between atoms: C13_32  and  O5_33 
REMARK   15  A    between atoms: C14_35  and  N7_36 
REMARK   16  A    between atoms: N7_36  and  S1_38 
REMARK   17  A    between atoms: S1_38  and  N8_39 
REMARK   18  A    between atoms: C18_49  and  N10_50 
REMARK   19  A    between atoms: C19_53  and  N11_54 
ROOT
HETATM    1  C2  UNL     1     -39.110   1.738  10.550  1.00  0.00     0.688 A 
HETATM    2  N2  UNL     1     -39.804   2.352   9.538  1.00  0.00    -0.174 N 
ATOM      3  H2  UNL     1     -40.212   1.782   8.797  1.00  0.00     0.186 HD
HETATM    4  C3  UNL     1     -39.959   3.690   9.499  1.00  0.00     0.150 A 
HETATM    5  C8  UNL     1     -39.395   4.425  10.508  1.00  0.00     0.123 A 
HETATM    6  N4  UNL     1     -39.335   5.725  10.792  1.00  0.00    -0.346 N 
ATOM      7  H4  UNL     1     -39.759   6.461  10.227  1.00  0.00     0.167 HD
HETATM    8  C9  UNL     1     -38.654   5.934  11.901  1.00  0.00     0.188 A 
HETATM    9  N5  UNL     1     -38.236   4.724  12.386  1.00  0.00    -0.289 N 
HETATM   10  C15 UNL     1     -38.685   3.801  11.541  1.00  0.00     0.157 A 
HETATM   11  N9  UNL     1     -38.563   2.477  11.533  1.00  0.00    -0.173 N 
ATOM     12  H9  UNL     1     -38.047   2.015  12.282  1.00  0.00     0.186 HD
ENDROOT
BRANCH   9  13
HETATM   13  C10 UNL     1     -37.466   4.640  13.576  1.00  0.00     0.192 C 
HETATM   14  C11 UNL     1     -37.580   5.848  14.496  1.00  0.00     0.209 C 
HETATM   15  C12 UNL     1     -36.714   5.363  15.662  1.00  0.00     0.247 C 
HETATM   16  C13 UNL     1     -36.850   3.874  15.693  1.00  0.00     0.179 C 
HETATM   17  C14 UNL     1     -37.775   3.536  14.511  1.00  0.00     0.184 C 
BRANCH  13  18
HETATM   18  O3  UNL     1     -36.076   4.553  13.300  1.00  0.00    -0.366 OA
ATOM     19  H3  UNL     1     -35.558   5.021  13.944  1.00  0.00     0.212 HD
ENDBRANCH  13  18
BRANCH  14  20
HETATM   20  O4  UNL     1     -38.879   6.032  14.953  1.00  0.00    -0.388 OA
ATOM     21  H4  UNL     1     -39.228   6.877  14.698  1.00  0.00     0.210 HD
ENDBRANCH  14  20
BRANCH  15  22
HETATM   22  N6  UNL     1     -37.159   5.993  16.869  1.00  0.00    -0.070 N 
ATOM     23  H63 UNL     1     -38.159   6.196  16.855  1.00  0.00     0.274 HD
ATOM     24  H62 UNL     1     -37.154   5.355  17.665  1.00  0.00     0.274 HD
ATOM     25  H61 UNL     1     -36.596   6.826  17.037  1.00  0.00     0.274 HD
ENDBRANCH  15  22
BRANCH  16  26
HETATM   26  O5  UNL     1     -37.403   3.411  16.885  1.00  0.00    -0.391 OA
ATOM     27  H5  UNL     1     -37.338   2.468  16.976  1.00  0.00     0.210 HD
ENDBRANCH  16  26
BRANCH  17  28
HETATM   28  N7  UNL     1     -37.401   2.252  14.002  1.00  0.00    -0.291 N 
ATOM     29  H7  UNL     1     -36.803   2.144  13.183  1.00  0.00     0.174 HD
BRANCH  28  30
HETATM   30  S1  UNL     1     -38.021   0.918  14.854  1.00  0.00     0.313 S 
HETATM   31  O6  UNL     1     -36.925   0.472  15.813  1.00  0.00    -0.183 OA
HETATM   32  O7  UNL     1     -39.157   1.359  15.745  1.00  0.00    -0.183 OA
BRANCH  30  33
HETATM   33  N8  UNL     1     -38.480  -0.400  13.878  1.00  0.00    -0.312 N 
ATOM     34  H82 UNL     1     -38.428  -0.358  12.860  1.00  0.00     0.170 HD
ATOM     35  H81 UNL     1     -38.804  -1.219  14.392  1.00  0.00     0.170 HD
ENDBRANCH  30  33
ENDBRANCH  28  30
ENDBRANCH  17  28
ENDBRANCH   9  13
BRANCH   4  36
HETATM   36  N3  UNL     1     -40.694   4.313   8.462  1.00  0.00    -0.361 N 
BRANCH  36  37
HETATM   37  C4  UNL     1     -42.132   4.486   8.504  1.00  0.00     0.150 C 
BRANCH  37  38
HETATM   38  C5  UNL     1     -42.936   3.271   8.232  1.00  0.00     0.183 C 
BRANCH  38  39
HETATM   39  O1  UNL     1     -43.088   3.115   6.831  1.00  0.00    -0.399 OA
ATOM     40  H1  UNL     1     -42.259   3.293   6.403  1.00  0.00     0.209 HD
ENDBRANCH  38  39
ENDBRANCH  37  38
ENDBRANCH  36  37
BRANCH  36  41
HETATM   41  C6  UNL     1     -39.941   4.789   7.310  1.00  0.00     0.150 C 
BRANCH  41  42
HETATM   42  C7  UNL     1     -40.724   5.515   6.288  1.00  0.00     0.183 C 
BRANCH  42  43
HETATM   43  O2  UNL     1     -41.138   4.765   5.223  1.00  0.00    -0.399 OA
ATOM     44  H2  UNL     1     -41.504   5.255   4.497  1.00  0.00     0.209 HD
ENDBRANCH  42  43
ENDBRANCH  41  42
ENDBRANCH  36  41
ENDBRANCH   4  36
BRANCH   1  45
HETATM   45  N1  UNL     1     -39.028   0.337  10.432  1.00  0.00    -0.184 N 
HETATM   46  C1  UNL     1     -40.257  -0.436  10.652  1.00  0.00     0.175 C 
BRANCH  45  47
HETATM   47  C16 UNL     1     -37.856  -0.405  10.168  1.00  0.00     0.095 A 
HETATM   48  C17 UNL     1     -37.712  -1.698  10.669  1.00  0.00     0.073 A 
HETATM   49  C18 UNL     1     -36.553  -2.454  10.472  1.00  0.00     0.148 A 
HETATM   50  C19 UNL     1     -35.514  -1.926   9.764  1.00  0.00     0.134 A 
HETATM   51  N12 UNL     1     -35.663  -0.671   9.281  1.00  0.00    -0.327 N 
HETATM   52  C20 UNL     1     -36.786   0.073   9.468  1.00  0.00     0.145 A 
ATOM     53  H12 UNL     1     -34.895  -0.262   8.750  1.00  0.00     0.168 HD
HETATM   54  N13 UNL     1     -36.820   1.372   8.880  1.00  0.00    -0.080 NA
BRANCH  49  55
HETATM   55  N10 UNL     1     -36.505  -3.758  11.019  1.00  0.00    -0.112 N 
HETATM   56  O8  UNL     1     -37.552  -4.465  11.044  1.00  0.00    -0.532 OA
HETATM   57  O9  UNL     1     -35.394  -4.335  11.535  1.00  0.00    -0.532 OA
ENDBRANCH  49  55
BRANCH  50  58
HETATM   58  N11 UNL     1     -34.411  -2.541   9.513  1.00  0.00    -0.383 N 
ATOM     59 2H11 UNL     1     -34.453  -3.546   9.346  1.00  0.00     0.157 HD
ATOM     60 1H11 UNL     1     -33.493  -2.097   9.481  1.00  0.00     0.157 HD
ENDBRANCH  50  58
ENDBRANCH  45  47
ENDBRANCH   1  45
TORSDOF 19
ENDMDL
MODEL 4
REMARK VINA RESULT: -9.020108833      1.506      1.909
REMARK  19 active torsions:
REMARK  status: ('A' for Active; 'I' for Inactive)
REMARK    1  A    between atoms: N1_2  and  C2_3 
REMARK    2  A    between atoms: N1_2  and  C16_47 
REMARK    3  A    between atoms: C3_6  and  N3_7 
REMARK    4  A    between atoms: N3_7  and  C4_8 
REMARK    5  A    between atoms: N3_7  and  C6_12 
REMARK    6  A    between atoms: C4_8  and  C5_9 
REMARK    7  A    between atoms: C5_9  and  O1_10 
REMARK    8  A    between atoms: C6_12  and  C7_13 
REMARK    9  A    between atoms: C7_13  and  O2_14 
REMARK   10  A    between atoms: N5_20  and  C10_21 
REMARK   11  A    between atoms: C10_21  and  O3_22 
REMARK   12  A    between atoms: C11_24  and  O4_25 
REMARK   13  A    between atoms: C12_27  and  N6_28 
REMARK   14  A    between atoms: C13_32  and  O5_33 
REMARK   15  A    between atoms: C14_35  and  N7_36 
REMARK   16  A    between atoms: N7_36  and  S1_38 
REMARK   17  A    between atoms: S1_38  and  N8_39 
REMARK   18  A    between atoms: C18_49  and  N10_50 
REMARK   19  A    between atoms: C19_53  and  N11_54 
ROOT
HETATM    1  C2  UNL     1     -37.739   6.492  11.893  1.00  0.00     0.688 A 
HETATM    2  N2  UNL     1     -38.244   7.540  11.165  1.00  0.00    -0.174 N 
ATOM      3  H2  UNL     1     -38.021   8.494  11.446  1.00  0.00     0.186 HD
HETATM    4  C3  UNL     1     -39.027   7.337  10.087  1.00  0.00     0.150 A 
HETATM    5  C8  UNL     1     -39.310   6.042   9.740  1.00  0.00     0.123 A 
HETATM    6  N4  UNL     1     -40.029   5.472   8.775  1.00  0.00    -0.346 N 
ATOM      7  H4  UNL     1     -40.541   5.984   8.056  1.00  0.00     0.167 HD
HETATM    8  C9  UNL     1     -39.993   4.159   8.874  1.00  0.00     0.188 A 
HETATM    9  N5  UNL     1     -39.216   3.828   9.951  1.00  0.00    -0.289 N 
HETATM   10  C15 UNL     1     -38.797   4.972  10.483  1.00  0.00     0.157 A 
HETATM   11  N9  UNL     1     -38.028   5.226  11.537  1.00  0.00    -0.173 N 
ATOM     12  H9  UNL     1     -37.650   4.452  12.083  1.00  0.00     0.186 HD
ENDROOT
BRANCH   9  13
HETATM   13  C10 UNL     1     -39.003   2.470  10.309  1.00  0.00     0.192 C 
HETATM   14  C11 UNL     1     -40.258   1.716  10.729  1.00  0.00     0.209 C 
HETATM   15  C12 UNL     1     -39.659   0.323  10.943  1.00  0.00     0.247 C 
HETATM   16  C13 UNL     1     -38.511   0.210   9.991  1.00  0.00     0.179 C 
HETATM   17  C14 UNL     1     -38.460   1.569   9.269  1.00  0.00     0.184 C 
BRANCH  13  18
HETATM   18  O3  UNL     1     -38.142   2.349  11.432  1.00  0.00    -0.366 OA
ATOM     19  H3  UNL     1     -38.047   1.445  11.708  1.00  0.00     0.212 HD
ENDBRANCH  13  18
BRANCH  14  20
HETATM   20  O4  UNL     1     -41.190   1.647   9.701  1.00  0.00    -0.388 OA
ATOM     21  H4  UNL     1     -41.435   0.751   9.505  1.00  0.00     0.210 HD
ENDBRANCH  14  20
BRANCH  15  22
HETATM   22  N6  UNL     1     -40.674  -0.662  10.719  1.00  0.00    -0.070 N 
ATOM     23  H63 UNL     1     -40.971  -1.118  11.582  1.00  0.00     0.274 HD
ATOM     24  H62 UNL     1     -41.569  -0.245  10.462  1.00  0.00     0.274 HD
ATOM     25  H61 UNL     1     -40.343  -1.329  10.022  1.00  0.00     0.274 HD
ENDBRANCH  15  22
BRANCH  16  26
HETATM   26  O5  UNL     1     -38.680  -0.819   9.068  1.00  0.00    -0.391 OA
ATOM     27  H5  UNL     1     -37.888  -1.326   8.935  1.00  0.00     0.210 HD
ENDBRANCH  16  26
BRANCH  17  28
HETATM   28  N7  UNL     1     -37.097   1.851   8.941  1.00  0.00    -0.291 N 
ATOM     29  H7  UNL     1     -36.550   2.550   9.444  1.00  0.00     0.174 HD
BRANCH  28  30
HETATM   30  S1  UNL     1     -36.449   0.943   7.659  1.00  0.00     0.313 S 
HETATM   31  O6  UNL     1     -35.368   1.806   7.022  1.00  0.00    -0.183 OA
HETATM   32  O7  UNL     1     -35.715  -0.260   8.199  1.00  0.00    -0.183 OA
BRANCH  30  33
HETATM   33  N8  UNL     1     -37.578   0.492   6.465  1.00  0.00    -0.312 N 
ATOM     34  H82 UNL     1     -37.986   1.174   5.827  1.00  0.00     0.170 HD
ATOM     35  H81 UNL     1     -37.804  -0.502   6.446  1.00  0.00     0.170 HD
ENDBRANCH  30  33
ENDBRANCH  28  30
ENDBRANCH  17  28
ENDBRANCH   9  13
BRANCH   4  36
HETATM   36  N3  UNL     1     -39.527   8.424   9.330  1.00  0.00    -0.361 N 
BRANCH  36  37
HETATM   37  C4  UNL     1     -39.847   8.325   7.920  1.00  0.00     0.150 C 
BRANCH  37  38
HETATM   38  C5  UNL     1     -39.862   9.604   7.172  1.00  0.00     0.183 C 
BRANCH  38  39
HETATM   39  O1  UNL     1     -41.119   9.757   6.533  1.00  0.00    -0.399 OA
ATOM     40  H1  UNL     1     -40.984  10.088   5.652  1.00  0.00     0.209 HD
ENDBRANCH  38  39
ENDBRANCH  37  38
ENDBRANCH  36  37
BRANCH  36  41
HETATM   41  C6  UNL     1     -39.714   9.688  10.028  1.00  0.00     0.150 C 
BRANCH  41  42
HETATM   42  C7  UNL     1     -40.936   9.792  10.852  1.00  0.00     0.183 C 
BRANCH  42  43
HETATM   43  O2  UNL     1     -40.839   9.270  12.112  1.00  0.00    -0.399 OA
ATOM     44  H2  UNL     1     -41.607   8.804  12.420  1.00  0.00     0.209 HD
ENDBRANCH  42  43
ENDBRANCH  41  42
ENDBRANCH  36  41
ENDBRANCH   4  36
BRANCH   1  45
HETATM   45  N1  UNL     1     -36.953   6.876  12.997  1.00  0.00    -0.184 N 
HETATM   46  C1  UNL     1     -36.192   8.128  12.886  1.00  0.00     0.175 C 
BRANCH  45  47
HETATM   47  C16 UNL     1     -36.787   6.142  14.191  1.00  0.00     0.095 A 
HETATM   48  C17 UNL     1     -37.045   4.772  14.219  1.00  0.00     0.073 A 
HETATM   49  C18 UNL     1     -36.939   4.012  15.387  1.00  0.00     0.148 A 
HETATM   50  C19 UNL     1     -36.568   4.614  16.554  1.00  0.00     0.134 A 
HETATM   51  N12 UNL     1     -36.318   5.943  16.517  1.00  0.00    -0.327 N 
HETATM   52  C20 UNL     1     -36.420   6.691  15.386  1.00  0.00     0.145 A 
ATOM     53  H12 UNL     1     -36.040   6.407  17.381  1.00  0.00     0.168 HD
HETATM   54  N13 UNL     1     -36.101   8.079  15.484  1.00  0.00    -0.080 NA
BRANCH  49  55
HETATM   55  N10 UNL     1     -37.220   2.628  15.312  1.00  0.00    -0.112 N 
HETATM   56  O8  UNL     1     -38.154   2.141  16.010  1.00  0.00    -0.532 OA
HETATM   57  O9  UNL     1     -36.553   1.748  14.528  1.00  0.00    -0.532 OA
ENDBRANCH  49  55
BRANCH  50  58
HETATM   58  N11 UNL     1     -36.426   4.005  17.679  1.00  0.00    -0.383 N 
ATOM     59 2H11 UNL     1     -36.130   3.029  17.660  1.00  0.00     0.157 HD
ATOM     60 1H11 UNL     1     -36.599   4.425  18.592  1.00  0.00     0.157 HD
ENDBRANCH  50  58
ENDBRANCH  45  47
ENDBRANCH   1  45
TORSDOF 19
ENDMDL
MODEL 5
REMARK VINA RESULT: -8.988962550      5.303      8.180
REMARK  19 active torsions:
REMARK  status: ('A' for Active; 'I' for Inactive)
REMARK    1  A    between atoms: N1_2  and  C2_3 
REMARK    2  A    between atoms: N1_2  and  C16_47 
REMARK    3  A    between atoms: C3_6  and  N3_7 
REMARK    4  A    between atoms: N3_7  and  C4_8 
REMARK    5  A    between atoms: N3_7  and  C6_12 
REMARK    6  A    between atoms: C4_8  and  C5_9 
REMARK    7  A    between atoms: C5_9  and  O1_10 
REMARK    8  A    between atoms: C6_12  and  C7_13 
REMARK    9  A    between atoms: C7_13  and  O2_14 
REMARK   10  A    between atoms: N5_20  and  C10_21 
REMARK   11  A    between atoms: C10_21  and  O3_22 
REMARK   12  A    between atoms: C11_24  and  O4_25 
REMARK   13  A    between atoms: C12_27  and  N6_28 
REMARK   14  A    between atoms: C13_32  and  O5_33 
REMARK   15  A    between atoms: C14_35  and  N7_36 
REMARK   16  A    between atoms: N7_36  and  S1_38 
REMARK   17  A    between atoms: S1_38  and  N8_39 
REMARK   18  A    between atoms: C18_49  and  N10_50 
REMARK   19  A    between atoms: C19_53  and  N11_54 
ROOT
HETATM    1  C2  UNL     1     -33.874   8.829  13.925  1.00  0.00     0.688 A 
HETATM    2  N2  UNL     1     -34.233  10.058  13.431  1.00  0.00    -0.174 N 
ATOM      3  H2  UNL     1     -33.504  10.733  13.198  1.00  0.00     0.186 HD
HETATM    4  C3  UNL     1     -35.524  10.393  13.246  1.00  0.00     0.150 A 
HETATM    5  C8  UNL     1     -36.477   9.464  13.571  1.00  0.00     0.123 A 
HETATM    6  N4  UNL     1     -37.808   9.441  13.533  1.00  0.00    -0.346 N 
ATOM      7  H4  UNL     1     -38.390  10.214  13.209  1.00  0.00     0.167 HD
HETATM    8  C9  UNL     1     -38.272   8.288  13.969  1.00  0.00     0.188 A 
HETATM    9  N5  UNL     1     -37.209   7.498  14.317  1.00  0.00    -0.289 N 
HETATM   10  C15 UNL     1     -36.112   8.210  14.077  1.00  0.00     0.157 A 
HETATM   11  N9  UNL     1     -34.823   7.928  14.240  1.00  0.00    -0.173 N 
ATOM     12  H9  UNL     1     -34.550   7.017  14.607  1.00  0.00     0.186 HD
ENDROOT
BRANCH   9  13
HETATM   13  C10 UNL     1     -37.409   6.190  14.834  1.00  0.00     0.192 C 
HETATM   14  C11 UNL     1     -36.890   5.068  13.944  1.00  0.00     0.209 C 
HETATM   15  C12 UNL     1     -37.197   3.868  14.845  1.00  0.00     0.247 C 
HETATM   16  C13 UNL     1     -37.094   4.363  16.253  1.00  0.00     0.179 C 
HETATM   17  C14 UNL     1     -36.760   5.860  16.122  1.00  0.00     0.184 C 
BRANCH  13  18
HETATM   18  O3  UNL     1     -38.788   5.890  14.992  1.00  0.00    -0.366 OA
ATOM     19  H3  UNL     1     -39.050   5.148  14.460  1.00  0.00     0.212 HD
ENDBRANCH  13  18
BRANCH  14  20
HETATM   20  O4  UNL     1     -35.516   5.146  13.758  1.00  0.00    -0.388 OA
ATOM     21  H4  UNL     1     -35.291   5.652  12.987  1.00  0.00     0.210 HD
ENDBRANCH  14  20
BRANCH  15  22
HETATM   22  N6  UNL     1     -36.271   2.815  14.552  1.00  0.00    -0.070 N 
ATOM     23  H63 UNL     1     -35.806   2.945  13.653  1.00  0.00     0.274 HD
ATOM     24  H62 UNL     1     -35.443   2.849  15.147  1.00  0.00     0.274 HD
ATOM     25  H61 UNL     1     -36.755   1.919  14.612  1.00  0.00     0.274 HD
ENDBRANCH  15  22
BRANCH  16  26
HETATM   26  O5  UNL     1     -36.101   3.711  16.980  1.00  0.00    -0.391 OA
ATOM     27  H5  UNL     1     -35.314   4.233  17.074  1.00  0.00     0.210 HD
ENDBRANCH  16  26
BRANCH  17  28
HETATM   28  N7  UNL     1     -37.342   6.548  17.233  1.00  0.00    -0.291 N 
ATOM     29  H7  UNL     1     -38.262   6.307  17.601  1.00  0.00     0.174 HD
BRANCH  28  30
HETATM   30  S1  UNL     1     -36.398   7.794  17.898  1.00  0.00     0.313 S 
HETATM   31  O6  UNL     1     -35.036   7.713  17.220  1.00  0.00    -0.183 OA
HETATM   32  O7  UNL     1     -36.953   9.137  17.489  1.00  0.00    -0.183 OA
BRANCH  30  33
HETATM   33  N8  UNL     1     -36.186   7.703  19.587  1.00  0.00    -0.312 N 
ATOM     34  H82 UNL     1     -35.284   7.474  20.003  1.00  0.00     0.170 HD
ATOM     35  H81 UNL     1     -37.026   7.895  20.132  1.00  0.00     0.170 HD
ENDBRANCH  30  33
ENDBRANCH  28  30
ENDBRANCH  17  28
ENDBRANCH   9  13
BRANCH   4  36
HETATM   36  N3  UNL     1     -35.884  11.656  12.717  1.00  0.00    -0.361 N 
BRANCH  36  37
HETATM   37  C4  UNL     1     -34.957  12.765  12.614  1.00  0.00     0.150 C 
BRANCH  37  38
HETATM   38  C5  UNL     1     -34.493  13.338  13.899  1.00  0.00     0.183 C 
BRANCH  38  39
HETATM   39  O1  UNL     1     -33.185  12.866  14.176  1.00  0.00    -0.399 OA
ATOM     40  H1  UNL     1     -32.790  13.411  14.847  1.00  0.00     0.209 HD
ENDBRANCH  38  39
ENDBRANCH  37  38
ENDBRANCH  36  37
BRANCH  36  41
HETATM   41  C6  UNL     1     -37.260  11.819  12.266  1.00  0.00     0.150 C 
BRANCH  41  42
HETATM   42  C7  UNL     1     -37.902  13.102  12.616  1.00  0.00     0.183 C 
BRANCH  42  43
HETATM   43  O2  UNL     1     -38.248  13.245  13.930  1.00  0.00    -0.399 OA
ATOM     44  H2  UNL     1     -37.637  13.742  14.461  1.00  0.00     0.209 HD
ENDBRANCH  42  43
ENDBRANCH  41  42
ENDBRANCH  36  41
ENDBRANCH   4  36
BRANCH   1  45
HETATM   45  N1  UNL     1     -32.485   8.644  14.072  1.00  0.00    -0.184 N 
HETATM   46  C1  UNL     1     -31.972   7.270  13.996  1.00  0.00     0.175 C 
BRANCH  45  47
HETATM   47  C16 UNL     1     -31.538   9.656  14.337  1.00  0.00     0.095 A 
HETATM   48  C17 UNL     1     -30.508   9.913  13.432  1.00  0.00     0.073 A 
HETATM   49  C18 UNL     1     -29.522  10.874  13.670  1.00  0.00     0.148 A 
HETATM   50  C19 UNL     1     -29.551  11.600  14.825  1.00  0.00     0.134 A 
HETATM   51  N12 UNL     1     -30.554  11.346  15.696  1.00  0.00    -0.327 N 
HETATM   52  C20 UNL     1     -31.518  10.413  15.473  1.00  0.00     0.145 A 
ATOM     53  H12 UNL     1     -30.590  11.880  16.563  1.00  0.00     0.168 HD
HETATM   54  N13 UNL     1     -32.533  10.266  16.465  1.00  0.00    -0.080 NA
BRANCH  49  55
HETATM   55  N10 UNL     1     -28.520  11.060  12.690  1.00  0.00    -0.112 N 
HETATM   56  O8  UNL     1     -28.322  10.165  11.820  1.00  0.00    -0.532 OA
HETATM   57  O9  UNL     1     -27.726  12.155  12.598  1.00  0.00    -0.532 OA
ENDBRANCH  49  55
BRANCH  50  58
HETATM   58  N11 UNL     1     -28.702  12.516  15.135  1.00  0.00    -0.383 N 
ATOM     59 2H11 UNL     1     -28.299  12.498  16.072  1.00  0.00     0.157 HD
ATOM     60 1H11 UNL     1     -28.408  13.270  14.513  1.00  0.00     0.157 HD
ENDBRANCH  50  58
ENDBRANCH  45  47
ENDBRANCH   1  45
TORSDOF 19
ENDMDL
