MODEL 1
REMARK VINA RESULT: -9.275129327      0.000      0.000
REMARK  7 active torsions:
REMARK  status: ('A' for Active; 'I' for Inactive)
REMARK    1  A    between atoms: C2_2  and  C3_3 
REMARK    2  A    between atoms: C6_6  and  C7_7 
REMARK    3  A    between atoms: C7_7  and  S1_8 
REMARK    4  A    between atoms: S1_8  and  C8_9 
REMARK    5  A    between atoms: C8_9  and  N3_26 
REMARK    6  A    between atoms: N1_10  and  C9_12 
REMARK    7  A    between atoms: C11_14  and  C12_15 
ROOT
HETATM    1  C12 UNL     1      19.164  15.408  61.464  1.00  0.00     0.086 C 
HETATM    2  C13 UNL     1      19.848  16.677  61.176  1.00  0.00     0.074 C 
HETATM    3  N2  UNL     1      20.391  17.673  60.941  1.00  0.00    -0.196 NA
HETATM    4  C14 UNL     1      19.874  14.687  62.532  1.00  0.00     0.056 C 
HETATM    5  C15 UNL     1      20.516  13.385  62.158  1.00  0.00     0.169 C 
HETATM    6  O1  UNL     1      20.691  13.198  60.796  1.00  0.00    -0.391 OA
HETATM    7  C16 UNL     1      19.419  13.216  60.229  1.00  0.00     0.169 C 
HETATM    8  C17 UNL     1      18.975  14.635  60.181  1.00  0.00     0.056 C 
ENDROOT
BRANCH   1   9
HETATM    9  C11 UNL     1      17.772  15.795  61.910  1.00  0.00     0.009 A 
HETATM   10  C10 UNL     1      16.931  15.181  62.796  1.00  0.00     0.048 A 
HETATM   11  C9  UNL     1      15.732  15.754  63.020  1.00  0.00     0.064 A 
HETATM   12  C18 UNL     1      15.468  16.919  62.324  1.00  0.00     0.101 A 
HETATM   13  S2  UNL     1      16.864  17.165  61.409  1.00  0.00    -0.078 SA
HETATM   14 CL1  UNL     1      14.009  17.934  62.394  1.00  0.00    -0.074 Cl
BRANCH  11  15
HETATM   15  N1  UNL     1      14.690  15.286  63.915  1.00  0.00    -0.334 N 
HETATM   16  C8  UNL     1      14.010  14.249  63.845  1.00  0.00     0.154 C 
ATOM     17  H1  UNL     1      14.489  15.891  64.711  1.00  0.00     0.168 HD
BRANCH  16  18
HETATM   18  S1  UNL     1      12.788  13.965  65.144  1.00  0.00    -0.089 SA
BRANCH  18  19
HETATM   19  C7  UNL     1      11.772  15.457  65.253  1.00  0.00     0.121 C 
BRANCH  19  20
HETATM   20  C6  UNL     1      10.338  15.151  65.426  1.00  0.00    -0.048 A 
HETATM   21  C5  UNL     1       9.384  15.731  64.650  1.00  0.00     0.009 A 
HETATM   22  C4  UNL     1       8.046  15.432  64.847  1.00  0.00     0.012 A 
HETATM   23  C3  UNL     1       7.629  14.541  65.823  1.00  0.00    -0.037 A 
HETATM   24  C21 UNL     1       8.601  13.956  66.603  1.00  0.00     0.012 A 
HETATM   25  C20 UNL     1       9.936  14.237  66.428  1.00  0.00     0.009 A 
BRANCH  23  26
HETATM   26  C2  UNL     1       6.199  14.263  66.045  1.00  0.00     0.001 C 
HETATM   27  C1  UNL     1       5.458  13.472  65.459  1.00  0.00     0.012 C 
ENDBRANCH  23  26
ENDBRANCH  19  20
ENDBRANCH  18  19
ENDBRANCH  16  18
BRANCH  16  28
HETATM   28  N3  UNL     1      14.113  13.261  62.848  1.00  0.00    -0.274 N 
HETATM   29  C19 UNL     1      15.012  12.211  62.934  1.00  0.00     0.183 C 
HETATM   30  N4  UNL     1      15.761  11.322  62.988  1.00  0.00    -0.172 NA
ATOM     31  H3  UNL     1      13.504  13.321  62.032  1.00  0.00     0.180 HD
ENDBRANCH  16  28
ENDBRANCH  11  15
ENDBRANCH   1   9
TORSDOF 7
ENDMDL
MODEL 2
REMARK VINA RESULT: -9.188057745      1.973      2.638
REMARK  7 active torsions:
REMARK  status: ('A' for Active; 'I' for Inactive)
REMARK    1  A    between atoms: C2_2  and  C3_3 
REMARK    2  A    between atoms: C6_6  and  C7_7 
REMARK    3  A    between atoms: C7_7  and  S1_8 
REMARK    4  A    between atoms: S1_8  and  C8_9 
REMARK    5  A    between atoms: C8_9  and  N3_26 
REMARK    6  A    between atoms: N1_10  and  C9_12 
REMARK    7  A    between atoms: C11_14  and  C12_15 
ROOT
HETATM    1  C12 UNL     1      20.084  15.322  59.992  1.00  0.00     0.086 C 
HETATM    2  C13 UNL     1      19.620  13.953  59.725  1.00  0.00     0.074 C 
HETATM    3  N2  UNL     1      19.264  12.870  59.518  1.00  0.00    -0.196 NA
HETATM    4  C14 UNL     1      20.321  16.026  58.722  1.00  0.00     0.056 C 
HETATM    5  C15 UNL     1      21.737  16.414  58.417  1.00  0.00     0.169 C 
HETATM    6  O1  UNL     1      22.692  15.744  59.166  1.00  0.00    -0.391 OA
HETATM    7  C16 UNL     1      22.446  16.067  60.499  1.00  0.00     0.169 C 
HETATM    8  C17 UNL     1      21.262  15.281  60.935  1.00  0.00     0.056 C 
ENDROOT
BRANCH   1   9
HETATM    9  C11 UNL     1      18.967  15.979  60.770  1.00  0.00     0.009 A 
HETATM   10  C10 UNL     1      17.687  15.557  60.996  1.00  0.00     0.048 A 
HETATM   11  C9  UNL     1      16.890  16.346  61.745  1.00  0.00     0.064 A 
HETATM   12  C18 UNL     1      17.454  17.517  62.217  1.00  0.00     0.101 A 
HETATM   13  S2  UNL     1      19.030  17.475  61.614  1.00  0.00    -0.078 SA
HETATM   14 CL1  UNL     1      16.703  18.765  63.238  1.00  0.00    -0.074 Cl
BRANCH  11  15
HETATM   15  N1  UNL     1      15.509  16.098  62.116  1.00  0.00    -0.334 N 
HETATM   16  C8  UNL     1      15.051  15.247  62.896  1.00  0.00     0.154 C 
ATOM     17  H1  UNL     1      14.820  16.707  61.675  1.00  0.00     0.168 HD
BRANCH  16  18
HETATM   18  S1  UNL     1      13.262  15.216  63.138  1.00  0.00    -0.089 SA
BRANCH  18  19
HETATM   19  C7  UNL     1      12.969  15.017  64.912  1.00  0.00     0.121 C 
BRANCH  19  20
HETATM   20  C6  UNL     1      11.534  14.901  65.237  1.00  0.00    -0.048 A 
HETATM   21  C5  UNL     1      11.099  14.200  66.316  1.00  0.00     0.009 A 
HETATM   22  C4  UNL     1       9.743  14.100  66.584  1.00  0.00     0.012 A 
HETATM   23  C3  UNL     1       8.790  14.704  65.781  1.00  0.00    -0.037 A 
HETATM   24  C21 UNL     1       9.238  15.414  64.691  1.00  0.00     0.012 A 
HETATM   25  C20 UNL     1      10.578  15.527  64.402  1.00  0.00     0.009 A 
BRANCH  23  26
HETATM   26  C2  UNL     1       7.349  14.555  66.058  1.00  0.00     0.001 C 
HETATM   27  C1  UNL     1       6.385  14.982  65.422  1.00  0.00     0.012 C 
ENDBRANCH  23  26
ENDBRANCH  19  20
ENDBRANCH  18  19
ENDBRANCH  16  18
BRANCH  16  28
HETATM   28  N3  UNL     1      15.804  14.307  63.624  1.00  0.00    -0.274 N 
HETATM   29  C19 UNL     1      15.925  12.986  63.227  1.00  0.00     0.183 C 
HETATM   30  N4  UNL     1      16.038  11.872  62.911  1.00  0.00    -0.172 NA
ATOM     31  H3  UNL     1      16.278  14.610  64.476  1.00  0.00     0.180 HD
ENDBRANCH  16  28
ENDBRANCH  11  15
ENDBRANCH   1   9
TORSDOF 7
ENDMDL
MODEL 3
REMARK VINA RESULT: -9.112194331      1.699      2.197
REMARK  7 active torsions:
REMARK  status: ('A' for Active; 'I' for Inactive)
REMARK    1  A    between atoms: C2_2  and  C3_3 
REMARK    2  A    between atoms: C6_6  and  C7_7 
REMARK    3  A    between atoms: C7_7  and  S1_8 
REMARK    4  A    between atoms: S1_8  and  C8_9 
REMARK    5  A    between atoms: C8_9  and  N3_26 
REMARK    6  A    between atoms: N1_10  and  C9_12 
REMARK    7  A    between atoms: C11_14  and  C12_15 
ROOT
HETATM    1  C12 UNL     1      20.553  15.224  60.202  1.00  0.00     0.086 C 
HETATM    2  C13 UNL     1      20.785  15.968  58.956  1.00  0.00     0.074 C 
HETATM    3  N2  UNL     1      20.970  16.546  57.969  1.00  0.00    -0.196 NA
HETATM    4  C14 UNL     1      21.740  15.311  61.066  1.00  0.00     0.056 C 
HETATM    5  C15 UNL     1      22.481  14.034  61.329  1.00  0.00     0.169 C 
HETATM    6  O1  UNL     1      22.195  13.009  60.442  1.00  0.00    -0.391 OA
HETATM    7  C16 UNL     1      20.835  12.739  60.576  1.00  0.00     0.169 C 
HETATM    8  C17 UNL     1      20.097  13.822  59.874  1.00  0.00     0.056 C 
ENDROOT
BRANCH   1   9
HETATM    9  C11 UNL     1      19.363  15.892  60.853  1.00  0.00     0.009 A 
HETATM   10  C10 UNL     1      18.100  15.420  61.070  1.00  0.00     0.048 A 
HETATM   11  C9  UNL     1      17.224  16.235  61.691  1.00  0.00     0.064 A 
HETATM   12  C18 UNL     1      17.696  17.484  62.051  1.00  0.00     0.101 A 
HETATM   13  S2  UNL     1      19.300  17.473  61.524  1.00  0.00    -0.078 SA
HETATM   14 CL1  UNL     1      16.826  18.787  62.891  1.00  0.00    -0.074 Cl
BRANCH  11  15
HETATM   15  N1  UNL     1      15.843  15.945  62.028  1.00  0.00    -0.334 N 
HETATM   16  C8  UNL     1      15.392  15.070  62.785  1.00  0.00     0.154 C 
ATOM     17  H1  UNL     1      15.147  16.541  61.581  1.00  0.00     0.168 HD
BRANCH  16  18
HETATM   18  S1  UNL     1      13.599  14.987  62.988  1.00  0.00    -0.089 SA
BRANCH  18  19
HETATM   19  C7  UNL     1      13.271  14.842  64.761  1.00  0.00     0.121 C 
BRANCH  19  20
HETATM   20  C6  UNL     1      11.828  14.864  65.071  1.00  0.00    -0.048 A 
HETATM   21  C5  UNL     1      11.329  14.290  66.196  1.00  0.00     0.009 A 
HETATM   22  C4  UNL     1       9.967  14.316  66.450  1.00  0.00     0.012 A 
HETATM   23  C3  UNL     1       9.071  14.921  65.584  1.00  0.00    -0.037 A 
HETATM   24  C21 UNL     1       9.584  15.503  64.447  1.00  0.00     0.012 A 
HETATM   25  C20 UNL     1      10.932  15.489  64.172  1.00  0.00     0.009 A 
BRANCH  23  26
HETATM   26  C2  UNL     1       7.621  14.907  65.849  1.00  0.00     0.001 C 
HETATM   27  C1  UNL     1       6.692  15.262  65.122  1.00  0.00     0.012 C 
ENDBRANCH  23  26
ENDBRANCH  19  20
ENDBRANCH  18  19
ENDBRANCH  16  18
BRANCH  16  28
HETATM   28  N3  UNL     1      16.154  14.140  63.517  1.00  0.00    -0.274 N 
HETATM   29  C19 UNL     1      16.213  12.799  63.177  1.00  0.00     0.183 C 
HETATM   30  N4  UNL     1      16.274  11.668  62.909  1.00  0.00    -0.172 NA
ATOM     31  H3  UNL     1      16.683  14.466  64.326  1.00  0.00     0.180 HD
ENDBRANCH  16  28
ENDBRANCH  11  15
ENDBRANCH   1   9
TORSDOF 7
ENDMDL
MODEL 4
REMARK VINA RESULT: -9.040840239      1.166      1.925
REMARK  7 active torsions:
REMARK  status: ('A' for Active; 'I' for Inactive)
REMARK    1  A    between atoms: C2_2  and  C3_3 
REMARK    2  A    between atoms: C6_6  and  C7_7 
REMARK    3  A    between atoms: C7_7  and  S1_8 
REMARK    4  A    between atoms: S1_8  and  C8_9 
REMARK    5  A    between atoms: C8_9  and  N3_26 
REMARK    6  A    between atoms: N1_10  and  C9_12 
REMARK    7  A    between atoms: C11_14  and  C12_15 
ROOT
HETATM    1  C12 UNL     1      19.053  15.215  61.408  1.00  0.00     0.086 C 
HETATM    2  C13 UNL     1      19.413  14.083  62.275  1.00  0.00     0.074 C 
HETATM    3  N2  UNL     1      19.707  13.196  62.959  1.00  0.00    -0.196 NA
HETATM    4  C14 UNL     1      19.020  14.779  60.003  1.00  0.00     0.056 C 
HETATM    5  C15 UNL     1      20.043  15.378  59.085  1.00  0.00     0.169 C 
HETATM    6  O1  UNL     1      21.119  15.969  59.727  1.00  0.00    -0.391 OA
HETATM    7  C16 UNL     1      20.597  17.002  60.502  1.00  0.00     0.169 C 
HETATM    8  C17 UNL     1      19.966  16.383  61.698  1.00  0.00     0.056 C 
ENDROOT
BRANCH   1   9
HETATM    9  C11 UNL     1      17.681  15.652  61.868  1.00  0.00     0.009 A 
HETATM   10  C10 UNL     1      16.825  15.067  62.758  1.00  0.00     0.048 A 
HETATM   11  C9  UNL     1      15.650  15.683  62.995  1.00  0.00     0.064 A 
HETATM   12  C18 UNL     1      15.424  16.861  62.306  1.00  0.00     0.101 A 
HETATM   13  S2  UNL     1      16.821  17.057  61.380  1.00  0.00    -0.078 SA
HETATM   14 CL1  UNL     1      14.005  17.929  62.393  1.00  0.00    -0.074 Cl
BRANCH  11  15
HETATM   15  N1  UNL     1      14.599  15.250  63.897  1.00  0.00    -0.334 N 
HETATM   16  C8  UNL     1      13.909  14.218  63.853  1.00  0.00     0.154 C 
ATOM     17  H1  UNL     1      14.399  15.880  64.674  1.00  0.00     0.168 HD
BRANCH  16  18
HETATM   18  S1  UNL     1      12.677  13.983  65.153  1.00  0.00    -0.089 SA
BRANCH  18  19
HETATM   19  C7  UNL     1      11.628  15.457  65.163  1.00  0.00     0.121 C 
BRANCH  19  20
HETATM   20  C6  UNL     1      10.211  15.137  65.425  1.00  0.00    -0.048 A 
HETATM   21  C5  UNL     1       9.844  14.255  66.392  1.00  0.00     0.009 A 
HETATM   22  C4  UNL     1       8.505  13.966  66.603  1.00  0.00     0.012 A 
HETATM   23  C3  UNL     1       7.500  14.557  65.854  1.00  0.00    -0.037 A 
HETATM   24  C21 UNL     1       7.880  15.450  64.878  1.00  0.00     0.012 A 
HETATM   25  C20 UNL     1       9.202  15.753  64.648  1.00  0.00     0.009 A 
BRANCH  23  26
HETATM   26  C2  UNL     1       6.083  14.210  66.065  1.00  0.00     0.001 C 
HETATM   27  C1  UNL     1       5.362  13.451  65.417  1.00  0.00     0.012 C 
ENDBRANCH  23  26
ENDBRANCH  19  20
ENDBRANCH  18  19
ENDBRANCH  16  18
BRANCH  16  28
HETATM   28  N3  UNL     1      14.007  13.202  62.884  1.00  0.00    -0.274 N 
HETATM   29  C19 UNL     1      14.944  12.186  62.969  1.00  0.00     0.183 C 
HETATM   30  N4  UNL     1      15.725  11.324  63.021  1.00  0.00    -0.172 NA
ATOM     31  H3  UNL     1      13.365  13.214  62.091  1.00  0.00     0.180 HD
ENDBRANCH  16  28
ENDBRANCH  11  15
ENDBRANCH   1   9
TORSDOF 7
ENDMDL
MODEL 5
REMARK VINA RESULT: -8.947812379      2.294      3.327
REMARK  7 active torsions:
REMARK  status: ('A' for Active; 'I' for Inactive)
REMARK    1  A    between atoms: C2_2  and  C3_3 
REMARK    2  A    between atoms: C6_6  and  C7_7 
REMARK    3  A    between atoms: C7_7  and  S1_8 
REMARK    4  A    between atoms: S1_8  and  C8_9 
REMARK    5  A    between atoms: C8_9  and  N3_26 
REMARK    6  A    between atoms: N1_10  and  C9_12 
REMARK    7  A    between atoms: C11_14  and  C12_15 
ROOT
HETATM    1  C12 UNL     1      18.727  15.656  62.027  1.00  0.00     0.086 C 
HETATM    2  C13 UNL     1      19.951  14.939  62.412  1.00  0.00     0.074 C 
HETATM    3  N2  UNL     1      20.920  14.384  62.719  1.00  0.00    -0.196 NA
HETATM    4  C14 UNL     1      18.676  15.812  60.565  1.00  0.00     0.056 C 
HETATM    5  C15 UNL     1      18.760  17.211  60.031  1.00  0.00     0.169 C 
HETATM    6  O1  UNL     1      19.247  18.144  60.932  1.00  0.00    -0.391 OA
HETATM    7  C16 UNL     1      18.359  18.158  62.005  1.00  0.00     0.169 C 
HETATM    8  C17 UNL     1      18.624  16.940  62.815  1.00  0.00     0.056 C 
ENDROOT
BRANCH   1   9
HETATM    9  C11 UNL     1      17.586  14.792  62.515  1.00  0.00     0.009 A 
HETATM   10  C10 UNL     1      16.473  15.129  63.232  1.00  0.00     0.048 A 
HETATM   11  C9  UNL     1      15.597  14.148  63.528  1.00  0.00     0.064 A 
HETATM   12  C18 UNL     1      15.916  12.882  63.072  1.00  0.00     0.101 A 
HETATM   13  S2  UNL     1      17.384  13.103  62.270  1.00  0.00    -0.078 SA
HETATM   14 CL1  UNL     1      14.987  11.377  63.267  1.00  0.00    -0.074 Cl
BRANCH  11  15
HETATM   15  N1  UNL     1      14.355  14.274  64.268  1.00  0.00    -0.334 N 
HETATM   16  C8  UNL     1      13.333  14.915  63.973  1.00  0.00     0.154 C 
ATOM     17  H1  UNL     1      14.316  13.767  65.152  1.00  0.00     0.168 HD
BRANCH  16  18
HETATM   18  S1  UNL     1      11.947  14.852  65.129  1.00  0.00    -0.089 SA
BRANCH  18  19
HETATM   19  C7  UNL     1      10.559  15.703  64.341  1.00  0.00     0.121 C 
BRANCH  19  20
HETATM   20  C6  UNL     1       9.255  15.277  64.886  1.00  0.00    -0.048 A 
HETATM   21  C5  UNL     1       9.160  14.557  66.034  1.00  0.00     0.009 A 
HETATM   22  C4  UNL     1       7.921  14.161  66.511  1.00  0.00     0.012 A 
HETATM   23  C3  UNL     1       6.745  14.480  65.852  1.00  0.00    -0.037 A 
HETATM   24  C21 UNL     1       6.849  15.210  64.690  1.00  0.00     0.012 A 
HETATM   25  C20 UNL     1       8.067  15.614  64.195  1.00  0.00     0.009 A 
BRANCH  23  26
HETATM   26  C2  UNL     1       5.437  14.018  66.352  1.00  0.00     0.001 C 
HETATM   27  C1  UNL     1       4.677  14.555  67.158  1.00  0.00     0.012 C 
ENDBRANCH  23  26
ENDBRANCH  19  20
ENDBRANCH  18  19
ENDBRANCH  16  18
BRANCH  16  28
HETATM   28  N3  UNL     1      13.149  15.681  62.807  1.00  0.00    -0.274 N 
HETATM   29  C19 UNL     1      13.585  16.991  62.704  1.00  0.00     0.183 C 
HETATM   30  N4  UNL     1      13.943  18.094  62.598  1.00  0.00    -0.172 NA
ATOM     31  H3  UNL     1      12.677  15.256  62.008  1.00  0.00     0.180 HD
ENDBRANCH  16  28
ENDBRANCH  11  15
ENDBRANCH   1   9
TORSDOF 7
ENDMDL
