MODEL 1
REMARK VINA RESULT: -9.594868528      0.000      0.000
REMARK  6 active torsions:
REMARK  status: ('A' for Active; 'I' for Inactive)
REMARK    1  A    between atoms: C2_2  and  C3_4 
REMARK    2  A    between atoms: C4_5  and  N1_6 
REMARK       I    between atoms: N1_6  and  C5_8 
REMARK    3  A    between atoms: C5_8  and  C6_10 
REMARK    4  A    between atoms: C6_10  and  S1_11 
REMARK    5  A    between atoms: S1_11  and  C7_12 
REMARK    6  A    between atoms: C16_27  and  C17_28 
ROOT
HETATM    1  C3  UNL     1      14.026  14.499  63.239  1.00  0.00     0.055 A 
HETATM    2  C4  UNL     1      12.966  15.388  63.352  1.00  0.00     0.092 A 
HETATM    3  S2  UNL     1      13.659  16.894  62.913  1.00  0.00    -0.071 SA
HETATM    4  C13 UNL     1      15.244  16.381  62.602  1.00  0.00     0.021 A 
HETATM    5  C14 UNL     1      16.401  17.072  62.187  1.00  0.00     0.062 A 
HETATM    6  C15 UNL     1      17.580  16.399  62.005  1.00  0.00     0.124 A 
HETATM    7  F1  UNL     1      18.673  17.094  61.607  1.00  0.00    -0.205 F 
HETATM    8  C16 UNL     1      17.569  15.068  62.240  1.00  0.00    -0.011 A 
HETATM    9  C21 UNL     1      16.444  14.394  62.644  1.00  0.00     0.025 A 
HETATM   10  C22 UNL     1      15.212  15.038  62.844  1.00  0.00    -0.002 A 
ENDROOT
BRANCH   2  11
HETATM   11  N1  UNL     1      11.595  15.189  63.734  1.00  0.00    -0.320 N 
HETATM   12  C5  UNL     1      11.303  15.258  65.136  1.00  0.00     0.232 C 
HETATM   13  O2  UNL     1      12.198  15.481  65.984  1.00  0.00    -0.272 OA
ATOM     14  H1  UNL     1      10.867  15.008  63.044  1.00  0.00     0.169 HD
BRANCH  12  15
HETATM   15  C6  UNL     1       9.910  15.060  65.568  1.00  0.00     0.185 C 
BRANCH  15  16
HETATM   16  S1  UNL     1       8.801  15.451  64.212  1.00  0.00    -0.085 SA
BRANCH  16  17
HETATM   17  C7  UNL     1       7.212  14.679  64.417  1.00  0.00     0.145 A 
HETATM   18  N2  UNL     1       6.644  13.973  63.426  1.00  0.00    -0.341 N 
HETATM   19  C8  UNL     1       5.459  13.397  63.578  1.00  0.00     0.009 A 
ATOM     20  H2  UNL     1       7.135  13.878  62.537  1.00  0.00     0.167 HD
HETATM   21  C9  UNL     1       4.843  12.621  62.482  1.00  0.00     0.068 C 
HETATM   22  C10 UNL     1       4.807  13.541  64.801  1.00  0.00     0.049 A 
HETATM   23  C11 UNL     1       5.393  14.271  65.822  1.00  0.00     0.009 A 
HETATM   24  C12 UNL     1       4.705  14.435  67.142  1.00  0.00     0.068 C 
HETATM   25  N3  UNL     1       6.594  14.833  65.615  1.00  0.00    -0.341 N 
ATOM     26  H3  UNL     1       7.040  15.373  66.356  1.00  0.00     0.167 HD
ENDBRANCH  16  17
ENDBRANCH  15  16
ENDBRANCH  12  15
ENDBRANCH   2  11
BRANCH   1  27
HETATM   27  C2  UNL     1      13.756  13.072  63.554  1.00  0.00     0.159 C 
HETATM   28  C1  UNL     1      13.930  11.921  62.667  1.00  0.00     0.097 C 
HETATM   29  O1  UNL     1      13.319  12.744  64.721  1.00  0.00    -0.293 OA
ENDBRANCH   1  27
BRANCH   8  30
HETATM   30  C17 UNL     1      18.869  14.347  62.037  1.00  0.00    -0.021 C 
HETATM   31  C18 UNL     1      20.040  15.203  62.468  1.00  0.00     0.019 C 
HETATM   32  C19 UNL     1      19.050  13.930  60.592  1.00  0.00     0.019 C 
HETATM   33  C20 UNL     1      18.908  13.081  62.868  1.00  0.00     0.019 C 
ENDBRANCH   8  30
TORSDOF 6
ENDMDL
MODEL 2
REMARK VINA RESULT: -9.554960098      0.053      1.557
REMARK  6 active torsions:
REMARK  status: ('A' for Active; 'I' for Inactive)
REMARK    1  A    between atoms: C2_2  and  C3_4 
REMARK    2  A    between atoms: C4_5  and  N1_6 
REMARK       I    between atoms: N1_6  and  C5_8 
REMARK    3  A    between atoms: C5_8  and  C6_10 
REMARK    4  A    between atoms: C6_10  and  S1_11 
REMARK    5  A    between atoms: S1_11  and  C7_12 
REMARK    6  A    between atoms: C16_27  and  C17_28 
ROOT
HETATM    1  C3  UNL     1      14.053  14.517  63.231  1.00  0.00     0.055 A 
HETATM    2  C4  UNL     1      12.991  15.402  63.358  1.00  0.00     0.092 A 
HETATM    3  S2  UNL     1      13.680  16.913  62.929  1.00  0.00    -0.071 SA
HETATM    4  C13 UNL     1      15.264  16.406  62.605  1.00  0.00     0.021 A 
HETATM    5  C14 UNL     1      16.417  17.104  62.191  1.00  0.00     0.062 A 
HETATM    6  C15 UNL     1      17.597  16.435  61.997  1.00  0.00     0.124 A 
HETATM    7  F1  UNL     1      18.686  17.135  61.599  1.00  0.00    -0.205 F 
HETATM    8  C16 UNL     1      17.590  15.101  62.220  1.00  0.00    -0.011 A 
HETATM    9  C21 UNL     1      16.468  14.422  62.623  1.00  0.00     0.025 A 
HETATM   10  C22 UNL     1      15.236  15.061  62.835  1.00  0.00    -0.002 A 
ENDROOT
BRANCH   2  11
HETATM   11  N1  UNL     1      11.623  15.198  63.746  1.00  0.00    -0.320 N 
HETATM   12  C5  UNL     1      11.340  15.246  65.150  1.00  0.00     0.232 C 
HETATM   13  O2  UNL     1      12.240  15.457  65.996  1.00  0.00    -0.272 OA
ATOM     14  H1  UNL     1      10.891  15.027  63.057  1.00  0.00     0.169 HD
BRANCH  12  15
HETATM   15  C6  UNL     1       9.949  15.041  65.587  1.00  0.00     0.185 C 
BRANCH  15  16
HETATM   16  S1  UNL     1       8.832  15.445  64.241  1.00  0.00    -0.085 SA
BRANCH  16  17
HETATM   17  C7  UNL     1       7.230  14.707  64.471  1.00  0.00     0.145 A 
HETATM   18  N2  UNL     1       6.565  14.828  65.632  1.00  0.00    -0.341 N 
HETATM   19  C8  UNL     1       5.371  14.279  65.805  1.00  0.00     0.009 A 
ATOM     20  H2  UNL     1       6.988  15.354  66.397  1.00  0.00     0.167 HD
HETATM   21  C9  UNL     1       4.646  14.418  67.085  1.00  0.00     0.068 C 
HETATM   22  C10 UNL     1       4.812  13.566  64.746  1.00  0.00     0.049 A 
HETATM   23  C11 UNL     1       5.500  13.441  63.550  1.00  0.00     0.009 A 
HETATM   24  C12 UNL     1       4.914  12.677  62.402  1.00  0.00     0.068 C 
HETATM   25  N3  UNL     1       6.706  14.017  63.429  1.00  0.00    -0.341 N 
ATOM     26  H3  UNL     1       7.226  13.936  62.555  1.00  0.00     0.167 HD
ENDBRANCH  16  17
ENDBRANCH  15  16
ENDBRANCH  12  15
ENDBRANCH   2  11
BRANCH   1  27
HETATM   27  C2  UNL     1      13.787  13.086  63.535  1.00  0.00     0.159 C 
HETATM   28  C1  UNL     1      13.973  11.942  62.642  1.00  0.00     0.097 C 
HETATM   29  O1  UNL     1      13.343  12.749  64.696  1.00  0.00    -0.293 OA
ENDBRANCH   1  27
BRANCH   8  30
HETATM   30  C17 UNL     1      18.889  14.384  62.003  1.00  0.00    -0.021 C 
HETATM   31  C18 UNL     1      20.061  15.236  62.443  1.00  0.00     0.019 C 
HETATM   32  C19 UNL     1      19.068  13.988  60.552  1.00  0.00     0.019 C 
HETATM   33  C20 UNL     1      18.932  13.106  62.816  1.00  0.00     0.019 C 
ENDBRANCH   8  30
TORSDOF 6
ENDMDL
MODEL 3
REMARK VINA RESULT: -9.530491526      1.555      2.463
REMARK  6 active torsions:
REMARK  status: ('A' for Active; 'I' for Inactive)
REMARK    1  A    between atoms: C2_2  and  C3_4 
REMARK    2  A    between atoms: C4_5  and  N1_6 
REMARK       I    between atoms: N1_6  and  C5_8 
REMARK    3  A    between atoms: C5_8  and  C6_10 
REMARK    4  A    between atoms: C6_10  and  S1_11 
REMARK    5  A    between atoms: S1_11  and  C7_12 
REMARK    6  A    between atoms: C16_27  and  C17_28 
ROOT
HETATM    1  C3  UNL     1      14.055  15.359  63.161  1.00  0.00     0.055 A 
HETATM    2  C4  UNL     1      13.101  14.520  63.719  1.00  0.00     0.092 A 
HETATM    3  S2  UNL     1      13.959  13.057  63.976  1.00  0.00    -0.071 SA
HETATM    4  C13 UNL     1      15.476  13.526  63.385  1.00  0.00     0.021 A 
HETATM    5  C14 UNL     1      16.703  12.841  63.273  1.00  0.00     0.062 A 
HETATM    6  C15 UNL     1      17.800  13.471  62.748  1.00  0.00     0.124 A 
HETATM    7  F1  UNL     1      18.964  12.784  62.653  1.00  0.00    -0.205 F 
HETATM    8  C16 UNL     1      17.641  14.755  62.353  1.00  0.00    -0.011 A 
HETATM    9  C21 UNL     1      16.447  15.421  62.462  1.00  0.00     0.025 A 
HETATM   10  C22 UNL     1      15.294  14.821  62.994  1.00  0.00    -0.002 A 
ENDROOT
BRANCH   2  11
HETATM   11  N1  UNL     1      11.716  14.733  64.037  1.00  0.00    -0.320 N 
HETATM   12  C5  UNL     1      11.389  14.862  65.428  1.00  0.00     0.232 C 
HETATM   13  O2  UNL     1      12.267  14.792  66.319  1.00  0.00    -0.272 OA
ATOM     14  H1  UNL     1      11.002  14.790  63.312  1.00  0.00     0.169 HD
BRANCH  12  15
HETATM   15  C6  UNL     1       9.981  15.081  65.794  1.00  0.00     0.185 C 
BRANCH  15  16
HETATM   16  S1  UNL     1       9.048  15.549  64.334  1.00  0.00    -0.085 SA
BRANCH  16  17
HETATM   17  C7  UNL     1       7.451  14.765  64.293  1.00  0.00     0.145 A 
HETATM   18  N2  UNL     1       7.016  14.122  63.197  1.00  0.00    -0.341 N 
HETATM   19  C8  UNL     1       5.827  13.537  63.166  1.00  0.00     0.009 A 
ATOM     20  H2  UNL     1       7.614  14.083  62.372  1.00  0.00     0.167 HD
HETATM   21  C9  UNL     1       5.357  12.832  61.956  1.00  0.00     0.068 C 
HETATM   22  C10 UNL     1       5.028  13.604  64.305  1.00  0.00     0.049 A 
HETATM   23  C11 UNL     1       5.477  14.268  65.434  1.00  0.00     0.009 A 
HETATM   24  C12 UNL     1       4.631  14.349  66.667  1.00  0.00     0.068 C 
HETATM   25  N3  UNL     1       6.690  14.843  65.412  1.00  0.00    -0.341 N 
ATOM     26  H3  UNL     1       7.037  15.336  66.235  1.00  0.00     0.167 HD
ENDBRANCH  16  17
ENDBRANCH  15  16
ENDBRANCH  12  15
ENDBRANCH   2  11
BRANCH   1  27
HETATM   27  C2  UNL     1      13.628  16.740  62.812  1.00  0.00     0.159 C 
HETATM   28  C1  UNL     1      14.468  17.936  62.743  1.00  0.00     0.097 C 
HETATM   29  O1  UNL     1      12.395  16.977  62.527  1.00  0.00    -0.293 OA
ENDBRANCH   1  27
BRANCH   8  30
HETATM   30  C17 UNL     1      18.852  15.429  61.780  1.00  0.00    -0.021 C 
HETATM   31  C18 UNL     1      19.018  15.093  60.314  1.00  0.00     0.019 C 
HETATM   32  C19 UNL     1      20.108  15.045  62.534  1.00  0.00     0.019 C 
HETATM   33  C20 UNL     1      18.719  16.934  61.884  1.00  0.00     0.019 C 
ENDBRANCH   8  30
TORSDOF 6
ENDMDL
MODEL 4
REMARK VINA RESULT: -9.484613140      1.557      2.914
REMARK  6 active torsions:
REMARK  status: ('A' for Active; 'I' for Inactive)
REMARK    1  A    between atoms: C2_2  and  C3_4 
REMARK    2  A    between atoms: C4_5  and  N1_6 
REMARK       I    between atoms: N1_6  and  C5_8 
REMARK    3  A    between atoms: C5_8  and  C6_10 
REMARK    4  A    between atoms: C6_10  and  S1_11 
REMARK    5  A    between atoms: S1_11  and  C7_12 
REMARK    6  A    between atoms: C16_27  and  C17_28 
ROOT
HETATM    1  C3  UNL     1      14.076  15.409  63.139  1.00  0.00     0.055 A 
HETATM    2  C4  UNL     1      13.109  14.584  63.697  1.00  0.00     0.092 A 
HETATM    3  S2  UNL     1      13.948  13.112  63.965  1.00  0.00    -0.071 SA
HETATM    4  C13 UNL     1      15.473  13.560  63.378  1.00  0.00     0.021 A 
HETATM    5  C14 UNL     1      16.692  12.859  63.275  1.00  0.00     0.062 A 
HETATM    6  C15 UNL     1      17.799  13.473  62.751  1.00  0.00     0.124 A 
HETATM    7  F1  UNL     1      18.955  12.771  62.665  1.00  0.00    -0.205 F 
HETATM    8  C16 UNL     1      17.657  14.757  62.351  1.00  0.00    -0.011 A 
HETATM    9  C21 UNL     1      16.471  15.439  62.451  1.00  0.00     0.025 A 
HETATM   10  C22 UNL     1      15.309  14.855  62.981  1.00  0.00    -0.002 A 
ENDROOT
BRANCH   2  11
HETATM   11  N1  UNL     1      11.725  14.816  64.009  1.00  0.00    -0.320 N 
HETATM   12  C5  UNL     1      11.388  14.914  65.399  1.00  0.00     0.232 C 
HETATM   13  O2  UNL     1      12.255  14.803  66.296  1.00  0.00    -0.272 OA
ATOM     14  H1  UNL     1      11.020  14.906  63.279  1.00  0.00     0.169 HD
BRANCH  12  15
HETATM   15  C6  UNL     1       9.980  15.151  65.758  1.00  0.00     0.185 C 
BRANCH  15  16
HETATM   16  S1  UNL     1       9.041  15.539  64.279  1.00  0.00    -0.085 SA
BRANCH  16  17
HETATM   17  C7  UNL     1       7.429  14.787  64.306  1.00  0.00     0.145 A 
HETATM   18  N2  UNL     1       6.644  14.856  65.393  1.00  0.00    -0.341 N 
HETATM   19  C8  UNL     1       5.443  14.296  65.414  1.00  0.00     0.009 A 
ATOM     20  H2  UNL     1       6.980  15.349  66.220  1.00  0.00     0.167 HD
HETATM   21  C9  UNL     1       4.585  14.377  66.615  1.00  0.00     0.068 C 
HETATM   22  C10 UNL     1       5.005  13.627  64.272  1.00  0.00     0.049 A 
HETATM   23  C11 UNL     1       5.816  13.557  63.152  1.00  0.00     0.009 A 
HETATM   24  C12 UNL     1       5.361  12.842  61.917  1.00  0.00     0.068 C 
HETATM   25  N3  UNL     1       7.024  14.141  63.184  1.00  0.00    -0.341 N 
ATOM     26  H3  UNL     1       7.634  14.099  62.368  1.00  0.00     0.167 HD
ENDBRANCH  16  17
ENDBRANCH  15  16
ENDBRANCH  12  15
ENDBRANCH   2  11
BRANCH   1  27
HETATM   27  C2  UNL     1      13.667  16.793  62.783  1.00  0.00     0.159 C 
HETATM   28  C1  UNL     1      14.522  17.979  62.713  1.00  0.00     0.097 C 
HETATM   29  O1  UNL     1      12.438  17.044  62.490  1.00  0.00    -0.293 OA
ENDBRANCH   1  27
BRANCH   8  30
HETATM   30  C17 UNL     1      18.878  15.414  61.779  1.00  0.00    -0.021 C 
HETATM   31  C18 UNL     1      19.045  15.073  60.314  1.00  0.00     0.019 C 
HETATM   32  C19 UNL     1      20.127  15.014  62.537  1.00  0.00     0.019 C 
HETATM   33  C20 UNL     1      18.766  16.921  61.880  1.00  0.00     0.019 C 
ENDBRANCH   8  30
TORSDOF 6
ENDMDL
MODEL 5
REMARK VINA RESULT: -9.013075727      1.737      2.588
REMARK  6 active torsions:
REMARK  status: ('A' for Active; 'I' for Inactive)
REMARK    1  A    between atoms: C2_2  and  C3_4 
REMARK    2  A    between atoms: C4_5  and  N1_6 
REMARK       I    between atoms: N1_6  and  C5_8 
REMARK    3  A    between atoms: C5_8  and  C6_10 
REMARK    4  A    between atoms: C6_10  and  S1_11 
REMARK    5  A    between atoms: S1_11  and  C7_12 
REMARK    6  A    between atoms: C16_27  and  C17_28 
ROOT
HETATM    1  C3  UNL     1      13.930  15.713  62.883  1.00  0.00     0.055 A 
HETATM    2  C4  UNL     1      12.837  14.967  63.302  1.00  0.00     0.092 A 
HETATM    3  S2  UNL     1      13.508  13.419  63.614  1.00  0.00    -0.071 SA
HETATM    4  C13 UNL     1      15.123  13.740  63.215  1.00  0.00     0.021 A 
HETATM    5  C14 UNL     1      16.281  12.935  63.225  1.00  0.00     0.062 A 
HETATM    6  C15 UNL     1      17.489  13.457  62.848  1.00  0.00     0.124 A 
HETATM    7  F1  UNL     1      18.582  12.656  62.869  1.00  0.00    -0.205 F 
HETATM    8  C16 UNL     1      17.506  14.757  62.476  1.00  0.00    -0.011 A 
HETATM    9  C21 UNL     1      16.381  15.541  62.467  1.00  0.00     0.025 A 
HETATM   10  C22 UNL     1      15.120  15.054  62.844  1.00  0.00    -0.002 A 
ENDROOT
BRANCH   2  11
HETATM   11  N1  UNL     1      11.452  15.316  63.465  1.00  0.00    -0.320 N 
HETATM   12  C5  UNL     1      10.920  15.228  64.794  1.00  0.00     0.232 C 
HETATM   13  O2  UNL     1      11.627  14.867  65.763  1.00  0.00    -0.272 OA
ATOM     14  H1  UNL     1      10.878  15.610  62.676  1.00  0.00     0.169 HD
BRANCH  12  15
HETATM   15  C6  UNL     1       9.506  15.578  65.001  1.00  0.00     0.185 C 
BRANCH  15  16
HETATM   16  S1  UNL     1       8.807  14.519  66.270  1.00  0.00    -0.085 SA
BRANCH  16  17
HETATM   17  C7  UNL     1       7.073  14.224  66.001  1.00  0.00     0.145 A 
HETATM   18  N2  UNL     1       6.623  13.712  64.844  1.00  0.00    -0.341 N 
HETATM   19  C8  UNL     1       5.331  13.491  64.641  1.00  0.00     0.009 A 
ATOM     20  H2  UNL     1       7.290  13.488  64.105  1.00  0.00     0.167 HD
HETATM   21  C9  UNL     1       4.845  12.927  63.365  1.00  0.00     0.068 C 
HETATM   22  C10 UNL     1       4.440  13.805  65.665  1.00  0.00     0.049 A 
HETATM   23  C11 UNL     1       4.905  14.334  66.857  1.00  0.00     0.009 A 
HETATM   24  C12 UNL     1       3.960  14.678  67.967  1.00  0.00     0.068 C 
HETATM   25  N3  UNL     1       6.223  14.537  67.009  1.00  0.00    -0.341 N 
ATOM     26  H3  UNL     1       6.583  14.926  67.881  1.00  0.00     0.167 HD
ENDBRANCH  16  17
ENDBRANCH  15  16
ENDBRANCH  12  15
ENDBRANCH   2  11
BRANCH   1  27
HETATM   27  C2  UNL     1      13.687  17.136  62.528  1.00  0.00     0.159 C 
HETATM   28  C1  UNL     1      14.651  18.236  62.567  1.00  0.00     0.097 C 
HETATM   29  O1  UNL     1      12.519  17.508  62.132  1.00  0.00    -0.293 OA
ENDBRANCH   1  27
BRANCH   8  30
HETATM   30  C17 UNL     1      18.838  15.314  62.066  1.00  0.00    -0.021 C 
HETATM   31  C18 UNL     1      19.958  14.697  62.875  1.00  0.00     0.019 C 
HETATM   32  C19 UNL     1      18.876  16.821  62.213  1.00  0.00     0.019 C 
HETATM   33  C20 UNL     1      19.114  15.006  60.608  1.00  0.00     0.019 C 
ENDBRANCH   8  30
TORSDOF 6
ENDMDL
