MODEL 1
REMARK VINA RESULT: -8.359397919      0.000      0.000
REMARK  6 active torsions:
REMARK  status: ('A' for Active; 'I' for Inactive)
REMARK    1  A    between atoms: O1_2  and  C2_3 
REMARK    2  A    between atoms: C5_6  and  C6_7 
REMARK    3  A    between atoms: C9_11  and  C10_12 
REMARK    4  A    between atoms: C10_12  and  C11_14 
REMARK    5  A    between atoms: C18_24  and  O4_26 
REMARK    6  A    between atoms: C24_31  and  O5_32 
ROOT
HETATM    1  C6  UNL     1      16.693  16.726  61.920  1.00  0.00     0.170 C 
HETATM    2  O2  UNL     1      17.535  15.622  61.648  1.00  0.00    -0.338 OA
HETATM    3  C7  UNL     1      18.734  15.615  60.937  1.00  0.00     0.097 A 
HETATM    4  C8  UNL     1      19.472  14.448  61.160  1.00  0.00     0.057 A 
HETATM    5  C9  UNL     1      20.682  14.272  60.538  1.00  0.00     0.052 A 
HETATM    6  C15 UNL     1      21.152  15.286  59.681  1.00  0.00     0.132 A 
HETATM    7  F1  UNL     1      22.342  15.143  59.053  1.00  0.00    -0.205 F 
HETATM    8  C16 UNL     1      20.402  16.414  59.487  1.00  0.00     0.075 A 
HETATM    9  C17 UNL     1      19.181  16.614  60.102  1.00  0.00     0.067 A 
HETATM   10  N1  UNL     1      18.569  17.847  59.768  1.00  0.00    -0.356 N 
ATOM     11  H1  UNL     1      19.064  18.384  59.056  1.00  0.00     0.162 HD
HETATM   12  C18 UNL     1      17.364  18.476  60.260  1.00  0.00     0.136 C 
HETATM   13  C19 UNL     1      16.825  19.359  59.168  1.00  0.00     0.071 C 
HETATM   14  C21 UNL     1      16.310  17.463  60.652  1.00  0.00     0.071 C 
HETATM   15  C22 UNL     1      15.038  18.254  60.954  1.00  0.00     0.018 C 
ENDROOT
BRANCH   1  16
HETATM   16  C5  UNL     1      15.433  16.176  62.496  1.00  0.00    -0.026 A 
HETATM   17  C4  UNL     1      14.442  17.043  62.870  1.00  0.00     0.012 A 
HETATM   18  C3  UNL     1      13.262  16.575  63.407  1.00  0.00     0.040 A 
HETATM   19  C2  UNL     1      13.093  15.220  63.564  1.00  0.00     0.101 A 
HETATM   20  C24 UNL     1      14.104  14.353  63.182  1.00  0.00     0.102 A 
HETATM   21  C23 UNL     1      15.274  14.820  62.649  1.00  0.00     0.049 A 
BRANCH  19  22
HETATM   22  O1  UNL     1      11.930  14.720  64.096  1.00  0.00    -0.353 OA
HETATM   23  C1  UNL     1      10.757  15.449  64.300  1.00  0.00     0.210 C 
ENDBRANCH  19  22
BRANCH  20  24
HETATM   24  O5  UNL     1      13.905  12.999  63.351  1.00  0.00    -0.353 OA
HETATM   25  C25 UNL     1      14.839  12.037  62.896  1.00  0.00     0.210 C 
ENDBRANCH  20  24
ENDBRANCH   1  16
BRANCH  12  26
HETATM   26  O4  UNL     1      17.689  19.186  61.408  1.00  0.00    -0.366 OA
HETATM   27  C20 UNL     1      18.957  19.756  61.351  1.00  0.00     0.204 C 
ENDBRANCH  12  26
BRANCH   5  28
HETATM   28  C10 UNL     1      21.491  13.097  60.721  1.00  0.00     0.170 C 
HETATM   29  O3  UNL     1      21.331  12.111  59.947  1.00  0.00    -0.291 OA
BRANCH  28  30
HETATM   30  C11 UNL     1      22.504  12.983  61.774  1.00  0.00     0.015 C 
HETATM   31  C12 UNL     1      22.540  14.190  62.682  1.00  0.00     0.023 C 
HETATM   32  C13 UNL     1      23.907  12.880  61.175  1.00  0.00     0.023 C 
HETATM   33  C14 UNL     1      22.317  11.749  62.625  1.00  0.00     0.023 C 
ENDBRANCH  28  30
ENDBRANCH   5  28
TORSDOF 6
ENDMDL
MODEL 2
REMARK VINA RESULT: -8.180595254      2.219      5.465
REMARK  6 active torsions:
REMARK  status: ('A' for Active; 'I' for Inactive)
REMARK    1  A    between atoms: O1_2  and  C2_3 
REMARK    2  A    between atoms: C5_6  and  C6_7 
REMARK    3  A    between atoms: C9_11  and  C10_12 
REMARK    4  A    between atoms: C10_12  and  C11_14 
REMARK    5  A    between atoms: C18_24  and  O4_26 
REMARK    6  A    between atoms: C24_31  and  O5_32 
ROOT
HETATM    1  C6  UNL     1      17.322  16.078  61.739  1.00  0.00     0.170 C 
HETATM    2  O2  UNL     1      17.688  17.444  61.815  1.00  0.00    -0.338 OA
HETATM    3  C7  UNL     1      18.931  18.013  61.542  1.00  0.00     0.097 A 
HETATM    4  C8  UNL     1      18.850  19.399  61.373  1.00  0.00     0.057 A 
HETATM    5  C9  UNL     1      19.981  20.124  61.098  1.00  0.00     0.052 A 
HETATM    6  C15 UNL     1      21.209  19.441  60.990  1.00  0.00     0.132 A 
HETATM    7  F1  UNL     1      22.343  20.127  60.719  1.00  0.00    -0.205 F 
HETATM    8  C16 UNL     1      21.248  18.084  61.162  1.00  0.00     0.075 A 
HETATM    9  C17 UNL     1      20.122  17.333  61.440  1.00  0.00     0.067 A 
HETATM   10  N1  UNL     1      20.382  15.947  61.579  1.00  0.00    -0.356 N 
ATOM     11  H1  UNL     1      21.370  15.697  61.541  1.00  0.00     0.162 HD
HETATM   12  C18 UNL     1      19.488  14.825  61.766  1.00  0.00     0.136 C 
HETATM   13  C19 UNL     1      20.243  13.753  62.504  1.00  0.00     0.071 C 
HETATM   14  C21 UNL     1      18.253  15.204  62.554  1.00  0.00     0.071 C 
HETATM   15  C22 UNL     1      17.510  13.901  62.849  1.00  0.00     0.018 C 
ENDROOT
BRANCH   1  16
HETATM   16  C5  UNL     1      15.970  15.959  62.355  1.00  0.00    -0.026 A 
HETATM   17  C4  UNL     1      15.208  17.087  62.503  1.00  0.00     0.012 A 
HETATM   18  C3  UNL     1      13.952  17.020  63.069  1.00  0.00     0.040 A 
HETATM   19  C2  UNL     1      13.473  15.800  63.484  1.00  0.00     0.101 A 
HETATM   20  C24 UNL     1      14.254  14.666  63.328  1.00  0.00     0.102 A 
HETATM   21  C23 UNL     1      15.500  14.735  62.767  1.00  0.00     0.049 A 
BRANCH  19  22
HETATM   22  O1  UNL     1      12.226  15.697  64.051  1.00  0.00    -0.353 OA
HETATM   23  C1  UNL     1      11.034  15.515  63.348  1.00  0.00     0.210 C 
ENDBRANCH  19  22
BRANCH  20  24
HETATM   24  O5  UNL     1      13.747  13.456  63.753  1.00  0.00    -0.353 OA
HETATM   25  C25 UNL     1      13.885  12.270  62.992  1.00  0.00     0.210 C 
ENDBRANCH  20  24
ENDBRANCH   1  16
BRANCH  12  26
HETATM   26  O4  UNL     1      19.057  14.408  60.513  1.00  0.00    -0.366 OA
HETATM   27  C20 UNL     1      19.770  13.314  60.033  1.00  0.00     0.204 C 
ENDBRANCH  12  26
BRANCH   5  28
HETATM   28  C10 UNL     1      19.970  21.550  60.914  1.00  0.00     0.170 C 
HETATM   29  O3  UNL     1      20.297  22.299  61.879  1.00  0.00    -0.291 OA
BRANCH  28  30
HETATM   30  C11 UNL     1      19.592  22.188  59.650  1.00  0.00     0.015 C 
HETATM   31  C12 UNL     1      20.598  21.942  58.549  1.00  0.00     0.023 C 
HETATM   32  C13 UNL     1      19.518  23.708  59.804  1.00  0.00     0.023 C 
HETATM   33  C14 UNL     1      18.232  21.746  59.164  1.00  0.00     0.023 C 
ENDBRANCH  28  30
ENDBRANCH   5  28
TORSDOF 6
ENDMDL
MODEL 3
REMARK VINA RESULT: -8.173292591      2.684      7.716
REMARK  6 active torsions:
REMARK  status: ('A' for Active; 'I' for Inactive)
REMARK    1  A    between atoms: O1_2  and  C2_3 
REMARK    2  A    between atoms: C5_6  and  C6_7 
REMARK    3  A    between atoms: C9_11  and  C10_12 
REMARK    4  A    between atoms: C10_12  and  C11_14 
REMARK    5  A    between atoms: C18_24  and  O4_26 
REMARK    6  A    between atoms: C24_31  and  O5_32 
ROOT
HETATM    1  C6  UNL     1      17.763  16.857  61.706  1.00  0.00     0.170 C 
HETATM    2  O2  UNL     1      16.400  16.587  61.972  1.00  0.00    -0.338 OA
HETATM    3  C7  UNL     1      15.837  15.396  62.430  1.00  0.00     0.097 A 
HETATM    4  C8  UNL     1      14.539  15.581  62.919  1.00  0.00     0.057 A 
HETATM    5  C9  UNL     1      13.833  14.512  63.409  1.00  0.00     0.052 A 
HETATM    6  C15 UNL     1      14.444  13.243  63.406  1.00  0.00     0.132 A 
HETATM    7  F1  UNL     1      13.774  12.169  63.884  1.00  0.00    -0.205 F 
HETATM    8  C16 UNL     1      15.715  13.102  62.920  1.00  0.00     0.075 A 
HETATM    9  C17 UNL     1      16.446  14.163  62.420  1.00  0.00     0.067 A 
HETATM   10  N1  UNL     1      17.739  13.801  61.968  1.00  0.00    -0.356 N 
ATOM     11  H1  UNL     1      17.929  12.800  61.991  1.00  0.00     0.162 HD
HETATM   12  C18 UNL     1      18.837  14.607  61.481  1.00  0.00     0.136 C 
HETATM   13  C19 UNL     1      19.652  13.757  60.544  1.00  0.00     0.071 C 
HETATM   14  C21 UNL     1      18.357  15.842  60.750  1.00  0.00     0.071 C 
HETATM   15  C22 UNL     1      19.595  16.482  60.121  1.00  0.00     0.018 C 
ENDROOT
BRANCH   1  16
HETATM   16  C5  UNL     1      17.815  18.179  61.018  1.00  0.00    -0.026 A 
HETATM   17  C4  UNL     1      18.892  18.995  61.233  1.00  0.00     0.012 A 
HETATM   18  C3  UNL     1      18.978  20.226  60.617  1.00  0.00     0.040 A 
HETATM   19  C2  UNL     1      17.963  20.624  59.780  1.00  0.00     0.101 A 
HETATM   20  C24 UNL     1      16.878  19.788  59.572  1.00  0.00     0.102 A 
HETATM   21  C23 UNL     1      16.795  18.567  60.184  1.00  0.00     0.049 A 
BRANCH  19  22
HETATM   22  O1  UNL     1      18.016  21.843  59.150  1.00  0.00    -0.353 OA
HETATM   23  C1  UNL     1      18.974  22.831  59.386  1.00  0.00     0.210 C 
ENDBRANCH  19  22
BRANCH  20  24
HETATM   24  O5  UNL     1      15.874  20.214  58.726  1.00  0.00    -0.353 OA
HETATM   25  C25 UNL     1      14.543  20.405  59.171  1.00  0.00     0.210 C 
ENDBRANCH  20  24
ENDBRANCH   1  16
BRANCH  12  26
HETATM   26  O4  UNL     1      19.568  15.044  62.577  1.00  0.00    -0.366 OA
HETATM   27  C20 UNL     1      20.790  14.392  62.707  1.00  0.00     0.204 C 
ENDBRANCH  12  26
BRANCH   5  28
HETATM   28  C10 UNL     1      12.495  14.631  63.925  1.00  0.00     0.170 C 
HETATM   29  O3  UNL     1      11.544  14.861  63.126  1.00  0.00    -0.291 OA
BRANCH  28  30
HETATM   30  C11 UNL     1      12.176  14.497  65.349  1.00  0.00     0.015 C 
HETATM   31  C12 UNL     1      11.949  13.062  65.764  1.00  0.00     0.023 C 
HETATM   32  C13 UNL     1      10.879  15.232  65.690  1.00  0.00     0.023 C 
HETATM   33  C14 UNL     1      13.244  15.090  66.238  1.00  0.00     0.023 C 
ENDBRANCH  28  30
ENDBRANCH   5  28
TORSDOF 6
ENDMDL
MODEL 4
REMARK VINA RESULT: -7.995973120      2.411      5.617
REMARK  6 active torsions:
REMARK  status: ('A' for Active; 'I' for Inactive)
REMARK    1  A    between atoms: O1_2  and  C2_3 
REMARK    2  A    between atoms: C5_6  and  C6_7 
REMARK    3  A    between atoms: C9_11  and  C10_12 
REMARK    4  A    between atoms: C10_12  and  C11_14 
REMARK    5  A    between atoms: C18_24  and  O4_26 
REMARK    6  A    between atoms: C24_31  and  O5_32 
ROOT
HETATM    1  C6  UNL     1      17.702  16.347  61.506  1.00  0.00     0.170 C 
HETATM    2  O2  UNL     1      17.922  17.737  61.355  1.00  0.00    -0.338 OA
HETATM    3  C7  UNL     1      19.100  18.381  60.979  1.00  0.00     0.097 A 
HETATM    4  C8  UNL     1      18.874  19.705  60.587  1.00  0.00     0.057 A 
HETATM    5  C9  UNL     1      19.925  20.489  60.185  1.00  0.00     0.052 A 
HETATM    6  C15 UNL     1      21.218  19.931  60.177  1.00  0.00     0.132 A 
HETATM    7  F1  UNL     1      22.275  20.678  59.786  1.00  0.00    -0.205 F 
HETATM    8  C16 UNL     1      21.399  18.632  60.567  1.00  0.00     0.075 A 
HETATM    9  C17 UNL     1      20.357  17.822  60.977  1.00  0.00     0.067 A 
HETATM   10  N1  UNL     1      20.760  16.513  61.337  1.00  0.00    -0.356 N 
ATOM     11  H1  UNL     1      21.769  16.365  61.329  1.00  0.00     0.162 HD
HETATM   12  C18 UNL     1      19.988  15.349  61.713  1.00  0.00     0.136 C 
HETATM   13  C19 UNL     1      20.847  14.497  62.609  1.00  0.00     0.071 C 
HETATM   14  C21 UNL     1      18.715  15.720  62.442  1.00  0.00     0.071 C 
HETATM   15  C22 UNL     1      18.111  14.412  62.954  1.00  0.00     0.018 C 
ENDROOT
BRANCH   1  16
HETATM   16  C5  UNL     1      16.366  16.189  62.148  1.00  0.00    -0.026 A 
HETATM   17  C4  UNL     1      15.539  17.276  62.231  1.00  0.00     0.012 A 
HETATM   18  C3  UNL     1      14.295  17.172  62.817  1.00  0.00     0.040 A 
HETATM   19  C2  UNL     1      13.895  15.956  63.320  1.00  0.00     0.101 A 
HETATM   20  C24 UNL     1      14.743  14.864  63.229  1.00  0.00     0.102 A 
HETATM   21  C23 UNL     1      15.976  14.969  62.647  1.00  0.00     0.049 A 
BRANCH  19  22
HETATM   22  O1  UNL     1      12.663  15.817  63.910  1.00  0.00    -0.353 OA
HETATM   23  C1  UNL     1      11.452  15.687  63.227  1.00  0.00     0.210 C 
ENDBRANCH  19  22
BRANCH  20  24
HETATM   24  O5  UNL     1      14.314  13.657  63.742  1.00  0.00    -0.353 OA
HETATM   25  C25 UNL     1      14.091  12.525  62.922  1.00  0.00     0.210 C 
ENDBRANCH  20  24
ENDBRANCH   1  16
BRANCH  12  26
HETATM   26  O4  UNL     1      19.612  14.690  60.550  1.00  0.00    -0.366 OA
HETATM   27  C20 UNL     1      20.423  13.598  60.260  1.00  0.00     0.204 C 
ENDBRANCH  12  26
BRANCH   5  28
HETATM   28  C10 UNL     1      19.764  21.858  59.771  1.00  0.00     0.170 C 
HETATM   29  O3  UNL     1      19.188  22.107  58.674  1.00  0.00    -0.291 OA
BRANCH  28  30
HETATM   30  C11 UNL     1      20.242  22.992  60.567  1.00  0.00     0.015 C 
HETATM   31  C12 UNL     1      20.654  22.592  61.965  1.00  0.00     0.023 C 
HETATM   32  C13 UNL     1      19.139  24.036  60.748  1.00  0.00     0.023 C 
HETATM   33  C14 UNL     1      21.399  23.710  59.913  1.00  0.00     0.023 C 
ENDBRANCH  28  30
ENDBRANCH   5  28
TORSDOF 6
ENDMDL
MODEL 5
REMARK VINA RESULT: -7.752516725      2.438      7.709
REMARK  6 active torsions:
REMARK  status: ('A' for Active; 'I' for Inactive)
REMARK    1  A    between atoms: O1_2  and  C2_3 
REMARK    2  A    between atoms: C5_6  and  C6_7 
REMARK    3  A    between atoms: C9_11  and  C10_12 
REMARK    4  A    between atoms: C10_12  and  C11_14 
REMARK    5  A    between atoms: C18_24  and  O4_26 
REMARK    6  A    between atoms: C24_31  and  O5_32 
ROOT
HETATM    1  C6  UNL     1      18.598  15.113  61.320  1.00  0.00     0.170 C 
HETATM    2  O2  UNL     1      17.522  14.655  62.118  1.00  0.00    -0.338 OA
HETATM    3  C7  UNL     1      16.327  15.313  62.403  1.00  0.00     0.097 A 
HETATM    4  C8  UNL     1      15.356  14.446  62.914  1.00  0.00     0.057 A 
HETATM    5  C9  UNL     1      14.116  14.926  63.252  1.00  0.00     0.052 A 
HETATM    6  C15 UNL     1      13.853  16.298  63.070  1.00  0.00     0.132 A 
HETATM    7  F1  UNL     1      12.640  16.802  63.393  1.00  0.00    -0.205 F 
HETATM    8  C16 UNL     1      14.828  17.116  62.567  1.00  0.00     0.075 A 
HETATM    9  C17 UNL     1      16.084  16.655  62.220  1.00  0.00     0.067 A 
HETATM   10  N1  UNL     1      16.942  17.665  61.718  1.00  0.00    -0.356 N 
ATOM     11  H1  UNL     1      16.554  18.606  61.758  1.00  0.00     0.162 HD
HETATM   12  C18 UNL     1      18.274  17.590  61.159  1.00  0.00     0.136 C 
HETATM   13  C19 UNL     1      18.956  18.906  61.417  1.00  0.00     0.071 C 
HETATM   14  C21 UNL     1      19.089  16.473  61.773  1.00  0.00     0.071 C 
HETATM   15  C22 UNL     1      20.515  16.637  61.248  1.00  0.00     0.018 C 
ENDROOT
BRANCH   1  16
HETATM   16  C5  UNL     1      19.723  14.158  61.523  1.00  0.00    -0.026 A 
HETATM   17  C4  UNL     1      19.915  13.615  62.765  1.00  0.00     0.012 A 
HETATM   18  C3  UNL     1      20.945  12.727  62.995  1.00  0.00     0.040 A 
HETATM   19  C2  UNL     1      21.780  12.393  61.956  1.00  0.00     0.101 A 
HETATM   20  C24 UNL     1      21.575  12.950  60.703  1.00  0.00     0.102 A 
HETATM   21  C23 UNL     1      20.553  13.830  60.478  1.00  0.00     0.049 A 
BRANCH  19  22
HETATM   22  O1  UNL     1      22.816  11.512  62.150  1.00  0.00    -0.353 OA
HETATM   23  C1  UNL     1      24.017  11.809  62.797  1.00  0.00     0.210 C 
ENDBRANCH  19  22
BRANCH  20  24
HETATM   24  O5  UNL     1      22.429  12.595  59.680  1.00  0.00    -0.353 OA
HETATM   25  C25 UNL     1      23.586  13.349  59.367  1.00  0.00     0.210 C 
ENDBRANCH  20  24
ENDBRANCH   1  16
BRANCH  12  26
HETATM   26  O4  UNL     1      18.155  17.307  59.805  1.00  0.00    -0.366 OA
HETATM   27  C20 UNL     1      17.077  17.955  59.209  1.00  0.00     0.204 C 
ENDBRANCH  12  26
BRANCH   5  28
HETATM   28  C10 UNL     1      13.074  14.090  63.784  1.00  0.00     0.170 C 
HETATM   29  O3  UNL     1      12.627  13.139  63.083  1.00  0.00    -0.291 OA
BRANCH  28  30
HETATM   30  C11 UNL     1      12.494  14.290  65.116  1.00  0.00     0.015 C 
HETATM   31  C12 UNL     1      13.448  14.967  66.072  1.00  0.00     0.023 C 
HETATM   32  C13 UNL     1      12.143  12.951  65.766  1.00  0.00     0.023 C 
HETATM   33  C14 UNL     1      11.212  15.087  65.073  1.00  0.00     0.023 C 
ENDBRANCH  28  30
ENDBRANCH   5  28
TORSDOF 6
ENDMDL
