MODEL 1
REMARK VINA RESULT: -6.086684149      0.000      0.000
REMARK  5 active torsions:
REMARK  status: ('A' for Active; 'I' for Inactive)
REMARK    1  A    between atoms: C4_4  and  C5_5 
REMARK    2  A    between atoms: C7_9  and  C8_10 
REMARK    3  A    between atoms: C9_11  and  C10_12 
REMARK    4  A    between atoms: C18_23  and  C19_24 
REMARK    5  A    between atoms: C19_24  and  O6_25 
ROOT
HETATM    1  C5  UNL     1      33.151  21.686  30.685  1.00  0.00     0.163 C 
HETATM    2  O1  UNL     1      33.359  22.751  29.798  1.00  0.00    -0.310 OA
HETATM    3  C6  UNL     1      32.534  23.020  28.747  1.00  0.00     0.272 C 
HETATM    4  O2  UNL     1      32.611  24.173  28.215  1.00  0.00    -0.264 OA
HETATM    5  C7  UNL     1      31.539  22.040  28.179  1.00  0.00     0.072 C 
HETATM    6  C11 UNL     1      31.954  21.574  26.852  1.00  0.00     0.026 C 
HETATM    7  C12 UNL     1      33.137  20.724  26.667  1.00  0.00     0.028 C 
HETATM    8  C13 UNL     1      34.449  21.260  27.154  1.00  0.00     0.175 C 
HETATM    9  O5  UNL     1      34.828  20.719  28.425  1.00  0.00    -0.355 OA
HETATM   10  C14 UNL     1      34.199  19.599  28.868  1.00  0.00     0.053 A 
HETATM   11  C15 UNL     1      33.121  19.492  29.591  1.00  0.00    -0.037 A 
HETATM   12  C16 UNL     1      33.789  18.224  29.167  1.00  0.00     0.102 A 
HETATM   13  C17 UNL     1      32.297  20.574  30.124  1.00  0.00     0.058 C 
HETATM   14  C18 UNL     1      31.200  21.039  29.218  1.00  0.00     0.042 C 
ENDROOT
BRANCH   5  15
HETATM   15  C8  UNL     1      30.321  22.874  27.945  1.00  0.00     0.000 C 
HETATM   16  C9  UNL     1      29.504  23.319  28.851  1.00  0.00     0.081 C 
BRANCH  16  17
HETATM   17  C10 UNL     1      28.356  24.124  28.445  1.00  0.00     0.198 C 
HETATM   18  O3  UNL     1      28.244  25.317  28.829  1.00  0.00    -0.645 OA
HETATM   19  O4  UNL     1      27.387  23.534  27.621  1.00  0.00    -0.645 OA
ENDBRANCH  16  17
ENDBRANCH   5  15
BRANCH  14  20
HETATM   20  C19 UNL     1      30.438  19.846  28.733  1.00  0.00     0.171 C 
BRANCH  20  21
HETATM   21  O6  UNL     1      29.398  19.503  29.630  1.00  0.00    -0.400 OA
ATOM     22  H6  UNL     1      29.713  18.926  30.316  1.00  0.00     0.209 HD
ENDBRANCH  20  21
ENDBRANCH  14  20
BRANCH   1  23
HETATM   23  C4  UNL     1      32.470  22.272  31.885  1.00  0.00     0.008 C 
HETATM   24  C2  UNL     1      32.830  21.962  33.122  1.00  0.00    -0.089 C 
HETATM   25  C1  UNL     1      32.129  22.566  34.285  1.00  0.00     0.042 C 
HETATM   26  C3  UNL     1      33.947  21.002  33.390  1.00  0.00     0.042 C 
ENDBRANCH   1  23
TORSDOF 5
ENDMDL
MODEL 2
REMARK VINA RESULT: -5.756851464      2.393      5.577
REMARK  5 active torsions:
REMARK  status: ('A' for Active; 'I' for Inactive)
REMARK    1  A    between atoms: C4_4  and  C5_5 
REMARK    2  A    between atoms: C7_9  and  C8_10 
REMARK    3  A    between atoms: C9_11  and  C10_12 
REMARK    4  A    between atoms: C18_23  and  C19_24 
REMARK    5  A    between atoms: C19_24  and  O6_25 
ROOT
HETATM    1  C5  UNL     1      33.441  21.096  26.821  1.00  0.00     0.163 C 
HETATM    2  O1  UNL     1      33.334  20.246  27.930  1.00  0.00    -0.310 OA
HETATM    3  C6  UNL     1      32.146  19.754  28.381  1.00  0.00     0.272 C 
HETATM    4  O2  UNL     1      32.179  18.750  29.162  1.00  0.00    -0.264 OA
HETATM    5  C7  UNL     1      30.799  20.324  28.014  1.00  0.00     0.072 C 
HETATM    6  C11 UNL     1      30.177  20.995  29.160  1.00  0.00     0.026 C 
HETATM    7  C12 UNL     1      30.727  22.236  29.720  1.00  0.00     0.028 C 
HETATM    8  C13 UNL     1      32.145  22.200  30.202  1.00  0.00     0.175 C 
HETATM    9  O5  UNL     1      33.064  22.763  29.258  1.00  0.00    -0.355 OA
HETATM   10  C14 UNL     1      32.571  23.534  28.254  1.00  0.00     0.053 A 
HETATM   11  C15 UNL     1      32.178  23.184  27.062  1.00  0.00    -0.037 A 
HETATM   12  C16 UNL     1      32.088  24.634  27.413  1.00  0.00     0.102 A 
HETATM   13  C17 UNL     1      32.171  21.840  26.489  1.00  0.00     0.058 C 
HETATM   14  C18 UNL     1      30.918  21.056  26.731  1.00  0.00     0.042 C 
ENDROOT
BRANCH   5  15
HETATM   15  C8  UNL     1      29.963  19.110  27.761  1.00  0.00     0.000 C 
HETATM   16  C9  UNL     1      28.753  18.903  28.183  1.00  0.00     0.081 C 
BRANCH  16  17
HETATM   17  C10 UNL     1      28.080  17.654  27.842  1.00  0.00     0.198 C 
HETATM   18  O3  UNL     1      28.731  16.686  27.368  1.00  0.00    -0.645 OA
HETATM   19  O4  UNL     1      26.697  17.563  28.054  1.00  0.00    -0.645 OA
ENDBRANCH  16  17
ENDBRANCH   5  15
BRANCH  14  20
HETATM   20  C19 UNL     1      29.741  21.905  26.367  1.00  0.00     0.171 C 
BRANCH  20  21
HETATM   21  O6  UNL     1      29.218  21.539  25.104  1.00  0.00    -0.400 OA
ATOM     22  H6  UNL     1      29.006  22.306  24.585  1.00  0.00     0.209 HD
ENDBRANCH  20  21
ENDBRANCH  14  20
BRANCH   1  23
HETATM   23  C4  UNL     1      33.818  20.223  25.663  1.00  0.00     0.008 C 
HETATM   24  C2  UNL     1      34.749  20.575  24.788  1.00  0.00    -0.089 C 
HETATM   25  C1  UNL     1      35.094  19.678  23.652  1.00  0.00     0.042 C 
HETATM   26  C3  UNL     1      35.482  21.874  24.911  1.00  0.00     0.042 C 
ENDBRANCH   1  23
TORSDOF 5
ENDMDL
MODEL 3
REMARK VINA RESULT: -5.709831763      5.139      7.227
REMARK  5 active torsions:
REMARK  status: ('A' for Active; 'I' for Inactive)
REMARK    1  A    between atoms: C4_4  and  C5_5 
REMARK    2  A    between atoms: C7_9  and  C8_10 
REMARK    3  A    between atoms: C9_11  and  C10_12 
REMARK    4  A    between atoms: C18_23  and  C19_24 
REMARK    5  A    between atoms: C19_24  and  O6_25 
ROOT
HETATM    1  C5  UNL     1      28.352  15.417  29.884  1.00  0.00     0.163 C 
HETATM    2  O1  UNL     1      28.105  16.553  30.668  1.00  0.00    -0.310 OA
HETATM    3  C6  UNL     1      27.346  17.602  30.244  1.00  0.00     0.272 C 
HETATM    4  O2  UNL     1      26.912  18.413  31.124  1.00  0.00    -0.264 OA
HETATM    5  C7  UNL     1      26.990  17.862  28.802  1.00  0.00     0.072 C 
HETATM    6  C11 UNL     1      27.689  19.043  28.288  1.00  0.00     0.026 C 
HETATM    7  C12 UNL     1      29.145  19.056  28.095  1.00  0.00     0.028 C 
HETATM    8  C13 UNL     1      29.997  18.776  29.296  1.00  0.00     0.175 C 
HETATM    9  O5  UNL     1      30.476  17.426  29.330  1.00  0.00    -0.355 OA
HETATM   10  C14 UNL     1      30.418  16.688  28.191  1.00  0.00     0.053 A 
HETATM   11  C15 UNL     1      29.462  15.917  27.756  1.00  0.00    -0.037 A 
HETATM   12  C16 UNL     1      30.686  16.033  26.907  1.00  0.00     0.102 A 
HETATM   13  C17 UNL     1      28.180  15.642  28.401  1.00  0.00     0.058 C 
HETATM   14  C18 UNL     1      27.077  16.590  28.046  1.00  0.00     0.042 C 
ENDROOT
BRANCH   5  15
HETATM   15  C8  UNL     1      25.547  18.248  28.863  1.00  0.00     0.000 C 
HETATM   16  C9  UNL     1      24.908  18.988  28.007  1.00  0.00     0.081 C 
BRANCH  16  17
HETATM   17  C10 UNL     1      23.492  19.268  28.222  1.00  0.00     0.198 C 
HETATM   18  O3  UNL     1      22.821  18.583  29.037  1.00  0.00    -0.645 OA
HETATM   19  O4  UNL     1      22.903  20.316  27.499  1.00  0.00    -0.645 OA
ENDBRANCH  16  17
ENDBRANCH   5  15
BRANCH  14  20
HETATM   20  C19 UNL     1      27.019  16.725  26.558  1.00  0.00     0.171 C 
BRANCH  20  21
HETATM   21  O6  UNL     1      25.762  16.311  26.055  1.00  0.00    -0.400 OA
ATOM     22  H6  UNL     1      25.864  15.731  25.310  1.00  0.00     0.209 HD
ENDBRANCH  20  21
ENDBRANCH  14  20
BRANCH   1  23
HETATM   23  C4  UNL     1      27.372  14.378  30.341  1.00  0.00     0.008 C 
HETATM   24  C2  UNL     1      27.760  13.187  30.775  1.00  0.00    -0.089 C 
HETATM   25  C1  UNL     1      26.756  12.184  31.220  1.00  0.00     0.042 C 
HETATM   26  C3  UNL     1      29.208  12.813  30.835  1.00  0.00     0.042 C 
ENDBRANCH   1  23
TORSDOF 5
ENDMDL
MODEL 4
REMARK VINA RESULT: -5.405757134      3.437      5.683
REMARK  5 active torsions:
REMARK  status: ('A' for Active; 'I' for Inactive)
REMARK    1  A    between atoms: C4_4  and  C5_5 
REMARK    2  A    between atoms: C7_9  and  C8_10 
REMARK    3  A    between atoms: C9_11  and  C10_12 
REMARK    4  A    between atoms: C18_23  and  C19_24 
REMARK    5  A    between atoms: C19_24  and  O6_25 
ROOT
HETATM    1  C5  UNL     1      30.469  16.878  28.147  1.00  0.00     0.163 C 
HETATM    2  O1  UNL     1      30.839  17.790  29.145  1.00  0.00    -0.310 OA
HETATM    3  C6  UNL     1      31.632  18.872  28.910  1.00  0.00     0.272 C 
HETATM    4  O2  UNL     1      31.638  19.802  29.779  1.00  0.00    -0.264 OA
HETATM    5  C7  UNL     1      32.501  19.037  27.688  1.00  0.00     0.072 C 
HETATM    6  C11 UNL     1      33.922  18.925  28.030  1.00  0.00     0.026 C 
HETATM    7  C12 UNL     1      34.513  17.656  28.475  1.00  0.00     0.028 C 
HETATM    8  C13 UNL     1      33.921  17.016  29.693  1.00  0.00     0.175 C 
HETATM    9  O5  UNL     1      33.017  15.952  29.374  1.00  0.00    -0.355 OA
HETATM   10  C14 UNL     1      33.048  15.428  28.120  1.00  0.00     0.053 A 
HETATM   11  C15 UNL     1      32.376  15.784  27.062  1.00  0.00    -0.037 A 
HETATM   12  C16 UNL     1      33.328  14.642  26.916  1.00  0.00     0.102 A 
HETATM   13  C17 UNL     1      31.393  16.859  26.954  1.00  0.00     0.058 C 
HETATM   14  C18 UNL     1      31.958  18.198  26.593  1.00  0.00     0.042 C 
ENDROOT
BRANCH   5  15
HETATM   15  C8  UNL     1      32.295  20.466  27.303  1.00  0.00     0.000 C 
HETATM   16  C9  UNL     1      33.222  21.344  27.066  1.00  0.00     0.081 C 
BRANCH  16  17
HETATM   17  C10 UNL     1      32.841  22.705  26.699  1.00  0.00     0.198 C 
HETATM   18  O3  UNL     1      32.056  22.912  25.737  1.00  0.00    -0.645 OA
HETATM   19  O4  UNL     1      33.371  23.768  27.444  1.00  0.00    -0.645 OA
ENDBRANCH  16  17
ENDBRANCH   5  15
BRANCH  14  20
HETATM   20  C19 UNL     1      32.853  18.039  25.406  1.00  0.00     0.171 C 
BRANCH  20  21
HETATM   21  O6  UNL     1      32.301  18.663  24.261  1.00  0.00    -0.400 OA
ATOM     22  H6  UNL     1      31.364  18.789  24.357  1.00  0.00     0.209 HD
ENDBRANCH  20  21
ENDBRANCH  14  20
BRANCH   1  23
HETATM   23  C4  UNL     1      29.097  17.286  27.701  1.00  0.00     0.008 C 
HETATM   24  C2  UNL     1      28.034  16.521  27.901  1.00  0.00    -0.089 C 
HETATM   25  C1  UNL     1      26.689  16.964  27.443  1.00  0.00     0.042 C 
HETATM   26  C3  UNL     1      28.145  15.197  28.591  1.00  0.00     0.042 C 
ENDBRANCH   1  23
TORSDOF 5
ENDMDL
MODEL 5
REMARK VINA RESULT: -5.371699343      7.014     10.175
REMARK  5 active torsions:
REMARK  status: ('A' for Active; 'I' for Inactive)
REMARK    1  A    between atoms: C4_4  and  C5_5 
REMARK    2  A    between atoms: C7_9  and  C8_10 
REMARK    3  A    between atoms: C9_11  and  C10_12 
REMARK    4  A    between atoms: C18_23  and  C19_24 
REMARK    5  A    between atoms: C19_24  and  O6_25 
ROOT
HETATM    1  C5  UNL     1      30.971  13.865  29.416  1.00  0.00     0.163 C 
HETATM    2  O1  UNL     1      31.363  12.542  29.175  1.00  0.00    -0.310 OA
HETATM    3  C6  UNL     1      32.429  11.956  29.788  1.00  0.00     0.272 C 
HETATM    4  O2  UNL     1      32.503  10.686  29.762  1.00  0.00    -0.264 OA
HETATM    5  C7  UNL     1      33.524  12.716  30.495  1.00  0.00     0.072 C 
HETATM    6  C11 UNL     1      34.783  12.647  29.748  1.00  0.00     0.026 C 
HETATM    7  C12 UNL     1      34.948  13.306  28.446  1.00  0.00     0.028 C 
HETATM    8  C13 UNL     1      33.999  12.912  27.355  1.00  0.00     0.175 C 
HETATM    9  O5  UNL     1      32.935  13.856  27.181  1.00  0.00    -0.355 OA
HETATM   10  C14 UNL     1      33.068  15.092  27.728  1.00  0.00     0.053 A 
HETATM   11  C15 UNL     1      32.714  15.513  28.909  1.00  0.00    -0.037 A 
HETATM   12  C16 UNL     1      33.364  16.503  27.997  1.00  0.00     0.102 A 
HETATM   13  C17 UNL     1      32.067  14.744  29.969  1.00  0.00     0.058 C 
HETATM   14  C18 UNL     1      33.003  14.042  30.904  1.00  0.00     0.042 C 
ENDROOT
BRANCH   5  15
HETATM   15  C8  UNL     1      33.754  11.922  31.740  1.00  0.00     0.000 C 
HETATM   16  C9  UNL     1      34.889  11.449  32.156  1.00  0.00     0.081 C 
BRANCH  16  17
HETATM   17  C10 UNL     1      34.934  10.690  33.402  1.00  0.00     0.198 C 
HETATM   18  O3  UNL     1      35.482   9.558  33.441  1.00  0.00    -0.645 OA
HETATM   19  O4  UNL     1      34.351  11.253  34.546  1.00  0.00    -0.645 OA
ENDBRANCH  16  17
ENDBRANCH   5  15
BRANCH  14  20
HETATM   20  C19 UNL     1      34.036  15.018  31.372  1.00  0.00     0.171 C 
BRANCH  20  21
HETATM   21  O6  UNL     1      33.953  15.219  32.771  1.00  0.00    -0.400 OA
ATOM     22  H6  UNL     1      33.381  15.948  32.980  1.00  0.00     0.209 HD
ENDBRANCH  20  21
ENDBRANCH  14  20
BRANCH   1  23
HETATM   23  C4  UNL     1      29.851  13.792  30.410  1.00  0.00     0.008 C 
HETATM   24  C2  UNL     1      28.637  14.251  30.140  1.00  0.00    -0.089 C 
HETATM   25  C1  UNL     1      27.553  14.158  31.154  1.00  0.00     0.042 C 
HETATM   26  C3  UNL     1      28.316  14.873  28.817  1.00  0.00     0.042 C 
ENDBRANCH   1  23
TORSDOF 5
ENDMDL
