MODEL 1
REMARK VINA RESULT: -6.667058339      0.000      0.000
REMARK  8 active torsions:
REMARK  status: ('A' for Active; 'I' for Inactive)
REMARK    1  A    between atoms: O1_2  and  C2_3 
REMARK    2  A    between atoms: C2_3  and  S2_5 
REMARK    3  A    between atoms: S2_5  and  C3_6 
REMARK    4  A    between atoms: C3_6  and  C4_7 
REMARK    5  A    between atoms: C4_7  and  C5_8 
REMARK    6  A    between atoms: C9_12  and  O2_13 
REMARK    7  A    between atoms: C10_15  and  C11_16 
REMARK       I    between atoms: C11_16  and  N1_18 
REMARK    8  A    between atoms: N1_18  and  C12_20 
ROOT
HETATM    1  C5  UNL     1      25.905  14.671  31.162  1.00  0.00     0.006 C 
HETATM    2  C6  UNL     1      25.721  15.875  30.279  1.00  0.00     0.020 C 
HETATM    3  C7  UNL     1      26.976  16.714  30.581  1.00  0.00     0.015 C 
HETATM    4  C8  UNL     1      27.680  15.499  29.958  1.00  0.00     0.029 C 
HETATM    5  C9  UNL     1      26.486  15.458  29.027  1.00  0.00     0.127 C 
HETATM    6  C10 UNL     1      27.388  14.479  31.040  1.00  0.00     0.089 C 
ENDROOT
BRANCH   6   7
HETATM    7  C11 UNL     1      27.902  13.178  30.720  1.00  0.00     0.228 C 
HETATM    8  O3  UNL     1      27.442  12.117  31.160  1.00  0.00    -0.273 OA
HETATM    9  N1  UNL     1      29.017  13.086  29.843  1.00  0.00    -0.306 N 
ATOM     10  H1  UNL     1      28.857  12.850  28.864  1.00  0.00     0.171 HD
BRANCH   9  11
HETATM   11  C12 UNL     1      30.235  13.293  30.251  1.00  0.00     0.167 A 
HETATM   12  N2  UNL     1      30.912  14.442  30.361  1.00  0.00    -0.279 N 
HETATM   13  N3  UNL     1      32.107  14.408  30.787  1.00  0.00    -0.303 N 
ATOM     14  H2  UNL     1      30.476  15.329  30.107  1.00  0.00     0.189 HD
HETATM   15  C13 UNL     1      32.670  13.256  31.115  1.00  0.00     0.160 A 
ATOM     16  H3  UNL     1      32.638  15.275  30.877  1.00  0.00     0.186 HD
HETATM   17  S3  UNL     1      31.393  12.160  30.787  1.00  0.00    -0.046 SA
ENDBRANCH   9  11
ENDBRANCH   6   7
BRANCH   1  18
HETATM   18  C4  UNL     1      25.032  13.547  30.772  1.00  0.00     0.016 C 
BRANCH  18  19
HETATM   19  C3  UNL     1      24.001  13.375  31.907  1.00  0.00     0.082 C 
BRANCH  19  20
HETATM   20  S2  UNL     1      22.562  14.432  31.618  1.00  0.00    -0.093 SA
BRANCH  20  21
HETATM   21  C2  UNL     1      21.291  14.196  32.815  1.00  0.00     0.174 C 
HETATM   22  S1  UNL     1      21.436  13.317  34.162  1.00  0.00    -0.045 SA
BRANCH  21  23
HETATM   23  O1  UNL     1      20.060  14.818  32.581  1.00  0.00    -0.340 OA
HETATM   24  C1  UNL     1      18.981  14.445  33.411  1.00  0.00     0.211 C 
ENDBRANCH  21  23
ENDBRANCH  20  21
ENDBRANCH  19  20
ENDBRANCH  18  19
ENDBRANCH   1  18
BRANCH   5  25
HETATM   25  O2  UNL     1      26.596  16.476  28.080  1.00  0.00    -0.395 OA
ATOM     26  H2  UNL     1      26.218  16.251  27.238  1.00  0.00     0.210 HD
ENDBRANCH   5  25
TORSDOF 8
ENDMDL
MODEL 2
REMARK VINA RESULT: -6.664463030      1.346      1.361
REMARK  8 active torsions:
REMARK  status: ('A' for Active; 'I' for Inactive)
REMARK    1  A    between atoms: O1_2  and  C2_3 
REMARK    2  A    between atoms: C2_3  and  S2_5 
REMARK    3  A    between atoms: S2_5  and  C3_6 
REMARK    4  A    between atoms: C3_6  and  C4_7 
REMARK    5  A    between atoms: C4_7  and  C5_8 
REMARK    6  A    between atoms: C9_12  and  O2_13 
REMARK    7  A    between atoms: C10_15  and  C11_16 
REMARK       I    between atoms: C11_16  and  N1_18 
REMARK    8  A    between atoms: N1_18  and  C12_20 
ROOT
HETATM    1  C5  UNL     1      25.756  15.197  30.865  1.00  0.00     0.006 C 
HETATM    2  C6  UNL     1      25.617  16.409  29.984  1.00  0.00     0.020 C 
HETATM    3  C7  UNL     1      26.846  17.253  30.370  1.00  0.00     0.015 C 
HETATM    4  C8  UNL     1      27.595  16.049  29.779  1.00  0.00     0.029 C 
HETATM    5  C9  UNL     1      26.460  16.010  28.777  1.00  0.00     0.127 C 
HETATM    6  C10 UNL     1      27.245  15.016  30.831  1.00  0.00     0.089 C 
ENDROOT
BRANCH   6   7
HETATM    7  C11 UNL     1      27.787  13.721  30.530  1.00  0.00     0.228 C 
HETATM    8  O3  UNL     1      27.489  12.682  31.131  1.00  0.00    -0.273 OA
HETATM    9  N1  UNL     1      28.734  13.611  29.475  1.00  0.00    -0.306 N 
ATOM     10  H1  UNL     1      28.420  13.276  28.564  1.00  0.00     0.171 HD
BRANCH   9  11
HETATM   11  C12 UNL     1      29.985  13.923  29.636  1.00  0.00     0.167 A 
HETATM   12  N2  UNL     1      30.725  13.931  30.752  1.00  0.00    -0.279 N 
HETATM   13  N3  UNL     1      31.944  14.277  30.674  1.00  0.00    -0.303 N 
ATOM     14  H2  UNL     1      30.316  13.664  31.647  1.00  0.00     0.189 HD
HETATM   15  C13 UNL     1      32.470  14.622  29.509  1.00  0.00     0.160 A 
ATOM     16  H3  UNL     1      32.522  14.288  31.514  1.00  0.00     0.186 HD
HETATM   17  S3  UNL     1      31.120  14.435  28.469  1.00  0.00    -0.046 SA
ENDBRANCH   9  11
ENDBRANCH   6   7
BRANCH   1  18
HETATM   18  C4  UNL     1      24.916  14.071  30.412  1.00  0.00     0.016 C 
BRANCH  18  19
HETATM   19  C3  UNL     1      23.930  13.767  31.559  1.00  0.00     0.082 C 
BRANCH  19  20
HETATM   20  S2  UNL     1      22.385  14.678  31.321  1.00  0.00    -0.093 SA
BRANCH  20  21
HETATM   21  C2  UNL     1      21.214  14.379  32.602  1.00  0.00     0.174 C 
HETATM   22  S1  UNL     1      19.649  14.775  32.541  1.00  0.00    -0.045 SA
BRANCH  21  23
HETATM   23  O1  UNL     1      21.673  13.750  33.763  1.00  0.00    -0.340 OA
HETATM   24  C1  UNL     1      20.755  12.938  34.463  1.00  0.00     0.211 C 
ENDBRANCH  21  23
ENDBRANCH  20  21
ENDBRANCH  19  20
ENDBRANCH  18  19
ENDBRANCH   1  18
BRANCH   5  25
HETATM   25  O2  UNL     1      26.620  17.039  27.849  1.00  0.00    -0.395 OA
ATOM     26  H2  UNL     1      27.098  16.775  27.071  1.00  0.00     0.210 HD
ENDBRANCH   5  25
TORSDOF 8
ENDMDL
MODEL 3
REMARK VINA RESULT: -6.584610571      3.648      6.598
REMARK  8 active torsions:
REMARK  status: ('A' for Active; 'I' for Inactive)
REMARK    1  A    between atoms: O1_2  and  C2_3 
REMARK    2  A    between atoms: C2_3  and  S2_5 
REMARK    3  A    between atoms: S2_5  and  C3_6 
REMARK    4  A    between atoms: C3_6  and  C4_7 
REMARK    5  A    between atoms: C4_7  and  C5_8 
REMARK    6  A    between atoms: C9_12  and  O2_13 
REMARK    7  A    between atoms: C10_15  and  C11_16 
REMARK       I    between atoms: C11_16  and  N1_18 
REMARK    8  A    between atoms: N1_18  and  C12_20 
ROOT
HETATM    1  C5  UNL     1      27.684  16.054  28.044  1.00  0.00     0.006 C 
HETATM    2  C6  UNL     1      27.675  17.308  27.213  1.00  0.00     0.020 C 
HETATM    3  C7  UNL     1      26.193  17.725  27.242  1.00  0.00     0.015 C 
HETATM    4  C8  UNL     1      26.488  17.890  28.741  1.00  0.00     0.029 C 
HETATM    5  C9  UNL     1      27.843  18.385  28.279  1.00  0.00     0.127 C 
HETATM    6  C10 UNL     1      26.689  16.432  29.101  1.00  0.00     0.089 C 
ENDROOT
BRANCH   6   7
HETATM    7  C11 UNL     1      27.032  16.251  30.484  1.00  0.00     0.228 C 
HETATM    8  O3  UNL     1      27.880  16.920  31.086  1.00  0.00    -0.273 OA
HETATM    9  N1  UNL     1      26.362  15.238  31.222  1.00  0.00    -0.306 N 
ATOM     10  H1  UNL     1      25.591  15.501  31.836  1.00  0.00     0.171 HD
BRANCH   9  11
HETATM   11  C12 UNL     1      26.700  13.985  31.137  1.00  0.00     0.167 A 
HETATM   12  N2  UNL     1      27.914  13.438  30.998  1.00  0.00    -0.279 N 
HETATM   13  N3  UNL     1      28.011  12.174  30.935  1.00  0.00    -0.303 N 
ATOM     14  H2  UNL     1      28.745  14.026  30.944  1.00  0.00     0.189 HD
HETATM   15  C13 UNL     1      26.929  11.414  31.005  1.00  0.00     0.160 A 
ATOM     16  H3  UNL     1      28.928  11.740  30.830  1.00  0.00     0.186 HD
HETATM   17  S3  UNL     1      25.702  12.601  31.173  1.00  0.00    -0.046 SA
ENDBRANCH   9  11
ENDBRANCH   6   7
BRANCH   1  18
HETATM   18  C4  UNL     1      29.042  15.677  28.482  1.00  0.00     0.016 C 
BRANCH  18  19
HETATM   19  C3  UNL     1      29.666  14.862  27.330  1.00  0.00     0.082 C 
BRANCH  19  20
HETATM   20  S2  UNL     1      29.669  13.098  27.736  1.00  0.00    -0.093 SA
BRANCH  20  21
HETATM   21  C2  UNL     1      31.028  12.636  28.757  1.00  0.00     0.174 C 
HETATM   22  S1  UNL     1      32.474  12.158  28.219  1.00  0.00    -0.045 SA
BRANCH  21  23
HETATM   23  O1  UNL     1      30.841  12.687  30.142  1.00  0.00    -0.340 OA
HETATM   24  C1  UNL     1      31.590  13.644  30.859  1.00  0.00     0.211 C 
ENDBRANCH  21  23
ENDBRANCH  20  21
ENDBRANCH  19  20
ENDBRANCH  18  19
ENDBRANCH   1  18
BRANCH   5  25
HETATM   25  O2  UNL     1      27.722  19.682  27.780  1.00  0.00    -0.395 OA
ATOM     26  H2  UNL     1      27.291  20.279  28.380  1.00  0.00     0.210 HD
ENDBRANCH   5  25
TORSDOF 8
ENDMDL
MODEL 4
REMARK VINA RESULT: -6.560071360      3.258      4.355
REMARK  8 active torsions:
REMARK  status: ('A' for Active; 'I' for Inactive)
REMARK    1  A    between atoms: O1_2  and  C2_3 
REMARK    2  A    between atoms: C2_3  and  S2_5 
REMARK    3  A    between atoms: S2_5  and  C3_6 
REMARK    4  A    between atoms: C3_6  and  C4_7 
REMARK    5  A    between atoms: C4_7  and  C5_8 
REMARK    6  A    between atoms: C9_12  and  O2_13 
REMARK    7  A    between atoms: C10_15  and  C11_16 
REMARK       I    between atoms: C11_16  and  N1_18 
REMARK    8  A    between atoms: N1_18  and  C12_20 
ROOT
HETATM    1  C5  UNL     1      27.414  14.065  29.948  1.00  0.00     0.006 C 
HETATM    2  C6  UNL     1      28.689  13.295  29.734  1.00  0.00     0.020 C 
HETATM    3  C7  UNL     1      29.197  13.845  28.390  1.00  0.00     0.015 C 
HETATM    4  C8  UNL     1      29.301  15.145  29.202  1.00  0.00     0.029 C 
HETATM    5  C9  UNL     1      29.723  14.238  30.339  1.00  0.00     0.127 C 
HETATM    6  C10 UNL     1      27.824  15.406  29.416  1.00  0.00     0.089 C 
ENDROOT
BRANCH   6   7
HETATM    7  C11 UNL     1      27.583  16.578  30.208  1.00  0.00     0.228 C 
HETATM    8  O3  UNL     1      26.507  16.840  30.760  1.00  0.00    -0.273 OA
HETATM    9  N1  UNL     1      28.642  17.512  30.377  1.00  0.00    -0.306 N 
ATOM     10  H1  UNL     1      29.181  17.496  31.243  1.00  0.00     0.171 HD
BRANCH   9  11
HETATM   11  C12 UNL     1      28.944  18.385  29.462  1.00  0.00     0.167 A 
HETATM   12  N2  UNL     1      28.168  18.936  28.522  1.00  0.00    -0.279 N 
HETATM   13  N3  UNL     1      28.682  19.778  27.722  1.00  0.00    -0.303 N 
ATOM     14  H2  UNL     1      27.182  18.685  28.448  1.00  0.00     0.189 HD
HETATM   15  C13 UNL     1      29.962  20.101  27.820  1.00  0.00     0.160 A 
ATOM     16  H3  UNL     1      28.104  20.208  26.999  1.00  0.00     0.186 HD
HETATM   17  S3  UNL     1      30.447  19.130  29.146  1.00  0.00    -0.046 SA
ENDBRANCH   9  11
ENDBRANCH   6   7
BRANCH   1  18
HETATM   18  C4  UNL     1      26.940  13.995  31.344  1.00  0.00     0.016 C 
BRANCH  18  19
HETATM   19  C3  UNL     1      25.692  13.088  31.341  1.00  0.00     0.082 C 
BRANCH  19  20
HETATM   20  S2  UNL     1      24.263  13.983  30.684  1.00  0.00    -0.093 SA
BRANCH  20  21
HETATM   21  C2  UNL     1      22.889  13.978  31.787  1.00  0.00     0.174 C 
HETATM   22  S1  UNL     1      21.467  14.689  31.502  1.00  0.00    -0.045 SA
BRANCH  21  23
HETATM   23  O1  UNL     1      23.040  13.306  33.004  1.00  0.00    -0.340 OA
HETATM   24  C1  UNL     1      22.010  13.457  33.956  1.00  0.00     0.211 C 
ENDBRANCH  21  23
ENDBRANCH  20  21
ENDBRANCH  19  20
ENDBRANCH  18  19
ENDBRANCH   1  18
BRANCH   5  25
HETATM   25  O2  UNL     1      31.038  13.819  30.140  1.00  0.00    -0.395 OA
ATOM     26  H2  UNL     1      31.458  13.505  30.933  1.00  0.00     0.210 HD
ENDBRANCH   5  25
TORSDOF 8
ENDMDL
MODEL 5
REMARK VINA RESULT: -6.526104504      3.464      5.423
REMARK  8 active torsions:
REMARK  status: ('A' for Active; 'I' for Inactive)
REMARK    1  A    between atoms: O1_2  and  C2_3 
REMARK    2  A    between atoms: C2_3  and  S2_5 
REMARK    3  A    between atoms: S2_5  and  C3_6 
REMARK    4  A    between atoms: C3_6  and  C4_7 
REMARK    5  A    between atoms: C4_7  and  C5_8 
REMARK    6  A    between atoms: C9_12  and  O2_13 
REMARK    7  A    between atoms: C10_15  and  C11_16 
REMARK       I    between atoms: C11_16  and  N1_18 
REMARK    8  A    between atoms: N1_18  and  C12_20 
ROOT
HETATM    1  C5  UNL     1      28.339  14.182  29.137  1.00  0.00     0.006 C 
HETATM    2  C6  UNL     1      29.178  12.942  29.278  1.00  0.00     0.020 C 
HETATM    3  C7  UNL     1      29.479  12.567  27.815  1.00  0.00     0.015 C 
HETATM    4  C8  UNL     1      30.220  13.912  27.844  1.00  0.00     0.029 C 
HETATM    5  C9  UNL     1      30.589  13.521  29.261  1.00  0.00     0.127 C 
HETATM    6  C10 UNL     1      29.026  14.835  27.974  1.00  0.00     0.089 C 
ENDROOT
BRANCH   6   7
HETATM    7  C11 UNL     1      29.407  16.216  28.070  1.00  0.00     0.228 C 
HETATM    8  O3  UNL     1      30.245  16.655  28.866  1.00  0.00    -0.273 OA
HETATM    9  N1  UNL     1      28.786  17.152  27.199  1.00  0.00    -0.306 N 
ATOM     10  H1  UNL     1      29.287  17.461  26.367  1.00  0.00     0.171 HD
BRANCH   9  11
HETATM   11  C12 UNL     1      27.598  17.628  27.432  1.00  0.00     0.167 A 
HETATM   12  N2  UNL     1      26.584  17.837  26.584  1.00  0.00    -0.279 N 
HETATM   13  N3  UNL     1      25.499  18.318  27.037  1.00  0.00    -0.303 N 
ATOM     14  H2  UNL     1      26.680  17.615  25.594  1.00  0.00     0.189 HD
HETATM   15  C13 UNL     1      25.378  18.605  28.324  1.00  0.00     0.160 A 
ATOM     16  H3  UNL     1      24.715  18.483  26.405  1.00  0.00     0.186 HD
HETATM   17  S3  UNL     1      26.925  18.153  28.910  1.00  0.00    -0.046 SA
ENDBRANCH   9  11
ENDBRANCH   6   7
BRANCH   1  18
HETATM   18  C4  UNL     1      28.245  14.946  30.397  1.00  0.00     0.016 C 
BRANCH  18  19
HETATM   19  C3  UNL     1      27.034  14.380  31.167  1.00  0.00     0.082 C 
BRANCH  19  20
HETATM   20  S2  UNL     1      25.488  14.933  30.407  1.00  0.00    -0.093 SA
BRANCH  20  21
HETATM   21  C2  UNL     1      24.068  14.166  31.113  1.00  0.00     0.174 C 
HETATM   22  S1  UNL     1      22.591  14.815  31.164  1.00  0.00    -0.045 SA
BRANCH  21  23
HETATM   23  O1  UNL     1      24.232  12.895  31.672  1.00  0.00    -0.340 OA
HETATM   24  C1  UNL     1      24.233  11.795  30.787  1.00  0.00     0.211 C 
ENDBRANCH  21  23
ENDBRANCH  20  21
ENDBRANCH  19  20
ENDBRANCH  18  19
ENDBRANCH   1  18
BRANCH   5  25
HETATM   25  O2  UNL     1      31.587  12.548  29.233  1.00  0.00    -0.395 OA
ATOM     26  H2  UNL     1      32.314  12.737  29.814  1.00  0.00     0.210 HD
ENDBRANCH   5  25
TORSDOF 8
ENDMDL
