MODEL 1
REMARK VINA RESULT: -7.959505185      0.000      0.000
REMARK  6 active torsions:
REMARK  status: ('A' for Active; 'I' for Inactive)
REMARK    1  A    between atoms: C9_10  and  C11_12 
REMARK    2  A    between atoms: C11_12  and  O2_13 
REMARK    3  A    between atoms: C11_12  and  C12_15 
REMARK    4  A    between atoms: C13_16  and  C14_17 
REMARK    5  A    between atoms: C16_20  and  C18_22 
REMARK    6  A    between atoms: C18_22  and  O4_23 
ROOT
HETATM    1  C11 UNL     1      25.106  14.483  30.469  1.00  0.00     0.150 C 
ENDROOT
BRANCH   1   2
HETATM    2  C9  UNL     1      25.971  15.704  30.222  1.00  0.00     0.000 C 
HETATM    3  C2  UNL     1      27.087  15.761  31.226  1.00  0.00    -0.007 C 
HETATM    4  C1  UNL     1      28.026  14.626  30.994  1.00  0.00     0.011 C 
HETATM    5  C3  UNL     1      27.851  17.056  31.064  1.00  0.00     0.006 C 
HETATM    6  C4  UNL     1      28.348  17.293  29.685  1.00  0.00     0.018 C 
HETATM    7  C5  UNL     1      27.731  16.501  28.611  1.00  0.00     0.028 A 
HETATM    8  C6  UNL     1      28.662  16.041  27.481  1.00  0.00     0.024 C 
HETATM    9  C7  UNL     1      26.397  16.960  28.041  1.00  0.00     0.142 A 
HETATM   10  C8  UNL     1      26.560  15.723  28.852  1.00  0.00     0.083 A 
HETATM   11  O1  UNL     1      25.853  17.822  27.385  1.00  0.00    -0.297 OA
HETATM   12  C10 UNL     1      25.037  16.893  30.343  1.00  0.00     0.019 C 
ENDBRANCH   1   2
BRANCH   1  13
HETATM   13  O2  UNL     1      25.752  13.475  31.129  1.00  0.00    -0.391 OA
ATOM     14  H2  UNL     1      25.261  13.121  31.862  1.00  0.00     0.210 HD
ENDBRANCH   1  13
BRANCH   1  15
HETATM   15  C12 UNL     1      23.828  14.902  31.106  1.00  0.00     0.004 C 
HETATM   16  C13 UNL     1      23.160  14.082  31.891  1.00  0.00     0.013 C 
BRANCH  16  17
HETATM   17  C14 UNL     1      21.893  14.509  32.517  1.00  0.00     0.243 C 
HETATM   18  O3  UNL     1      21.352  13.428  33.247  1.00  0.00    -0.369 OA
HETATM   19  C15 UNL     1      20.226  13.902  33.917  1.00  0.00     0.209 C 
HETATM   20  C16 UNL     1      19.135  14.384  33.023  1.00  0.00     0.109 C 
HETATM   21  C17 UNL     1      18.723  15.791  33.399  1.00  0.00     0.051 C 
HETATM   22  O5  UNL     1      19.592  14.434  31.685  1.00  0.00    -0.304 OA
HETATM   23  C19 UNL     1      20.904  14.821  31.452  1.00  0.00     0.292 C 
HETATM   24  O6  UNL     1      21.193  15.402  30.378  1.00  0.00    -0.262 OA
BRANCH  20  25
HETATM   25  C18 UNL     1      17.906  13.495  33.073  1.00  0.00     0.204 C 
BRANCH  25  26
HETATM   26  O4  UNL     1      16.733  14.210  33.038  1.00  0.00    -0.398 OA
ATOM     27  H4  UNL     1      16.457  14.417  32.153  1.00  0.00     0.209 HD
ENDBRANCH  25  26
ENDBRANCH  20  25
ENDBRANCH  16  17
ENDBRANCH   1  15
TORSDOF 6
ENDMDL
MODEL 2
REMARK VINA RESULT: -7.855123563      2.155      3.017
REMARK  6 active torsions:
REMARK  status: ('A' for Active; 'I' for Inactive)
REMARK    1  A    between atoms: C9_10  and  C11_12 
REMARK    2  A    between atoms: C11_12  and  O2_13 
REMARK    3  A    between atoms: C11_12  and  C12_15 
REMARK    4  A    between atoms: C13_16  and  C14_17 
REMARK    5  A    between atoms: C16_20  and  C18_22 
REMARK    6  A    between atoms: C18_22  and  O4_23 
ROOT
HETATM    1  C11 UNL     1      27.621  13.876  30.172  1.00  0.00     0.150 C 
ENDROOT
BRANCH   1   2
HETATM    2  C9  UNL     1      28.081  15.260  29.758  1.00  0.00     0.000 C 
HETATM    3  C2  UNL     1      29.450  15.190  29.144  1.00  0.00    -0.007 C 
HETATM    4  C1  UNL     1      29.379  14.453  27.849  1.00  0.00     0.011 C 
HETATM    5  C3  UNL     1      29.958  16.588  28.872  1.00  0.00     0.006 C 
HETATM    6  C4  UNL     1      29.037  17.416  28.054  1.00  0.00     0.018 C 
HETATM    7  C5  UNL     1      27.645  16.956  27.952  1.00  0.00     0.028 A 
HETATM    8  C6  UNL     1      26.956  17.157  26.595  1.00  0.00     0.024 C 
HETATM    9  C7  UNL     1      26.683  17.287  29.085  1.00  0.00     0.142 A 
HETATM   10  C8  UNL     1      27.154  15.907  28.785  1.00  0.00     0.083 A 
HETATM   11  O1  UNL     1      26.089  18.188  29.638  1.00  0.00    -0.297 OA
HETATM   12  C10 UNL     1      28.071  16.088  31.030  1.00  0.00     0.019 C 
ENDBRANCH   1   2
BRANCH   1  13
HETATM   13  O2  UNL     1      28.560  13.170  30.872  1.00  0.00    -0.391 OA
ATOM     14  H2  UNL     1      29.137  13.714  31.395  1.00  0.00     0.210 HD
ENDBRANCH   1  13
BRANCH   1  15
HETATM   15  C12 UNL     1      26.304  13.976  30.857  1.00  0.00     0.004 C 
HETATM   16  C13 UNL     1      25.179  13.963  30.170  1.00  0.00     0.013 C 
BRANCH  16  17
HETATM   17  C14 UNL     1      23.879  14.062  30.859  1.00  0.00     0.243 C 
HETATM   18  O3  UNL     1      24.043  14.798  32.053  1.00  0.00    -0.369 OA
HETATM   19  C15 UNL     1      22.779  14.972  32.612  1.00  0.00     0.209 C 
HETATM   20  C16 UNL     1      22.098  13.704  33.000  1.00  0.00     0.109 C 
HETATM   21  C17 UNL     1      20.720  13.630  32.379  1.00  0.00     0.051 C 
HETATM   22  O5  UNL     1      22.828  12.594  32.513  1.00  0.00    -0.304 OA
HETATM   23  C19 UNL     1      23.441  12.702  31.273  1.00  0.00     0.292 C 
HETATM   24  O6  UNL     1      23.599  11.674  30.572  1.00  0.00    -0.262 OA
BRANCH  20  25
HETATM   25  C18 UNL     1      21.956  13.557  34.504  1.00  0.00     0.204 C 
BRANCH  25  26
HETATM   26  O4  UNL     1      21.253  12.431  34.861  1.00  0.00    -0.398 OA
ATOM     27  H4  UNL     1      21.398  12.180  35.766  1.00  0.00     0.209 HD
ENDBRANCH  25  26
ENDBRANCH  20  25
ENDBRANCH  16  17
ENDBRANCH   1  15
TORSDOF 6
ENDMDL
MODEL 3
REMARK VINA RESULT: -7.852986489      2.465      4.077
REMARK  6 active torsions:
REMARK  status: ('A' for Active; 'I' for Inactive)
REMARK    1  A    between atoms: C9_10  and  C11_12 
REMARK    2  A    between atoms: C11_12  and  O2_13 
REMARK    3  A    between atoms: C11_12  and  C12_15 
REMARK    4  A    between atoms: C13_16  and  C14_17 
REMARK    5  A    between atoms: C16_20  and  C18_22 
REMARK    6  A    between atoms: C18_22  and  O4_23 
ROOT
HETATM    1  C11 UNL     1      28.920  12.645  30.322  1.00  0.00     0.150 C 
ENDROOT
BRANCH   1   2
HETATM    2  C9  UNL     1      29.511  13.802  29.540  1.00  0.00     0.000 C 
HETATM    3  C2  UNL     1      30.171  13.299  28.287  1.00  0.00    -0.007 C 
HETATM    4  C1  UNL     1      29.135  12.757  27.361  1.00  0.00     0.011 C 
HETATM    5  C3  UNL     1      30.883  14.440  27.595  1.00  0.00     0.006 C 
HETATM    6  C4  UNL     1      30.016  15.613  27.319  1.00  0.00     0.018 C 
HETATM    7  C5  UNL     1      28.753  15.696  28.067  1.00  0.00     0.028 A 
HETATM    8  C6  UNL     1      27.542  16.251  27.305  1.00  0.00     0.024 C 
HETATM    9  C7  UNL     1      28.781  16.247  29.486  1.00  0.00     0.142 A 
HETATM   10  C8  UNL     1      28.490  14.824  29.166  1.00  0.00     0.083 A 
HETATM   11  O1  UNL     1      28.956  17.248  30.147  1.00  0.00    -0.297 OA
HETATM   12  C10 UNL     1      30.504  14.461  30.480  1.00  0.00     0.019 C 
ENDBRANCH   1   2
BRANCH   1  13
HETATM   13  O2  UNL     1      29.827  11.993  31.110  1.00  0.00    -0.391 OA
ATOM     14  H2  UNL     1      30.179  12.528  31.812  1.00  0.00     0.210 HD
ENDBRANCH   1  13
BRANCH   1  15
HETATM   15  C12 UNL     1      27.706  13.106  31.048  1.00  0.00     0.004 C 
HETATM   16  C13 UNL     1      26.509  12.665  30.717  1.00  0.00     0.013 C 
BRANCH  16  17
HETATM   17  C14 UNL     1      25.312  13.129  31.445  1.00  0.00     0.243 C 
HETATM   18  O3  UNL     1      24.190  12.392  31.007  1.00  0.00    -0.369 OA
HETATM   19  C15 UNL     1      23.108  12.773  31.797  1.00  0.00     0.209 C 
HETATM   20  C16 UNL     1      22.732  14.210  31.674  1.00  0.00     0.109 C 
HETATM   21  C17 UNL     1      22.681  14.864  33.038  1.00  0.00     0.051 C 
HETATM   22  O5  UNL     1      23.709  14.904  30.923  1.00  0.00    -0.304 OA
HETATM   23  C19 UNL     1      25.040  14.545  31.083  1.00  0.00     0.292 C 
HETATM   24  O6  UNL     1      25.935  15.409  30.918  1.00  0.00    -0.262 OA
BRANCH  20  25
HETATM   25  C18 UNL     1      21.386  14.403  30.999  1.00  0.00     0.204 C 
BRANCH  25  26
HETATM   26  O4  UNL     1      21.229  15.668  30.485  1.00  0.00    -0.398 OA
ATOM     27  H4  UNL     1      21.681  16.329  30.996  1.00  0.00     0.209 HD
ENDBRANCH  25  26
ENDBRANCH  20  25
ENDBRANCH  16  17
ENDBRANCH   1  15
TORSDOF 6
ENDMDL
MODEL 4
REMARK VINA RESULT: -7.815730653      5.617      9.948
REMARK  6 active torsions:
REMARK  status: ('A' for Active; 'I' for Inactive)
REMARK    1  A    between atoms: C9_10  and  C11_12 
REMARK    2  A    between atoms: C11_12  and  O2_13 
REMARK    3  A    between atoms: C11_12  and  C12_15 
REMARK    4  A    between atoms: C13_16  and  C14_17 
REMARK    5  A    between atoms: C16_20  and  C18_22 
REMARK    6  A    between atoms: C18_22  and  O4_23 
ROOT
HETATM    1  C11 UNL     1      31.509  15.942  28.561  1.00  0.00     0.150 C 
ENDROOT
BRANCH   1   2
HETATM    2  C9  UNL     1      30.231  15.126  28.550  1.00  0.00     0.000 C 
HETATM    3  C2  UNL     1      30.500  13.733  29.046  1.00  0.00    -0.007 C 
HETATM    4  C1  UNL     1      30.861  13.779  30.492  1.00  0.00     0.011 C 
HETATM    5  C3  UNL     1      29.254  12.890  28.890  1.00  0.00     0.006 C 
HETATM    6  C4  UNL     1      28.048  13.471  29.530  1.00  0.00     0.018 C 
HETATM    7  C5  UNL     1      28.098  14.901  29.866  1.00  0.00     0.028 A 
HETATM    8  C6  UNL     1      27.410  15.321  31.172  1.00  0.00     0.024 C 
HETATM    9  C7  UNL     1      27.814  15.918  28.770  1.00  0.00     0.142 A 
HETATM   10  C8  UNL     1      29.155  15.732  29.387  1.00  0.00     0.083 A 
HETATM   11  O1  UNL     1      26.951  16.368  28.047  1.00  0.00    -0.297 OA
HETATM   12  C10 UNL     1      29.757  15.135  27.108  1.00  0.00     0.019 C 
ENDBRANCH   1   2
BRANCH   1  13
HETATM   13  O2  UNL     1      32.488  15.443  27.747  1.00  0.00    -0.391 OA
ATOM     14  H2  UNL     1      32.516  15.851  26.889  1.00  0.00     0.210 HD
ENDBRANCH   1  13
BRANCH   1  15
HETATM   15  C12 UNL     1      31.186  17.373  28.314  1.00  0.00     0.004 C 
HETATM   16  C13 UNL     1      32.092  18.314  28.492  1.00  0.00     0.013 C 
BRANCH  16  17
HETATM   17  C14 UNL     1      31.760  19.730  28.244  1.00  0.00     0.243 C 
HETATM   18  O3  UNL     1      30.376  19.923  28.448  1.00  0.00    -0.369 OA
HETATM   19  C15 UNL     1      30.124  21.287  28.322  1.00  0.00     0.209 C 
HETATM   20  C16 UNL     1      30.425  21.847  26.974  1.00  0.00     0.109 C 
HETATM   21  C17 UNL     1      31.347  23.041  27.088  1.00  0.00     0.051 C 
HETATM   22  O5  UNL     1      31.098  20.882  26.188  1.00  0.00    -0.304 OA
HETATM   23  C19 UNL     1      32.012  20.046  26.813  1.00  0.00     0.292 C 
HETATM   24  O6  UNL     1      32.987  19.602  26.161  1.00  0.00    -0.262 OA
BRANCH  20  25
HETATM   25  C18 UNL     1      29.173  22.277  26.230  1.00  0.00     0.204 C 
BRANCH  25  26
HETATM   26  O4  UNL     1      29.223  21.973  24.891  1.00  0.00    -0.398 OA
ATOM     27  H4  UNL     1      29.202  22.747  24.339  1.00  0.00     0.209 HD
ENDBRANCH  25  26
ENDBRANCH  20  25
ENDBRANCH  16  17
ENDBRANCH   1  15
TORSDOF 6
ENDMDL
MODEL 5
REMARK VINA RESULT: -7.790654813      3.409      5.722
REMARK  6 active torsions:
REMARK  status: ('A' for Active; 'I' for Inactive)
REMARK    1  A    between atoms: C9_10  and  C11_12 
REMARK    2  A    between atoms: C11_12  and  O2_13 
REMARK    3  A    between atoms: C11_12  and  C12_15 
REMARK    4  A    between atoms: C13_16  and  C14_17 
REMARK    5  A    between atoms: C16_20  and  C18_22 
REMARK    6  A    between atoms: C18_22  and  O4_23 
ROOT
HETATM    1  C11 UNL     1      28.836  16.796  28.362  1.00  0.00     0.150 C 
ENDROOT
BRANCH   1   2
HETATM    2  C9  UNL     1      30.066  16.058  27.867  1.00  0.00     0.000 C 
HETATM    3  C2  UNL     1      31.120  17.038  27.437  1.00  0.00    -0.007 C 
HETATM    4  C1  UNL     1      31.625  17.782  28.627  1.00  0.00     0.011 C 
HETATM    5  C3  UNL     1      32.278  16.295  26.809  1.00  0.00     0.006 C 
HETATM    6  C4  UNL     1      32.846  15.227  27.669  1.00  0.00     0.018 C 
HETATM    7  C5  UNL     1      32.015  14.764  28.789  1.00  0.00     0.028 A 
HETATM    8  C6  UNL     1      32.753  14.414  30.089  1.00  0.00     0.024 C 
HETATM    9  C7  UNL     1      30.922  13.742  28.513  1.00  0.00     0.142 A 
HETATM   10  C8  UNL     1      30.647  15.152  28.899  1.00  0.00     0.083 A 
HETATM   11  O1  UNL     1      30.710  12.590  28.199  1.00  0.00    -0.297 OA
HETATM   12  C10 UNL     1      29.584  15.198  26.713  1.00  0.00     0.019 C 
ENDBRANCH   1   2
BRANCH   1  13
HETATM   13  O2  UNL     1      28.213  17.536  27.396  1.00  0.00    -0.391 OA
ATOM     14  H2  UNL     1      27.276  17.384  27.342  1.00  0.00     0.210 HD
ENDBRANCH   1  13
BRANCH   1  15
HETATM   15  C12 UNL     1      27.938  15.843  29.070  1.00  0.00     0.004 C 
HETATM   16  C13 UNL     1      27.473  16.116  30.272  1.00  0.00     0.013 C 
BRANCH  16  17
HETATM   17  C14 UNL     1      26.583  15.164  30.964  1.00  0.00     0.243 C 
HETATM   18  O3  UNL     1      27.022  13.847  30.702  1.00  0.00    -0.369 OA
HETATM   19  C15 UNL     1      26.234  12.987  31.465  1.00  0.00     0.209 C 
HETATM   20  C16 UNL     1      24.783  13.015  31.123  1.00  0.00     0.109 C 
HETATM   21  C17 UNL     1      23.950  13.269  32.361  1.00  0.00     0.051 C 
HETATM   22  O5  UNL     1      24.518  14.076  30.225  1.00  0.00    -0.304 OA
HETATM   23  C19 UNL     1      25.217  15.264  30.385  1.00  0.00     0.292 C 
HETATM   24  O6  UNL     1      24.681  16.346  30.042  1.00  0.00    -0.262 OA
BRANCH  20  25
HETATM   25  C18 UNL     1      24.311  11.722  30.483  1.00  0.00     0.204 C 
BRANCH  25  26
HETATM   26  O4  UNL     1      25.106  10.650  30.811  1.00  0.00    -0.398 OA
ATOM     27  H4  UNL     1      24.933   9.888  30.270  1.00  0.00     0.209 HD
ENDBRANCH  25  26
ENDBRANCH  20  25
ENDBRANCH  16  17
ENDBRANCH   1  15
TORSDOF 6
ENDMDL
