MODEL 1
REMARK VINA RESULT: -7.131619298      0.000      0.000
REMARK  7 active torsions:
REMARK  status: ('A' for Active; 'I' for Inactive)
REMARK       I    between atoms: N1_2  and  C3_4 
REMARK    1  A    between atoms: C3_4  and  C4_6 
REMARK    2  A    between atoms: C4_6  and  S1_8 
REMARK    3  A    between atoms: S1_8  and  C5_9 
REMARK    4  A    between atoms: C7_11  and  N2_12 
REMARK    5  A    between atoms: C10_15  and  O3_16 
REMARK    6  A    between atoms: C12_19  and  C13_20 
REMARK    7  A    between atoms: C14_21  and  C16_24 
ROOT
HETATM    1  C13 UNL     1      22.384  14.286  30.904  1.00  0.00     0.042 C 
HETATM    2  C14 UNL     1      21.666  14.281  31.994  1.00  0.00     0.121 C 
HETATM    3  C15 UNL     1      22.217  13.926  33.268  1.00  0.00     0.106 C 
HETATM    4  N3  UNL     1      22.660  13.661  34.330  1.00  0.00    -0.191 NA
ENDROOT
BRANCH   2   5
HETATM    5  C16 UNL     1      20.257  14.647  31.916  1.00  0.00     0.220 C 
HETATM    6  O4  UNL     1      19.674  15.140  32.936  1.00  0.00    -0.643 OA
HETATM    7  O5  UNL     1      19.580  14.452  30.730  1.00  0.00    -0.643 OA
ENDBRANCH   2   5
BRANCH   1   8
HETATM    8  C12 UNL     1      23.795  13.940  30.827  1.00  0.00    -0.015 A 
HETATM    9  C5  UNL     1      24.726  14.920  30.680  1.00  0.00     0.021 A 
HETATM   10  C6  UNL     1      26.045  14.536  30.560  1.00  0.00     0.052 A 
HETATM   11  C7  UNL     1      26.419  13.183  30.588  1.00  0.00     0.064 A 
HETATM   12  C10 UNL     1      25.468  12.204  30.738  1.00  0.00     0.093 A 
HETATM   13  C11 UNL     1      24.138  12.579  30.860  1.00  0.00     0.051 A 
BRANCH   9  14
HETATM   14  S1  UNL     1      24.262  16.647  30.722  1.00  0.00    -0.042 SA
BRANCH  14  15
HETATM   15  C4  UNL     1      25.696  17.595  30.135  1.00  0.00     0.281 C 
HETATM   16  O2  UNL     1      26.501  18.050  30.972  1.00  0.00    -0.274 OA
BRANCH  15  17
HETATM   17  C3  UNL     1      25.896  17.817  28.718  1.00  0.00     0.300 C 
HETATM   18  N1  UNL     1      27.041  17.374  28.063  1.00  0.00    -0.353 N 
HETATM   19  C1  UNL     1      27.183  17.612  26.634  1.00  0.00     0.152 C 
HETATM   20  C2  UNL     1      28.105  16.696  28.734  1.00  0.00     0.152 C 
HETATM   21  O1  UNL     1      24.986  18.446  28.043  1.00  0.00    -0.263 OA
ENDBRANCH  15  17
ENDBRANCH  14  15
ENDBRANCH   9  14
BRANCH  11  22
HETATM   22  N2  UNL     1      27.799  12.871  30.485  1.00  0.00    -0.387 N 
HETATM   23  C8  UNL     1      28.524  13.219  29.273  1.00  0.00     0.149 C 
HETATM   24  C9  UNL     1      28.536  12.218  31.538  1.00  0.00     0.149 C 
ENDBRANCH  11  22
BRANCH  12  25
HETATM   25  O3  UNL     1      25.856  10.886  30.762  1.00  0.00    -0.358 OA
ATOM     26  H3  UNL     1      25.570  10.329  31.477  1.00  0.00     0.217 HD
ENDBRANCH  12  25
ENDBRANCH   1   8
TORSDOF 7
ENDMDL
MODEL 2
REMARK VINA RESULT: -7.124833250      0.545      1.245
REMARK  7 active torsions:
REMARK  status: ('A' for Active; 'I' for Inactive)
REMARK       I    between atoms: N1_2  and  C3_4 
REMARK    1  A    between atoms: C3_4  and  C4_6 
REMARK    2  A    between atoms: C4_6  and  S1_8 
REMARK    3  A    between atoms: S1_8  and  C5_9 
REMARK    4  A    between atoms: C7_11  and  N2_12 
REMARK    5  A    between atoms: C10_15  and  O3_16 
REMARK    6  A    between atoms: C12_19  and  C13_20 
REMARK    7  A    between atoms: C14_21  and  C16_24 
ROOT
HETATM    1  C13 UNL     1      22.398  14.321  30.893  1.00  0.00     0.042 C 
HETATM    2  C14 UNL     1      21.674  14.297  31.979  1.00  0.00     0.121 C 
HETATM    3  C15 UNL     1      22.223  13.933  33.251  1.00  0.00     0.106 C 
HETATM    4  N3  UNL     1      22.662  13.660  34.313  1.00  0.00    -0.191 NA
ENDROOT
BRANCH   2   5
HETATM    5  C16 UNL     1      20.263  14.652  31.898  1.00  0.00     0.220 C 
HETATM    6  O4  UNL     1      19.678  15.157  32.911  1.00  0.00    -0.643 OA
HETATM    7  O5  UNL     1      19.584  14.432  30.717  1.00  0.00    -0.643 OA
ENDBRANCH   2   5
BRANCH   1   8
HETATM    8  C12 UNL     1      23.812  13.989  30.819  1.00  0.00    -0.015 A 
HETATM    9  C5  UNL     1      24.733  14.978  30.669  1.00  0.00     0.021 A 
HETATM   10  C6  UNL     1      26.057  14.605  30.551  1.00  0.00     0.052 A 
HETATM   11  C7  UNL     1      26.444  13.257  30.586  1.00  0.00     0.064 A 
HETATM   12  C10 UNL     1      25.502  12.269  30.739  1.00  0.00     0.093 A 
HETATM   13  C11 UNL     1      24.168  12.632  30.858  1.00  0.00     0.051 A 
BRANCH   9  14
HETATM   14  S1  UNL     1      24.253  16.700  30.702  1.00  0.00    -0.042 SA
BRANCH  14  15
HETATM   15  C4  UNL     1      25.383  17.587  29.592  1.00  0.00     0.281 C 
HETATM   16  O2  UNL     1      24.914  18.171  28.594  1.00  0.00    -0.274 OA
BRANCH  15  17
HETATM   17  C3  UNL     1      26.805  17.614  29.865  1.00  0.00     0.300 C 
HETATM   18  N1  UNL     1      27.739  17.209  28.916  1.00  0.00    -0.353 N 
HETATM   19  C1  UNL     1      29.158  17.270  29.238  1.00  0.00     0.152 C 
HETATM   20  C2  UNL     1      27.371  16.719  27.625  1.00  0.00     0.152 C 
HETATM   21  O1  UNL     1      27.219  18.025  31.022  1.00  0.00    -0.263 OA
ENDBRANCH  15  17
ENDBRANCH  14  15
ENDBRANCH   9  14
BRANCH  11  22
HETATM   22  N2  UNL     1      27.826  12.957  30.486  1.00  0.00    -0.387 N 
HETATM   23  C8  UNL     1      28.589  13.462  29.355  1.00  0.00     0.149 C 
HETATM   24  C9  UNL     1      28.531  12.169  31.466  1.00  0.00     0.149 C 
ENDBRANCH  11  22
BRANCH  12  25
HETATM   25  O3  UNL     1      25.903  10.955  30.769  1.00  0.00    -0.358 OA
ATOM     26  H3  UNL     1      26.708  10.703  30.331  1.00  0.00     0.217 HD
ENDBRANCH  12  25
ENDBRANCH   1   8
TORSDOF 7
ENDMDL
MODEL 3
REMARK VINA RESULT: -7.074211421      2.412      3.511
REMARK  7 active torsions:
REMARK  status: ('A' for Active; 'I' for Inactive)
REMARK       I    between atoms: N1_2  and  C3_4 
REMARK    1  A    between atoms: C3_4  and  C4_6 
REMARK    2  A    between atoms: C4_6  and  S1_8 
REMARK    3  A    between atoms: S1_8  and  C5_9 
REMARK    4  A    between atoms: C7_11  and  N2_12 
REMARK    5  A    between atoms: C10_15  and  O3_16 
REMARK    6  A    between atoms: C12_19  and  C13_20 
REMARK    7  A    between atoms: C14_21  and  C16_24 
ROOT
HETATM    1  C13 UNL     1      25.720  14.183  31.046  1.00  0.00     0.042 C 
HETATM    2  C14 UNL     1      24.850  13.219  31.170  1.00  0.00     0.121 C 
HETATM    3  C15 UNL     1      25.164  11.862  30.833  1.00  0.00     0.106 C 
HETATM    4  N3  UNL     1      25.411  10.734  30.585  1.00  0.00    -0.191 NA
ENDROOT
BRANCH   2   5
HETATM    5  C16 UNL     1      23.515  13.528  31.666  1.00  0.00     0.220 C 
HETATM    6  O4  UNL     1      23.129  13.053  32.784  1.00  0.00    -0.643 OA
HETATM    7  O5  UNL     1      22.691  14.337  30.912  1.00  0.00    -0.643 OA
ENDBRANCH   2   5
BRANCH   1   8
HETATM    8  C12 UNL     1      27.083  14.027  30.560  1.00  0.00    -0.015 A 
HETATM    9  C5  UNL     1      27.513  14.763  29.502  1.00  0.00     0.021 A 
HETATM   10  C6  UNL     1      28.797  14.540  29.048  1.00  0.00     0.052 A 
HETATM   11  C7  UNL     1      29.633  13.590  29.655  1.00  0.00     0.064 A 
HETATM   12  C10 UNL     1      29.185  12.854  30.724  1.00  0.00     0.093 A 
HETATM   13  C11 UNL     1      27.895  13.070  31.189  1.00  0.00     0.051 A 
BRANCH   9  14
HETATM   14  S1  UNL     1      26.479  16.029  28.776  1.00  0.00    -0.042 SA
BRANCH  14  15
HETATM   15  C4  UNL     1      26.931  17.600  29.566  1.00  0.00     0.281 C 
HETATM   16  O2  UNL     1      26.151  18.101  30.402  1.00  0.00    -0.274 OA
BRANCH  15  17
HETATM   17  C3  UNL     1      28.176  18.258  29.228  1.00  0.00     0.300 C 
HETATM   18  N1  UNL     1      28.278  19.112  28.134  1.00  0.00    -0.353 N 
HETATM   19  C1  UNL     1      29.551  19.758  27.848  1.00  0.00     0.152 C 
HETATM   20  C2  UNL     1      27.184  19.381  27.256  1.00  0.00     0.152 C 
HETATM   21  O1  UNL     1      29.222  18.047  29.963  1.00  0.00    -0.263 OA
ENDBRANCH  15  17
ENDBRANCH  14  15
ENDBRANCH   9  14
BRANCH  11  22
HETATM   22  N2  UNL     1      30.949  13.438  29.147  1.00  0.00    -0.387 N 
HETATM   23  C8  UNL     1      31.981  14.387  29.535  1.00  0.00     0.149 C 
HETATM   24  C9  UNL     1      31.326  12.373  28.252  1.00  0.00     0.149 C 
ENDBRANCH  11  22
BRANCH  12  25
HETATM   25  O3  UNL     1      30.019  11.928  31.302  1.00  0.00    -0.358 OA
ATOM     26  H3  UNL     1      29.752  11.497  32.105  1.00  0.00     0.217 HD
ENDBRANCH  12  25
ENDBRANCH   1   8
TORSDOF 7
ENDMDL
MODEL 4
REMARK VINA RESULT: -7.025459871      2.025      2.634
REMARK  7 active torsions:
REMARK  status: ('A' for Active; 'I' for Inactive)
REMARK       I    between atoms: N1_2  and  C3_4 
REMARK    1  A    between atoms: C3_4  and  C4_6 
REMARK    2  A    between atoms: C4_6  and  S1_8 
REMARK    3  A    between atoms: S1_8  and  C5_9 
REMARK    4  A    between atoms: C7_11  and  N2_12 
REMARK    5  A    between atoms: C10_15  and  O3_16 
REMARK    6  A    between atoms: C12_19  and  C13_20 
REMARK    7  A    between atoms: C14_21  and  C16_24 
ROOT
HETATM    1  C13 UNL     1      24.630  14.851  31.166  1.00  0.00     0.042 C 
HETATM    2  C14 UNL     1      23.621  14.024  31.140  1.00  0.00     0.121 C 
HETATM    3  C15 UNL     1      23.760  12.667  30.700  1.00  0.00     0.106 C 
HETATM    4  N3  UNL     1      23.860  11.540  30.365  1.00  0.00    -0.191 NA
ENDROOT
BRANCH   2   5
HETATM    5  C16 UNL     1      22.310  14.491  31.572  1.00  0.00     0.220 C 
HETATM    6  O4  UNL     1      21.805  14.047  32.655  1.00  0.00    -0.643 OA
HETATM    7  O5  UNL     1      21.639  15.412  30.796  1.00  0.00    -0.643 OA
ENDBRANCH   2   5
BRANCH   1   8
HETATM    8  C12 UNL     1      25.990  14.530  30.761  1.00  0.00    -0.015 A 
HETATM    9  C5  UNL     1      26.688  15.399  29.983  1.00  0.00     0.021 A 
HETATM   10  C6  UNL     1      27.955  15.024  29.584  1.00  0.00     0.052 A 
HETATM   11  C7  UNL     1      28.508  13.792  29.966  1.00  0.00     0.064 A 
HETATM   12  C10 UNL     1      27.790  12.924  30.752  1.00  0.00     0.093 A 
HETATM   13  C11 UNL     1      26.516  13.291  31.159  1.00  0.00     0.051 A 
BRANCH   9  14
HETATM   14  S1  UNL     1      26.019  17.002  29.560  1.00  0.00    -0.042 SA
BRANCH  14  15
HETATM   15  C4  UNL     1      26.713  17.458  27.945  1.00  0.00     0.281 C 
HETATM   16  O2  UNL     1      26.607  16.655  26.995  1.00  0.00    -0.274 OA
BRANCH  15  17
HETATM   17  C3  UNL     1      27.379  18.731  27.767  1.00  0.00     0.300 C 
HETATM   18  N1  UNL     1      28.746  18.878  27.986  1.00  0.00    -0.353 N 
HETATM   19  C1  UNL     1      29.367  20.178  27.778  1.00  0.00     0.152 C 
HETATM   20  C2  UNL     1      29.582  17.804  28.421  1.00  0.00     0.152 C 
HETATM   21  O1  UNL     1      26.685  19.760  27.396  1.00  0.00    -0.263 OA
ENDBRANCH  15  17
ENDBRANCH  14  15
ENDBRANCH   9  14
BRANCH  11  22
HETATM   22  N2  UNL     1      29.825  13.491  29.537  1.00  0.00    -0.387 N 
HETATM   23  C8  UNL     1      30.040  12.955  28.201  1.00  0.00     0.149 C 
HETATM   24  C9  UNL     1      30.986  13.696  30.367  1.00  0.00     0.149 C 
ENDBRANCH  11  22
BRANCH  12  25
HETATM   25  O3  UNL     1      28.350  11.722  31.113  1.00  0.00    -0.358 OA
ATOM     26  H3  UNL     1      28.099  10.933  30.647  1.00  0.00     0.217 HD
ENDBRANCH  12  25
ENDBRANCH   1   8
TORSDOF 7
ENDMDL
MODEL 5
REMARK VINA RESULT: -6.899231948      2.418      3.381
REMARK  7 active torsions:
REMARK  status: ('A' for Active; 'I' for Inactive)
REMARK       I    between atoms: N1_2  and  C3_4 
REMARK    1  A    between atoms: C3_4  and  C4_6 
REMARK    2  A    between atoms: C4_6  and  S1_8 
REMARK    3  A    between atoms: S1_8  and  C5_9 
REMARK    4  A    between atoms: C7_11  and  N2_12 
REMARK    5  A    between atoms: C10_15  and  O3_16 
REMARK    6  A    between atoms: C12_19  and  C13_20 
REMARK    7  A    between atoms: C14_21  and  C16_24 
ROOT
HETATM    1  C13 UNL     1      25.682  14.290  30.926  1.00  0.00     0.042 C 
HETATM    2  C14 UNL     1      24.840  13.308  31.103  1.00  0.00     0.121 C 
HETATM    3  C15 UNL     1      25.187  11.947  30.821  1.00  0.00     0.106 C 
HETATM    4  N3  UNL     1      25.463  10.817  30.618  1.00  0.00    -0.191 NA
ENDROOT
BRANCH   2   5
HETATM    5  C16 UNL     1      23.503  13.603  31.603  1.00  0.00     0.220 C 
HETATM    6  O4  UNL     1      23.099  13.065  32.686  1.00  0.00    -0.643 OA
HETATM    7  O5  UNL     1      22.697  14.466  30.890  1.00  0.00    -0.643 OA
ENDBRANCH   2   5
BRANCH   1   8
HETATM    8  C12 UNL     1      27.043  14.150  30.431  1.00  0.00    -0.015 A 
HETATM    9  C5  UNL     1      27.439  14.847  29.333  1.00  0.00     0.021 A 
HETATM   10  C6  UNL     1      28.723  14.639  28.873  1.00  0.00     0.052 A 
HETATM   11  C7  UNL     1      29.594  13.742  29.512  1.00  0.00     0.064 A 
HETATM   12  C10 UNL     1      29.179  13.045  30.621  1.00  0.00     0.093 A 
HETATM   13  C11 UNL     1      27.890  13.246  31.092  1.00  0.00     0.051 A 
BRANCH   9  14
HETATM   14  S1  UNL     1      26.361  16.047  28.563  1.00  0.00    -0.042 SA
BRANCH  14  15
HETATM   15  C4  UNL     1      26.826  17.676  29.218  1.00  0.00     0.281 C 
HETATM   16  O2  UNL     1      26.524  17.961  30.395  1.00  0.00    -0.274 OA
BRANCH  15  17
HETATM   17  C3  UNL     1      27.535  18.624  28.385  1.00  0.00     0.300 C 
HETATM   18  N1  UNL     1      28.903  18.840  28.524  1.00  0.00    -0.353 N 
HETATM   19  C1  UNL     1      29.568  19.795  27.649  1.00  0.00     0.152 C 
HETATM   20  C2  UNL     1      29.699  18.168  29.502  1.00  0.00     0.152 C 
HETATM   21  O1  UNL     1      26.879  19.291  27.488  1.00  0.00    -0.263 OA
ENDBRANCH  15  17
ENDBRANCH  14  15
ENDBRANCH   9  14
BRANCH  11  22
HETATM   22  N2  UNL     1      30.907  13.604  28.995  1.00  0.00    -0.387 N 
HETATM   23  C8  UNL     1      31.880  14.663  29.215  1.00  0.00     0.149 C 
HETATM   24  C9  UNL     1      31.339  12.447  28.251  1.00  0.00     0.149 C 
ENDBRANCH  11  22
BRANCH  12  25
HETATM   25  O3  UNL     1      30.047  12.171  31.230  1.00  0.00    -0.358 OA
ATOM     26  H3  UNL     1      30.984  12.309  31.145  1.00  0.00     0.217 HD
ENDBRANCH  12  25
ENDBRANCH   1   8
TORSDOF 7
ENDMDL
