MODEL 1
REMARK VINA RESULT: -7.616951303      0.000      0.000
REMARK  8 active torsions:
REMARK  status: ('A' for Active; 'I' for Inactive)
REMARK    1  A    between atoms: O1_2  and  C2_3 
REMARK    2  A    between atoms: C2_3  and  C3_5 
REMARK    3  A    between atoms: C3_5  and  N1_6 
REMARK    4  A    between atoms: N1_6  and  S1_8 
REMARK    5  A    between atoms: S1_8  and  C4_11 
REMARK    6  A    between atoms: C7_14  and  O5_15 
REMARK    7  A    between atoms: C9_17  and  N2_18 
REMARK       I    between atoms: N2_18  and  C10_19 
REMARK    8  A    between atoms: C10_19  and  C11_21 
ROOT
HETATM    1  C4  UNL     1      18.602  14.483  62.544  1.00  0.00     0.083 A 
HETATM    2  C5  UNL     1      18.802  13.179  62.225  1.00  0.00     0.028 A 
HETATM    3  C6  UNL     1      17.879  12.223  62.568  1.00  0.00     0.042 A 
HETATM    4  C7  UNL     1      16.753  12.587  63.236  1.00  0.00     0.108 A 
HETATM    5  C9  UNL     1      16.476  13.950  63.605  1.00  0.00     0.145 A 
HETATM    6  C16 UNL     1      17.449  14.826  63.220  1.00  0.00     0.073 A 
ENDROOT
BRANCH   1   7
HETATM    7  S1  UNL     1      19.811  15.666  62.106  1.00  0.00     0.260 S 
HETATM    8  O3  UNL     1      20.038  15.492  60.652  1.00  0.00    -0.200 OA
HETATM    9  O4  UNL     1      21.101  15.208  62.785  1.00  0.00    -0.200 OA
BRANCH   7  10
HETATM   10  N1  UNL     1      19.385  17.128  62.695  1.00  0.00    -0.296 N 
ATOM     11  H1  UNL     1      19.700  17.357  63.638  1.00  0.00     0.173 HD
BRANCH  10  12
HETATM   12  C3  UNL     1      18.636  18.087  62.032  1.00  0.00     0.128 C 
HETATM   13  C17 UNL     1      17.763  18.795  63.054  1.00  0.00     0.042 C 
HETATM   14  C18 UNL     1      16.341  18.538  62.639  1.00  0.00     0.003 C 
HETATM   15  C19 UNL     1      16.447  18.587  61.145  1.00  0.00     0.003 C 
HETATM   16  C20 UNL     1      17.736  17.781  60.926  1.00  0.00     0.042 C 
BRANCH  12  17
HETATM   17  C2  UNL     1      19.609  19.123  61.555  1.00  0.00     0.287 C 
HETATM   18  O2  UNL     1      20.389  18.926  60.595  1.00  0.00    -0.262 OA
BRANCH  17  19
HETATM   19  O1  UNL     1      19.660  20.363  62.205  1.00  0.00    -0.325 OA
HETATM   20  C1  UNL     1      20.584  21.331  61.696  1.00  0.00     0.213 C 
ENDBRANCH  17  19
ENDBRANCH  12  17
ENDBRANCH  10  12
ENDBRANCH   7  10
ENDBRANCH   1   7
BRANCH   5  21
HETATM   21  N2  UNL     1      15.311  14.109  64.270  1.00  0.00    -0.367 NA
HETATM   22  C10 UNL     1      14.150  14.266  64.936  1.00  0.00     0.296 C 
HETATM   23  O6  UNL     1      13.570  13.395  65.659  1.00  0.00    -0.257 OA
BRANCH  22  24
HETATM   24  C11 UNL     1      13.351  15.572  64.900  1.00  0.00     0.093 C 
HETATM   25  C12 UNL     1      13.322  16.091  63.499  1.00  0.00     0.015 C 
HETATM   26  C13 UNL     1      12.018  15.717  62.879  1.00  0.00     0.001 C 
HETATM   27  C14 UNL     1      11.098  15.313  63.987  1.00  0.00     0.001 C 
HETATM   28  C15 UNL     1      11.925  15.255  65.225  1.00  0.00     0.015 C 
ENDBRANCH  22  24
ENDBRANCH   5  21
BRANCH   4  29
HETATM   29  O5  UNL     1      15.809  11.646  63.593  1.00  0.00    -0.353 OA
HETATM   30  C8  UNL     1      14.766  11.362  62.679  1.00  0.00     0.210 C 
ENDBRANCH   4  29
TORSDOF 8
ENDMDL
MODEL 2
REMARK VINA RESULT: -7.577403104      2.569      5.251
REMARK  8 active torsions:
REMARK  status: ('A' for Active; 'I' for Inactive)
REMARK    1  A    between atoms: O1_2  and  C2_3 
REMARK    2  A    between atoms: C2_3  and  C3_5 
REMARK    3  A    between atoms: C3_5  and  N1_6 
REMARK    4  A    between atoms: N1_6  and  S1_8 
REMARK    5  A    between atoms: S1_8  and  C4_11 
REMARK    6  A    between atoms: C7_14  and  O5_15 
REMARK    7  A    between atoms: C9_17  and  N2_18 
REMARK       I    between atoms: N2_18  and  C10_19 
REMARK    8  A    between atoms: C10_19  and  C11_21 
ROOT
HETATM    1  C4  UNL     1      16.757  13.408  63.147  1.00  0.00     0.083 A 
HETATM    2  C5  UNL     1      15.583  12.779  63.408  1.00  0.00     0.028 A 
HETATM    3  C6  UNL     1      14.395  13.465  63.371  1.00  0.00     0.042 A 
HETATM    4  C7  UNL     1      14.396  14.792  63.071  1.00  0.00     0.108 A 
HETATM    5  C9  UNL     1      15.603  15.521  62.784  1.00  0.00     0.145 A 
HETATM    6  C16 UNL     1      16.730  14.754  62.844  1.00  0.00     0.073 A 
ENDROOT
BRANCH   1   7
HETATM    7  S1  UNL     1      18.249  12.502  63.223  1.00  0.00     0.260 S 
HETATM    8  O3  UNL     1      17.878  11.155  63.717  1.00  0.00    -0.200 OA
HETATM    9  O4  UNL     1      19.065  13.144  64.344  1.00  0.00    -0.200 OA
BRANCH   7  10
HETATM   10  N1  UNL     1      19.058  12.658  61.814  1.00  0.00    -0.296 N 
ATOM     11  H1  UNL     1      18.821  12.004  61.069  1.00  0.00     0.173 HD
BRANCH  10  12
HETATM   12  C3  UNL     1      20.038  13.598  61.537  1.00  0.00     0.128 C 
HETATM   13  C17 UNL     1      21.392  12.930  61.696  1.00  0.00     0.042 C 
HETATM   14  C18 UNL     1      22.102  13.678  62.791  1.00  0.00     0.003 C 
HETATM   15  C19 UNL     1      21.657  15.086  62.536  1.00  0.00     0.003 C 
HETATM   16  C20 UNL     1      20.163  14.863  62.252  1.00  0.00     0.042 C 
BRANCH  12  17
HETATM   17  C2  UNL     1      19.918  13.910  60.076  1.00  0.00     0.287 C 
HETATM   18  O2  UNL     1      19.851  13.019  59.198  1.00  0.00    -0.262 OA
BRANCH  17  19
HETATM   19  O1  UNL     1      19.881  15.249  59.664  1.00  0.00    -0.325 OA
HETATM   20  C1  UNL     1      20.982  15.722  58.879  1.00  0.00     0.213 C 
ENDBRANCH  17  19
ENDBRANCH  12  17
ENDBRANCH  10  12
ENDBRANCH   7  10
ENDBRANCH   1   7
BRANCH   5  21
HETATM   21  N2  UNL     1      15.399  16.830  62.518  1.00  0.00    -0.367 NA
HETATM   22  C10 UNL     1      15.192  18.135  62.253  1.00  0.00     0.296 C 
HETATM   23  O6  UNL     1      14.073  18.738  62.256  1.00  0.00    -0.257 OA
BRANCH  22  24
HETATM   24  C11 UNL     1      16.334  19.094  61.903  1.00  0.00     0.093 C 
HETATM   25  C12 UNL     1      17.393  19.000  62.953  1.00  0.00     0.015 C 
HETATM   26  C13 UNL     1      18.485  18.117  62.451  1.00  0.00     0.001 C 
HETATM   27  C14 UNL     1      18.298  17.975  60.973  1.00  0.00     0.001 C 
HETATM   28  C15 UNL     1      16.987  18.604  60.649  1.00  0.00     0.015 C 
ENDBRANCH  22  24
ENDBRANCH   5  21
BRANCH   4  29
HETATM   29  O5  UNL     1      13.216  15.506  63.028  1.00  0.00    -0.353 OA
HETATM   30  C8  UNL     1      12.399  15.521  64.184  1.00  0.00     0.210 C 
ENDBRANCH   4  29
TORSDOF 8
ENDMDL
MODEL 3
REMARK VINA RESULT: -7.572882093      2.692      5.362
REMARK  8 active torsions:
REMARK  status: ('A' for Active; 'I' for Inactive)
REMARK    1  A    between atoms: O1_2  and  C2_3 
REMARK    2  A    between atoms: C2_3  and  C3_5 
REMARK    3  A    between atoms: C3_5  and  N1_6 
REMARK    4  A    between atoms: N1_6  and  S1_8 
REMARK    5  A    between atoms: S1_8  and  C4_11 
REMARK    6  A    between atoms: C7_14  and  O5_15 
REMARK    7  A    between atoms: C9_17  and  N2_18 
REMARK       I    between atoms: N2_18  and  C10_19 
REMARK    8  A    between atoms: C10_19  and  C11_21 
ROOT
HETATM    1  C4  UNL     1      16.785  13.727  63.261  1.00  0.00     0.083 A 
HETATM    2  C5  UNL     1      15.676  13.188  63.831  1.00  0.00     0.028 A 
HETATM    3  C6  UNL     1      14.515  13.913  63.928  1.00  0.00     0.042 A 
HETATM    4  C7  UNL     1      14.475  15.185  63.449  1.00  0.00     0.108 A 
HETATM    5  C9  UNL     1      15.612  15.817  62.833  1.00  0.00     0.145 A 
HETATM    6  C16 UNL     1      16.717  15.018  62.781  1.00  0.00     0.073 A 
ENDROOT
BRANCH   1   7
HETATM    7  S1  UNL     1      18.248  12.777  63.175  1.00  0.00     0.260 S 
HETATM    8  O3  UNL     1      18.023  11.784  62.099  1.00  0.00    -0.200 OA
HETATM    9  O4  UNL     1      18.298  11.976  64.475  1.00  0.00    -0.200 OA
BRANCH   7  10
HETATM   10  N1  UNL     1      19.543  13.770  63.108  1.00  0.00    -0.296 N 
ATOM     11  H1  UNL     1      19.838  14.205  63.982  1.00  0.00     0.173 HD
BRANCH  10  12
HETATM   12  C3  UNL     1      20.276  14.077  61.974  1.00  0.00     0.128 C 
HETATM   13  C17 UNL     1      21.008  15.384  62.224  1.00  0.00     0.042 C 
HETATM   14  C18 UNL     1      20.499  16.353  61.192  1.00  0.00     0.003 C 
HETATM   15  C19 UNL     1      20.331  15.464  59.997  1.00  0.00     0.003 C 
HETATM   16  C20 UNL     1      19.683  14.233  60.651  1.00  0.00     0.042 C 
BRANCH  12  17
HETATM   17  C2  UNL     1      21.349  13.034  61.874  1.00  0.00     0.287 C 
HETATM   18  O2  UNL     1      21.901  12.535  62.881  1.00  0.00    -0.262 OA
BRANCH  17  19
HETATM   19  O1  UNL     1      21.759  12.596  60.608  1.00  0.00    -0.325 OA
HETATM   20  C1  UNL     1      23.169  12.532  60.364  1.00  0.00     0.213 C 
ENDBRANCH  17  19
ENDBRANCH  12  17
ENDBRANCH  10  12
ENDBRANCH   7  10
ENDBRANCH   1   7
BRANCH   5  21
HETATM   21  N2  UNL     1      15.377  17.085  62.428  1.00  0.00    -0.367 NA
HETATM   22  C10 UNL     1      15.141  18.349  62.026  1.00  0.00     0.296 C 
HETATM   23  O6  UNL     1      14.013  18.935  61.999  1.00  0.00    -0.257 OA
BRANCH  22  24
HETATM   24  C11 UNL     1      16.254  19.276  61.530  1.00  0.00     0.093 C 
HETATM   25  C12 UNL     1      17.489  18.471  61.281  1.00  0.00     0.015 C 
HETATM   26  C13 UNL     1      17.589  18.191  59.820  1.00  0.00     0.001 C 
HETATM   27  C14 UNL     1      16.651  19.125  59.123  1.00  0.00     0.001 C 
HETATM   28  C15 UNL     1      15.859  19.804  60.188  1.00  0.00     0.015 C 
ENDBRANCH  22  24
ENDBRANCH   5  21
BRANCH   4  29
HETATM   29  O5  UNL     1      13.321  15.935  63.535  1.00  0.00    -0.353 OA
HETATM   30  C8  UNL     1      12.077  15.260  63.491  1.00  0.00     0.210 C 
ENDBRANCH   4  29
TORSDOF 8
ENDMDL
MODEL 4
REMARK VINA RESULT: -7.314119921      0.969      1.316
REMARK  8 active torsions:
REMARK  status: ('A' for Active; 'I' for Inactive)
REMARK    1  A    between atoms: O1_2  and  C2_3 
REMARK    2  A    between atoms: C2_3  and  C3_5 
REMARK    3  A    between atoms: C3_5  and  N1_6 
REMARK    4  A    between atoms: N1_6  and  S1_8 
REMARK    5  A    between atoms: S1_8  and  C4_11 
REMARK    6  A    between atoms: C7_14  and  O5_15 
REMARK    7  A    between atoms: C9_17  and  N2_18 
REMARK       I    between atoms: N2_18  and  C10_19 
REMARK    8  A    between atoms: C10_19  and  C11_21 
ROOT
HETATM    1  C4  UNL     1      18.369  14.597  62.534  1.00  0.00     0.083 A 
HETATM    2  C5  UNL     1      18.597  13.274  62.737  1.00  0.00     0.028 A 
HETATM    3  C6  UNL     1      17.577  12.437  63.114  1.00  0.00     0.042 A 
HETATM    4  C7  UNL     1      16.325  12.939  63.287  1.00  0.00     0.108 A 
HETATM    5  C9  UNL     1      16.014  14.330  63.089  1.00  0.00     0.145 A 
HETATM    6  C16 UNL     1      17.090  15.081  62.715  1.00  0.00     0.073 A 
ENDROOT
BRANCH   1   7
HETATM    7  S1  UNL     1      19.699  15.633  62.074  1.00  0.00     0.260 S 
HETATM    8  O3  UNL     1      19.988  15.313  60.656  1.00  0.00    -0.200 OA
HETATM    9  O4  UNL     1      20.906  15.131  62.866  1.00  0.00    -0.200 OA
BRANCH   7  10
HETATM   10  N1  UNL     1      19.373  17.171  62.512  1.00  0.00    -0.296 N 
ATOM     11  H1  UNL     1      19.639  17.450  63.456  1.00  0.00     0.173 HD
BRANCH  10  12
HETATM   12  C3  UNL     1      18.767  18.133  61.719  1.00  0.00     0.128 C 
HETATM   13  C17 UNL     1      17.766  18.888  62.575  1.00  0.00     0.042 C 
HETATM   14  C18 UNL     1      16.420  18.659  61.943  1.00  0.00     0.003 C 
HETATM   15  C19 UNL     1      16.763  18.670  60.485  1.00  0.00     0.003 C 
HETATM   16  C20 UNL     1      18.046  17.824  60.491  1.00  0.00     0.042 C 
BRANCH  12  17
HETATM   17  C2  UNL     1      19.835  19.131  61.383  1.00  0.00     0.287 C 
HETATM   18  O2  UNL     1      20.762  18.883  60.578  1.00  0.00    -0.262 OA
BRANCH  17  19
HETATM   19  O1  UNL     1      19.806  20.393  61.990  1.00  0.00    -0.325 OA
HETATM   20  C1  UNL     1      20.836  21.318  61.625  1.00  0.00     0.213 C 
ENDBRANCH  17  19
ENDBRANCH  12  17
ENDBRANCH  10  12
ENDBRANCH   7  10
ENDBRANCH   1   7
BRANCH   5  21
HETATM   21  N2  UNL     1      14.718  14.636  63.318  1.00  0.00    -0.367 NA
HETATM   22  C10 UNL     1      13.425  14.940  63.544  1.00  0.00     0.296 C 
HETATM   23  O6  UNL     1      12.455  14.761  62.740  1.00  0.00    -0.257 OA
BRANCH  22  24
HETATM   24  C11 UNL     1      12.943  15.565  64.856  1.00  0.00     0.093 C 
HETATM   25  C12 UNL     1      11.449  15.544  64.890  1.00  0.00     0.015 C 
HETATM   26  C13 UNL     1      11.007  14.386  65.719  1.00  0.00     0.001 C 
HETATM   27  C14 UNL     1      12.194  13.922  66.503  1.00  0.00     0.001 C 
HETATM   28  C15 UNL     1      13.368  14.675  65.981  1.00  0.00     0.015 C 
ENDBRANCH  22  24
ENDBRANCH   5  21
BRANCH   4  29
HETATM   29  O5  UNL     1      15.283  12.119  63.666  1.00  0.00    -0.353 OA
HETATM   30  C8  UNL     1      14.592  11.403  62.659  1.00  0.00     0.210 C 
ENDBRANCH   4  29
TORSDOF 8
ENDMDL
MODEL 5
REMARK VINA RESULT: -7.295340814      2.486      5.314
REMARK  8 active torsions:
REMARK  status: ('A' for Active; 'I' for Inactive)
REMARK    1  A    between atoms: O1_2  and  C2_3 
REMARK    2  A    between atoms: C2_3  and  C3_5 
REMARK    3  A    between atoms: C3_5  and  N1_6 
REMARK    4  A    between atoms: N1_6  and  S1_8 
REMARK    5  A    between atoms: S1_8  and  C4_11 
REMARK    6  A    between atoms: C7_14  and  O5_15 
REMARK    7  A    between atoms: C9_17  and  N2_18 
REMARK       I    between atoms: N2_18  and  C10_19 
REMARK    8  A    between atoms: C10_19  and  C11_21 
ROOT
HETATM    1  C4  UNL     1      16.507  13.612  63.152  1.00  0.00     0.083 A 
HETATM    2  C5  UNL     1      15.398  13.130  63.769  1.00  0.00     0.028 A 
HETATM    3  C6  UNL     1      14.284  13.915  63.925  1.00  0.00     0.042 A 
HETATM    4  C7  UNL     1      14.292  15.192  63.457  1.00  0.00     0.108 A 
HETATM    5  C9  UNL     1      15.432  15.767  62.793  1.00  0.00     0.145 A 
HETATM    6  C16 UNL     1      16.488  14.910  62.684  1.00  0.00     0.073 A 
ENDROOT
BRANCH   1   7
HETATM    7  S1  UNL     1      17.911  12.585  62.991  1.00  0.00     0.260 S 
HETATM    8  O3  UNL     1      17.403  11.194  63.039  1.00  0.00    -0.200 OA
HETATM    9  O4  UNL     1      18.713  12.778  64.277  1.00  0.00    -0.200 OA
BRANCH   7  10
HETATM   10  N1  UNL     1      18.809  13.080  61.720  1.00  0.00    -0.296 N 
ATOM     11  H1  UNL     1      18.392  12.987  60.794  1.00  0.00     0.173 HD
BRANCH  10  12
HETATM   12  C3  UNL     1      20.086  13.614  61.784  1.00  0.00     0.128 C 
HETATM   13  C17 UNL     1      20.762  13.385  60.444  1.00  0.00     0.042 C 
HETATM   14  C18 UNL     1      21.965  12.527  60.724  1.00  0.00     0.003 C 
HETATM   15  C19 UNL     1      22.424  13.067  62.044  1.00  0.00     0.003 C 
HETATM   16  C20 UNL     1      21.078  13.209  62.773  1.00  0.00     0.042 C 
BRANCH  12  17
HETATM   17  C2  UNL     1      19.913  15.100  61.893  1.00  0.00     0.287 C 
HETATM   18  O2  UNL     1      19.704  15.677  62.985  1.00  0.00    -0.262 OA
BRANCH  17  19
HETATM   19  O1  UNL     1      19.983  15.882  60.734  1.00  0.00    -0.325 OA
HETATM   20  C1  UNL     1      20.900  16.982  60.740  1.00  0.00     0.213 C 
ENDBRANCH  17  19
ENDBRANCH  12  17
ENDBRANCH  10  12
ENDBRANCH   7  10
ENDBRANCH   1   7
BRANCH   5  21
HETATM   21  N2  UNL     1      15.249  17.049  62.408  1.00  0.00    -0.367 NA
HETATM   22  C10 UNL     1      15.064  18.328  62.025  1.00  0.00     0.296 C 
HETATM   23  O6  UNL     1      13.957  18.952  61.987  1.00  0.00    -0.257 OA
BRANCH  22  24
HETATM   24  C11 UNL     1      16.218  19.226  61.570  1.00  0.00     0.093 C 
HETATM   25  C12 UNL     1      17.400  18.374  61.236  1.00  0.00     0.015 C 
HETATM   26  C13 UNL     1      17.456  18.193  59.757  1.00  0.00     0.001 C 
HETATM   27  C14 UNL     1      16.559  19.225  59.149  1.00  0.00     0.001 C 
HETATM   28  C15 UNL     1      15.827  19.868  60.277  1.00  0.00     0.015 C 
ENDBRANCH  22  24
ENDBRANCH   5  21
BRANCH   4  29
HETATM   29  O5  UNL     1      13.186  16.003  63.601  1.00  0.00    -0.353 OA
HETATM   30  C8  UNL     1      12.030  15.458  64.212  1.00  0.00     0.210 C 
ENDBRANCH   4  29
TORSDOF 8
ENDMDL
