MODEL 1
REMARK VINA RESULT: -6.168075293      0.000      0.000
REMARK  10 active torsions:
REMARK  status: ('A' for Active; 'I' for Inactive)
REMARK    1  A    between atoms: C2_2  and  O2_4 
REMARK    2  A    between atoms: O2_4  and  C3_5 
REMARK    3  A    between atoms: C3_5  and  O3_7 
REMARK    4  A    between atoms: O3_7  and  C5_8 
REMARK    5  A    between atoms: C5_8  and  C6_9 
REMARK    6  A    between atoms: C5_8  and  C7_12 
REMARK    7  A    between atoms: N1_17  and  C12_18 
REMARK    8  A    between atoms: C12_18  and  C13_20 
REMARK    9  A    between atoms: C13_20  and  C15_22 
REMARK   10  A    between atoms: C15_22  and  O6_23 
ROOT
HETATM    1  C7  UNL     1      19.293  18.967  61.186  1.00  0.00     0.124 C 
HETATM    2  C8  UNL     1      18.402  19.062  62.414  1.00  0.00     0.028 C 
HETATM    3  C9  UNL     1      16.990  18.861  61.910  1.00  0.00     0.004 C 
HETATM    4  C10 UNL     1      16.822  17.531  61.213  1.00  0.00     0.020 C 
HETATM    5  C11 UNL     1      17.830  17.424  60.106  1.00  0.00     0.124 C 
HETATM    6  N1  UNL     1      19.179  17.659  60.708  1.00  0.00    -0.367 N 
ENDROOT
BRANCH   6   7
HETATM    7  C12 UNL     1      20.011  16.529  60.677  1.00  0.00     0.082 C 
HETATM    8  S1  UNL     1      20.623  15.835  59.298  1.00  0.00    -0.065 SA
BRANCH   7   9
HETATM    9  C13 UNL     1      20.475  15.760  61.869  1.00  0.00     0.077 C 
HETATM   10  C14 UNL     1      21.731  14.937  61.481  1.00  0.00     0.020 C 
BRANCH   9  11
HETATM   11  C15 UNL     1      19.503  14.729  62.358  1.00  0.00     0.067 C 
HETATM   12  C16 UNL     1      20.093  13.491  62.904  1.00  0.00     0.038 C 
HETATM   13  C17 UNL     1      19.139  12.679  63.716  1.00  0.00     0.003 C 
HETATM   14  C18 UNL     1      17.679  12.944  63.443  1.00  0.00     0.000 C 
HETATM   15  C19 UNL     1      17.340  14.414  63.507  1.00  0.00     0.003 C 
HETATM   16  C20 UNL     1      18.583  15.278  63.462  1.00  0.00     0.038 C 
BRANCH  11  17
HETATM   17  O6  UNL     1      18.610  14.380  61.310  1.00  0.00    -0.389 OA
ATOM     18  H6  UNL     1      17.722  14.345  61.646  1.00  0.00     0.210 HD
ENDBRANCH  11  17
ENDBRANCH   9  11
ENDBRANCH   7   9
ENDBRANCH   6   7
BRANCH   1  19
HETATM   19  C5  UNL     1      20.605  19.685  61.378  1.00  0.00     0.248 C 
BRANCH  19  20
HETATM   20  O3  UNL     1      21.657  19.278  60.696  1.00  0.00    -0.343 OA
BRANCH  20  21
HETATM   21  C3  UNL     1      22.897  19.667  60.680  1.00  0.00     0.266 C 
HETATM   22  C4  UNL     1      23.531  18.101  60.232  1.00  0.00     0.071 C 
BRANCH  21  23
HETATM   23  O2  UNL     1      22.844  20.196  59.125  1.00  0.00    -0.290 OA
BRANCH  23  24
HETATM   24  C2  UNL     1      23.147  21.447  58.867  1.00  0.00     0.257 C 
HETATM   25  C1  UNL     1      24.572  21.903  59.087  1.00  0.00     0.126 C 
HETATM   26  O1  UNL     1      22.332  22.273  58.454  1.00  0.00    -0.266 OA
ENDBRANCH  23  24
ENDBRANCH  21  23
ENDBRANCH  20  21
ENDBRANCH  19  20
BRANCH  19  27
HETATM   27  C6  UNL     1      20.316  21.177  61.295  1.00  0.00     0.205 C 
HETATM   28  O4  UNL     1      19.640  21.535  60.293  1.00  0.00    -0.646 OA
HETATM   29  O5  UNL     1      20.720  22.111  62.181  1.00  0.00    -0.646 OA
ENDBRANCH  19  27
ENDBRANCH   1  19
TORSDOF 10
ENDMDL
MODEL 2
REMARK VINA RESULT: -5.995330907      1.543      2.251
REMARK  10 active torsions:
REMARK  status: ('A' for Active; 'I' for Inactive)
REMARK    1  A    between atoms: C2_2  and  O2_4 
REMARK    2  A    between atoms: O2_4  and  C3_5 
REMARK    3  A    between atoms: C3_5  and  O3_7 
REMARK    4  A    between atoms: O3_7  and  C5_8 
REMARK    5  A    between atoms: C5_8  and  C6_9 
REMARK    6  A    between atoms: C5_8  and  C7_12 
REMARK    7  A    between atoms: N1_17  and  C12_18 
REMARK    8  A    between atoms: C12_18  and  C13_20 
REMARK    9  A    between atoms: C13_20  and  C15_22 
REMARK   10  A    between atoms: C15_22  and  O6_23 
ROOT
HETATM    1  C7  UNL     1      17.624  18.707  61.166  1.00  0.00     0.124 C 
HETATM    2  C8  UNL     1      17.094  18.896  62.579  1.00  0.00     0.028 C 
HETATM    3  C9  UNL     1      15.820  18.085  62.648  1.00  0.00     0.004 C 
HETATM    4  C10 UNL     1      16.062  16.624  62.345  1.00  0.00     0.020 C 
HETATM    5  C11 UNL     1      16.727  16.503  61.005  1.00  0.00     0.124 C 
HETATM    6  N1  UNL     1      17.956  17.355  61.041  1.00  0.00    -0.367 N 
ENDROOT
BRANCH   6   7
HETATM    7  C12 UNL     1      19.150  16.622  60.959  1.00  0.00     0.082 C 
HETATM    8  S1  UNL     1      19.937  16.238  59.548  1.00  0.00    -0.065 SA
BRANCH   7   9
HETATM    9  C13 UNL     1      19.904  16.060  62.118  1.00  0.00     0.077 C 
HETATM   10  C14 UNL     1      21.381  15.838  61.699  1.00  0.00     0.020 C 
BRANCH   9  11
HETATM   11  C15 UNL     1      19.444  14.703  62.557  1.00  0.00     0.067 C 
HETATM   12  C16 UNL     1      20.506  13.747  62.928  1.00  0.00     0.038 C 
HETATM   13  C17 UNL     1      20.012  12.575  63.711  1.00  0.00     0.003 C 
HETATM   14  C18 UNL     1      18.540  12.282  63.562  1.00  0.00     0.000 C 
HETATM   15  C19 UNL     1      17.683  13.501  63.804  1.00  0.00     0.003 C 
HETATM   16  C20 UNL     1      18.501  14.776  63.770  1.00  0.00     0.038 C 
BRANCH  11  17
HETATM   17  O6  UNL     1      18.645  14.116  61.538  1.00  0.00    -0.389 OA
ATOM     18  H6  UNL     1      18.335  14.793  60.948  1.00  0.00     0.210 HD
ENDBRANCH  11  17
ENDBRANCH   9  11
ENDBRANCH   7   9
ENDBRANCH   6   7
BRANCH   1  19
HETATM   19  C5  UNL     1      18.521  19.840  60.739  1.00  0.00     0.248 C 
BRANCH  19  20
HETATM   20  O3  UNL     1      19.822  19.635  60.685  1.00  0.00    -0.343 OA
BRANCH  20  21
HETATM   21  C3  UNL     1      20.803  20.014  61.449  1.00  0.00     0.266 C 
HETATM   22  C4  UNL     1      22.043  19.278  60.462  1.00  0.00     0.071 C 
BRANCH  21  23
HETATM   23  O2  UNL     1      20.966  21.481  60.729  1.00  0.00    -0.290 OA
BRANCH  23  24
HETATM   24  C2  UNL     1      20.838  22.566  61.457  1.00  0.00     0.257 C 
HETATM   25  C1  UNL     1      20.276  23.809  60.803  1.00  0.00     0.126 C 
HETATM   26  O1  UNL     1      21.150  22.629  62.646  1.00  0.00    -0.266 OA
ENDBRANCH  23  24
ENDBRANCH  21  23
ENDBRANCH  20  21
ENDBRANCH  19  20
BRANCH  19  27
HETATM   27  C6  UNL     1      17.908  20.449  59.485  1.00  0.00     0.205 C 
HETATM   28  O4  UNL     1      16.911  19.831  59.025  1.00  0.00    -0.646 OA
HETATM   29  O5  UNL     1      18.343  21.558  58.851  1.00  0.00    -0.646 OA
ENDBRANCH  19  27
ENDBRANCH   1  19
TORSDOF 10
ENDMDL
MODEL 3
REMARK VINA RESULT: -5.935122078      1.036      1.267
REMARK  10 active torsions:
REMARK  status: ('A' for Active; 'I' for Inactive)
REMARK    1  A    between atoms: C2_2  and  O2_4 
REMARK    2  A    between atoms: O2_4  and  C3_5 
REMARK    3  A    between atoms: C3_5  and  O3_7 
REMARK    4  A    between atoms: O3_7  and  C5_8 
REMARK    5  A    between atoms: C5_8  and  C6_9 
REMARK    6  A    between atoms: C5_8  and  C7_12 
REMARK    7  A    between atoms: N1_17  and  C12_18 
REMARK    8  A    between atoms: C12_18  and  C13_20 
REMARK    9  A    between atoms: C13_20  and  C15_22 
REMARK   10  A    between atoms: C15_22  and  O6_23 
ROOT
HETATM    1  C7  UNL     1      19.282  18.945  61.134  1.00  0.00     0.124 C 
HETATM    2  C8  UNL     1      18.419  19.072  62.380  1.00  0.00     0.028 C 
HETATM    3  C9  UNL     1      16.995  18.869  61.912  1.00  0.00     0.004 C 
HETATM    4  C10 UNL     1      16.804  17.525  61.249  1.00  0.00     0.020 C 
HETATM    5  C11 UNL     1      17.785  17.388  60.121  1.00  0.00     0.124 C 
HETATM    6  N1  UNL     1      19.149  17.627  60.688  1.00  0.00    -0.367 N 
ENDROOT
BRANCH   6   7
HETATM    7  C12 UNL     1      19.973  16.491  60.663  1.00  0.00     0.082 C 
HETATM    8  S1  UNL     1      20.540  15.756  59.286  1.00  0.00    -0.065 SA
BRANCH   7   9
HETATM    9  C13 UNL     1      20.469  15.753  61.861  1.00  0.00     0.077 C 
HETATM   10  C14 UNL     1      21.746  14.962  61.474  1.00  0.00     0.020 C 
BRANCH   9  11
HETATM   11  C15 UNL     1      19.532  14.700  62.372  1.00  0.00     0.067 C 
HETATM   12  C16 UNL     1      20.162  13.480  62.913  1.00  0.00     0.038 C 
HETATM   13  C17 UNL     1      19.242  12.649  63.746  1.00  0.00     0.003 C 
HETATM   14  C18 UNL     1      17.772  12.876  63.497  1.00  0.00     0.000 C 
HETATM   15  C19 UNL     1      17.397  14.338  63.560  1.00  0.00     0.003 C 
HETATM   16  C20 UNL     1      18.618  15.232  63.489  1.00  0.00     0.038 C 
BRANCH  11  17
HETATM   17  O6  UNL     1      18.629  14.324  61.341  1.00  0.00    -0.389 OA
ATOM     18  H6  UNL     1      18.795  13.424  61.086  1.00  0.00     0.210 HD
ENDBRANCH  11  17
ENDBRANCH   9  11
ENDBRANCH   7   9
ENDBRANCH   6   7
BRANCH   1  19
HETATM   19  C5  UNL     1      20.601  19.658  61.280  1.00  0.00     0.248 C 
BRANCH  19  20
HETATM   20  O3  UNL     1      21.619  19.269  60.538  1.00  0.00    -0.343 OA
BRANCH  20  21
HETATM   21  C3  UNL     1      22.818  18.862  60.835  1.00  0.00     0.266 C 
HETATM   22  C4  UNL     1      23.175  18.289  59.224  1.00  0.00     0.071 C 
BRANCH  21  23
HETATM   23  O2  UNL     1      23.517  20.325  60.573  1.00  0.00    -0.290 OA
BRANCH  23  24
HETATM   24  C2  UNL     1      24.030  20.977  61.590  1.00  0.00     0.257 C 
HETATM   25  C1  UNL     1      23.982  20.332  62.958  1.00  0.00     0.126 C 
HETATM   26  O1  UNL     1      24.550  22.089  61.494  1.00  0.00    -0.266 OA
ENDBRANCH  23  24
ENDBRANCH  21  23
ENDBRANCH  20  21
ENDBRANCH  19  20
BRANCH  19  27
HETATM   27  C6  UNL     1      20.310  21.152  61.249  1.00  0.00     0.205 C 
HETATM   28  O4  UNL     1      19.664  21.548  60.242  1.00  0.00    -0.646 OA
HETATM   29  O5  UNL     1      20.683  22.050  62.184  1.00  0.00    -0.646 OA
ENDBRANCH  19  27
ENDBRANCH   1  19
TORSDOF 10
ENDMDL
MODEL 4
REMARK VINA RESULT: -5.801088694      2.035      3.142
REMARK  10 active torsions:
REMARK  status: ('A' for Active; 'I' for Inactive)
REMARK    1  A    between atoms: C2_2  and  O2_4 
REMARK    2  A    between atoms: O2_4  and  C3_5 
REMARK    3  A    between atoms: C3_5  and  O3_7 
REMARK    4  A    between atoms: O3_7  and  C5_8 
REMARK    5  A    between atoms: C5_8  and  C6_9 
REMARK    6  A    between atoms: C5_8  and  C7_12 
REMARK    7  A    between atoms: N1_17  and  C12_18 
REMARK    8  A    between atoms: C12_18  and  C13_20 
REMARK    9  A    between atoms: C13_20  and  C15_22 
REMARK   10  A    between atoms: C15_22  and  O6_23 
ROOT
HETATM    1  C7  UNL     1      19.109  18.914  60.482  1.00  0.00     0.124 C 
HETATM    2  C8  UNL     1      18.202  20.126  60.633  1.00  0.00     0.028 C 
HETATM    3  C9  UNL     1      17.191  20.020  59.514  1.00  0.00     0.004 C 
HETATM    4  C10 UNL     1      16.401  18.733  59.584  1.00  0.00     0.020 C 
HETATM    5  C11 UNL     1      17.352  17.571  59.588  1.00  0.00     0.124 C 
HETATM    6  N1  UNL     1      18.314  17.788  60.713  1.00  0.00    -0.367 N 
ENDROOT
BRANCH   6   7
HETATM    7  C12 UNL     1      18.196  16.840  61.742  1.00  0.00     0.082 C 
HETATM    8  S1  UNL     1      18.119  17.198  63.361  1.00  0.00    -0.065 SA
BRANCH   7   9
HETATM    9  C13 UNL     1      18.129  15.362  61.555  1.00  0.00     0.077 C 
HETATM   10  C14 UNL     1      17.179  14.760  62.624  1.00  0.00     0.020 C 
BRANCH   9  11
HETATM   11  C15 UNL     1      19.427  14.649  61.782  1.00  0.00     0.067 C 
HETATM   12  C16 UNL     1      19.593  14.009  63.102  1.00  0.00     0.038 C 
HETATM   13  C17 UNL     1      20.699  13.007  63.148  1.00  0.00     0.003 C 
HETATM   14  C18 UNL     1      21.752  13.166  62.080  1.00  0.00     0.000 C 
HETATM   15  C19 UNL     1      21.156  13.259  60.695  1.00  0.00     0.003 C 
HETATM   16  C20 UNL     1      19.668  13.540  60.744  1.00  0.00     0.038 C 
BRANCH  11  17
HETATM   17  O6  UNL     1      20.508  15.549  61.578  1.00  0.00    -0.389 OA
ATOM     18  H6  UNL     1      20.283  16.402  61.930  1.00  0.00     0.210 HD
ENDBRANCH  11  17
ENDBRANCH   9  11
ENDBRANCH   7   9
ENDBRANCH   6   7
BRANCH   1  19
HETATM   19  C5  UNL     1      20.462  19.135  61.108  1.00  0.00     0.248 C 
BRANCH  19  20
HETATM   20  O3  UNL     1      21.407  18.237  60.912  1.00  0.00    -0.343 OA
BRANCH  20  21
HETATM   21  C3  UNL     1      22.484  18.240  60.184  1.00  0.00     0.266 C 
HETATM   22  C4  UNL     1      23.563  17.952  61.529  1.00  0.00     0.071 C 
BRANCH  21  23
HETATM   23  O2  UNL     1      22.383  16.646  59.801  1.00  0.00    -0.290 OA
BRANCH  23  24
HETATM   24  C2  UNL     1      21.929  16.303  58.618  1.00  0.00     0.257 C 
HETATM   25  C1  UNL     1      22.826  16.502  57.416  1.00  0.00     0.126 C 
HETATM   26  O1  UNL     1      20.809  15.827  58.430  1.00  0.00    -0.266 OA
ENDBRANCH  23  24
ENDBRANCH  21  23
ENDBRANCH  20  21
ENDBRANCH  19  20
BRANCH  19  27
HETATM   27  C6  UNL     1      20.864  20.573  60.811  1.00  0.00     0.205 C 
HETATM   28  O4  UNL     1      21.124  21.275  61.825  1.00  0.00    -0.646 OA
HETATM   29  O5  UNL     1      20.954  21.133  59.586  1.00  0.00    -0.646 OA
ENDBRANCH  19  27
ENDBRANCH   1  19
TORSDOF 10
ENDMDL
MODEL 5
REMARK VINA RESULT: -5.519403948      3.447      7.458
REMARK  10 active torsions:
REMARK  status: ('A' for Active; 'I' for Inactive)
REMARK    1  A    between atoms: C2_2  and  O2_4 
REMARK    2  A    between atoms: O2_4  and  C3_5 
REMARK    3  A    between atoms: C3_5  and  O3_7 
REMARK    4  A    between atoms: O3_7  and  C5_8 
REMARK    5  A    between atoms: C5_8  and  C6_9 
REMARK    6  A    between atoms: C5_8  and  C7_12 
REMARK    7  A    between atoms: N1_17  and  C12_18 
REMARK    8  A    between atoms: C12_18  and  C13_20 
REMARK    9  A    between atoms: C13_20  and  C15_22 
REMARK   10  A    between atoms: C15_22  and  O6_23 
ROOT
HETATM    1  C7  UNL     1      16.334  17.052  62.506  1.00  0.00     0.124 C 
HETATM    2  C8  UNL     1      16.451  18.119  61.429  1.00  0.00     0.028 C 
HETATM    3  C9  UNL     1      17.281  19.225  62.040  1.00  0.00     0.004 C 
HETATM    4  C10 UNL     1      18.643  18.736  62.475  1.00  0.00     0.020 C 
HETATM    5  C11 UNL     1      18.473  17.581  63.419  1.00  0.00     0.124 C 
HETATM    6  N1  UNL     1      17.624  16.563  62.726  1.00  0.00    -0.367 N 
ENDROOT
BRANCH   6   7
HETATM    7  C12 UNL     1      18.304  15.368  62.440  1.00  0.00     0.082 C 
HETATM    8  S1  UNL     1      18.721  14.218  63.563  1.00  0.00    -0.065 SA
BRANCH   7   9
HETATM    9  C13 UNL     1      18.770  14.938  61.090  1.00  0.00     0.077 C 
HETATM   10  C14 UNL     1      19.311  13.486  61.181  1.00  0.00     0.020 C 
BRANCH   9  11
HETATM   11  C15 UNL     1      19.929  15.723  60.555  1.00  0.00     0.067 C 
HETATM   12  C16 UNL     1      20.961  16.107  61.538  1.00  0.00     0.038 C 
HETATM   13  C17 UNL     1      22.251  16.533  60.919  1.00  0.00     0.003 C 
HETATM   14  C18 UNL     1      22.152  16.988  59.484  1.00  0.00     0.000 C 
HETATM   15  C19 UNL     1      21.431  15.988  58.612  1.00  0.00     0.003 C 
HETATM   16  C20 UNL     1      20.672  14.970  59.438  1.00  0.00     0.038 C 
BRANCH  11  17
HETATM   17  O6  UNL     1      19.454  16.900  59.916  1.00  0.00    -0.389 OA
ATOM     18  H6  UNL     1      20.058  17.615  60.076  1.00  0.00     0.210 HD
ENDBRANCH  11  17
ENDBRANCH   9  11
ENDBRANCH   7   9
ENDBRANCH   6   7
BRANCH   1  19
HETATM   19  C5  UNL     1      15.121  16.178  62.313  1.00  0.00     0.248 C 
BRANCH  19  20
HETATM   20  O3  UNL     1      15.124  14.964  62.826  1.00  0.00    -0.343 OA
BRANCH  20  21
HETATM   21  C3  UNL     1      14.168  14.169  63.206  1.00  0.00     0.266 C 
HETATM   22  C4  UNL     1      15.108  12.710  62.998  1.00  0.00     0.071 C 
BRANCH  21  23
HETATM   23  O2  UNL     1      14.530  14.289  64.803  1.00  0.00    -0.290 OA
BRANCH  23  24
HETATM   24  C2  UNL     1      13.578  14.603  65.650  1.00  0.00     0.257 C 
HETATM   25  C1  UNL     1      12.170  14.768  65.123  1.00  0.00     0.126 C 
HETATM   26  O1  UNL     1      13.767  14.773  66.855  1.00  0.00    -0.266 OA
ENDBRANCH  23  24
ENDBRANCH  21  23
ENDBRANCH  20  21
ENDBRANCH  19  20
BRANCH  19  27
HETATM   27  C6  UNL     1      13.901  17.023  62.654  1.00  0.00     0.205 C 
HETATM   28  O4  UNL     1      14.157  18.161  63.131  1.00  0.00    -0.646 OA
HETATM   29  O5  UNL     1      12.613  16.654  62.493  1.00  0.00    -0.646 OA
ENDBRANCH  19  27
ENDBRANCH   1  19
TORSDOF 10
ENDMDL
