MODEL 1
REMARK VINA RESULT: -8.264103156      0.000      0.000
REMARK  11 active torsions:
REMARK  status: ('A' for Active; 'I' for Inactive)
REMARK    1  A    between atoms: O1_2  and  C2_3 
REMARK    2  A    between atoms: C2_3  and  C3_5 
REMARK    3  A    between atoms: C9_11  and  C10_12 
REMARK    4  A    between atoms: C10_12  and  C11_13 
REMARK    5  A    between atoms: C10_12  and  C12_16 
REMARK    6  A    between atoms: C11_13  and  O3_14 
REMARK    7  A    between atoms: C12_16  and  C13_17 
REMARK    8  A    between atoms: C13_17  and  O4_18 
REMARK    9  A    between atoms: O4_18  and  C14_19 
REMARK   10  A    between atoms: C14_19  and  C15_21 
REMARK   11  A    between atoms: C23_30  and  O7_31 
ROOT
HETATM    1  C3  UNL     1      17.964  18.594  61.600  1.00  0.00     0.080 C 
HETATM    2  C4  UNL     1      17.647  18.528  63.076  1.00  0.00     0.023 C 
HETATM    3  C5  UNL     1      18.313  17.386  63.724  1.00  0.00     0.009 C 
HETATM    4  C6  UNL     1      18.625  16.191  62.897  1.00  0.00     0.020 C 
HETATM    5  C7  UNL     1      18.586  14.985  63.791  1.00  0.00     0.010 C 
HETATM    6  C8  UNL     1      17.430  14.058  63.508  1.00  0.00     0.033 C 
HETATM    7  C9  UNL     1      16.342  14.868  62.866  1.00  0.00     0.128 C 
HETATM    8  O6  UNL     1      16.786  15.204  61.625  1.00  0.00    -0.374 OA
HETATM    9  C18 UNL     1      17.904  16.054  61.594  1.00  0.00     0.066 C 
HETATM   10  C19 UNL     1      18.827  15.386  60.584  1.00  0.00     0.047 C 
HETATM   11  C20 UNL     1      17.436  17.330  61.023  1.00  0.00     0.041 C 
HETATM   12  C21 UNL     1      17.510  17.562  59.576  1.00  0.00     0.011 C 
HETATM   13  C22 UNL     1      16.968  18.997  59.463  1.00  0.00     0.033 C 
HETATM   14  C23 UNL     1      16.968  19.555  60.895  1.00  0.00     0.137 C 
ENDROOT
BRANCH   7  15
HETATM   15  C10 UNL     1      15.016  14.162  62.766  1.00  0.00     0.040 C 
BRANCH  15  16
HETATM   16  C11 UNL     1      14.920  12.876  63.497  1.00  0.00     0.171 C 
BRANCH  16  17
HETATM   17  O3  UNL     1      14.579  11.779  62.724  1.00  0.00    -0.400 OA
ATOM     18  H3  UNL     1      13.762  11.355  62.957  1.00  0.00     0.209 HD
ENDBRANCH  16  17
ENDBRANCH  15  16
BRANCH  15  19
HETATM   19  C12 UNL     1      13.909  15.148  63.087  1.00  0.00     0.036 C 
BRANCH  19  20
HETATM   20  C13 UNL     1      13.106  14.766  64.299  1.00  0.00     0.179 C 
BRANCH  20  21
HETATM   21  O4  UNL     1      11.983  15.569  64.532  1.00  0.00    -0.321 OA
BRANCH  21  22
HETATM   22  C14 UNL     1      10.685  15.264  64.215  1.00  0.00     0.262 C 
HETATM   23  O5  UNL     1      10.392  14.917  63.057  1.00  0.00    -0.265 OA
BRANCH  22  24
HETATM   24  C15 UNL     1       9.660  15.366  65.306  1.00  0.00     0.077 C 
HETATM   25  C16 UNL     1       8.282  15.264  64.701  1.00  0.00     0.020 C 
HETATM   26  C17 UNL     1       9.926  14.332  66.348  1.00  0.00     0.020 C 
ENDBRANCH  22  24
ENDBRANCH  21  22
ENDBRANCH  20  21
ENDBRANCH  19  20
ENDBRANCH  15  19
ENDBRANCH   7  15
BRANCH   1  27
HETATM   27  C2  UNL     1      19.315  18.999  61.313  1.00  0.00     0.270 C 
HETATM   28  O2  UNL     1      20.136  18.292  60.718  1.00  0.00    -0.264 OA
BRANCH  27  29
HETATM   29  O1  UNL     1      19.738  20.257  61.723  1.00  0.00    -0.326 OA
HETATM   30  C1  UNL     1      21.047  20.731  61.469  1.00  0.00     0.213 C 
ENDBRANCH  27  29
ENDBRANCH   1  27
BRANCH  14  31
HETATM   31  O7  UNL     1      15.730  19.358  61.474  1.00  0.00    -0.394 OA
ATOM     32  H7  UNL     1      15.078  19.476  60.792  1.00  0.00     0.210 HD
ENDBRANCH  14  31
TORSDOF 11
ENDMDL
MODEL 2
REMARK VINA RESULT: -7.576578651      2.922      4.369
REMARK  11 active torsions:
REMARK  status: ('A' for Active; 'I' for Inactive)
REMARK    1  A    between atoms: O1_2  and  C2_3 
REMARK    2  A    between atoms: C2_3  and  C3_5 
REMARK    3  A    between atoms: C9_11  and  C10_12 
REMARK    4  A    between atoms: C10_12  and  C11_13 
REMARK    5  A    between atoms: C10_12  and  C12_16 
REMARK    6  A    between atoms: C11_13  and  O3_14 
REMARK    7  A    between atoms: C12_16  and  C13_17 
REMARK    8  A    between atoms: C13_17  and  O4_18 
REMARK    9  A    between atoms: O4_18  and  C14_19 
REMARK   10  A    between atoms: C14_19  and  C15_21 
REMARK   11  A    between atoms: C23_30  and  O7_31 
ROOT
HETATM    1  C3  UNL     1      22.105  15.210  60.873  1.00  0.00     0.080 C 
HETATM    2  C4  UNL     1      22.197  15.290  62.380  1.00  0.00     0.023 C 
HETATM    3  C5  UNL     1      21.660  14.079  63.022  1.00  0.00     0.009 C 
HETATM    4  C6  UNL     1      20.612  13.307  62.303  1.00  0.00     0.020 C 
HETATM    5  C7  UNL     1      19.738  12.645  63.330  1.00  0.00     0.010 C 
HETATM    6  C8  UNL     1      18.342  13.211  63.393  1.00  0.00     0.033 C 
HETATM    7  C9  UNL     1      18.396  14.620  62.878  1.00  0.00     0.128 C 
HETATM    8  O6  UNL     1      18.643  14.539  61.543  1.00  0.00    -0.374 OA
HETATM    9  C18 UNL     1      19.893  14.002  61.191  1.00  0.00     0.066 C 
HETATM   10  C19 UNL     1      19.547  12.985  60.112  1.00  0.00     0.047 C 
HETATM   11  C20 UNL     1      20.653  15.101  60.569  1.00  0.00     0.041 C 
HETATM   12  C21 UNL     1      20.595  15.310  59.118  1.00  0.00     0.011 C 
HETATM   13  C22 UNL     1      21.550  16.501  58.937  1.00  0.00     0.033 C 
HETATM   14  C23 UNL     1      22.319  16.622  60.262  1.00  0.00     0.137 C 
ENDROOT
BRANCH   7  15
HETATM   15  C10 UNL     1      17.148  15.422  63.126  1.00  0.00     0.040 C 
BRANCH  15  16
HETATM   16  C11 UNL     1      16.726  16.309  62.015  1.00  0.00     0.171 C 
BRANCH  16  17
HETATM   17  O3  UNL     1      16.082  17.473  62.397  1.00  0.00    -0.400 OA
ATOM     18  H3  UNL     1      15.673  17.962  61.693  1.00  0.00     0.209 HD
ENDBRANCH  16  17
ENDBRANCH  15  16
BRANCH  15  19
HETATM   19  C12 UNL     1      16.060  14.495  63.632  1.00  0.00     0.036 C 
BRANCH  19  20
HETATM   20  C13 UNL     1      14.985  14.228  62.616  1.00  0.00     0.179 C 
BRANCH  20  21
HETATM   21  O4  UNL     1      13.679  14.442  63.076  1.00  0.00    -0.321 OA
BRANCH  21  22
HETATM   22  C14 UNL     1      13.188  15.600  63.617  1.00  0.00     0.262 C 
HETATM   23  O5  UNL     1      13.335  16.680  63.016  1.00  0.00    -0.265 OA
BRANCH  22  24
HETATM   24  C15 UNL     1      12.480  15.506  64.937  1.00  0.00     0.077 C 
HETATM   25  C16 UNL     1      11.010  15.270  64.694  1.00  0.00     0.020 C 
HETATM   26  C17 UNL     1      13.117  14.451  65.778  1.00  0.00     0.020 C 
ENDBRANCH  22  24
ENDBRANCH  21  22
ENDBRANCH  20  21
ENDBRANCH  19  20
ENDBRANCH  15  19
ENDBRANCH   7  15
BRANCH   1  27
HETATM   27  C2  UNL     1      23.029  14.279  60.282  1.00  0.00     0.270 C 
HETATM   28  O2  UNL     1      22.743  13.112  59.992  1.00  0.00    -0.264 OA
BRANCH  27  29
HETATM   29  O1  UNL     1      24.325  14.701  60.015  1.00  0.00    -0.326 OA
HETATM   30  C1  UNL     1      25.002  14.346  58.823  1.00  0.00     0.213 C 
ENDBRANCH  27  29
ENDBRANCH   1  27
BRANCH  14  31
HETATM   31  O7  UNL     1      21.686  17.527  61.089  1.00  0.00    -0.394 OA
ATOM     32  H7  UNL     1      21.104  18.047  60.547  1.00  0.00     0.210 HD
ENDBRANCH  14  31
TORSDOF 11
ENDMDL
MODEL 3
REMARK VINA RESULT: -7.443129309      0.926      1.186
REMARK  11 active torsions:
REMARK  status: ('A' for Active; 'I' for Inactive)
REMARK    1  A    between atoms: O1_2  and  C2_3 
REMARK    2  A    between atoms: C2_3  and  C3_5 
REMARK    3  A    between atoms: C9_11  and  C10_12 
REMARK    4  A    between atoms: C10_12  and  C11_13 
REMARK    5  A    between atoms: C10_12  and  C12_16 
REMARK    6  A    between atoms: C11_13  and  O3_14 
REMARK    7  A    between atoms: C12_16  and  C13_17 
REMARK    8  A    between atoms: C13_17  and  O4_18 
REMARK    9  A    between atoms: O4_18  and  C14_19 
REMARK   10  A    between atoms: C14_19  and  C15_21 
REMARK   11  A    between atoms: C23_30  and  O7_31 
ROOT
HETATM    1  C3  UNL     1      17.823  18.380  61.595  1.00  0.00     0.080 C 
HETATM    2  C4  UNL     1      17.538  18.211  63.069  1.00  0.00     0.023 C 
HETATM    3  C5  UNL     1      18.422  17.205  63.681  1.00  0.00     0.009 C 
HETATM    4  C6  UNL     1      18.955  16.118  62.818  1.00  0.00     0.020 C 
HETATM    5  C7  UNL     1      19.161  14.903  63.677  1.00  0.00     0.010 C 
HETATM    6  C8  UNL     1      18.207  13.775  63.370  1.00  0.00     0.033 C 
HETATM    7  C9  UNL     1      16.975  14.373  62.755  1.00  0.00     0.128 C 
HETATM    8  O6  UNL     1      17.333  14.826  61.524  1.00  0.00    -0.374 OA
HETATM    9  C18 UNL     1      18.262  15.879  61.514  1.00  0.00     0.066 C 
HETATM   10  C19 UNL     1      19.289  15.434  60.482  1.00  0.00     0.047 C 
HETATM   11  C20 UNL     1      17.548  17.054  60.982  1.00  0.00     0.041 C 
HETATM   12  C21 UNL     1      17.561  17.337  59.542  1.00  0.00     0.011 C 
HETATM   13  C22 UNL     1      16.747  18.639  59.474  1.00  0.00     0.033 C 
HETATM   14  C23 UNL     1      16.651  19.146  60.922  1.00  0.00     0.137 C 
ENDROOT
BRANCH   7  15
HETATM   15  C10 UNL     1      15.814  13.424  62.640  1.00  0.00     0.040 C 
BRANCH  15  16
HETATM   16  C11 UNL     1      15.808  12.299  63.605  1.00  0.00     0.171 C 
BRANCH  16  17
HETATM   17  O3  UNL     1      16.082  11.054  63.066  1.00  0.00    -0.400 OA
ATOM     18  H3  UNL     1      16.402  10.405  63.681  1.00  0.00     0.209 HD
ENDBRANCH  16  17
ENDBRANCH  15  16
BRANCH  15  19
HETATM   19  C12 UNL     1      14.526  14.225  62.606  1.00  0.00     0.036 C 
BRANCH  19  20
HETATM   20  C13 UNL     1      14.622  15.538  63.331  1.00  0.00     0.179 C 
BRANCH  20  21
HETATM   21  O4  UNL     1      13.390  16.129  63.636  1.00  0.00    -0.321 OA
BRANCH  21  22
HETATM   22  C14 UNL     1      12.224  15.473  63.930  1.00  0.00     0.262 C 
HETATM   23  O5  UNL     1      11.473  15.094  63.013  1.00  0.00    -0.265 OA
BRANCH  22  24
HETATM   24  C15 UNL     1      11.905  15.237  65.377  1.00  0.00     0.077 C 
HETATM   25  C16 UNL     1      10.446  14.876  65.510  1.00  0.00     0.020 C 
HETATM   26  C17 UNL     1      12.823  14.200  65.935  1.00  0.00     0.020 C 
ENDBRANCH  22  24
ENDBRANCH  21  22
ENDBRANCH  20  21
ENDBRANCH  19  20
ENDBRANCH  15  19
ENDBRANCH   7  15
BRANCH   1  27
HETATM   27  C2  UNL     1      19.065  19.050  61.315  1.00  0.00     0.270 C 
HETATM   28  O2  UNL     1      20.115  18.466  61.027  1.00  0.00    -0.264 OA
BRANCH  27  29
HETATM   29  O1  UNL     1      19.103  20.438  61.368  1.00  0.00    -0.326 OA
HETATM   30  C1  UNL     1      20.271  21.172  61.048  1.00  0.00     0.213 C 
ENDBRANCH  27  29
ENDBRANCH   1  27
BRANCH  14  31
HETATM   31  O7  UNL     1      15.481  18.694  61.499  1.00  0.00    -0.394 OA
ATOM     32  H7  UNL     1      15.060  18.118  60.870  1.00  0.00     0.210 HD
ENDBRANCH  14  31
TORSDOF 11
ENDMDL
MODEL 4
REMARK VINA RESULT: -7.369316638      1.627      3.167
REMARK  11 active torsions:
REMARK  status: ('A' for Active; 'I' for Inactive)
REMARK    1  A    between atoms: O1_2  and  C2_3 
REMARK    2  A    between atoms: C2_3  and  C3_5 
REMARK    3  A    between atoms: C9_11  and  C10_12 
REMARK    4  A    between atoms: C10_12  and  C11_13 
REMARK    5  A    between atoms: C10_12  and  C12_16 
REMARK    6  A    between atoms: C11_13  and  O3_14 
REMARK    7  A    between atoms: C12_16  and  C13_17 
REMARK    8  A    between atoms: C13_17  and  O4_18 
REMARK    9  A    between atoms: O4_18  and  C14_19 
REMARK   10  A    between atoms: C14_19  and  C15_21 
REMARK   11  A    between atoms: C23_30  and  O7_31 
ROOT
HETATM    1  C3  UNL     1      19.515  16.301  60.757  1.00  0.00     0.080 C 
HETATM    2  C4  UNL     1      18.391  16.364  59.749  1.00  0.00     0.023 C 
HETATM    3  C5  UNL     1      17.453  17.459  60.048  1.00  0.00     0.009 C 
HETATM    4  C6  UNL     1      17.315  17.900  61.460  1.00  0.00     0.020 C 
HETATM    5  C7  UNL     1      15.916  18.414  61.650  1.00  0.00     0.010 C 
HETATM    6  C8  UNL     1      15.064  17.538  62.535  1.00  0.00     0.033 C 
HETATM    7  C9  UNL     1      15.624  16.147  62.476  1.00  0.00     0.128 C 
HETATM    8  O6  UNL     1      16.819  16.179  63.123  1.00  0.00    -0.374 OA
HETATM    9  C18 UNL     1      17.812  16.969  62.520  1.00  0.00     0.066 C 
HETATM   10  C19 UNL     1      18.364  17.787  63.679  1.00  0.00     0.047 C 
HETATM   11  C20 UNL     1      18.860  16.038  62.066  1.00  0.00     0.041 C 
HETATM   12  C21 UNL     1      19.986  15.708  62.947  1.00  0.00     0.011 C 
HETATM   13  C22 UNL     1      20.814  14.768  62.055  1.00  0.00     0.033 C 
HETATM   14  C23 UNL     1      20.249  14.938  60.636  1.00  0.00     0.137 C 
ENDROOT
BRANCH   7  15
HETATM   15  C10 UNL     1      14.737  15.093  63.081  1.00  0.00     0.040 C 
BRANCH  15  16
HETATM   16  C11 UNL     1      15.420  14.099  63.943  1.00  0.00     0.171 C 
BRANCH  16  17
HETATM   17  O3  UNL     1      16.404  13.350  63.320  1.00  0.00    -0.400 OA
ATOM     18  H3  UNL     1      17.272  13.423  63.697  1.00  0.00     0.209 HD
ENDBRANCH  16  17
ENDBRANCH  15  16
BRANCH  15  19
HETATM   19  C12 UNL     1      13.543  15.767  63.730  1.00  0.00     0.036 C 
BRANCH  19  20
HETATM   20  C13 UNL     1      12.235  15.101  63.408  1.00  0.00     0.179 C 
BRANCH  20  21
HETATM   21  O4  UNL     1      11.122  15.655  64.052  1.00  0.00    -0.321 OA
BRANCH  21  22
HETATM   22  C14 UNL     1       9.896  15.064  64.208  1.00  0.00     0.262 C 
HETATM   23  O5  UNL     1       9.289  14.617  63.219  1.00  0.00    -0.265 OA
BRANCH  22  24
HETATM   24  C15 UNL     1       9.335  14.983  65.598  1.00  0.00     0.077 C 
HETATM   25  C16 UNL     1       7.937  14.420  65.535  1.00  0.00     0.020 C 
HETATM   26  C17 UNL     1      10.253  14.191  66.469  1.00  0.00     0.020 C 
ENDBRANCH  22  24
ENDBRANCH  21  22
ENDBRANCH  20  21
ENDBRANCH  19  20
ENDBRANCH  15  19
ENDBRANCH   7  15
BRANCH   1  27
HETATM   27  C2  UNL     1      20.464  17.376  60.638  1.00  0.00     0.270 C 
HETATM   28  O2  UNL     1      20.286  18.509  61.100  1.00  0.00    -0.264 OA
BRANCH  27  29
HETATM   29  O1  UNL     1      21.657  17.144  59.966  1.00  0.00    -0.326 OA
HETATM   30  C1  UNL     1      22.792  17.971  60.140  1.00  0.00     0.213 C 
ENDBRANCH  27  29
ENDBRANCH   1  27
BRANCH  14  31
HETATM   31  O7  UNL     1      19.289  13.975  60.396  1.00  0.00    -0.394 OA
ATOM     32  H7  UNL     1      19.462  13.251  60.987  1.00  0.00     0.210 HD
ENDBRANCH  14  31
TORSDOF 11
ENDMDL
MODEL 5
REMARK VINA RESULT: -7.163540207      3.091      4.959
REMARK  11 active torsions:
REMARK  status: ('A' for Active; 'I' for Inactive)
REMARK    1  A    between atoms: O1_2  and  C2_3 
REMARK    2  A    between atoms: C2_3  and  C3_5 
REMARK    3  A    between atoms: C9_11  and  C10_12 
REMARK    4  A    between atoms: C10_12  and  C11_13 
REMARK    5  A    between atoms: C10_12  and  C12_16 
REMARK    6  A    between atoms: C11_13  and  O3_14 
REMARK    7  A    between atoms: C12_16  and  C13_17 
REMARK    8  A    between atoms: C13_17  and  O4_18 
REMARK    9  A    between atoms: O4_18  and  C14_19 
REMARK   10  A    between atoms: C14_19  and  C15_21 
REMARK   11  A    between atoms: C23_30  and  O7_31 
ROOT
HETATM    1  C3  UNL     1      22.443  15.070  60.808  1.00  0.00     0.080 C 
HETATM    2  C4  UNL     1      22.609  15.156  62.308  1.00  0.00     0.023 C 
HETATM    3  C5  UNL     1      21.866  14.089  62.999  1.00  0.00     0.009 C 
HETATM    4  C6  UNL     1      20.657  13.532  62.337  1.00  0.00     0.020 C 
HETATM    5  C7  UNL     1      19.709  13.078  63.411  1.00  0.00     0.010 C 
HETATM    6  C8  UNL     1      18.458  13.915  63.509  1.00  0.00     0.033 C 
HETATM    7  C9  UNL     1      18.774  15.275  62.958  1.00  0.00     0.128 C 
HETATM    8  O6  UNL     1      18.947  15.123  61.617  1.00  0.00    -0.374 OA
HETATM    9  C18 UNL     1      20.047  14.338  61.235  1.00  0.00     0.066 C 
HETATM   10  C19 UNL     1      19.463  13.393  60.195  1.00  0.00     0.047 C 
HETATM   11  C20 UNL     1      20.988  15.250  60.559  1.00  0.00     0.041 C 
HETATM   12  C21 UNL     1      20.915  15.441  59.106  1.00  0.00     0.011 C 
HETATM   13  C22 UNL     1      22.082  16.411  58.861  1.00  0.00     0.033 C 
HETATM   14  C23 UNL     1      22.912  16.398  60.154  1.00  0.00     0.137 C 
ENDROOT
BRANCH   7  15
HETATM   15  C10 UNL     1      17.723  16.316  63.228  1.00  0.00     0.040 C 
BRANCH  15  16
HETATM   16  C11 UNL     1      18.198  17.720  63.227  1.00  0.00     0.171 C 
BRANCH  16  17
HETATM   17  O3  UNL     1      19.353  17.955  62.502  1.00  0.00    -0.400 OA
ATOM     18  H3  UNL     1      19.433  18.827  62.133  1.00  0.00     0.209 HD
ENDBRANCH  16  17
ENDBRANCH  15  16
BRANCH  15  19
HETATM   19  C12 UNL     1      16.531  16.059  62.326  1.00  0.00     0.036 C 
BRANCH  19  20
HETATM   20  C13 UNL     1      15.296  16.806  62.743  1.00  0.00     0.179 C 
BRANCH  20  21
HETATM   21  O4  UNL     1      14.115  16.056  62.698  1.00  0.00    -0.321 OA
BRANCH  21  22
HETATM   22  C14 UNL     1      13.409  15.585  63.774  1.00  0.00     0.262 C 
HETATM   23  O5  UNL     1      12.223  15.922  63.938  1.00  0.00    -0.265 OA
BRANCH  22  24
HETATM   24  C15 UNL     1      14.120  14.662  64.722  1.00  0.00     0.077 C 
HETATM   25  C16 UNL     1      13.274  14.475  65.957  1.00  0.00     0.020 C 
HETATM   26  C17 UNL     1      14.448  13.381  64.030  1.00  0.00     0.020 C 
ENDBRANCH  22  24
ENDBRANCH  21  22
ENDBRANCH  20  21
ENDBRANCH  19  20
ENDBRANCH  15  19
ENDBRANCH   7  15
BRANCH   1  27
HETATM   27  C2  UNL     1      23.137  13.962  60.209  1.00  0.00     0.270 C 
HETATM   28  O2  UNL     1      22.624  12.856  60.001  1.00  0.00    -0.264 OA
BRANCH  27  29
HETATM   29  O1  UNL     1      24.464  14.127  59.834  1.00  0.00    -0.326 OA
HETATM   30  C1  UNL     1      25.056  13.363  58.800  1.00  0.00     0.213 C 
ENDBRANCH  27  29
ENDBRANCH   1  27
BRANCH  14  31
HETATM   31  O7  UNL     1      22.507  17.427  60.981  1.00  0.00    -0.394 OA
ATOM     32  H7  UNL     1      23.240  18.026  61.066  1.00  0.00     0.210 HD
ENDBRANCH  14  31
TORSDOF 11
ENDMDL
