MODEL 1
REMARK VINA RESULT: -8.796619677      0.000      0.000
REMARK  11 active torsions:
REMARK  status: ('A' for Active; 'I' for Inactive)
REMARK    1  A    between atoms: N1_3  and  C3_5 
REMARK    2  A    between atoms: C3_5  and  C4_6 
REMARK    3  A    between atoms: C3_5  and  N3_18 
REMARK    4  A    between atoms: C4_6  and  C5_7 
REMARK    5  A    between atoms: C5_7  and  C6_8 
REMARK    6  A    between atoms: C9_11  and  N2_12 
REMARK    7  A    between atoms: N2_12  and  O1_14 
REMARK    8  A    between atoms: N3_18  and  C13_20 
REMARK    9  A    between atoms: C16_23  and  S1_24 
REMARK   10  A    between atoms: S1_24  and  N4_27 
REMARK   11  A    between atoms: N4_27  and  C17_29 
ROOT
HETATM    1  N3  UNL     1      16.441  -1.810  56.310  1.00  0.00    -0.343 N 
ATOM      2  H3  UNL     1      15.425  -1.901  56.266  1.00  0.00     0.167 HD
ENDROOT
BRANCH   1   3
HETATM    3  C3  UNL     1      17.083  -1.194  55.321  1.00  0.00     0.105 C 
BRANCH   3   4
HETATM    4  N1  UNL     1      16.797  -1.774  54.074  1.00  0.00    -0.356 N 
HETATM    5  C2  UNL     1      16.140  -1.259  53.116  1.00  0.00     0.058 C 
HETATM    6  C1  UNL     1      15.520   0.076  53.093  1.00  0.00     0.054 C 
ATOM      7  H1  UNL     1      17.159  -2.716  53.919  1.00  0.00     0.166 HD
ENDBRANCH   3   4
BRANCH   3   8
HETATM    8  C4  UNL     1      17.926  -0.103  55.663  1.00  0.00     0.049 C 
BRANCH   8   9
HETATM    9  C5  UNL     1      19.132   0.271  55.479  1.00  0.00     0.015 C 
BRANCH   9  10
HETATM   10  C6  UNL     1      19.961   0.693  54.388  1.00  0.00    -0.036 A 
HETATM   11  C7  UNL     1      20.644  -0.328  53.699  1.00  0.00     0.013 A 
HETATM   12  C8  UNL     1      21.513  -0.060  52.675  1.00  0.00     0.032 A 
HETATM   13  C9  UNL     1      21.757   1.234  52.269  1.00  0.00     0.056 A 
HETATM   14  C11 UNL     1      21.092   2.233  52.940  1.00  0.00     0.032 A 
HETATM   15  C12 UNL     1      20.201   1.981  53.990  1.00  0.00     0.013 A 
BRANCH  13  16
HETATM   16  N2  UNL     1      22.636   1.535  51.217  1.00  0.00    -0.266 N 
HETATM   17  C10 UNL     1      23.977   1.014  51.261  1.00  0.00     0.185 C 
BRANCH  16  18
HETATM   18  O1  UNL     1      22.300   2.241  50.251  1.00  0.00    -0.288 OA
ATOM     19  H1  UNL     1      21.987   3.131  50.357  1.00  0.00     0.244 HD
ENDBRANCH  16  18
ENDBRANCH  13  16
ENDBRANCH   9  10
ENDBRANCH   8   9
ENDBRANCH   3   8
ENDBRANCH   1   3
BRANCH   1  20
HETATM   20  C13 UNL     1      17.130  -2.337  57.410  1.00  0.00     0.033 A 
HETATM   21  C14 UNL     1      17.045  -1.792  58.693  1.00  0.00     0.031 A 
HETATM   22  C15 UNL     1      17.760  -2.379  59.708  1.00  0.00     0.027 A 
HETATM   23  C16 UNL     1      18.557  -3.477  59.524  1.00  0.00     0.080 A 
HETATM   24  C20 UNL     1      18.643  -4.016  58.261  1.00  0.00     0.027 A 
HETATM   25  C21 UNL     1      17.939  -3.456  57.218  1.00  0.00     0.031 A 
BRANCH  23  26
HETATM   26  S1  UNL     1      19.414  -4.161  60.873  1.00  0.00     0.264 S 
HETATM   27  O2  UNL     1      20.337  -5.250  60.336  1.00  0.00    -0.200 OA
HETATM   28  O3  UNL     1      20.302  -3.114  61.537  1.00  0.00    -0.200 OA
BRANCH  26  29
HETATM   29  N4  UNL     1      18.405  -4.879  62.020  1.00  0.00    -0.260 N 
ATOM     30  H4  UNL     1      17.529  -5.293  61.702  1.00  0.00     0.181 HD
BRANCH  29  31
HETATM   31  C17 UNL     1      18.686  -4.932  63.282  1.00  0.00     0.159 A 
HETATM   32  N5  UNL     1      19.799  -5.270  63.921  1.00  0.00    -0.344 N 
HETATM   33  C18 UNL     1      19.833  -5.238  65.219  1.00  0.00     0.116 A 
ATOM     34  H5  UNL     1      20.624  -5.555  63.394  1.00  0.00     0.167 HD
HETATM   35  C19 UNL     1      18.699  -4.850  65.882  1.00  0.00     0.070 A 
HETATM   36 BR1  UNL     1      18.419  -4.696  67.783  1.00  0.00    -0.042 Br
HETATM   37  S2  UNL     1      17.622  -4.545  64.598  1.00  0.00    -0.044 SA
ENDBRANCH  29  31
ENDBRANCH  26  29
ENDBRANCH  23  26
ENDBRANCH   1  20
TORSDOF 11
ENDMDL
MODEL 2
REMARK VINA RESULT: -8.722407380      0.917      1.291
REMARK  11 active torsions:
REMARK  status: ('A' for Active; 'I' for Inactive)
REMARK    1  A    between atoms: N1_3  and  C3_5 
REMARK    2  A    between atoms: C3_5  and  C4_6 
REMARK    3  A    between atoms: C3_5  and  N3_18 
REMARK    4  A    between atoms: C4_6  and  C5_7 
REMARK    5  A    between atoms: C5_7  and  C6_8 
REMARK    6  A    between atoms: C9_11  and  N2_12 
REMARK    7  A    between atoms: N2_12  and  O1_14 
REMARK    8  A    between atoms: N3_18  and  C13_20 
REMARK    9  A    between atoms: C16_23  and  S1_24 
REMARK   10  A    between atoms: S1_24  and  N4_27 
REMARK   11  A    between atoms: N4_27  and  C17_29 
ROOT
HETATM    1  N3  UNL     1      17.019  -2.069  57.168  1.00  0.00    -0.343 N 
ATOM      2  H3  UNL     1      16.001  -2.022  57.220  1.00  0.00     0.167 HD
ENDROOT
BRANCH   1   3
HETATM    3  C3  UNL     1      17.637  -1.640  56.072  1.00  0.00     0.105 C 
BRANCH   3   4
HETATM    4  N1  UNL     1      17.288  -2.404  54.945  1.00  0.00    -0.356 N 
HETATM    5  C2  UNL     1      16.556  -2.049  53.969  1.00  0.00     0.058 C 
HETATM    6  C1  UNL     1      15.899  -0.744  53.793  1.00  0.00     0.054 C 
ATOM      7  H1  UNL     1      17.665  -3.351  54.907  1.00  0.00     0.166 HD
ENDBRANCH   3   4
BRANCH   3   8
HETATM    8  C4  UNL     1      18.519  -0.534  56.203  1.00  0.00     0.049 C 
BRANCH   8   9
HETATM    9  C5  UNL     1      18.971   0.422  55.489  1.00  0.00     0.015 C 
BRANCH   9  10
HETATM   10  C6  UNL     1      19.939   0.607  54.447  1.00  0.00    -0.036 A 
HETATM   11  C7  UNL     1      20.138   1.933  54.016  1.00  0.00     0.013 A 
HETATM   12  C8  UNL     1      20.989   2.245  52.990  1.00  0.00     0.032 A 
HETATM   13  C9  UNL     1      21.696   1.264  52.328  1.00  0.00     0.056 A 
HETATM   14  C11 UNL     1      21.503  -0.031  52.747  1.00  0.00     0.032 A 
HETATM   15  C12 UNL     1      20.637  -0.372  53.793  1.00  0.00     0.013 A 
BRANCH  13  16
HETATM   16  N2  UNL     1      22.581   1.557  51.279  1.00  0.00    -0.266 N 
HETATM   17  C10 UNL     1      23.900   0.984  51.301  1.00  0.00     0.185 C 
BRANCH  16  18
HETATM   18  O1  UNL     1      22.267   2.302  50.334  1.00  0.00    -0.288 OA
ATOM     19  H1  UNL     1      22.838   2.443  49.587  1.00  0.00     0.244 HD
ENDBRANCH  16  18
ENDBRANCH  13  16
ENDBRANCH   9  10
ENDBRANCH   8   9
ENDBRANCH   3   8
ENDBRANCH   1   3
BRANCH   1  20
HETATM   20  C13 UNL     1      17.738  -2.584  58.255  1.00  0.00     0.033 A 
HETATM   21  C14 UNL     1      17.756  -1.977  59.513  1.00  0.00     0.031 A 
HETATM   22  C15 UNL     1      18.492  -2.557  60.516  1.00  0.00     0.027 A 
HETATM   23  C16 UNL     1      19.214  -3.708  60.345  1.00  0.00     0.080 A 
HETATM   24  C20 UNL     1      19.199  -4.308  59.108  1.00  0.00     0.027 A 
HETATM   25  C21 UNL     1      18.471  -3.756  58.077  1.00  0.00     0.031 A 
BRANCH  23  26
HETATM   26  S1  UNL     1      20.106  -4.378  61.678  1.00  0.00     0.264 S 
HETATM   27  O2  UNL     1      21.058  -5.431  61.122  1.00  0.00    -0.200 OA
HETATM   28  O3  UNL     1      20.966  -3.309  62.346  1.00  0.00    -0.200 OA
BRANCH  26  29
HETATM   29  N4  UNL     1      19.130  -5.140  62.826  1.00  0.00    -0.260 N 
ATOM     30  H4  UNL     1      18.686  -6.022  62.575  1.00  0.00     0.181 HD
BRANCH  29  31
HETATM   31  C17 UNL     1      18.918  -4.661  64.010  1.00  0.00     0.159 A 
HETATM   32  N5  UNL     1      19.716  -4.021  64.855  1.00  0.00    -0.344 N 
HETATM   33  C18 UNL     1      19.258  -3.630  66.006  1.00  0.00     0.116 A 
ATOM     34  H5  UNL     1      20.686  -3.836  64.602  1.00  0.00     0.167 HD
HETATM   35  C19 UNL     1      17.949  -3.903  66.302  1.00  0.00     0.070 A 
HETATM   36 BR1  UNL     1      16.969  -3.465  67.904  1.00  0.00    -0.042 Br
HETATM   37  S2  UNL     1      17.427  -4.716  64.898  1.00  0.00    -0.044 SA
ENDBRANCH  29  31
ENDBRANCH  26  29
ENDBRANCH  23  26
ENDBRANCH   1  20
TORSDOF 11
ENDMDL
MODEL 3
REMARK VINA RESULT: -8.672575037      2.838      3.450
REMARK  11 active torsions:
REMARK  status: ('A' for Active; 'I' for Inactive)
REMARK    1  A    between atoms: N1_3  and  C3_5 
REMARK    2  A    between atoms: C3_5  and  C4_6 
REMARK    3  A    between atoms: C3_5  and  N3_18 
REMARK    4  A    between atoms: C4_6  and  C5_7 
REMARK    5  A    between atoms: C5_7  and  C6_8 
REMARK    6  A    between atoms: C9_11  and  N2_12 
REMARK    7  A    between atoms: N2_12  and  O1_14 
REMARK    8  A    between atoms: N3_18  and  C13_20 
REMARK    9  A    between atoms: C16_23  and  S1_24 
REMARK   10  A    between atoms: S1_24  and  N4_27 
REMARK   11  A    between atoms: N4_27  and  C17_29 
ROOT
HETATM    1  N3  UNL     1      15.167  -2.875  56.784  1.00  0.00    -0.343 N 
ATOM      2  H3  UNL     1      14.365  -3.503  56.730  1.00  0.00     0.167 HD
ENDROOT
BRANCH   1   3
HETATM    3  C3  UNL     1      15.889  -2.646  55.690  1.00  0.00     0.105 C 
BRANCH   3   4
HETATM    4  N1  UNL     1      16.676  -3.756  55.344  1.00  0.00    -0.356 N 
HETATM    5  C2  UNL     1      16.624  -4.434  54.270  1.00  0.00     0.058 C 
HETATM    6  C1  UNL     1      15.717  -4.209  53.132  1.00  0.00     0.054 C 
ATOM      7  H1  UNL     1      17.368  -4.053  56.032  1.00  0.00     0.166 HD
ENDBRANCH   3   4
BRANCH   3   8
HETATM    8  C4  UNL     1      15.765  -1.370  55.076  1.00  0.00     0.049 C 
BRANCH   8   9
HETATM    9  C5  UNL     1      16.505  -0.373  54.782  1.00  0.00     0.015 C 
BRANCH   9  10
HETATM   10  C6  UNL     1      17.902  -0.099  54.605  1.00  0.00    -0.036 A 
HETATM   11  C7  UNL     1      18.636  -1.068  53.894  1.00  0.00     0.013 A 
HETATM   12  C8  UNL     1      19.988  -0.961  53.704  1.00  0.00     0.032 A 
HETATM   13  C9  UNL     1      20.695   0.111  54.205  1.00  0.00     0.056 A 
HETATM   14  C11 UNL     1      19.980   1.058  54.899  1.00  0.00     0.032 A 
HETATM   15  C12 UNL     1      18.599   0.967  55.106  1.00  0.00     0.013 A 
BRANCH  13  16
HETATM   16  N2  UNL     1      22.079   0.248  54.017  1.00  0.00    -0.266 N 
HETATM   17  C10 UNL     1      22.556   1.049  52.920  1.00  0.00     0.185 C 
BRANCH  16  18
HETATM   18  O1  UNL     1      22.909  -0.303  54.761  1.00  0.00    -0.288 OA
ATOM     19  H1  UNL     1      22.931  -0.150  55.698  1.00  0.00     0.244 HD
ENDBRANCH  16  18
ENDBRANCH  13  16
ENDBRANCH   9  10
ENDBRANCH   8   9
ENDBRANCH   3   8
ENDBRANCH   1   3
BRANCH   1  20
HETATM   20  C13 UNL     1      15.487  -2.273  58.008  1.00  0.00     0.033 A 
HETATM   21  C14 UNL     1      16.731  -1.692  58.269  1.00  0.00     0.031 A 
HETATM   22  C15 UNL     1      16.950  -1.127  59.500  1.00  0.00     0.027 A 
HETATM   23  C16 UNL     1      16.007  -1.104  60.492  1.00  0.00     0.080 A 
HETATM   24  C20 UNL     1      14.781  -1.674  60.239  1.00  0.00     0.027 A 
HETATM   25  C21 UNL     1      14.523  -2.250  59.014  1.00  0.00     0.031 A 
BRANCH  23  26
HETATM   26  S1  UNL     1      16.370  -0.352  62.016  1.00  0.00     0.264 S 
HETATM   27  O2  UNL     1      17.542   0.600  61.800  1.00  0.00    -0.200 OA
HETATM   28  O3  UNL     1      15.195   0.493  62.497  1.00  0.00    -0.200 OA
BRANCH  26  29
HETATM   29  N4  UNL     1      16.828  -1.447  63.217  1.00  0.00    -0.260 N 
ATOM     30  H4  UNL     1      16.209  -1.575  64.016  1.00  0.00     0.181 HD
BRANCH  29  31
HETATM   31  C17 UNL     1      17.925  -2.133  63.173  1.00  0.00     0.159 A 
HETATM   32  N5  UNL     1      19.032  -1.975  62.459  1.00  0.00    -0.344 N 
HETATM   33  C18 UNL     1      20.017  -2.811  62.600  1.00  0.00     0.116 A 
ATOM     34  H5  UNL     1      19.110  -1.200  61.801  1.00  0.00     0.167 HD
HETATM   35  C19 UNL     1      19.864  -3.836  63.495  1.00  0.00     0.070 A 
HETATM   36 BR1  UNL     1      21.118  -5.232  63.939  1.00  0.00    -0.042 Br
HETATM   37  S2  UNL     1      18.297  -3.551  64.102  1.00  0.00    -0.044 SA
ENDBRANCH  29  31
ENDBRANCH  26  29
ENDBRANCH  23  26
ENDBRANCH   1  20
TORSDOF 11
ENDMDL
MODEL 4
REMARK VINA RESULT: -8.555182933      5.959      7.924
REMARK  11 active torsions:
REMARK  status: ('A' for Active; 'I' for Inactive)
REMARK    1  A    between atoms: N1_3  and  C3_5 
REMARK    2  A    between atoms: C3_5  and  C4_6 
REMARK    3  A    between atoms: C3_5  and  N3_18 
REMARK    4  A    between atoms: C4_6  and  C5_7 
REMARK    5  A    between atoms: C5_7  and  C6_8 
REMARK    6  A    between atoms: C9_11  and  N2_12 
REMARK    7  A    between atoms: N2_12  and  O1_14 
REMARK    8  A    between atoms: N3_18  and  C13_20 
REMARK    9  A    between atoms: C16_23  and  S1_24 
REMARK   10  A    between atoms: S1_24  and  N4_27 
REMARK   11  A    between atoms: N4_27  and  C17_29 
ROOT
HETATM    1  N3  UNL     1      17.481  -1.204  53.942  1.00  0.00    -0.343 N 
ATOM      2  H3  UNL     1      17.225  -0.434  53.324  1.00  0.00     0.167 HD
ENDROOT
BRANCH   1   3
HETATM    3  C3  UNL     1      18.713  -1.261  54.438  1.00  0.00     0.105 C 
BRANCH   3   4
HETATM    4  N1  UNL     1      18.915  -0.298  55.442  1.00  0.00    -0.356 N 
HETATM    5  C2  UNL     1      19.432   0.855  55.312  1.00  0.00     0.058 C 
HETATM    6  C1  UNL     1      19.945   1.453  54.068  1.00  0.00     0.054 C 
ATOM      7  H1  UNL     1      18.612  -0.554  56.382  1.00  0.00     0.166 HD
ENDBRANCH   3   4
BRANCH   3   8
HETATM    8  C4  UNL     1      19.597  -2.233  53.896  1.00  0.00     0.049 C 
BRANCH   8   9
HETATM    9  C5  UNL     1      19.808  -3.488  53.979  1.00  0.00     0.015 C 
BRANCH   9  10
HETATM   10  C6  UNL     1      19.098  -4.661  54.399  1.00  0.00    -0.036 A 
HETATM   11  C7  UNL     1      18.395  -5.352  53.393  1.00  0.00     0.013 A 
HETATM   12  C8  UNL     1      17.628  -6.453  53.665  1.00  0.00     0.032 A 
HETATM   13  C9  UNL     1      17.510  -6.938  54.950  1.00  0.00     0.056 A 
HETATM   14  C11 UNL     1      18.195  -6.265  55.934  1.00  0.00     0.032 A 
HETATM   15  C12 UNL     1      18.983  -5.137  55.677  1.00  0.00     0.013 A 
BRANCH  13  16
HETATM   16  N2  UNL     1      16.737  -8.069  55.254  1.00  0.00    -0.266 N 
HETATM   17  C10 UNL     1      16.700  -9.160  54.316  1.00  0.00     0.185 C 
BRANCH  16  18
HETATM   18  O1  UNL     1      16.077  -8.160  56.304  1.00  0.00    -0.288 OA
ATOM     19  H1  UNL     1      16.060  -8.954  56.826  1.00  0.00     0.244 HD
ENDBRANCH  16  18
ENDBRANCH  13  16
ENDBRANCH   9  10
ENDBRANCH   8   9
ENDBRANCH   3   8
ENDBRANCH   1   3
BRANCH   1  20
HETATM   20  C13 UNL     1      16.525  -2.182  54.250  1.00  0.00     0.033 A 
HETATM   21  C14 UNL     1      16.283  -2.626  55.553  1.00  0.00     0.031 A 
HETATM   22  C15 UNL     1      15.327  -3.590  55.754  1.00  0.00     0.027 A 
HETATM   23  C16 UNL     1      14.594  -4.141  54.738  1.00  0.00     0.080 A 
HETATM   24  C20 UNL     1      14.830  -3.707  53.455  1.00  0.00     0.027 A 
HETATM   25  C21 UNL     1      15.781  -2.740  53.213  1.00  0.00     0.031 A 
BRANCH  23  26
HETATM   26  S1  UNL     1      13.393  -5.347  55.091  1.00  0.00     0.264 S 
HETATM   27  O2  UNL     1      12.201  -5.103  54.172  1.00  0.00    -0.200 OA
HETATM   28  O3  UNL     1      13.919  -6.744  54.776  1.00  0.00    -0.200 OA
BRANCH  26  29
HETATM   29  N4  UNL     1      12.823  -5.286  56.679  1.00  0.00    -0.260 N 
ATOM     30  H4  UNL     1      12.640  -4.372  57.093  1.00  0.00     0.181 HD
BRANCH  29  31
HETATM   31  C17 UNL     1      12.605  -6.340  57.398  1.00  0.00     0.159 A 
HETATM   32  N5  UNL     1      13.351  -7.411  57.636  1.00  0.00    -0.344 N 
HETATM   33  C18 UNL     1      12.903  -8.351  58.412  1.00  0.00     0.116 A 
ATOM     34  H5  UNL     1      14.274  -7.496  57.210  1.00  0.00     0.167 HD
HETATM   35  C19 UNL     1      11.658  -8.192  58.960  1.00  0.00     0.070 A 
HETATM   36 BR1  UNL     1      10.710  -9.385  60.141  1.00  0.00    -0.042 Br
HETATM   37  S2  UNL     1      11.180  -6.682  58.330  1.00  0.00    -0.044 SA
ENDBRANCH  29  31
ENDBRANCH  26  29
ENDBRANCH  23  26
ENDBRANCH   1  20
TORSDOF 11
ENDMDL
MODEL 5
REMARK VINA RESULT: -8.552909205      3.544      6.180
REMARK  11 active torsions:
REMARK  status: ('A' for Active; 'I' for Inactive)
REMARK    1  A    between atoms: N1_3  and  C3_5 
REMARK    2  A    between atoms: C3_5  and  C4_6 
REMARK    3  A    between atoms: C3_5  and  N3_18 
REMARK    4  A    between atoms: C4_6  and  C5_7 
REMARK    5  A    between atoms: C5_7  and  C6_8 
REMARK    6  A    between atoms: C9_11  and  N2_12 
REMARK    7  A    between atoms: N2_12  and  O1_14 
REMARK    8  A    between atoms: N3_18  and  C13_20 
REMARK    9  A    between atoms: C16_23  and  S1_24 
REMARK   10  A    between atoms: S1_24  and  N4_27 
REMARK   11  A    between atoms: N4_27  and  C17_29 
ROOT
HETATM    1  N3  UNL     1      19.324   0.166  53.968  1.00  0.00    -0.343 N 
ATOM      2  H3  UNL     1      19.053   1.073  53.588  1.00  0.00     0.167 HD
ENDROOT
BRANCH   1   3
HETATM    3  C3  UNL     1      20.477  -0.380  53.591  1.00  0.00     0.105 C 
BRANCH   3   4
HETATM    4  N1  UNL     1      21.575   0.413  53.963  1.00  0.00    -0.356 N 
HETATM    5  C2  UNL     1      22.192   1.262  53.246  1.00  0.00     0.058 C 
HETATM    6  C1  UNL     1      21.895   1.611  51.847  1.00  0.00     0.054 C 
ATOM      7  H1  UNL     1      21.916   0.295  54.918  1.00  0.00     0.166 HD
ENDBRANCH   3   4
BRANCH   3   8
HETATM    8  C4  UNL     1      20.422  -1.617  52.895  1.00  0.00     0.049 C 
BRANCH   8   9
HETATM    9  C5  UNL     1      20.616  -2.857  53.127  1.00  0.00     0.015 C 
BRANCH   9  10
HETATM   10  C6  UNL     1      20.016  -3.900  53.909  1.00  0.00    -0.036 A 
HETATM   11  C7  UNL     1      18.608  -3.929  53.924  1.00  0.00     0.013 A 
HETATM   12  C8  UNL     1      17.907  -4.834  54.676  1.00  0.00     0.032 A 
HETATM   13  C9  UNL     1      18.557  -5.766  55.456  1.00  0.00     0.056 A 
HETATM   14  C11 UNL     1      19.931  -5.739  55.443  1.00  0.00     0.032 A 
HETATM   15  C12 UNL     1      20.667  -4.822  54.684  1.00  0.00     0.013 A 
BRANCH  13  16
HETATM   16  N2  UNL     1      17.862  -6.710  56.228  1.00  0.00    -0.266 N 
HETATM   17  C10 UNL     1      16.440  -6.844  56.049  1.00  0.00     0.185 C 
BRANCH  16  18
HETATM   18  O1  UNL     1      18.430  -7.430  57.067  1.00  0.00    -0.288 OA
ATOM     19  H1  UNL     1      17.963  -7.832  57.791  1.00  0.00     0.244 HD
ENDBRANCH  16  18
ENDBRANCH  13  16
ENDBRANCH   9  10
ENDBRANCH   8   9
ENDBRANCH   3   8
ENDBRANCH   1   3
BRANCH   1  20
HETATM   20  C13 UNL     1      18.475  -0.479  54.877  1.00  0.00     0.033 A 
HETATM   21  C14 UNL     1      17.126  -0.729  54.613  1.00  0.00     0.031 A 
HETATM   22  C15 UNL     1      16.374  -1.367  55.568  1.00  0.00     0.027 A 
HETATM   23  C16 UNL     1      16.882  -1.772  56.773  1.00  0.00     0.080 A 
HETATM   24  C20 UNL     1      18.209  -1.528  57.037  1.00  0.00     0.027 A 
HETATM   25  C21 UNL     1      18.996  -0.891  56.103  1.00  0.00     0.031 A 
BRANCH  23  26
HETATM   26  S1  UNL     1      15.855  -2.587  57.916  1.00  0.00     0.264 S 
HETATM   27  O2  UNL     1      15.756  -1.713  59.161  1.00  0.00    -0.200 OA
HETATM   28  O3  UNL     1      14.441  -2.735  57.363  1.00  0.00    -0.200 OA
BRANCH  26  29
HETATM   29  N4  UNL     1      16.449  -4.090  58.403  1.00  0.00    -0.260 N 
ATOM     30  H4  UNL     1      16.122  -4.922  57.913  1.00  0.00     0.181 HD
BRANCH  29  31
HETATM   31  C17 UNL     1      17.299  -4.241  59.368  1.00  0.00     0.159 A 
HETATM   32  N5  UNL     1      17.137  -4.273  60.684  1.00  0.00    -0.344 N 
HETATM   33  C18 UNL     1      18.166  -4.444  61.458  1.00  0.00     0.116 A 
ATOM     34  H5  UNL     1      16.207  -4.163  61.088  1.00  0.00     0.167 HD
HETATM   35  C19 UNL     1      19.395  -4.585  60.869  1.00  0.00     0.070 A 
HETATM   36 BR1  UNL     1      21.105  -4.852  61.720  1.00  0.00    -0.042 Br
HETATM   37  S2  UNL     1      19.013  -4.466  59.213  1.00  0.00    -0.044 SA
ENDBRANCH  29  31
ENDBRANCH  26  29
ENDBRANCH  23  26
ENDBRANCH   1  20
TORSDOF 11
ENDMDL
