MODEL 1
REMARK VINA RESULT: -8.995844182      0.000      0.000
REMARK  8 active torsions:
REMARK  status: ('A' for Active; 'I' for Inactive)
REMARK    1  A    between atoms: C2_2  and  C3_3 
REMARK    2  A    between atoms: C3_3  and  O1_4 
REMARK    3  A    between atoms: O1_4  and  C4_5 
REMARK    4  A    between atoms: C5_7  and  O3_8 
REMARK    5  A    between atoms: C9_14  and  O5_15 
REMARK    6  A    between atoms: C13_19  and  C14_20 
REMARK    7  A    between atoms: C14_20  and  C15_21 
REMARK    8  A    between atoms: C15_21  and  C16_22 
ROOT
HETATM    1  C4  UNL     1      17.995  -5.611  55.433  1.00  0.00     0.272 C 
HETATM    2  O2  UNL     1      17.783  -6.966  55.005  1.00  0.00    -0.328 OA
HETATM    3  C5  UNL     1      16.625  -7.174  54.356  1.00  0.00     0.297 C 
HETATM    4  C6  UNL     1      16.341  -6.240  53.241  1.00  0.00     0.138 A 
HETATM    5  C7  UNL     1      15.877  -6.684  51.909  1.00  0.00     0.212 A 
HETATM    6  O4  UNL     1      14.928  -6.470  52.840  1.00  0.00    -0.369 OA
HETATM    7  C8  UNL     1      16.687  -4.788  53.511  1.00  0.00     0.070 C 
HETATM    8  C9  UNL     1      15.494  -4.121  53.995  1.00  0.00     0.133 C 
HETATM    9  C11 UNL     1      15.183  -2.767  53.369  1.00  0.00     0.015 C 
HETATM   10  C12 UNL     1      14.393  -2.890  52.082  1.00  0.00     0.013 C 
HETATM   11  C13 UNL     1      16.402  -1.914  53.157  1.00  0.00    -0.008 C 
HETATM   12  C17 UNL     1      17.065  -1.508  54.418  1.00  0.00     0.015 C 
HETATM   13  C18 UNL     1      18.298  -2.194  54.881  1.00  0.00    -0.034 C 
HETATM   14  C19 UNL     1      18.166  -2.215  56.425  1.00  0.00     0.016 C 
HETATM   15  C20 UNL     1      19.465  -1.218  54.747  1.00  0.00     0.010 C 
HETATM   16  C21 UNL     1      19.210   0.211  54.797  1.00  0.00     0.014 C 
HETATM   17  C22 UNL     1      20.679   0.707  54.834  1.00  0.00     0.079 C 
HETATM   18  C23 UNL     1      21.422  -0.327  54.062  1.00  0.00     0.135 C 
HETATM   19  O6  UNL     1      22.599  -0.318  53.846  1.00  0.00    -0.297 OA
HETATM   20  C24 UNL     1      20.390  -1.371  53.618  1.00  0.00     0.021 C 
HETATM   21  C25 UNL     1      20.010  -0.980  52.258  1.00  0.00     0.024 C 
HETATM   22  C26 UNL     1      21.036  -2.722  53.650  1.00  0.00     0.018 C 
HETATM   23  C27 UNL     1      20.207  -3.621  54.552  1.00  0.00     0.007 C 
HETATM   24  C28 UNL     1      18.703  -3.450  54.271  1.00  0.00     0.007 C 
HETATM   25  C29 UNL     1      18.000  -4.719  54.214  1.00  0.00     0.019 C 
HETATM   26  C30 UNL     1      18.919  -5.554  53.255  1.00  0.00     0.021 C 
ENDROOT
BRANCH   1  27
HETATM   27  O1  UNL     1      19.253  -5.803  56.006  1.00  0.00    -0.360 OA
BRANCH  27  28
HETATM   28  C3  UNL     1      19.188  -6.141  57.328  1.00  0.00     0.170 C 
BRANCH  28  29
HETATM   29  C2  UNL     1      18.254  -5.204  58.104  1.00  0.00     0.022 C 
HETATM   30  C1  UNL     1      19.012  -4.459  59.157  1.00  0.00     0.007 C 
ENDBRANCH  28  29
ENDBRANCH  27  28
ENDBRANCH   1  27
BRANCH   3  31
HETATM   31  O3  UNL     1      16.726  -8.459  53.761  1.00  0.00    -0.368 OA
ATOM     32  H3  UNL     1      16.356  -8.381  52.890  1.00  0.00     0.212 HD
ENDBRANCH   3  31
BRANCH   8  33
HETATM   33  O5  UNL     1      15.254  -4.119  55.362  1.00  0.00    -0.390 OA
HETATM   34  C10 UNL     1      14.097  -4.748  55.763  1.00  0.00     0.202 C 
ENDBRANCH   8  33
BRANCH  11  35
HETATM   35  C14 UNL     1      15.933  -0.662  52.442  1.00  0.00     0.006 C 
BRANCH  35  36
HETATM   36  C15 UNL     1      15.245   0.285  53.353  1.00  0.00     0.015 C 
BRANCH  36  37
HETATM   37  C16 UNL     1      14.238   1.161  52.626  1.00  0.00     0.114 C 
HETATM   38 CL1  UNL     1      14.219   0.646  50.931  1.00  0.00    -0.130 Cl
ENDBRANCH  36  37
ENDBRANCH  35  36
ENDBRANCH  11  35
TORSDOF 8
ENDMDL
MODEL 2
REMARK VINA RESULT: -8.984915337      3.356      6.691
REMARK  8 active torsions:
REMARK  status: ('A' for Active; 'I' for Inactive)
REMARK    1  A    between atoms: C2_2  and  C3_3 
REMARK    2  A    between atoms: C3_3  and  O1_4 
REMARK    3  A    between atoms: O1_4  and  C4_5 
REMARK    4  A    between atoms: C5_7  and  O3_8 
REMARK    5  A    between atoms: C9_14  and  O5_15 
REMARK    6  A    between atoms: C13_19  and  C14_20 
REMARK    7  A    between atoms: C14_20  and  C15_21 
REMARK    8  A    between atoms: C15_21  and  C16_22 
ROOT
HETATM    1  C4  UNL     1      16.204  -2.912  54.329  1.00  0.00     0.272 C 
HETATM    2  O2  UNL     1      15.668  -3.714  53.265  1.00  0.00    -0.328 OA
HETATM    3  C5  UNL     1      16.387  -4.812  52.974  1.00  0.00     0.297 C 
HETATM    4  C6  UNL     1      16.736  -5.672  54.129  1.00  0.00     0.138 A 
HETATM    5  C7  UNL     1      16.571  -7.141  54.126  1.00  0.00     0.212 A 
HETATM    6  O4  UNL     1      17.732  -6.662  53.639  1.00  0.00    -0.369 OA
HETATM    7  C8  UNL     1      17.157  -4.929  55.383  1.00  0.00     0.070 C 
HETATM    8  C9  UNL     1      18.604  -4.828  55.386  1.00  0.00     0.133 C 
HETATM    9  C11 UNL     1      19.296  -5.165  56.700  1.00  0.00     0.015 C 
HETATM   10  C12 UNL     1      19.563  -6.649  56.852  1.00  0.00     0.013 C 
HETATM   11  C13 UNL     1      18.574  -4.636  57.907  1.00  0.00    -0.008 C 
HETATM   12  C17 UNL     1      18.534  -3.157  57.969  1.00  0.00     0.015 C 
HETATM   13  C18 UNL     1      17.305  -2.416  57.588  1.00  0.00    -0.034 C 
HETATM   14  C19 UNL     1      17.831  -1.122  56.917  1.00  0.00     0.016 C 
HETATM   15  C20 UNL     1      16.703  -1.808  58.853  1.00  0.00     0.010 C 
HETATM   16  C21 UNL     1      17.566  -1.511  59.983  1.00  0.00     0.014 C 
HETATM   17  C22 UNL     1      16.541  -0.750  60.864  1.00  0.00     0.079 C 
HETATM   18  C23 UNL     1      15.237  -1.380  60.516  1.00  0.00     0.135 C 
HETATM   19  O6  UNL     1      14.177  -1.083  60.984  1.00  0.00    -0.297 OA
HETATM   20  C24 UNL     1      15.535  -2.456  59.463  1.00  0.00     0.021 C 
HETATM   21  C25 UNL     1      15.659  -3.706  60.217  1.00  0.00     0.024 C 
HETATM   22  C26 UNL     1      14.395  -2.500  58.493  1.00  0.00     0.018 C 
HETATM   23  C27 UNL     1      14.953  -2.276  57.097  1.00  0.00     0.007 C 
HETATM   24  C28 UNL     1      16.236  -3.098  56.876  1.00  0.00     0.007 C 
HETATM   25  C29 UNL     1      16.259  -3.755  55.582  1.00  0.00     0.019 C 
HETATM   26  C30 UNL     1      14.842  -4.427  55.535  1.00  0.00     0.021 C 
ENDROOT
BRANCH   1  27
HETATM   27  O1  UNL     1      15.202  -1.941  54.338  1.00  0.00    -0.360 OA
BRANCH  27  28
HETATM   28  C3  UNL     1      15.632  -0.732  53.870  1.00  0.00     0.170 C 
BRANCH  28  29
HETATM   29  C2  UNL     1      15.471  -0.628  52.349  1.00  0.00     0.022 C 
HETATM   30  C1  UNL     1      14.668   0.582  51.986  1.00  0.00     0.007 C 
ENDBRANCH  28  29
ENDBRANCH  27  28
ENDBRANCH   1  27
BRANCH   3  31
HETATM   31  O3  UNL     1      15.569  -5.613  52.134  1.00  0.00    -0.368 OA
ATOM     32  H3  UNL     1      16.147  -6.243  51.721  1.00  0.00     0.212 HD
ENDBRANCH   3  31
BRANCH   8  33
HETATM   33  O5  UNL     1      19.184  -3.728  54.769  1.00  0.00    -0.390 OA
HETATM   34  C10 UNL     1      20.113  -4.016  53.794  1.00  0.00     0.202 C 
ENDBRANCH   8  33
BRANCH  11  35
HETATM   35  C14 UNL     1      19.332  -5.142  59.119  1.00  0.00     0.006 C 
BRANCH  35  36
HETATM   36  C15 UNL     1      19.649  -4.057  60.080  1.00  0.00     0.015 C 
BRANCH  36  37
HETATM   37  C16 UNL     1      19.844  -4.574  61.496  1.00  0.00     0.114 C 
HETATM   38 CL1  UNL     1      21.477  -5.255  61.588  1.00  0.00    -0.130 Cl
ENDBRANCH  36  37
ENDBRANCH  35  36
ENDBRANCH  11  35
TORSDOF 8
ENDMDL
MODEL 3
REMARK VINA RESULT: -8.625830653      0.975      1.094
REMARK  8 active torsions:
REMARK  status: ('A' for Active; 'I' for Inactive)
REMARK    1  A    between atoms: C2_2  and  C3_3 
REMARK    2  A    between atoms: C3_3  and  O1_4 
REMARK    3  A    between atoms: O1_4  and  C4_5 
REMARK    4  A    between atoms: C5_7  and  O3_8 
REMARK    5  A    between atoms: C9_14  and  O5_15 
REMARK    6  A    between atoms: C13_19  and  C14_20 
REMARK    7  A    between atoms: C14_20  and  C15_21 
REMARK    8  A    between atoms: C15_21  and  C16_22 
ROOT
HETATM    1  C4  UNL     1      17.890  -5.181  56.600  1.00  0.00     0.272 C 
HETATM    2  O2  UNL     1      17.848  -6.615  56.519  1.00  0.00    -0.328 OA
HETATM    3  C5  UNL     1      16.772  -7.109  55.883  1.00  0.00     0.297 C 
HETATM    4  C6  UNL     1      16.488  -6.518  54.554  1.00  0.00     0.138 A 
HETATM    5  C7  UNL     1      16.178  -7.327  53.357  1.00  0.00     0.212 A 
HETATM    6  O4  UNL     1      15.141  -7.002  54.151  1.00  0.00    -0.369 OA
HETATM    7  C8  UNL     1      16.666  -5.015  54.464  1.00  0.00     0.070 C 
HETATM    8  C9  UNL     1      15.378  -4.391  54.700  1.00  0.00     0.133 C 
HETATM    9  C11 UNL     1      14.987  -3.279  53.735  1.00  0.00     0.015 C 
HETATM   10  C12 UNL     1      14.318  -3.806  52.481  1.00  0.00     0.013 C 
HETATM   11  C13 UNL     1      16.128  -2.369  53.378  1.00  0.00    -0.008 C 
HETATM   12  C17 UNL     1      16.644  -1.591  54.527  1.00  0.00     0.015 C 
HETATM   13  C18 UNL     1      17.898  -1.995  55.214  1.00  0.00    -0.034 C 
HETATM   14  C19 UNL     1      17.646  -1.649  56.704  1.00  0.00     0.016 C 
HETATM   15  C20 UNL     1      18.970  -0.953  54.899  1.00  0.00     0.010 C 
HETATM   16  C21 UNL     1      18.573   0.404  54.570  1.00  0.00     0.014 C 
HETATM   17  C22 UNL     1      19.978   1.060  54.557  1.00  0.00     0.079 C 
HETATM   18  C23 UNL     1      20.879  -0.039  54.113  1.00  0.00     0.135 C 
HETATM   19  O6  UNL     1      22.063   0.052  53.965  1.00  0.00    -0.297 OA
HETATM   20  C24 UNL     1      19.994  -1.273  53.896  1.00  0.00     0.021 C 
HETATM   21  C25 UNL     1      19.687  -1.276  52.463  1.00  0.00     0.024 C 
HETATM   22  C26 UNL     1      20.765  -2.490  54.304  1.00  0.00     0.018 C 
HETATM   23  C27 UNL     1      19.959  -3.228  55.360  1.00  0.00     0.007 C 
HETATM   24  C28 UNL     1      18.473  -3.307  54.965  1.00  0.00     0.007 C 
HETATM   25  C29 UNL     1      17.906  -4.623  55.196  1.00  0.00     0.019 C 
HETATM   26  C30 UNL     1      18.976  -5.557  54.530  1.00  0.00     0.021 C 
ENDROOT
BRANCH   1  27
HETATM   27  O1  UNL     1      19.111  -5.079  57.268  1.00  0.00    -0.360 OA
BRANCH  27  28
HETATM   28  C3  UNL     1      18.970  -5.035  58.626  1.00  0.00     0.170 C 
BRANCH  28  29
HETATM   29  C2  UNL     1      19.149  -3.611  59.165  1.00  0.00     0.022 C 
HETATM   30  C1  UNL     1      19.636  -3.641  60.580  1.00  0.00     0.007 C 
ENDBRANCH  28  29
ENDBRANCH  27  28
ENDBRANCH   1  27
BRANCH   3  31
HETATM   31  O3  UNL     1      17.047  -8.480  55.641  1.00  0.00    -0.368 OA
ATOM     32  H3  UNL     1      16.329  -8.807  55.112  1.00  0.00     0.212 HD
ENDBRANCH   3  31
BRANCH   8  33
HETATM   33  O5  UNL     1      15.031  -4.080  56.007  1.00  0.00    -0.390 OA
HETATM   34  C10 UNL     1      13.921  -4.731  56.497  1.00  0.00     0.202 C 
ENDBRANCH   8  33
BRANCH  11  35
HETATM   35  C14 UNL     1      15.598  -1.395  52.345  1.00  0.00     0.006 C 
BRANCH  35  36
HETATM   36  C15 UNL     1      15.364  -0.044  52.909  1.00  0.00     0.015 C 
BRANCH  36  37
HETATM   37  C16 UNL     1      14.502   0.822  52.006  1.00  0.00     0.114 C 
HETATM   38 CL1  UNL     1      14.399   0.005  50.437  1.00  0.00    -0.130 Cl
ENDBRANCH  36  37
ENDBRANCH  35  36
ENDBRANCH  11  35
TORSDOF 8
ENDMDL
MODEL 4
REMARK VINA RESULT: -8.327223928      3.113      6.170
REMARK  8 active torsions:
REMARK  status: ('A' for Active; 'I' for Inactive)
REMARK    1  A    between atoms: C2_2  and  C3_3 
REMARK    2  A    between atoms: C3_3  and  O1_4 
REMARK    3  A    between atoms: O1_4  and  C4_5 
REMARK    4  A    between atoms: C5_7  and  O3_8 
REMARK    5  A    between atoms: C9_14  and  O5_15 
REMARK    6  A    between atoms: C13_19  and  C14_20 
REMARK    7  A    between atoms: C14_20  and  C15_21 
REMARK    8  A    between atoms: C15_21  and  C16_22 
ROOT
HETATM    1  C4  UNL     1      15.577  -3.246  58.951  1.00  0.00     0.272 C 
HETATM    2  O2  UNL     1      16.144  -2.933  60.233  1.00  0.00    -0.328 OA
HETATM    3  C5  UNL     1      17.122  -3.764  60.631  1.00  0.00     0.297 C 
HETATM    4  C6  UNL     1      18.201  -4.002  59.643  1.00  0.00     0.138 A 
HETATM    5  C7  UNL     1      19.639  -3.946  59.983  1.00  0.00     0.212 A 
HETATM    6  O4  UNL     1      19.019  -5.128  60.167  1.00  0.00    -0.369 OA
HETATM    7  C8  UNL     1      17.737  -4.179  58.210  1.00  0.00     0.070 C 
HETATM    8  C9  UNL     1      17.583  -5.598  57.956  1.00  0.00     0.133 C 
HETATM    9  C11 UNL     1      18.174  -6.112  56.649  1.00  0.00     0.015 C 
HETATM   10  C12 UNL     1      19.643  -6.461  56.774  1.00  0.00     0.013 C 
HETATM   11  C13 UNL     1      17.952  -5.185  55.488  1.00  0.00    -0.008 C 
HETATM   12  C17 UNL     1      16.525  -5.028  55.122  1.00  0.00     0.015 C 
HETATM   13  C18 UNL     1      15.767  -3.818  55.529  1.00  0.00    -0.034 C 
HETATM   14  C19 UNL     1      14.337  -4.341  55.818  1.00  0.00     0.016 C 
HETATM   15  C20 UNL     1      15.477  -2.994  54.276  1.00  0.00     0.010 C 
HETATM   16  C21 UNL     1      15.403  -3.658  52.986  1.00  0.00     0.014 C 
HETATM   17  C22 UNL     1      14.895  -2.462  52.139  1.00  0.00     0.079 C 
HETATM   18  C23 UNL     1      15.484  -1.273  52.815  1.00  0.00     0.135 C 
HETATM   19  O6  UNL     1      15.339  -0.136  52.470  1.00  0.00    -0.297 OA
HETATM   20  C24 UNL     1      16.288  -1.799  54.010  1.00  0.00     0.021 C 
HETATM   21  C25 UNL     1      17.668  -1.902  53.528  1.00  0.00     0.024 C 
HETATM   22  C26 UNL     1      16.162  -0.821  55.137  1.00  0.00     0.018 C 
HETATM   23  C27 UNL     1      15.615  -1.560  56.347  1.00  0.00     0.007 C 
HETATM   24  C28 UNL     1      16.317  -2.917  56.529  1.00  0.00     0.007 C 
HETATM   25  C29 UNL     1      16.672  -3.178  57.912  1.00  0.00     0.019 C 
HETATM   26  C30 UNL     1      17.372  -1.837  58.325  1.00  0.00     0.021 C 
ENDROOT
BRANCH   1  27
HETATM   27  O1  UNL     1      14.671  -2.186  58.896  1.00  0.00    -0.360 OA
BRANCH  27  28
HETATM   28  C3  UNL     1      14.049  -1.958  60.090  1.00  0.00     0.170 C 
BRANCH  28  29
HETATM   29  C2  UNL     1      12.529  -2.126  59.976  1.00  0.00     0.022 C 
HETATM   30  C1  UNL     1      12.052  -3.227  60.870  1.00  0.00     0.007 C 
ENDBRANCH  28  29
ENDBRANCH  27  28
ENDBRANCH   1  27
BRANCH   3  31
HETATM   31  O3  UNL     1      17.750  -3.139  61.740  1.00  0.00    -0.368 OA
ATOM     32  H3  UNL     1      18.301  -3.800  62.143  1.00  0.00     0.212 HD
ENDBRANCH   3  31
BRANCH   8  33
HETATM   33  O5  UNL     1      16.352  -6.181  58.225  1.00  0.00    -0.390 OA
HETATM   34  C10 UNL     1      16.225  -7.499  57.848  1.00  0.00     0.202 C 
ENDBRANCH   8  33
BRANCH  11  35
HETATM   35  C14 UNL     1      18.682  -5.791  54.306  1.00  0.00     0.006 C 
BRANCH  35  36
HETATM   36  C15 UNL     1      19.262  -4.760  53.411  1.00  0.00     0.015 C 
BRANCH  36  37
HETATM   37  C16 UNL     1      20.603  -4.246  53.909  1.00  0.00     0.114 C 
HETATM   38 CL1  UNL     1      21.093  -2.926  52.834  1.00  0.00    -0.130 Cl
ENDBRANCH  36  37
ENDBRANCH  35  36
ENDBRANCH  11  35
TORSDOF 8
ENDMDL
MODEL 5
REMARK VINA RESULT: -8.321911003      1.782      2.385
REMARK  8 active torsions:
REMARK  status: ('A' for Active; 'I' for Inactive)
REMARK    1  A    between atoms: C2_2  and  C3_3 
REMARK    2  A    between atoms: C3_3  and  O1_4 
REMARK    3  A    between atoms: O1_4  and  C4_5 
REMARK    4  A    between atoms: C5_7  and  O3_8 
REMARK    5  A    between atoms: C9_14  and  O5_15 
REMARK    6  A    between atoms: C13_19  and  C14_20 
REMARK    7  A    between atoms: C14_20  and  C15_21 
REMARK    8  A    between atoms: C15_21  and  C16_22 
ROOT
HETATM    1  C4  UNL     1      16.969  -5.640  57.622  1.00  0.00     0.272 C 
HETATM    2  O2  UNL     1      17.244  -7.046  57.724  1.00  0.00    -0.328 OA
HETATM    3  C5  UNL     1      16.459  -7.827  56.962  1.00  0.00     0.297 C 
HETATM    4  C6  UNL     1      16.356  -7.433  55.537  1.00  0.00     0.138 A 
HETATM    5  C7  UNL     1      16.490  -8.391  54.419  1.00  0.00     0.212 A 
HETATM    6  O4  UNL     1      15.260  -8.246  54.948  1.00  0.00    -0.369 OA
HETATM    7  C8  UNL     1      16.234  -5.942  55.287  1.00  0.00     0.070 C 
HETATM    8  C9  UNL     1      14.825  -5.614  55.183  1.00  0.00     0.133 C 
HETATM    9  C11 UNL     1      14.432  -4.708  54.023  1.00  0.00     0.015 C 
HETATM   10  C12 UNL     1      14.178  -5.480  52.744  1.00  0.00     0.013 C 
HETATM   11  C13 UNL     1      15.410  -3.594  53.778  1.00  0.00    -0.008 C 
HETATM   12  C17 UNL     1      15.490  -2.623  54.893  1.00  0.00     0.015 C 
HETATM   13  C18 UNL     1      16.619  -2.667  55.857  1.00  0.00    -0.034 C 
HETATM   14  C19 UNL     1      15.982  -2.263  57.211  1.00  0.00     0.016 C 
HETATM   15  C20 UNL     1      17.495  -1.438  55.622  1.00  0.00     0.010 C 
HETATM   16  C21 UNL     1      16.906  -0.241  55.046  1.00  0.00     0.014 C 
HETATM   17  C22 UNL     1      18.113   0.717  55.220  1.00  0.00     0.079 C 
HETATM   18  C23 UNL     1      19.297  -0.179  55.109  1.00  0.00     0.135 C 
HETATM   19  O6  UNL     1      20.439   0.169  55.182  1.00  0.00    -0.297 OA
HETATM   20  C24 UNL     1      18.756  -1.597  54.887  1.00  0.00     0.021 C 
HETATM   21  C25 UNL     1      18.778  -1.793  53.436  1.00  0.00     0.024 C 
HETATM   22  C26 UNL     1      19.654  -2.565  55.594  1.00  0.00     0.018 C 
HETATM   23  C27 UNL     1      18.808  -3.376  56.561  1.00  0.00     0.007 C 
HETATM   24  C28 UNL     1      17.493  -3.828  55.900  1.00  0.00     0.007 C 
HETATM   25  C29 UNL     1      17.175  -5.215  56.187  1.00  0.00     0.019 C 
HETATM   26  C30 UNL     1      18.534  -5.931  55.871  1.00  0.00     0.021 C 
ENDROOT
BRANCH   1  27
HETATM   27  O1  UNL     1      17.966  -5.202  58.495  1.00  0.00    -0.360 OA
BRANCH  27  28
HETATM   28  C3  UNL     1      17.469  -4.755  59.686  1.00  0.00     0.170 C 
BRANCH  28  29
HETATM   29  C2  UNL     1      18.071  -3.399  60.075  1.00  0.00     0.022 C 
HETATM   30  C1  UNL     1      19.558  -3.504  60.212  1.00  0.00     0.007 C 
ENDBRANCH  28  29
ENDBRANCH  27  28
ENDBRANCH   1  27
BRANCH   3  31
HETATM   31  O3  UNL     1      17.058  -9.114  56.961  1.00  0.00    -0.368 OA
ATOM     32  H3  UNL     1      16.798  -9.531  57.774  1.00  0.00     0.212 HD
ENDBRANCH   3  31
BRANCH   8  33
HETATM   33  O5  UNL     1      14.144  -5.281  56.346  1.00  0.00    -0.390 OA
HETATM   34  C10 UNL     1      12.946  -5.932  56.539  1.00  0.00     0.202 C 
ENDBRANCH   8  33
BRANCH  11  35
HETATM   35  C14 UNL     1      14.928  -2.860  52.542  1.00  0.00     0.006 C 
BRANCH  35  36
HETATM   36  C15 UNL     1      15.478  -1.486  52.451  1.00  0.00     0.015 C 
BRANCH  36  37
HETATM   37  C16 UNL     1      14.785  -0.653  51.385  1.00  0.00     0.114 C 
HETATM   38 CL1  UNL     1      14.428   0.927  52.102  1.00  0.00    -0.130 Cl
ENDBRANCH  36  37
ENDBRANCH  35  36
ENDBRANCH  11  35
TORSDOF 8
ENDMDL
