MODEL 1
REMARK VINA RESULT: -8.910088793      0.000      0.000
REMARK  7 active torsions:
REMARK  status: ('A' for Active; 'I' for Inactive)
REMARK    1  A    between atoms: O1_2  and  C2_3 
REMARK    2  A    between atoms: C4_6  and  O3_7 
REMARK    3  A    between atoms: O3_7  and  C5_8 
REMARK    4  A    between atoms: C5_8  and  C7_10 
REMARK    5  A    between atoms: C10_13  and  O4_14 
REMARK    6  A    between atoms: O4_14  and  C11_15 
REMARK    7  A    between atoms: C22_27  and  N1_28 
REMARK       I    between atoms: N1_28  and  C23_30 
REMARK       I    between atoms: C23_30  and  N2_32 
ROOT
HETATM    1  C11 UNL     1      16.329  -4.623  56.317  1.00  0.00     0.117 A 
HETATM    2  C12 UNL     1      16.968  -5.656  55.681  1.00  0.00    -0.019 A 
HETATM    3  C13 UNL     1      16.603  -7.090  55.866  1.00  0.00     0.052 C 
HETATM    4  C14 UNL     1      18.044  -5.432  54.830  1.00  0.00    -0.046 A 
HETATM    5  C15 UNL     1      18.744  -6.535  54.122  1.00  0.00     0.049 C 
HETATM    6  C16 UNL     1      18.498  -4.110  54.614  1.00  0.00    -0.041 A 
HETATM    7  C17 UNL     1      17.884  -3.066  55.233  1.00  0.00     0.000 A 
HETATM    8  C18 UNL     1      16.793  -3.355  56.086  1.00  0.00     0.158 A 
HETATM    9  F1  UNL     1      16.238  -2.266  56.660  1.00  0.00    -0.203 F 
HETATM   10  C19 UNL     1      18.317  -1.691  55.048  1.00  0.00     0.004 C 
HETATM   11  C20 UNL     1      17.109  -0.874  54.598  1.00  0.00     0.022 C 
HETATM   12  C21 UNL     1      18.794  -1.014  56.314  1.00  0.00     0.022 C 
HETATM   13  C22 UNL     1      19.327  -1.562  53.949  1.00  0.00     0.099 C 
HETATM   14  C26 UNL     1      20.372  -2.682  54.136  1.00  0.00     0.031 C 
HETATM   15  C27 UNL     1      19.649  -3.934  53.697  1.00  0.00     0.042 C 
ENDROOT
BRANCH   1  16
HETATM   16  O4  UNL     1      15.266  -4.859  57.146  1.00  0.00    -0.312 OA
BRANCH  16  17
HETATM   17  C10 UNL     1      13.905  -4.668  56.864  1.00  0.00     0.322 C 
HETATM   18  C4  UNL     1      13.232  -5.736  56.063  1.00  0.00     0.315 C 
HETATM   19  O2  UNL     1      12.312  -6.346  56.945  1.00  0.00    -0.354 OA
HETATM   20  C3  UNL     1      12.850  -7.284  57.763  1.00  0.00     0.205 C 
HETATM   21  C2  UNL     1      13.747  -6.802  58.832  1.00  0.00     0.173 C 
HETATM   22  C28 UNL     1      13.751  -5.332  59.098  1.00  0.00     0.151 C 
HETATM   23  O6  UNL     1      13.276  -4.526  58.100  1.00  0.00    -0.348 OA
HETATM   24  C29 UNL     1      13.143  -5.015  60.448  1.00  0.00     0.042 C 
BRANCH  18  25
HETATM   25  O3  UNL     1      12.375  -5.208  55.059  1.00  0.00    -0.351 OA
BRANCH  25  26
HETATM   26  C5  UNL     1      12.812  -5.448  53.787  1.00  0.00     0.124 C 
HETATM   27  C6  UNL     1      12.084  -4.475  52.802  1.00  0.00     0.040 C 
BRANCH  26  28
HETATM   28  C7  UNL     1      14.256  -5.101  53.629  1.00  0.00     0.006 C 
HETATM   29  C8  UNL     1      14.440  -3.645  53.216  1.00  0.00     0.012 C 
HETATM   30  C9  UNL     1      14.919  -5.984  52.627  1.00  0.00     0.012 C 
ENDBRANCH  26  28
ENDBRANCH  25  26
ENDBRANCH  18  25
BRANCH  21  31
HETATM   31  O1  UNL     1      15.032  -7.313  58.626  1.00  0.00    -0.386 OA
HETATM   32  C1  UNL     1      15.367  -8.361  59.442  1.00  0.00     0.202 C 
ENDBRANCH  21  31
ENDBRANCH  16  17
ENDBRANCH   1  16
BRANCH  13  33
HETATM   33  N1  UNL     1      20.013  -0.313  53.920  1.00  0.00    -0.337 N 
HETATM   34  C23 UNL     1      21.025  -0.095  52.946  1.00  0.00     0.317 C 
HETATM   35  O5  UNL     1      21.317  -1.011  52.103  1.00  0.00    -0.247 OA
HETATM   36  N2  UNL     1      21.765   1.113  52.834  1.00  0.00    -0.343 N 
HETATM   37  C24 UNL     1      21.478   2.185  53.760  1.00  0.00     0.154 C 
HETATM   38  C25 UNL     1      22.788   1.325  51.845  1.00  0.00     0.154 C 
ATOM     39  H1  UNL     1      19.780   0.418  54.592  1.00  0.00     0.164 HD
ENDBRANCH  13  33
TORSDOF 7
ENDMDL
MODEL 2
REMARK VINA RESULT: -8.255165306      5.646      9.669
REMARK  7 active torsions:
REMARK  status: ('A' for Active; 'I' for Inactive)
REMARK    1  A    between atoms: O1_2  and  C2_3 
REMARK    2  A    between atoms: C4_6  and  O3_7 
REMARK    3  A    between atoms: O3_7  and  C5_8 
REMARK    4  A    between atoms: C5_8  and  C7_10 
REMARK    5  A    between atoms: C10_13  and  O4_14 
REMARK    6  A    between atoms: O4_14  and  C11_15 
REMARK    7  A    between atoms: C22_27  and  N1_28 
REMARK       I    between atoms: N1_28  and  C23_30 
REMARK       I    between atoms: C23_30  and  N2_32 
ROOT
HETATM    1  C11 UNL     1      15.481  -1.938  59.310  1.00  0.00     0.117 A 
HETATM    2  C12 UNL     1      14.328  -2.656  59.123  1.00  0.00    -0.019 A 
HETATM    3  C13 UNL     1      13.961  -3.306  57.831  1.00  0.00     0.052 C 
HETATM    4  C14 UNL     1      13.387  -2.799  60.137  1.00  0.00    -0.046 A 
HETATM    5  C15 UNL     1      12.137  -3.581  59.960  1.00  0.00     0.049 C 
HETATM    6  C16 UNL     1      13.618  -2.189  61.392  1.00  0.00    -0.041 A 
HETATM    7  C17 UNL     1      14.752  -1.469  61.605  1.00  0.00     0.000 A 
HETATM    8  C18 UNL     1      15.674  -1.360  60.537  1.00  0.00     0.158 A 
HETATM    9  F1  UNL     1      16.773  -0.633  60.829  1.00  0.00    -0.203 F 
HETATM   10  C19 UNL     1      15.031  -0.819  62.874  1.00  0.00     0.004 C 
HETATM   11  C20 UNL     1      16.401  -1.291  63.354  1.00  0.00     0.022 C 
HETATM   12  C21 UNL     1      15.149   0.686  62.788  1.00  0.00     0.022 C 
HETATM   13  C22 UNL     1      14.063  -1.229  63.941  1.00  0.00     0.099 C 
HETATM   14  C26 UNL     1      12.645  -1.169  63.339  1.00  0.00     0.031 C 
HETATM   15  C27 UNL     1      12.579  -2.377  62.433  1.00  0.00     0.042 C 
ENDROOT
BRANCH   1  16
HETATM   16  O4  UNL     1      16.400  -1.813  58.304  1.00  0.00    -0.312 OA
BRANCH  16  17
HETATM   17  C10 UNL     1      17.772  -2.105  58.360  1.00  0.00     0.322 C 
HETATM   18  C4  UNL     1      18.158  -3.537  58.174  1.00  0.00     0.315 C 
HETATM   19  O2  UNL     1      18.845  -3.585  56.940  1.00  0.00    -0.354 OA
HETATM   20  C3  UNL     1      18.043  -3.649  55.849  1.00  0.00     0.205 C 
HETATM   21  C2  UNL     1      17.272  -2.434  55.515  1.00  0.00     0.173 C 
HETATM   22  C28 UNL     1      17.657  -1.175  56.220  1.00  0.00     0.151 C 
HETATM   23  O6  UNL     1      18.370  -1.314  57.380  1.00  0.00    -0.348 OA
HETATM   24  C29 UNL     1      18.278  -0.178  55.265  1.00  0.00     0.042 C 
BRANCH  18  25
HETATM   25  O3  UNL     1      19.163  -3.955  59.089  1.00  0.00    -0.351 OA
BRANCH  25  26
HETATM   26  C5  UNL     1      18.994  -3.457  60.350  1.00  0.00     0.124 C 
HETATM   27  C6  UNL     1      18.029  -4.394  61.148  1.00  0.00     0.040 C 
BRANCH  26  28
HETATM   28  C7  UNL     1      20.265  -3.505  61.132  1.00  0.00     0.006 C 
HETATM   29  C8  UNL     1      20.776  -4.933  61.285  1.00  0.00     0.012 C 
HETATM   30  C9  UNL     1      20.093  -2.899  62.484  1.00  0.00     0.012 C 
ENDBRANCH  26  28
ENDBRANCH  25  26
ENDBRANCH  18  25
BRANCH  21  31
HETATM   31  O1  UNL     1      15.905  -2.710  55.618  1.00  0.00    -0.386 OA
HETATM   32  C1  UNL     1      15.307  -3.076  54.441  1.00  0.00     0.202 C 
ENDBRANCH  21  31
ENDBRANCH  16  17
ENDBRANCH   1  16
BRANCH  13  33
HETATM   33  N1  UNL     1      14.087  -0.411  65.108  1.00  0.00    -0.337 N 
HETATM   34  C23 UNL     1      14.317  -1.008  66.377  1.00  0.00     0.317 C 
HETATM   35  O5  UNL     1      14.501  -2.270  66.471  1.00  0.00    -0.247 OA
HETATM   36  N2  UNL     1      14.359  -0.281  67.596  1.00  0.00    -0.343 N 
HETATM   37  C24 UNL     1      14.158   1.150  67.552  1.00  0.00     0.154 C 
HETATM   38  C25 UNL     1      14.592  -0.895  68.877  1.00  0.00     0.154 C 
ATOM     39  H1  UNL     1      13.940   0.596  65.033  1.00  0.00     0.164 HD
ENDBRANCH  13  33
TORSDOF 7
ENDMDL
MODEL 3
REMARK VINA RESULT: -8.175637424      3.729      8.202
REMARK  7 active torsions:
REMARK  status: ('A' for Active; 'I' for Inactive)
REMARK    1  A    between atoms: O1_2  and  C2_3 
REMARK    2  A    between atoms: C4_6  and  O3_7 
REMARK    3  A    between atoms: O3_7  and  C5_8 
REMARK    4  A    between atoms: C5_8  and  C7_10 
REMARK    5  A    between atoms: C10_13  and  O4_14 
REMARK    6  A    between atoms: O4_14  and  C11_15 
REMARK    7  A    between atoms: C22_27  and  N1_28 
REMARK       I    between atoms: N1_28  and  C23_30 
REMARK       I    between atoms: C23_30  and  N2_32 
ROOT
HETATM    1  C11 UNL     1      16.963  -1.804  53.588  1.00  0.00     0.117 A 
HETATM    2  C12 UNL     1      15.799  -1.712  52.869  1.00  0.00    -0.019 A 
HETATM    3  C13 UNL     1      15.295  -0.441  52.275  1.00  0.00     0.052 C 
HETATM    4  C14 UNL     1      14.977  -2.816  52.672  1.00  0.00    -0.046 A 
HETATM    5  C15 UNL     1      13.717  -2.742  51.888  1.00  0.00     0.049 C 
HETATM    6  C16 UNL     1      15.343  -4.065  53.227  1.00  0.00    -0.041 A 
HETATM    7  C17 UNL     1      16.491  -4.184  53.946  1.00  0.00     0.000 A 
HETATM    8  C18 UNL     1      17.288  -3.027  54.111  1.00  0.00     0.158 A 
HETATM    9  F1  UNL     1      18.411  -3.230  54.834  1.00  0.00    -0.203 F 
HETATM   10  C19 UNL     1      16.906  -5.444  54.541  1.00  0.00     0.004 C 
HETATM   11  C20 UNL     1      18.322  -5.747  54.059  1.00  0.00     0.022 C 
HETATM   12  C21 UNL     1      17.008  -5.414  56.049  1.00  0.00     0.022 C 
HETATM   13  C22 UNL     1      16.063  -6.591  54.074  1.00  0.00     0.099 C 
HETATM   14  C26 UNL     1      14.587  -6.152  54.150  1.00  0.00     0.031 C 
HETATM   15  C27 UNL     1      14.426  -5.204  52.984  1.00  0.00     0.042 C 
ENDROOT
BRANCH   1  16
HETATM   16  O4  UNL     1      17.766  -0.710  53.766  1.00  0.00    -0.312 OA
BRANCH  16  17
HETATM   17  C10 UNL     1      17.988   0.001  54.955  1.00  0.00     0.322 C 
HETATM   18  C4  UNL     1      18.675  -0.739  56.058  1.00  0.00     0.315 C 
HETATM   19  O2  UNL     1      19.938  -0.120  56.198  1.00  0.00    -0.354 OA
HETATM   20  C3  UNL     1      20.875  -0.544  55.315  1.00  0.00     0.205 C 
HETATM   21  C2  UNL     1      20.695  -0.142  53.906  1.00  0.00     0.173 C 
HETATM   22  C28 UNL     1      19.680   0.918  53.630  1.00  0.00     0.151 C 
HETATM   23  O6  UNL     1      18.731   1.124  54.595  1.00  0.00    -0.348 OA
HETATM   24  C29 UNL     1      20.335   2.201  53.167  1.00  0.00     0.042 C 
BRANCH  18  25
HETATM   25  O3  UNL     1      18.084  -0.498  57.329  1.00  0.00    -0.351 OA
BRANCH  25  26
HETATM   26  C5  UNL     1      17.412  -1.575  57.831  1.00  0.00     0.124 C 
HETATM   27  C6  UNL     1      18.431  -2.727  58.119  1.00  0.00     0.040 C 
BRANCH  26  28
HETATM   28  C7  UNL     1      16.824  -1.278  59.171  1.00  0.00     0.006 C 
HETATM   29  C8  UNL     1      17.719  -1.776  60.300  1.00  0.00     0.012 C 
HETATM   30  C9  UNL     1      15.469  -1.884  59.315  1.00  0.00     0.012 C 
ENDBRANCH  26  28
ENDBRANCH  25  26
ENDBRANCH  18  25
BRANCH  21  31
HETATM   31  O1  UNL     1      20.508  -1.282  53.119  1.00  0.00    -0.386 OA
HETATM   32  C1  UNL     1      21.390  -2.300  53.370  1.00  0.00     0.202 C 
ENDBRANCH  21  31
ENDBRANCH  16  17
ENDBRANCH   1  16
BRANCH  13  33
HETATM   33  N1  UNL     1      16.213  -7.784  54.840  1.00  0.00    -0.337 N 
HETATM   34  C23 UNL     1      16.357  -9.030  54.171  1.00  0.00     0.317 C 
HETATM   35  O5  UNL     1      16.353  -9.080  52.893  1.00  0.00    -0.247 OA
HETATM   36  N2  UNL     1      16.511 -10.273  54.842  1.00  0.00    -0.343 N 
HETATM   37  C24 UNL     1      16.524 -10.278  56.287  1.00  0.00     0.154 C 
HETATM   38  C25 UNL     1      16.656 -11.530  54.157  1.00  0.00     0.154 C 
ATOM     39  H1  UNL     1      16.216  -7.745  55.859  1.00  0.00     0.164 HD
ENDBRANCH  13  33
TORSDOF 7
ENDMDL
MODEL 4
REMARK VINA RESULT: -8.087289760      1.979      3.925
REMARK  7 active torsions:
REMARK  status: ('A' for Active; 'I' for Inactive)
REMARK    1  A    between atoms: O1_2  and  C2_3 
REMARK    2  A    between atoms: C4_6  and  O3_7 
REMARK    3  A    between atoms: O3_7  and  C5_8 
REMARK    4  A    between atoms: C5_8  and  C7_10 
REMARK    5  A    between atoms: C10_13  and  O4_14 
REMARK    6  A    between atoms: O4_14  and  C11_15 
REMARK    7  A    between atoms: C22_27  and  N1_28 
REMARK       I    between atoms: N1_28  and  C23_30 
REMARK       I    between atoms: C23_30  and  N2_32 
ROOT
HETATM    1  C11 UNL     1      16.243  -4.490  56.755  1.00  0.00     0.117 A 
HETATM    2  C12 UNL     1      16.736  -5.535  56.016  1.00  0.00    -0.019 A 
HETATM    3  C13 UNL     1      16.315  -6.953  56.209  1.00  0.00     0.052 C 
HETATM    4  C14 UNL     1      17.706  -5.341  55.039  1.00  0.00    -0.046 A 
HETATM    5  C15 UNL     1      18.246  -6.456  54.219  1.00  0.00     0.049 C 
HETATM    6  C16 UNL     1      18.204  -4.039  54.801  1.00  0.00    -0.041 A 
HETATM    7  C17 UNL     1      17.735  -2.984  55.521  1.00  0.00     0.000 A 
HETATM    8  C18 UNL     1      16.746  -3.242  56.499  1.00  0.00     0.158 A 
HETATM    9  F1  UNL     1      16.332  -2.145  57.168  1.00  0.00    -0.203 F 
HETATM   10  C19 UNL     1      18.219  -1.629  55.317  1.00  0.00     0.004 C 
HETATM   11  C20 UNL     1      17.013  -0.734  55.048  1.00  0.00     0.022 C 
HETATM   12  C21 UNL     1      18.890  -1.021  56.528  1.00  0.00     0.022 C 
HETATM   13  C22 UNL     1      19.087  -1.519  54.101  1.00  0.00     0.099 C 
HETATM   14  C26 UNL     1      20.081  -2.698  54.123  1.00  0.00     0.031 C 
HETATM   15  C27 UNL     1      19.238  -3.895  53.748  1.00  0.00     0.042 C 
ENDROOT
BRANCH   1  16
HETATM   16  O4  UNL     1      15.282  -4.697  57.708  1.00  0.00    -0.312 OA
BRANCH  16  17
HETATM   17  C10 UNL     1      15.411  -4.549  59.097  1.00  0.00     0.322 C 
HETATM   18  C4  UNL     1      14.651  -3.424  59.723  1.00  0.00     0.315 C 
HETATM   19  O2  UNL     1      13.658  -4.038  60.519  1.00  0.00    -0.354 OA
HETATM   20  C3  UNL     1      12.549  -4.424  59.841  1.00  0.00     0.205 C 
HETATM   21  C2  UNL     1      12.695  -5.568  58.919  1.00  0.00     0.173 C 
HETATM   22  C28 UNL     1      13.949  -6.370  59.032  1.00  0.00     0.151 C 
HETATM   23  O6  UNL     1      15.011  -5.765  59.648  1.00  0.00    -0.348 OA
HETATM   24  C29 UNL     1      13.670  -7.757  59.570  1.00  0.00     0.042 C 
BRANCH  18  25
HETATM   25  O3  UNL     1      15.417  -2.721  60.693  1.00  0.00    -0.351 OA
BRANCH  25  26
HETATM   26  C5  UNL     1      15.339  -1.363  60.569  1.00  0.00     0.124 C 
HETATM   27  C6  UNL     1      14.985  -0.740  61.960  1.00  0.00     0.040 C 
BRANCH  26  28
HETATM   28  C7  UNL     1      16.668  -0.767  60.240  1.00  0.00     0.006 C 
HETATM   29  C8  UNL     1      17.739  -1.840  60.075  1.00  0.00     0.012 C 
HETATM   30  C9  UNL     1      17.103   0.202  61.288  1.00  0.00     0.012 C 
ENDBRANCH  26  28
ENDBRANCH  25  26
ENDBRANCH  18  25
BRANCH  21  31
HETATM   31  O1  UNL     1      12.444  -5.145  57.611  1.00  0.00    -0.386 OA
HETATM   32  C1  UNL     1      12.717  -6.079  56.647  1.00  0.00     0.202 C 
ENDBRANCH  21  31
ENDBRANCH  16  17
ENDBRANCH   1  16
BRANCH  13  33
HETATM   33  N1  UNL     1      19.834  -0.308  54.016  1.00  0.00    -0.337 N 
HETATM   34  C23 UNL     1      20.803  -0.156  52.988  1.00  0.00     0.317 C 
HETATM   35  O5  UNL     1      21.003  -1.097  52.146  1.00  0.00    -0.247 OA
HETATM   36  N2  UNL     1      21.598   1.010  52.818  1.00  0.00    -0.343 N 
HETATM   37  C24 UNL     1      21.416   2.108  53.741  1.00  0.00     0.154 C 
HETATM   38  C25 UNL     1      22.578   1.155  51.774  1.00  0.00     0.154 C 
ATOM     39  H1  UNL     1      19.675   0.444  54.688  1.00  0.00     0.164 HD
ENDBRANCH  13  33
TORSDOF 7
ENDMDL
MODEL 5
REMARK VINA RESULT: -8.027945039      5.063      9.078
REMARK  7 active torsions:
REMARK  status: ('A' for Active; 'I' for Inactive)
REMARK    1  A    between atoms: O1_2  and  C2_3 
REMARK    2  A    between atoms: C4_6  and  O3_7 
REMARK    3  A    between atoms: O3_7  and  C5_8 
REMARK    4  A    between atoms: C5_8  and  C7_10 
REMARK    5  A    between atoms: C10_13  and  O4_14 
REMARK    6  A    between atoms: O4_14  and  C11_15 
REMARK    7  A    between atoms: C22_27  and  N1_28 
REMARK       I    between atoms: N1_28  and  C23_30 
REMARK       I    between atoms: C23_30  and  N2_32 
ROOT
HETATM    1  C11 UNL     1      15.392  -2.756  59.570  1.00  0.00     0.117 A 
HETATM    2  C12 UNL     1      16.219  -1.688  59.806  1.00  0.00    -0.019 A 
HETATM    3  C13 UNL     1      17.261  -1.224  58.845  1.00  0.00     0.052 C 
HETATM    4  C14 UNL     1      16.163  -0.973  60.998  1.00  0.00    -0.046 A 
HETATM    5  C15 UNL     1      17.042   0.193  61.271  1.00  0.00     0.049 C 
HETATM    6  C16 UNL     1      15.235  -1.354  61.995  1.00  0.00    -0.041 A 
HETATM    7  C17 UNL     1      14.403  -2.411  61.789  1.00  0.00     0.000 A 
HETATM    8  C18 UNL     1      14.505  -3.098  60.556  1.00  0.00     0.158 A 
HETATM    9  F1  UNL     1      13.645  -4.131  60.429  1.00  0.00    -0.203 F 
HETATM   10  C19 UNL     1      13.439  -2.844  62.785  1.00  0.00     0.004 C 
HETATM   11  C20 UNL     1      12.063  -2.879  62.125  1.00  0.00     0.022 C 
HETATM   12  C21 UNL     1      13.660  -4.252  63.292  1.00  0.00     0.022 C 
HETATM   13  C22 UNL     1      13.322  -1.870  63.917  1.00  0.00     0.099 C 
HETATM   14  C26 UNL     1      14.750  -1.474  64.347  1.00  0.00     0.031 C 
HETATM   15  C27 UNL     1      15.223  -0.556  63.244  1.00  0.00     0.042 C 
ENDROOT
BRANCH   1  16
HETATM   16  O4  UNL     1      15.454  -3.443  58.389  1.00  0.00    -0.312 OA
BRANCH  16  17
HETATM   17  C10 UNL     1      14.845  -3.105  57.171  1.00  0.00     0.322 C 
HETATM   18  C4  UNL     1      15.742  -3.017  55.978  1.00  0.00     0.315 C 
HETATM   19  O2  UNL     1      15.361  -4.091  55.140  1.00  0.00    -0.354 OA
HETATM   20  C3  UNL     1      15.904  -5.287  55.474  1.00  0.00     0.205 C 
HETATM   21  C2  UNL     1      15.417  -5.919  56.717  1.00  0.00     0.173 C 
HETATM   22  C28 UNL     1      14.184  -5.340  57.329  1.00  0.00     0.151 C 
HETATM   23  O6  UNL     1      13.856  -4.064  56.959  1.00  0.00    -0.348 OA
HETATM   24  C29 UNL     1      13.017  -6.298  57.230  1.00  0.00     0.042 C 
BRANCH  18  25
HETATM   25  O3  UNL     1      15.456  -1.889  55.161  1.00  0.00    -0.351 OA
BRANCH  25  26
HETATM   26  C5  UNL     1      16.453  -1.589  54.277  1.00  0.00     0.124 C 
HETATM   27  C6  UNL     1      16.090  -0.267  53.523  1.00  0.00     0.040 C 
BRANCH  26  28
HETATM   28  C7  UNL     1      17.727  -1.258  54.982  1.00  0.00     0.006 C 
HETATM   29  C8  UNL     1      17.899   0.247  55.152  1.00  0.00     0.012 C 
HETATM   30  C9  UNL     1      18.908  -1.807  54.254  1.00  0.00     0.012 C 
ENDBRANCH  26  28
ENDBRANCH  25  26
ENDBRANCH  18  25
BRANCH  21  31
HETATM   31  O1  UNL     1      16.471  -6.023  57.629  1.00  0.00    -0.386 OA
HETATM   32  C1  UNL     1      17.718  -6.005  57.063  1.00  0.00     0.202 C 
ENDBRANCH  21  31
ENDBRANCH  16  17
ENDBRANCH   1  16
BRANCH  13  33
HETATM   33  N1  UNL     1      12.635  -2.372  65.061  1.00  0.00    -0.337 N 
HETATM   34  C23 UNL     1      11.471  -1.703  65.526  1.00  0.00     0.317 C 
HETATM   35  O5  UNL     1      11.042  -0.660  64.923  1.00  0.00    -0.247 OA
HETATM   36  N2  UNL     1      10.717  -2.123  66.655  1.00  0.00    -0.343 N 
HETATM   37  C24 UNL     1      11.155  -3.297  67.377  1.00  0.00     0.154 C 
HETATM   38  C25 UNL     1       9.539  -1.439  67.119  1.00  0.00     0.154 C 
ATOM     39  H1  UNL     1      12.977  -3.204  65.543  1.00  0.00     0.164 HD
ENDBRANCH  13  33
TORSDOF 7
ENDMDL
