MODEL 1
REMARK VINA RESULT: -8.631869022      0.000      0.000
REMARK  8 active torsions:
REMARK  status: ('A' for Active; 'I' for Inactive)
REMARK    1  A    between atoms: C3_5  and  N2_6 
REMARK    2  A    between atoms: N2_6  and  C4_8 
REMARK    3  A    between atoms: C9_14  and  C10_15 
REMARK    4  A    between atoms: C10_15  and  N3_16 
REMARK    5  A    between atoms: N3_16  and  C12_18 
REMARK    6  A    between atoms: C17_23  and  N4_24 
REMARK    7  A    between atoms: C19_26  and  C20_27 
REMARK    8  A    between atoms: C20_27  and  N5_28 
ROOT
HETATM    1  C1  UNL     1      14.731   0.211  51.224  1.00  0.00     0.089 C 
HETATM    2  C2  UNL     1      14.979  -0.965  52.112  1.00  0.00     0.079 A 
HETATM    3  N1  UNL     1      15.811  -0.842  53.157  1.00  0.00    -0.332 N 
ATOM      4  H1  UNL     1      16.257   0.061  53.318  1.00  0.00     0.168 HD
HETATM    5  C3  UNL     1      16.086  -1.848  54.000  1.00  0.00     0.119 A 
HETATM    6  C15 UNL     1      15.477  -3.073  53.780  1.00  0.00     0.037 A 
HETATM    7  C16 UNL     1      15.736  -4.126  54.623  1.00  0.00     0.049 A 
HETATM    8  C17 UNL     1      15.133  -5.349  54.410  1.00  0.00     0.057 A 
HETATM    9  C25 UNL     1      14.283  -5.450  53.333  1.00  0.00     0.034 A 
HETATM   10  C26 UNL     1      14.001  -4.421  52.468  1.00  0.00     0.033 A 
HETATM   11  C27 UNL     1      14.624  -3.197  52.709  1.00  0.00     0.047 A 
HETATM   12  N7  UNL     1      14.392  -2.153  51.902  1.00  0.00    -0.345 N 
ATOM     13  H7  UNL     1      13.756  -2.263  51.112  1.00  0.00     0.167 HD
ENDROOT
BRANCH   5  14
HETATM   14  N2  UNL     1      16.897  -1.670  54.989  1.00  0.00    -0.341 N 
ATOM     15  H2  UNL     1      16.688  -2.080  55.899  1.00  0.00     0.167 HD
BRANCH  14  16
HETATM   16  C4  UNL     1      18.078  -0.904  54.809  1.00  0.00     0.041 A 
HETATM   17  C5  UNL     1      18.115   0.423  55.146  1.00  0.00     0.031 A 
HETATM   18  C6  UNL     1      19.283   1.146  54.959  1.00  0.00     0.021 A 
HETATM   19  C7  UNL     1      20.399   0.529  54.435  1.00  0.00     0.011 A 
HETATM   20 BR1  UNL     1      21.982   1.567  54.195  1.00  0.00    -0.051 Br
HETATM   21  C8  UNL     1      20.382  -0.828  54.083  1.00  0.00     0.030 A 
HETATM   22  C9  UNL     1      19.220  -1.517  54.278  1.00  0.00    -0.002 A 
BRANCH  22  23
HETATM   23  C10 UNL     1      19.105  -2.942  53.967  1.00  0.00     0.313 C 
BRANCH  23  24
HETATM   24  N3  UNL     1      19.715  -3.810  54.900  1.00  0.00     0.092 N 
HETATM   25  C11 UNL     1      20.767  -4.636  54.342  1.00  0.00     0.310 C 
BRANCH  24  26
HETATM   26  C12 UNL     1      18.828  -4.648  55.637  1.00  0.00     0.215 C 
HETATM   27  C13 UNL     1      19.541  -5.991  55.838  1.00  0.00     0.042 C 
HETATM   28  C14 UNL     1      18.517  -4.129  57.020  1.00  0.00     0.042 C 
ENDBRANCH  24  26
ENDBRANCH  23  24
ENDBRANCH  22  23
ENDBRANCH  14  16
ENDBRANCH   5  14
BRANCH   8  29
HETATM   29  N4  UNL     1      15.382  -6.452  55.267  1.00  0.00    -0.267 N 
HETATM   30  C18 UNL     1      15.574  -7.738  54.855  1.00  0.00     0.127 A 
HETATM   31  C19 UNL     1      15.787  -8.544  55.938  1.00  0.00     0.000 A 
HETATM   32  C23 UNL     1      15.718  -7.702  57.034  1.00  0.00     0.032 A 
HETATM   33  C24 UNL     1      15.892  -8.138  58.460  1.00  0.00     0.070 C 
HETATM   34  N6  UNL     1      15.476  -6.473  56.585  1.00  0.00    -0.298 N 
ATOM     35  H6  UNL     1      15.377  -5.651  57.181  1.00  0.00     0.187 HD
BRANCH  31  36
HETATM   36  C20 UNL     1      16.042  -9.997  55.905  1.00  0.00     0.158 C 
BRANCH  36  37
HETATM   37  N5  UNL     1      15.601 -10.669  54.732  1.00  0.00    -0.417 N 
HETATM   38  C21 UNL     1      14.431 -11.477  54.860  1.00  0.00     0.142 C 
HETATM   39  C22 UNL     1      16.643 -11.277  53.968  1.00  0.00     0.142 C 
ENDBRANCH  36  37
ENDBRANCH  31  36
ENDBRANCH   8  29
TORSDOF 8
ENDMDL
MODEL 2
REMARK VINA RESULT: -8.454974795      5.081      8.713
REMARK  8 active torsions:
REMARK  status: ('A' for Active; 'I' for Inactive)
REMARK    1  A    between atoms: C3_5  and  N2_6 
REMARK    2  A    between atoms: N2_6  and  C4_8 
REMARK    3  A    between atoms: C9_14  and  C10_15 
REMARK    4  A    between atoms: C10_15  and  N3_16 
REMARK    5  A    between atoms: N3_16  and  C12_18 
REMARK    6  A    between atoms: C17_23  and  N4_24 
REMARK    7  A    between atoms: C19_26  and  C20_27 
REMARK    8  A    between atoms: C20_27  and  N5_28 
ROOT
HETATM    1  C1  UNL     1      12.889  -2.698  59.962  1.00  0.00     0.089 C 
HETATM    2  C2  UNL     1      14.132  -2.392  59.192  1.00  0.00     0.079 A 
HETATM    3  N1  UNL     1      15.198  -1.886  59.828  1.00  0.00    -0.332 N 
ATOM      4  H1  UNL     1      15.131  -1.722  60.833  1.00  0.00     0.168 HD
HETATM    5  C3  UNL     1      16.349  -1.585  59.210  1.00  0.00     0.119 A 
HETATM    6  C15 UNL     1      16.439  -1.810  57.846  1.00  0.00     0.037 A 
HETATM    7  C16 UNL     1      17.603  -1.513  57.180  1.00  0.00     0.049 A 
HETATM    8  C17 UNL     1      17.699  -1.735  55.821  1.00  0.00     0.057 A 
HETATM    9  C25 UNL     1      16.593  -2.254  55.190  1.00  0.00     0.034 A 
HETATM   10  C26 UNL     1      15.413  -2.563  55.822  1.00  0.00     0.033 A 
HETATM   11  C27 UNL     1      15.345  -2.328  57.195  1.00  0.00     0.047 A 
HETATM   12  N7  UNL     1      14.222  -2.608  57.871  1.00  0.00    -0.345 N 
ATOM     13  H7  UNL     1      13.420  -2.992  57.371  1.00  0.00     0.167 HD
ENDROOT
BRANCH   5  14
HETATM   14  N2  UNL     1      17.342  -1.099  59.877  1.00  0.00    -0.341 N 
ATOM     15  H2  UNL     1      17.567  -0.107  59.805  1.00  0.00     0.167 HD
BRANCH  14  16
HETATM   16  C4  UNL     1      18.120  -1.945  60.709  1.00  0.00     0.041 A 
HETATM   17  C5  UNL     1      18.960  -2.885  60.170  1.00  0.00     0.031 A 
HETATM   18  C6  UNL     1      19.707  -3.698  61.009  1.00  0.00     0.021 A 
HETATM   19  C7  UNL     1      19.605  -3.558  62.376  1.00  0.00     0.011 A 
HETATM   20 BR1  UNL     1      20.654  -4.701  63.487  1.00  0.00    -0.051 Br
HETATM   21  C8  UNL     1      18.752  -2.603  62.947  1.00  0.00     0.030 A 
HETATM   22  C9  UNL     1      18.027  -1.815  62.101  1.00  0.00    -0.002 A 
BRANCH  22  23
HETATM   23  C10 UNL     1      17.129  -0.771  62.594  1.00  0.00     0.313 C 
BRANCH  23  24
HETATM   24  N3  UNL     1      16.085  -1.225  63.431  1.00  0.00     0.092 N 
HETATM   25  C11 UNL     1      15.486  -2.475  63.009  1.00  0.00     0.310 C 
BRANCH  24  26
HETATM   26  C12 UNL     1      15.041  -0.287  63.681  1.00  0.00     0.215 C 
HETATM   27  C13 UNL     1      15.491   1.055  63.090  1.00  0.00     0.042 C 
HETATM   28  C14 UNL     1      13.742  -0.631  62.995  1.00  0.00     0.042 C 
ENDBRANCH  24  26
ENDBRANCH  23  24
ENDBRANCH  22  23
ENDBRANCH  14  16
ENDBRANCH   5  14
BRANCH   8  29
HETATM   29  N4  UNL     1      18.890  -1.438  55.109  1.00  0.00    -0.267 N 
HETATM   30  C18 UNL     1      19.561  -0.252  55.161  1.00  0.00     0.127 A 
HETATM   31  C19 UNL     1      20.663  -0.307  54.355  1.00  0.00     0.000 A 
HETATM   32  C23 UNL     1      20.644  -1.576  53.804  1.00  0.00     0.032 A 
HETATM   33  C24 UNL     1      21.668  -2.108  52.843  1.00  0.00     0.070 C 
HETATM   34  N6  UNL     1      19.575  -2.208  54.281  1.00  0.00    -0.298 N 
ATOM     35  H6  UNL     1      19.316  -3.165  54.040  1.00  0.00     0.187 HD
BRANCH  31  36
HETATM   36  C20 UNL     1      21.646   0.775  54.149  1.00  0.00     0.158 C 
BRANCH  36  37
HETATM   37  N5  UNL     1      21.646   1.363  52.855  1.00  0.00    -0.417 N 
HETATM   38  C21 UNL     1      22.918   1.535  52.231  1.00  0.00     0.142 C 
HETATM   39  C22 UNL     1      20.776   2.486  52.712  1.00  0.00     0.142 C 
ENDBRANCH  36  37
ENDBRANCH  31  36
ENDBRANCH   8  29
TORSDOF 8
ENDMDL
MODEL 3
REMARK VINA RESULT: -8.339527301      3.650      6.786
REMARK  8 active torsions:
REMARK  status: ('A' for Active; 'I' for Inactive)
REMARK    1  A    between atoms: C3_5  and  N2_6 
REMARK    2  A    between atoms: N2_6  and  C4_8 
REMARK    3  A    between atoms: C9_14  and  C10_15 
REMARK    4  A    between atoms: C10_15  and  N3_16 
REMARK    5  A    between atoms: N3_16  and  C12_18 
REMARK    6  A    between atoms: C17_23  and  N4_24 
REMARK    7  A    between atoms: C19_26  and  C20_27 
REMARK    8  A    between atoms: C20_27  and  N5_28 
ROOT
HETATM    1  C1  UNL     1      16.284  -8.314  53.630  1.00  0.00     0.089 C 
HETATM    2  C2  UNL     1      16.555  -7.247  54.641  1.00  0.00     0.079 A 
HETATM    3  N1  UNL     1      17.151  -6.109  54.259  1.00  0.00    -0.332 N 
ATOM      4  H1  UNL     1      17.407  -6.001  53.277  1.00  0.00     0.168 HD
HETATM    5  C3  UNL     1      17.428  -5.104  55.103  1.00  0.00     0.119 A 
HETATM    6  C15 UNL     1      17.079  -5.253  56.435  1.00  0.00     0.037 A 
HETATM    7  C16 UNL     1      17.348  -4.245  57.329  1.00  0.00     0.049 A 
HETATM    8  C17 UNL     1      17.003  -4.386  58.657  1.00  0.00     0.057 A 
HETATM    9  C25 UNL     1      16.392  -5.561  59.026  1.00  0.00     0.034 A 
HETATM   10  C26 UNL     1      16.107  -6.592  58.162  1.00  0.00     0.033 A 
HETATM   11  C27 UNL     1      16.467  -6.421  56.825  1.00  0.00     0.047 A 
HETATM   12  N7  UNL     1      16.218  -7.388  55.932  1.00  0.00    -0.345 N 
ATOM     13  H7  UNL     1      15.764  -8.247  56.239  1.00  0.00     0.167 HD
ENDROOT
BRANCH   5  14
HETATM   14  N2  UNL     1      18.005  -4.032  54.676  1.00  0.00    -0.341 N 
ATOM     15  H2  UNL     1      19.016  -3.929  54.761  1.00  0.00     0.167 HD
BRANCH  14  16
HETATM   16  C4  UNL     1      17.234  -2.996  54.089  1.00  0.00     0.041 A 
HETATM   17  C5  UNL     1      16.074  -3.276  53.415  1.00  0.00     0.031 A 
HETATM   18  C6  UNL     1      15.341  -2.244  52.851  1.00  0.00     0.021 A 
HETATM   19  C7  UNL     1      15.779  -0.942  52.970  1.00  0.00     0.011 A 
HETATM   20 BR1  UNL     1      14.736   0.444  52.175  1.00  0.00    -0.051 Br
HETATM   21  C8  UNL     1      16.963  -0.634  53.655  1.00  0.00     0.030 A 
HETATM   22  C9  UNL     1      17.666  -1.668  54.201  1.00  0.00    -0.002 A 
BRANCH  22  23
HETATM   23  C10 UNL     1      18.899  -1.451  54.956  1.00  0.00     0.313 C 
BRANCH  23  24
HETATM   24  N3  UNL     1      19.775  -0.485  54.412  1.00  0.00     0.092 N 
HETATM   25  C11 UNL     1      20.908  -1.043  53.703  1.00  0.00     0.310 C 
BRANCH  24  26
HETATM   26  C12 UNL     1      20.255   0.499  55.325  1.00  0.00     0.215 C 
HETATM   27  C13 UNL     1      21.750   0.685  55.041  1.00  0.00     0.042 C 
HETATM   28  C14 UNL     1      19.622   1.856  55.138  1.00  0.00     0.042 C 
ENDBRANCH  24  26
ENDBRANCH  23  24
ENDBRANCH  22  23
ENDBRANCH  14  16
ENDBRANCH   5  14
BRANCH   8  29
HETATM   29  N4  UNL     1      17.268  -3.359  59.601  1.00  0.00    -0.267 N 
HETATM   30  C18 UNL     1      18.058  -3.493  60.704  1.00  0.00     0.127 A 
HETATM   31  C19 UNL     1      18.095  -2.313  61.392  1.00  0.00     0.000 A 
HETATM   32  C23 UNL     1      17.298  -1.446  60.666  1.00  0.00     0.032 A 
HETATM   33  C24 UNL     1      17.033  -0.014  61.034  1.00  0.00     0.070 C 
HETATM   34  N6  UNL     1      16.830  -2.112  59.613  1.00  0.00    -0.298 N 
ATOM     35  H6  UNL     1      16.213  -1.712  58.907  1.00  0.00     0.187 HD
BRANCH  31  36
HETATM   36  C20 UNL     1      18.847  -2.053  62.635  1.00  0.00     0.158 C 
BRANCH  36  37
HETATM   37  N5  UNL     1      19.244  -3.208  63.363  1.00  0.00    -0.417 N 
HETATM   38  C21 UNL     1      18.813  -3.288  64.721  1.00  0.00     0.142 C 
HETATM   39  C22 UNL     1      20.603  -3.599  63.163  1.00  0.00     0.142 C 
ENDBRANCH  36  37
ENDBRANCH  31  36
ENDBRANCH   8  29
TORSDOF 8
ENDMDL
MODEL 4
REMARK VINA RESULT: -8.330653313      1.327      1.669
REMARK  8 active torsions:
REMARK  status: ('A' for Active; 'I' for Inactive)
REMARK    1  A    between atoms: C3_5  and  N2_6 
REMARK    2  A    between atoms: N2_6  and  C4_8 
REMARK    3  A    between atoms: C9_14  and  C10_15 
REMARK    4  A    between atoms: C10_15  and  N3_16 
REMARK    5  A    between atoms: N3_16  and  C12_18 
REMARK    6  A    between atoms: C17_23  and  N4_24 
REMARK    7  A    between atoms: C19_26  and  C20_27 
REMARK    8  A    between atoms: C20_27  and  N5_28 
ROOT
HETATM    1  C1  UNL     1      14.763  -0.071  51.088  1.00  0.00     0.089 C 
HETATM    2  C2  UNL     1      14.954  -1.178  52.072  1.00  0.00     0.079 A 
HETATM    3  N1  UNL     1      15.791  -1.009  53.106  1.00  0.00    -0.332 N 
ATOM      4  H1  UNL     1      16.281  -0.118  53.193  1.00  0.00     0.168 HD
HETATM    5  C3  UNL     1      16.017  -1.952  54.032  1.00  0.00     0.119 A 
HETATM    6  C15 UNL     1      15.350  -3.161  53.912  1.00  0.00     0.037 A 
HETATM    7  C16 UNL     1      15.558  -4.151  54.842  1.00  0.00     0.049 A 
HETATM    8  C17 UNL     1      14.897  -5.357  54.729  1.00  0.00     0.057 A 
HETATM    9  C25 UNL     1      14.043  -5.507  53.662  1.00  0.00     0.034 A 
HETATM   10  C26 UNL     1      13.811  -4.542  52.712  1.00  0.00     0.033 A 
HETATM   11  C27 UNL     1      14.492  -3.333  52.852  1.00  0.00     0.047 A 
HETATM   12  N7  UNL     1      14.310  -2.350  51.960  1.00  0.00    -0.345 N 
ATOM     13  H7  UNL     1      13.670  -2.496  51.179  1.00  0.00     0.167 HD
ENDROOT
BRANCH   5  14
HETATM   14  N2  UNL     1      16.836  -1.731  55.005  1.00  0.00    -0.341 N 
ATOM     15  H2  UNL     1      16.637  -2.104  55.933  1.00  0.00     0.167 HD
BRANCH  14  16
HETATM   16  C4  UNL     1      18.013  -0.970  54.783  1.00  0.00     0.041 A 
HETATM   17  C5  UNL     1      18.057   0.365  55.090  1.00  0.00     0.031 A 
HETATM   18  C6  UNL     1      19.221   1.083  54.862  1.00  0.00     0.021 A 
HETATM   19  C7  UNL     1      20.326   0.454  54.330  1.00  0.00     0.011 A 
HETATM   20 BR1  UNL     1      21.904   1.486  54.033  1.00  0.00    -0.051 Br
HETATM   21  C8  UNL     1      20.301  -0.911  54.008  1.00  0.00     0.030 A 
HETATM   22  C9  UNL     1      19.144  -1.595  54.242  1.00  0.00    -0.002 A 
BRANCH  22  23
HETATM   23  C10 UNL     1      19.022  -3.026  53.966  1.00  0.00     0.313 C 
BRANCH  23  24
HETATM   24  N3  UNL     1      19.682  -3.873  54.885  1.00  0.00     0.092 N 
HETATM   25  C11 UNL     1      20.763  -4.646  54.309  1.00  0.00     0.310 C 
BRANCH  24  26
HETATM   26  C12 UNL     1      18.843  -4.754  55.627  1.00  0.00     0.215 C 
HETATM   27  C13 UNL     1      19.624  -6.059  55.824  1.00  0.00     0.042 C 
HETATM   28  C14 UNL     1      18.512  -4.251  57.010  1.00  0.00     0.042 C 
ENDBRANCH  24  26
ENDBRANCH  23  24
ENDBRANCH  22  23
ENDBRANCH  14  16
ENDBRANCH   5  14
BRANCH   8  29
HETATM   29  N4  UNL     1      15.092  -6.395  55.677  1.00  0.00    -0.267 N 
HETATM   30  C18 UNL     1      14.179  -6.787  56.611  1.00  0.00     0.127 A 
HETATM   31  C19 UNL     1      14.691  -7.810  57.358  1.00  0.00     0.000 A 
HETATM   32  C23 UNL     1      15.956  -8.033  56.845  1.00  0.00     0.032 A 
HETATM   33  C24 UNL     1      16.913  -9.075  57.349  1.00  0.00     0.070 C 
HETATM   34  N6  UNL     1      16.148  -7.170  55.850  1.00  0.00    -0.298 N 
ATOM     35  H6  UNL     1      17.000  -7.114  55.293  1.00  0.00     0.187 HD
BRANCH  31  36
HETATM   36  C20 UNL     1      14.006  -8.509  58.463  1.00  0.00     0.158 C 
BRANCH  36  37
HETATM   37  N5  UNL     1      13.169  -9.592  58.076  1.00  0.00    -0.417 N 
HETATM   38  C21 UNL     1      11.805  -9.525  58.490  1.00  0.00     0.142 C 
HETATM   39  C22 UNL     1      13.758 -10.883  58.233  1.00  0.00     0.142 C 
ENDBRANCH  36  37
ENDBRANCH  31  36
ENDBRANCH   8  29
TORSDOF 8
ENDMDL
MODEL 5
REMARK VINA RESULT: -8.320073761      3.762      5.657
REMARK  8 active torsions:
REMARK  status: ('A' for Active; 'I' for Inactive)
REMARK    1  A    between atoms: C3_5  and  N2_6 
REMARK    2  A    between atoms: N2_6  and  C4_8 
REMARK    3  A    between atoms: C9_14  and  C10_15 
REMARK    4  A    between atoms: C10_15  and  N3_16 
REMARK    5  A    between atoms: N3_16  and  C12_18 
REMARK    6  A    between atoms: C17_23  and  N4_24 
REMARK    7  A    between atoms: C19_26  and  C20_27 
REMARK    8  A    between atoms: C20_27  and  N5_28 
ROOT
HETATM    1  C1  UNL     1      19.650   0.380  55.439  1.00  0.00     0.089 C 
HETATM    2  C2  UNL     1      19.135  -1.020  55.511  1.00  0.00     0.079 A 
HETATM    3  N1  UNL     1      18.518  -1.443  56.624  1.00  0.00    -0.332 N 
ATOM      4  H1  UNL     1      18.416  -0.789  57.400  1.00  0.00     0.168 HD
HETATM    5  C3  UNL     1      18.028  -2.683  56.768  1.00  0.00     0.119 A 
HETATM    6  C15 UNL     1      18.167  -3.569  55.712  1.00  0.00     0.037 A 
HETATM    7  C16 UNL     1      17.677  -4.847  55.824  1.00  0.00     0.049 A 
HETATM    8  C17 UNL     1      17.811  -5.735  54.776  1.00  0.00     0.057 A 
HETATM    9  C25 UNL     1      18.447  -5.279  53.645  1.00  0.00     0.034 A 
HETATM   10  C26 UNL     1      18.950  -4.009  53.496  1.00  0.00     0.033 A 
HETATM   11  C27 UNL     1      18.799  -3.134  54.571  1.00  0.00     0.047 A 
HETATM   12  N7  UNL     1      19.267  -1.881  54.491  1.00  0.00    -0.345 N 
ATOM     13  H7  UNL     1      19.734  -1.576  53.636  1.00  0.00     0.167 HD
ENDROOT
BRANCH   5  14
HETATM   14  N2  UNL     1      17.444  -3.032  57.864  1.00  0.00    -0.341 N 
ATOM     15  H2  UNL     1      16.431  -3.145  57.889  1.00  0.00     0.167 HD
BRANCH  14  16
HETATM   16  C4  UNL     1      18.211  -3.261  59.036  1.00  0.00     0.041 A 
HETATM   17  C5  UNL     1      19.122  -4.283  59.093  1.00  0.00     0.031 A 
HETATM   18  C6  UNL     1      19.858  -4.483  60.252  1.00  0.00     0.021 A 
HETATM   19  C7  UNL     1      19.671  -3.655  61.337  1.00  0.00     0.011 A 
HETATM   20 BR1  UNL     1      20.707  -3.971  62.909  1.00  0.00    -0.051 Br
HETATM   21  C8  UNL     1      18.745  -2.603  61.300  1.00  0.00     0.030 A 
HETATM   22  C9  UNL     1      18.033  -2.427  60.148  1.00  0.00    -0.002 A 
BRANCH  22  23
HETATM   23  C10 UNL     1      17.061  -1.346  59.996  1.00  0.00     0.313 C 
BRANCH  23  24
HETATM   24  N3  UNL     1      16.012  -1.345  60.942  1.00  0.00     0.092 N 
HETATM   25  C11 UNL     1      14.724  -1.731  60.401  1.00  0.00     0.310 C 
BRANCH  24  26
HETATM   26  C12 UNL     1      15.846  -0.138  61.682  1.00  0.00     0.215 C 
HETATM   27  C13 UNL     1      15.441  -0.535  63.107  1.00  0.00     0.042 C 
HETATM   28  C14 UNL     1      17.116   0.666  61.817  1.00  0.00     0.042 C 
ENDBRANCH  24  26
ENDBRANCH  23  24
ENDBRANCH  22  23
ENDBRANCH  14  16
ENDBRANCH   5  14
BRANCH   8  29
HETATM   29  N4  UNL     1      17.314  -7.061  54.865  1.00  0.00    -0.267 N 
HETATM   30  C18 UNL     1      16.622  -7.570  55.924  1.00  0.00     0.127 A 
HETATM   31  C19 UNL     1      16.295  -8.874  55.680  1.00  0.00     0.000 A 
HETATM   32  C23 UNL     1      16.813  -9.148  54.427  1.00  0.00     0.032 A 
HETATM   33  C24 UNL     1      16.702 -10.471  53.725  1.00  0.00     0.070 C 
HETATM   34  N6  UNL     1      17.407  -8.042  53.985  1.00  0.00    -0.298 N 
ATOM     35  H6  UNL     1      17.875  -7.962  53.082  1.00  0.00     0.187 HD
BRANCH  31  36
HETATM   36  C20 UNL     1      15.540  -9.766  56.583  1.00  0.00     0.158 C 
BRANCH  36  37
HETATM   37  N5  UNL     1      16.325 -10.510  57.505  1.00  0.00    -0.417 N 
HETATM   38  C21 UNL     1      16.278 -11.931  57.383  1.00  0.00     0.142 C 
HETATM   39  C22 UNL     1      16.263 -10.043  58.852  1.00  0.00     0.142 C 
ENDBRANCH  36  37
ENDBRANCH  31  36
ENDBRANCH   8  29
TORSDOF 8
ENDMDL
