MODEL 1
REMARK VINA RESULT: -10.186471726      0.000      0.000
REMARK  7 active torsions:
REMARK  status: ('A' for Active; 'I' for Inactive)
REMARK    1  A    between atoms: C3_3  and  C4_4 
REMARK    2  A    between atoms: C4_4  and  C5_5 
REMARK       I    between atoms: C5_5  and  N1_7 
REMARK    3  A    between atoms: N1_7  and  C6_9 
REMARK    4  A    between atoms: C6_9  and  C7_10 
REMARK    5  A    between atoms: C18_23  and  C19_24 
REMARK    6  A    between atoms: N4_33  and  C26_34 
REMARK    7  A    between atoms: C28_36  and  C29_37 
ROOT
HETATM    1  C7  UNL     1      14.160  -1.807  60.582  1.00  0.00    -0.036 A 
HETATM    2  C8  UNL     1      14.345  -0.872  61.601  1.00  0.00     0.051 A 
HETATM    3  C9  UNL     1      15.584  -0.338  61.874  1.00  0.00     0.118 A 
HETATM    4  F1  UNL     1      15.771   0.571  62.862  1.00  0.00    -0.206 F 
HETATM    5  C10 UNL     1      16.698  -0.718  61.135  1.00  0.00     0.065 A 
HETATM    6  C11 UNL     1      16.489  -1.643  60.135  1.00  0.00     0.048 A 
HETATM    7  C12 UNL     1      17.612  -2.067  59.343  1.00  0.00     0.099 C 
HETATM    8  N2  UNL     1      18.512  -2.426  58.690  1.00  0.00    -0.191 NA
HETATM    9  C13 UNL     1      15.248  -2.193  59.844  1.00  0.00     0.031 A 
ENDROOT
BRANCH   1  10
HETATM   10  C6  UNL     1      12.787  -2.342  60.337  1.00  0.00     0.161 C 
BRANCH  10  11
HETATM   11  N1  UNL     1      12.779  -3.525  59.514  1.00  0.00    -0.357 N 
HETATM   12  C5  UNL     1      12.231  -4.775  59.892  1.00  0.00     0.221 C 
HETATM   13  O1  UNL     1      11.704  -4.886  61.028  1.00  0.00    -0.273 OA
ATOM     14  H1  UNL     1      13.201  -3.457  58.588  1.00  0.00     0.162 HD
BRANCH  12  15
HETATM   15  C4  UNL     1      12.300  -5.906  58.932  1.00  0.00     0.137 C 
BRANCH  15  16
HETATM   16  C3  UNL     1      13.632  -6.034  58.314  1.00  0.00    -0.065 C 
HETATM   17  C2  UNL     1      13.817  -5.871  57.012  1.00  0.00    -0.053 C 
HETATM   18  C1  UNL     1      12.683  -5.559  56.144  1.00  0.00     0.049 C 
HETATM   19  C17 UNL     1      15.180  -5.986  56.411  1.00  0.00    -0.051 C 
HETATM   20  C16 UNL     1      16.115  -6.903  57.054  1.00  0.00     0.039 C 
HETATM   21  C18 UNL     1      15.418  -5.280  55.333  1.00  0.00     0.021 C 
HETATM   22  C15 UNL     1      15.692  -7.381  58.428  1.00  0.00     0.009 C 
HETATM   23  C14 UNL     1      14.816  -6.374  59.155  1.00  0.00     0.035 C 
BRANCH  21  24
HETATM   24  C19 UNL     1      16.682  -5.262  54.616  1.00  0.00    -0.013 A 
HETATM   25  C20 UNL     1      17.101  -6.300  53.818  1.00  0.00     0.099 A 
HETATM   26  N3  UNL     1      18.259  -6.241  53.153  1.00  0.00    -0.374 N 
HETATM   27  C21 UNL     1      19.057  -5.181  53.234  1.00  0.00     0.097 A 
ATOM     28  H3  UNL     1      18.538  -7.029  52.568  1.00  0.00     0.164 HD
HETATM   29  C22 UNL     1      18.692  -4.086  54.031  1.00  0.00    -0.018 A 
HETATM   30  C23 UNL     1      17.518  -4.143  54.705  1.00  0.00    -0.036 A 
HETATM   31  C33 UNL     1      19.619  -2.928  54.102  1.00  0.00     0.165 C 
HETATM   32  C24 UNL     1      17.067  -3.038  55.554  1.00  0.00     0.060 C 
HETATM   33  C25 UNL     1      17.596  -1.703  55.101  1.00  0.00     0.129 C 
HETATM   34  N4  UNL     1      18.898  -1.762  54.528  1.00  0.00    -0.363 N 
BRANCH  34  35
HETATM   35  C26 UNL     1      19.580  -0.498  54.353  1.00  0.00     0.103 A 
HETATM   36  C27 UNL     1      20.754  -0.404  53.640  1.00  0.00     0.056 A 
HETATM   37  C28 UNL     1      21.416   0.804  53.458  1.00  0.00    -0.040 A 
HETATM   38  C31 UNL     1      20.888   1.951  54.007  1.00  0.00     0.025 A 
HETATM   39  C32 UNL     1      19.714   1.842  54.718  1.00  0.00     0.090 A 
HETATM   40  N6  UNL     1      19.107   0.653  54.869  1.00  0.00    -0.352 N 
ATOM     41  H6  UNL     1      18.239   0.620  55.404  1.00  0.00     0.166 HD
BRANCH  37  42
HETATM   42  C29 UNL     1      22.681   0.848  52.678  1.00  0.00     0.162 C 
HETATM   43  C30 UNL     1      22.523   1.644  51.474  1.00  0.00     0.063 C 
HETATM   44  N5  UNL     1      22.405   2.297  50.520  1.00  0.00    -0.197 NA
ENDBRANCH  37  42
ENDBRANCH  34  35
ENDBRANCH  21  24
ENDBRANCH  15  16
ENDBRANCH  12  15
ENDBRANCH  10  11
ENDBRANCH   1  10
TORSDOF 7
ENDMDL
MODEL 2
REMARK VINA RESULT: -10.176737820      3.946      9.609
REMARK  7 active torsions:
REMARK  status: ('A' for Active; 'I' for Inactive)
REMARK    1  A    between atoms: C3_3  and  C4_4 
REMARK    2  A    between atoms: C4_4  and  C5_5 
REMARK       I    between atoms: C5_5  and  N1_7 
REMARK    3  A    between atoms: N1_7  and  C6_9 
REMARK    4  A    between atoms: C6_9  and  C7_10 
REMARK    5  A    between atoms: C18_23  and  C19_24 
REMARK    6  A    between atoms: N4_33  and  C26_34 
REMARK    7  A    between atoms: C28_36  and  C29_37 
ROOT
HETATM    1  C7  UNL     1      20.109  -0.950  53.585  1.00  0.00    -0.036 A 
HETATM    2  C8  UNL     1      19.485   0.020  54.369  1.00  0.00     0.051 A 
HETATM    3  C9  UNL     1      19.920   1.326  54.383  1.00  0.00     0.118 A 
HETATM    4  F1  UNL     1      19.318   2.273  55.142  1.00  0.00    -0.206 F 
HETATM    5  C10 UNL     1      21.004   1.719  53.607  1.00  0.00     0.065 A 
HETATM    6  C11 UNL     1      21.603   0.744  52.842  1.00  0.00     0.048 A 
HETATM    7  C12 UNL     1      22.728   1.103  52.023  1.00  0.00     0.099 C 
HETATM    8  N2  UNL     1      23.646   1.375  51.352  1.00  0.00    -0.191 NA
HETATM    9  C13 UNL     1      21.180  -0.579  52.814  1.00  0.00     0.031 A 
ENDROOT
BRANCH   1  10
HETATM   10  C6  UNL     1      19.583  -2.348  53.614  1.00  0.00     0.161 C 
BRANCH  10  11
HETATM   11  N1  UNL     1      18.151  -2.412  53.766  1.00  0.00    -0.357 N 
HETATM   12  C5  UNL     1      17.380  -3.597  53.712  1.00  0.00     0.221 C 
HETATM   13  O1  UNL     1      17.966  -4.693  53.519  1.00  0.00    -0.273 OA
ATOM     14  H1  UNL     1      17.655  -1.535  53.924  1.00  0.00     0.162 HD
BRANCH  12  15
HETATM   15  C4  UNL     1      15.907  -3.502  53.885  1.00  0.00     0.137 C 
BRANCH  15  16
HETATM   16  C3  UNL     1      15.491  -3.767  55.274  1.00  0.00    -0.065 C 
HETATM   17  C2  UNL     1      15.480  -2.813  56.194  1.00  0.00    -0.053 C 
HETATM   18  C1  UNL     1      15.892  -1.454  55.846  1.00  0.00     0.049 C 
HETATM   19  C17 UNL     1      15.035  -3.100  57.592  1.00  0.00    -0.051 C 
HETATM   20  C16 UNL     1      15.279  -4.444  58.104  1.00  0.00     0.039 C 
HETATM   21  C18 UNL     1      14.493  -2.112  58.260  1.00  0.00     0.021 C 
HETATM   22  C15 UNL     1      15.663  -5.464  57.052  1.00  0.00     0.009 C 
HETATM   23  C14 UNL     1      15.085  -5.142  55.684  1.00  0.00     0.035 C 
BRANCH  21  24
HETATM   24  C19 UNL     1      13.998  -2.206  59.623  1.00  0.00    -0.013 A 
HETATM   25  C20 UNL     1      12.661  -2.314  59.925  1.00  0.00     0.099 A 
HETATM   26  N3  UNL     1      12.242  -2.424  61.190  1.00  0.00    -0.374 N 
HETATM   27  C21 UNL     1      13.094  -2.430  62.210  1.00  0.00     0.097 A 
ATOM     28  H3  UNL     1      11.242  -2.504  61.377  1.00  0.00     0.164 HD
HETATM   29  C22 UNL     1      14.473  -2.322  61.974  1.00  0.00    -0.018 A 
HETATM   30  C23 UNL     1      14.900  -2.213  60.693  1.00  0.00    -0.036 A 
HETATM   31  C33 UNL     1      15.387  -2.321  63.143  1.00  0.00     0.165 C 
HETATM   32  C24 UNL     1      16.324  -2.100  60.367  1.00  0.00     0.060 C 
HETATM   33  C25 UNL     1      17.209  -2.764  61.389  1.00  0.00     0.129 C 
HETATM   34  N4  UNL     1      16.708  -2.694  62.719  1.00  0.00    -0.363 N 
BRANCH  34  35
HETATM   35  C26 UNL     1      17.637  -3.037  63.774  1.00  0.00     0.103 A 
HETATM   36  C27 UNL     1      17.205  -3.343  65.045  1.00  0.00     0.056 A 
HETATM   37  C28 UNL     1      18.086  -3.680  66.066  1.00  0.00    -0.040 A 
HETATM   38  C31 UNL     1      19.438  -3.712  65.806  1.00  0.00     0.025 A 
HETATM   39  C32 UNL     1      19.855  -3.405  64.531  1.00  0.00     0.090 A 
HETATM   40  N6  UNL     1      18.969  -3.083  63.574  1.00  0.00    -0.352 N 
ATOM     41  H6  UNL     1      19.324  -2.862  62.643  1.00  0.00     0.166 HD
BRANCH  37  42
HETATM   42  C29 UNL     1      17.565  -4.002  67.421  1.00  0.00     0.162 C 
HETATM   43  C30 UNL     1      18.505  -4.826  68.158  1.00  0.00     0.063 C 
HETATM   44  N5  UNL     1      19.265  -5.469  68.759  1.00  0.00    -0.197 NA
ENDBRANCH  37  42
ENDBRANCH  34  35
ENDBRANCH  21  24
ENDBRANCH  15  16
ENDBRANCH  12  15
ENDBRANCH  10  11
ENDBRANCH   1  10
TORSDOF 7
ENDMDL
MODEL 3
REMARK VINA RESULT: -10.120098356      1.390      1.744
REMARK  7 active torsions:
REMARK  status: ('A' for Active; 'I' for Inactive)
REMARK    1  A    between atoms: C3_3  and  C4_4 
REMARK    2  A    between atoms: C4_4  and  C5_5 
REMARK       I    between atoms: C5_5  and  N1_7 
REMARK    3  A    between atoms: N1_7  and  C6_9 
REMARK    4  A    between atoms: C6_9  and  C7_10 
REMARK    5  A    between atoms: C18_23  and  C19_24 
REMARK    6  A    between atoms: N4_33  and  C26_34 
REMARK    7  A    between atoms: C28_36  and  C29_37 
ROOT
HETATM    1  C7  UNL     1      13.482  -2.145  60.526  1.00  0.00    -0.036 A 
HETATM    2  C8  UNL     1      14.478  -2.329  59.567  1.00  0.00     0.051 A 
HETATM    3  C9  UNL     1      15.710  -1.727  59.681  1.00  0.00     0.118 A 
HETATM    4  F1  UNL     1      16.682  -1.902  58.753  1.00  0.00    -0.206 F 
HETATM    5  C10 UNL     1      16.001  -0.910  60.767  1.00  0.00     0.065 A 
HETATM    6  C11 UNL     1      15.002  -0.743  61.700  1.00  0.00     0.048 A 
HETATM    7  C12 UNL     1      15.256   0.094  62.841  1.00  0.00     0.099 C 
HETATM    8  N2  UNL     1      15.443   0.772  63.774  1.00  0.00    -0.191 NA
HETATM    9  C13 UNL     1      13.752  -1.341  61.603  1.00  0.00     0.031 A 
ENDROOT
BRANCH   1  10
HETATM   10  C6  UNL     1      12.168  -2.832  60.342  1.00  0.00     0.161 C 
BRANCH  10  11
HETATM   11  N1  UNL     1      12.270  -4.057  59.591  1.00  0.00    -0.357 N 
HETATM   12  C5  UNL     1      12.467  -5.342  60.153  1.00  0.00     0.221 C 
HETATM   13  O1  UNL     1      12.563  -5.448  61.402  1.00  0.00    -0.273 OA
ATOM     14  H1  UNL     1      12.194  -3.995  58.576  1.00  0.00     0.162 HD
BRANCH  12  15
HETATM   15  C4  UNL     1      12.554  -6.515  59.245  1.00  0.00     0.137 C 
BRANCH  15  16
HETATM   16  C3  UNL     1      13.846  -6.579  58.538  1.00  0.00    -0.065 C 
HETATM   17  C2  UNL     1      13.954  -6.279  57.252  1.00  0.00    -0.053 C 
HETATM   18  C1  UNL     1      12.773  -5.873  56.492  1.00  0.00     0.049 C 
HETATM   19  C17 UNL     1      15.277  -6.332  56.560  1.00  0.00    -0.051 C 
HETATM   20  C16 UNL     1      16.241  -7.315  57.045  1.00  0.00     0.039 C 
HETATM   21  C18 UNL     1      15.457  -5.516  55.551  1.00  0.00     0.021 C 
HETATM   22  C15 UNL     1      15.897  -7.935  58.383  1.00  0.00     0.009 C 
HETATM   23  C14 UNL     1      15.075  -7.010  59.264  1.00  0.00     0.035 C 
BRANCH  21  24
HETATM   24  C19 UNL     1      16.676  -5.424  54.765  1.00  0.00    -0.013 A 
HETATM   25  C20 UNL     1      17.072  -6.407  53.888  1.00  0.00     0.099 A 
HETATM   26  N3  UNL     1      18.188  -6.280  53.162  1.00  0.00    -0.374 N 
HETATM   27  C21 UNL     1      18.963  -5.205  53.256  1.00  0.00     0.097 A 
ATOM     28  H3  UNL     1      18.450  -7.028  52.519  1.00  0.00     0.164 HD
HETATM   29  C22 UNL     1      18.619  -4.164  54.133  1.00  0.00    -0.018 A 
HETATM   30  C23 UNL     1      17.488  -4.290  54.868  1.00  0.00    -0.036 A 
HETATM   31  C33 UNL     1      19.521  -2.988  54.214  1.00  0.00     0.165 C 
HETATM   32  C24 UNL     1      17.062  -3.245  55.802  1.00  0.00     0.060 C 
HETATM   33  C25 UNL     1      17.531  -1.873  55.394  1.00  0.00     0.129 C 
HETATM   34  N4  UNL     1      18.798  -1.866  54.745  1.00  0.00    -0.363 N 
BRANCH  34  35
HETATM   35  C26 UNL     1      19.438  -0.577  54.602  1.00  0.00     0.103 A 
HETATM   36  C27 UNL     1      20.630  -0.433  53.929  1.00  0.00     0.056 A 
HETATM   37  C28 UNL     1      21.253   0.800  53.778  1.00  0.00    -0.040 A 
HETATM   38  C31 UNL     1      20.665   1.922  54.318  1.00  0.00     0.025 A 
HETATM   39  C32 UNL     1      19.473   1.764  54.988  1.00  0.00     0.090 A 
HETATM   40  N6  UNL     1      18.906   0.552  55.110  1.00  0.00    -0.352 N 
ATOM     41  H6  UNL     1      18.022   0.483  55.616  1.00  0.00     0.166 HD
BRANCH  37  42
HETATM   42  C29 UNL     1      22.541   0.897  53.041  1.00  0.00     0.162 C 
HETATM   43  C30 UNL     1      22.387   1.675  51.825  1.00  0.00     0.063 C 
HETATM   44  N5  UNL     1      22.272   2.315  50.862  1.00  0.00    -0.197 NA
ENDBRANCH  37  42
ENDBRANCH  34  35
ENDBRANCH  21  24
ENDBRANCH  15  16
ENDBRANCH  12  15
ENDBRANCH  10  11
ENDBRANCH   1  10
TORSDOF 7
ENDMDL
MODEL 4
REMARK VINA RESULT: -9.913147808      2.894      8.015
REMARK  7 active torsions:
REMARK  status: ('A' for Active; 'I' for Inactive)
REMARK    1  A    between atoms: C3_3  and  C4_4 
REMARK    2  A    between atoms: C4_4  and  C5_5 
REMARK       I    between atoms: C5_5  and  N1_7 
REMARK    3  A    between atoms: N1_7  and  C6_9 
REMARK    4  A    between atoms: C6_9  and  C7_10 
REMARK    5  A    between atoms: C18_23  and  C19_24 
REMARK    6  A    between atoms: N4_33  and  C26_34 
REMARK    7  A    between atoms: C28_36  and  C29_37 
ROOT
HETATM    1  C7  UNL     1      18.592  -2.148  54.360  1.00  0.00    -0.036 A 
HETATM    2  C8  UNL     1      17.298  -1.628  54.338  1.00  0.00     0.051 A 
HETATM    3  C9  UNL     1      17.049  -0.300  54.602  1.00  0.00     0.118 A 
HETATM    4  F1  UNL     1      15.795   0.212  54.582  1.00  0.00    -0.206 F 
HETATM    5  C10 UNL     1      18.092   0.570  54.900  1.00  0.00     0.065 A 
HETATM    6  C11 UNL     1      19.360   0.032  54.916  1.00  0.00     0.048 A 
HETATM    7  C12 UNL     1      20.470   0.893  55.220  1.00  0.00     0.099 C 
HETATM    8  N2  UNL     1      21.385   1.577  55.468  1.00  0.00    -0.191 NA
HETATM    9  C13 UNL     1      19.631  -1.304  54.653  1.00  0.00     0.031 A 
ENDROOT
BRANCH   1  10
HETATM   10  C6  UNL     1      18.790  -3.598  54.060  1.00  0.00     0.161 C 
BRANCH  10  11
HETATM   11  N1  UNL     1      17.592  -4.250  53.595  1.00  0.00    -0.357 N 
HETATM   12  C5  UNL     1      17.509  -5.603  53.187  1.00  0.00     0.221 C 
HETATM   13  O1  UNL     1      18.547  -6.311  53.224  1.00  0.00    -0.273 OA
ATOM     14  H1  UNL     1      16.738  -3.694  53.558  1.00  0.00     0.162 HD
BRANCH  12  15
HETATM   15  C4  UNL     1      16.199  -6.133  52.729  1.00  0.00     0.137 C 
BRANCH  15  16
HETATM   16  C3  UNL     1      15.101  -5.776  53.646  1.00  0.00    -0.065 C 
HETATM   17  C2  UNL     1      14.807  -6.515  54.705  1.00  0.00    -0.053 C 
HETATM   18  C1  UNL     1      15.577  -7.725  54.991  1.00  0.00     0.049 C 
HETATM   19  C17 UNL     1      13.702  -6.124  55.632  1.00  0.00    -0.051 C 
HETATM   20  C16 UNL     1      12.573  -5.405  55.052  1.00  0.00     0.039 C 
HETATM   21  C18 UNL     1      13.818  -6.486  56.885  1.00  0.00     0.021 C 
HETATM   22  C15 UNL     1      12.809  -4.872  53.653  1.00  0.00     0.009 C 
HETATM   23  C14 UNL     1      14.272  -4.565  53.383  1.00  0.00     0.035 C 
BRANCH  21  24
HETATM   24  C19 UNL     1      12.848  -6.190  57.926  1.00  0.00    -0.013 A 
HETATM   25  C20 UNL     1      11.825  -7.048  58.258  1.00  0.00     0.099 A 
HETATM   26  N3  UNL     1      10.964  -6.757  59.238  1.00  0.00    -0.374 N 
HETATM   27  C21 UNL     1      11.055  -5.628  59.933  1.00  0.00     0.097 A 
ATOM     28  H3  UNL     1      10.219  -7.418  59.457  1.00  0.00     0.164 HD
HETATM   29  C22 UNL     1      12.073  -4.706  59.647  1.00  0.00    -0.018 A 
HETATM   30  C23 UNL     1      12.948  -5.000  58.655  1.00  0.00    -0.036 A 
HETATM   31  C33 UNL     1      12.129  -3.453  60.441  1.00  0.00     0.165 C 
HETATM   32  C24 UNL     1      14.040  -4.090  58.302  1.00  0.00     0.060 C 
HETATM   33  C25 UNL     1      14.495  -3.248  59.464  1.00  0.00     0.129 C 
HETATM   34  N4  UNL     1      13.451  -2.897  60.366  1.00  0.00    -0.363 N 
BRANCH  34  35
HETATM   35  C26 UNL     1      13.753  -1.854  61.322  1.00  0.00     0.103 A 
HETATM   36  C27 UNL     1      14.967  -1.203  61.321  1.00  0.00     0.056 A 
HETATM   37  C28 UNL     1      15.268  -0.195  62.229  1.00  0.00    -0.040 A 
HETATM   38  C31 UNL     1      14.327   0.173  63.165  1.00  0.00     0.025 A 
HETATM   39  C32 UNL     1      13.118  -0.486  63.153  1.00  0.00     0.090 A 
HETATM   40  N6  UNL     1      12.869  -1.455  62.258  1.00  0.00    -0.352 N 
ATOM     41  H6  UNL     1      11.960  -1.917  62.288  1.00  0.00     0.166 HD
BRANCH  37  42
HETATM   42  C29 UNL     1      16.595   0.475  62.183  1.00  0.00     0.162 C 
HETATM   43  C30 UNL     1      17.671  -0.499  62.187  1.00  0.00     0.063 C 
HETATM   44  N5  UNL     1      18.534  -1.277  62.170  1.00  0.00    -0.197 NA
ENDBRANCH  37  42
ENDBRANCH  34  35
ENDBRANCH  21  24
ENDBRANCH  15  16
ENDBRANCH  12  15
ENDBRANCH  10  11
ENDBRANCH   1  10
TORSDOF 7
ENDMDL
MODEL 5
REMARK VINA RESULT: -9.911666976      3.222      4.101
REMARK  7 active torsions:
REMARK  status: ('A' for Active; 'I' for Inactive)
REMARK    1  A    between atoms: C3_3  and  C4_4 
REMARK    2  A    between atoms: C4_4  and  C5_5 
REMARK       I    between atoms: C5_5  and  N1_7 
REMARK    3  A    between atoms: N1_7  and  C6_9 
REMARK    4  A    between atoms: C6_9  and  C7_10 
REMARK    5  A    between atoms: C18_23  and  C19_24 
REMARK    6  A    between atoms: N4_33  and  C26_34 
REMARK    7  A    between atoms: C28_36  and  C29_37 
ROOT
HETATM    1  C7  UNL     1      18.339  -2.360  63.241  1.00  0.00    -0.036 A 
HETATM    2  C8  UNL     1      19.432  -2.549  62.395  1.00  0.00     0.051 A 
HETATM    3  C9  UNL     1      20.423  -3.460  62.687  1.00  0.00     0.118 A 
HETATM    4  F1  UNL     1      21.486  -3.649  61.870  1.00  0.00    -0.206 F 
HETATM    5  C10 UNL     1      20.360  -4.225  63.846  1.00  0.00     0.065 A 
HETATM    6  C11 UNL     1      19.272  -4.021  64.665  1.00  0.00     0.048 A 
HETATM    7  C12 UNL     1      19.165  -4.789  65.875  1.00  0.00     0.099 C 
HETATM    8  N2  UNL     1      19.061  -5.403  66.864  1.00  0.00    -0.191 NA
HETATM    9  C13 UNL     1      18.263  -3.107  64.388  1.00  0.00     0.031 A 
ENDROOT
BRANCH   1  10
HETATM   10  C6  UNL     1      17.299  -1.359  62.860  1.00  0.00     0.161 C 
BRANCH  10  11
HETATM   11  N1  UNL     1      16.132  -1.954  62.260  1.00  0.00    -0.357 N 
HETATM   12  C5  UNL     1      14.955  -2.317  62.958  1.00  0.00     0.221 C 
HETATM   13  O1  UNL     1      14.898  -2.115  64.197  1.00  0.00    -0.273 OA
ATOM     14  H1  UNL     1      16.155  -2.126  61.255  1.00  0.00     0.162 HD
BRANCH  12  15
HETATM   15  C4  UNL     1      13.831  -2.925  62.199  1.00  0.00     0.137 C 
BRANCH  15  16
HETATM   16  C3  UNL     1      14.291  -3.620  60.983  1.00  0.00    -0.065 C 
HETATM   17  C2  UNL     1      13.953  -3.206  59.770  1.00  0.00    -0.053 C 
HETATM   18  C1  UNL     1      13.098  -2.030  59.609  1.00  0.00     0.049 C 
HETATM   19  C17 UNL     1      14.447  -3.915  58.552  1.00  0.00    -0.051 C 
HETATM   20  C16 UNL     1      14.679  -5.351  58.667  1.00  0.00     0.039 C 
HETATM   21  C18 UNL     1      14.600  -3.199  57.465  1.00  0.00     0.021 C 
HETATM   22  C15 UNL     1      14.693  -5.880  60.086  1.00  0.00     0.009 C 
HETATM   23  C14 UNL     1      15.145  -4.838  61.096  1.00  0.00     0.035 C 
BRANCH  21  24
HETATM   24  C19 UNL     1      15.073  -3.715  56.192  1.00  0.00    -0.013 A 
HETATM   25  C20 UNL     1      14.299  -4.507  55.375  1.00  0.00     0.099 A 
HETATM   26  N3  UNL     1      14.757  -4.945  54.198  1.00  0.00    -0.374 N 
HETATM   27  C21 UNL     1      15.976  -4.639  53.765  1.00  0.00     0.097 A 
ATOM     28  H3  UNL     1      14.155  -5.529  53.617  1.00  0.00     0.164 HD
HETATM   29  C22 UNL     1      16.819  -3.837  54.548  1.00  0.00    -0.018 A 
HETATM   30  C23 UNL     1      16.356  -3.390  55.741  1.00  0.00    -0.036 A 
HETATM   31  C33 UNL     1      18.176  -3.530  54.031  1.00  0.00     0.165 C 
HETATM   32  C24 UNL     1      17.177  -2.544  56.612  1.00  0.00     0.060 C 
HETATM   33  C25 UNL     1      18.173  -1.715  55.847  1.00  0.00     0.129 C 
HETATM   34  N4  UNL     1      18.683  -2.354  54.682  1.00  0.00    -0.363 N 
BRANCH  34  35
HETATM   35  C26 UNL     1      19.851  -1.751  54.078  1.00  0.00     0.103 A 
HETATM   36  C27 UNL     1      19.960  -0.388  53.921  1.00  0.00     0.056 A 
HETATM   37  C28 UNL     1      21.079   0.205  53.349  1.00  0.00    -0.040 A 
HETATM   38  C31 UNL     1      22.119  -0.590  52.922  1.00  0.00     0.025 A 
HETATM   39  C32 UNL     1      21.997  -1.951  53.086  1.00  0.00     0.090 A 
HETATM   40  N6  UNL     1      20.896  -2.482  53.643  1.00  0.00    -0.352 N 
ATOM     41  H6  UNL     1      20.849  -3.497  53.744  1.00  0.00     0.166 HD
BRANCH  37  42
HETATM   42  C29 UNL     1      21.144   1.684  53.204  1.00  0.00     0.162 C 
HETATM   43  C30 UNL     1      21.808   2.058  51.968  1.00  0.00     0.063 C 
HETATM   44  N5  UNL     1      22.320   2.360  50.970  1.00  0.00    -0.197 NA
ENDBRANCH  37  42
ENDBRANCH  34  35
ENDBRANCH  21  24
ENDBRANCH  15  16
ENDBRANCH  12  15
ENDBRANCH  10  11
ENDBRANCH   1  10
TORSDOF 7
ENDMDL
