MODEL 1
REMARK VINA RESULT: -9.313554649      0.000      0.000
REMARK  9 active torsions:
REMARK  status: ('A' for Active; 'I' for Inactive)
REMARK    1  A    between atoms: C2_2  and  O2_4 
REMARK    2  A    between atoms: O2_4  and  C3_5 
REMARK    3  A    between atoms: C3_5  and  C4_6 
REMARK    4  A    between atoms: C4_6  and  C5_7 
REMARK    5  A    between atoms: C5_7  and  C6_9 
REMARK    6  A    between atoms: C6_9  and  C7_10 
REMARK    7  A    between atoms: C7_10  and  C9_12 
REMARK    8  A    between atoms: C9_12  and  C10_13 
REMARK    9  A    between atoms: C10_13  and  O4_14 
ROOT
HETATM    1  C10 UNL     1      17.906  -2.225  55.263  1.00  0.00     0.118 C 
HETATM    2  C11 UNL     1      18.845  -1.823  56.315  1.00  0.00     0.047 C 
HETATM    3  C12 UNL     1      18.096  -1.821  57.650  1.00  0.00     0.013 C 
HETATM    4  C13 UNL     1      17.672  -3.256  57.903  1.00  0.00    -0.033 C 
HETATM    5  C14 UNL     1      18.851  -4.153  57.577  1.00  0.00     0.016 C 
HETATM    6  C15 UNL     1      17.433  -3.400  59.374  1.00  0.00     0.016 C 
HETATM    7  C16 UNL     1      16.311  -2.519  59.885  1.00  0.00     0.010 C 
HETATM    8  C17 UNL     1      16.645  -1.778  61.137  1.00  0.00    -0.018 C 
HETATM    9  C18 UNL     1      16.480  -0.248  60.917  1.00  0.00     0.020 C 
HETATM   10  C19 UNL     1      18.063  -1.872  61.568  1.00  0.00    -0.013 C 
HETATM   11  C20 UNL     1      18.510  -2.396  62.668  1.00  0.00     0.047 C 
HETATM   12  C21 UNL     1      17.598  -2.975  63.642  1.00  0.00     0.149 C 
HETATM   13  O5  UNL     1      17.917  -3.244  64.800  1.00  0.00    -0.293 OA
HETATM   14  C22 UNL     1      16.193  -3.243  63.153  1.00  0.00     0.088 C 
HETATM   15  C23 UNL     1      15.803  -2.071  62.330  1.00  0.00     0.005 C 
HETATM   16  C24 UNL     1      14.390  -1.982  61.880  1.00  0.00     0.007 C 
HETATM   17  C25 UNL     1      13.965  -2.840  60.769  1.00  0.00     0.013 C 
HETATM   18  C26 UNL     1      15.028  -3.214  59.746  1.00  0.00    -0.003 C 
HETATM   19  C27 UNL     1      15.040  -4.725  59.801  1.00  0.00     0.019 C 
HETATM   20  C28 UNL     1      14.458  -2.888  58.364  1.00  0.00     0.116 A 
HETATM   21  F1  UNL     1      13.603  -1.767  58.440  1.00  0.00    -0.242 F 
HETATM   22  C29 UNL     1      14.064  -3.902  57.415  1.00  0.00     0.053 A 
HETATM   23  C30 UNL     1      15.270  -2.951  57.201  1.00  0.00     0.041 A 
HETATM   24  C31 UNL     1      16.536  -3.647  57.013  1.00  0.00     0.074 C 
HETATM   25  C32 UNL     1      17.057  -3.397  55.628  1.00  0.00     0.166 C 
HETATM   26  O6  UNL     1      16.780  -4.180  54.757  1.00  0.00    -0.294 OA
ENDROOT
BRANCH   1  27
HETATM   27  C9  UNL     1      18.572  -2.549  53.955  1.00  0.00     0.050 C 
BRANCH  27  28
HETATM   28  C7  UNL     1      19.980  -2.968  53.985  1.00  0.00    -0.008 C 
HETATM   29  C8  UNL     1      20.249  -4.442  53.915  1.00  0.00     0.010 C 
BRANCH  28  30
HETATM   30  C6  UNL     1      20.648  -2.403  52.697  1.00  0.00     0.082 C 
BRANCH  30  31
HETATM   31  C5  UNL     1      21.614  -1.355  53.076  1.00  0.00     0.129 C 
HETATM   32  O3  UNL     1      22.530  -1.627  53.822  1.00  0.00    -0.298 OA
BRANCH  31  33
HETATM   33  C4  UNL     1      21.500   0.032  52.561  1.00  0.00     0.105 C 
BRANCH  33  34
HETATM   34  C3  UNL     1      22.539   0.977  53.114  1.00  0.00     0.186 C 
BRANCH  34  35
HETATM   35  O2  UNL     1      21.913   1.817  54.055  1.00  0.00    -0.321 OA
BRANCH  35  36
HETATM   36  C2  UNL     1      21.257   1.431  55.179  1.00  0.00     0.254 C 
HETATM   37  C1  UNL     1      19.773   1.638  55.378  1.00  0.00     0.126 C 
HETATM   38  O1  UNL     1      21.870   0.875  56.113  1.00  0.00    -0.266 OA
ENDBRANCH  35  36
ENDBRANCH  34  35
ENDBRANCH  33  34
ENDBRANCH  31  33
ENDBRANCH  30  31
ENDBRANCH  28  30
ENDBRANCH  27  28
ENDBRANCH   1  27
BRANCH   1  39
HETATM   39  O4  UNL     1      16.971  -1.195  54.998  1.00  0.00    -0.382 OA
ATOM     40  H4  UNL     1      16.437  -1.105  55.778  1.00  0.00     0.211 HD
ENDBRANCH   1  39
TORSDOF 9
ENDMDL
MODEL 2
REMARK VINA RESULT: -9.179038409      0.836      1.471
REMARK  9 active torsions:
REMARK  status: ('A' for Active; 'I' for Inactive)
REMARK    1  A    between atoms: C2_2  and  O2_4 
REMARK    2  A    between atoms: O2_4  and  C3_5 
REMARK    3  A    between atoms: C3_5  and  C4_6 
REMARK    4  A    between atoms: C4_6  and  C5_7 
REMARK    5  A    between atoms: C5_7  and  C6_9 
REMARK    6  A    between atoms: C6_9  and  C7_10 
REMARK    7  A    between atoms: C7_10  and  C9_12 
REMARK    8  A    between atoms: C9_12  and  C10_13 
REMARK    9  A    between atoms: C10_13  and  O4_14 
ROOT
HETATM    1  C10 UNL     1      17.582  -1.991  55.351  1.00  0.00     0.118 C 
HETATM    2  C11 UNL     1      18.581  -1.566  56.337  1.00  0.00     0.047 C 
HETATM    3  C12 UNL     1      17.932  -1.607  57.723  1.00  0.00     0.013 C 
HETATM    4  C13 UNL     1      17.581  -3.060  57.986  1.00  0.00    -0.033 C 
HETATM    5  C14 UNL     1      18.764  -3.908  57.563  1.00  0.00     0.016 C 
HETATM    6  C15 UNL     1      17.455  -3.229  59.469  1.00  0.00     0.016 C 
HETATM    7  C16 UNL     1      16.343  -2.396  60.072  1.00  0.00     0.010 C 
HETATM    8  C17 UNL     1      16.740  -1.657  61.307  1.00  0.00    -0.018 C 
HETATM    9  C18 UNL     1      16.505  -0.131  61.121  1.00  0.00     0.020 C 
HETATM   10  C19 UNL     1      18.189  -1.703  61.632  1.00  0.00    -0.013 C 
HETATM   11  C20 UNL     1      18.735  -2.222  62.689  1.00  0.00     0.047 C 
HETATM   12  C21 UNL     1      17.918  -2.845  63.719  1.00  0.00     0.149 C 
HETATM   13  O5  UNL     1      18.331  -3.115  64.847  1.00  0.00    -0.293 OA
HETATM   14  C22 UNL     1      16.491  -3.159  63.330  1.00  0.00     0.088 C 
HETATM   15  C23 UNL     1      16.000  -1.994  62.554  1.00  0.00     0.005 C 
HETATM   16  C24 UNL     1      14.556  -1.953  62.209  1.00  0.00     0.007 C 
HETATM   17  C25 UNL     1      14.082  -2.814  61.121  1.00  0.00     0.013 C 
HETATM   18  C26 UNL     1      15.079  -3.137  60.018  1.00  0.00    -0.003 C 
HETATM   19  C27 UNL     1      15.150  -4.647  60.051  1.00  0.00     0.019 C 
HETATM   20  C28 UNL     1      14.398  -2.816  58.685  1.00  0.00     0.116 A 
HETATM   21  F1  UNL     1      13.510  -1.729  58.839  1.00  0.00    -0.242 F 
HETATM   22  C29 UNL     1      13.973  -3.834  57.754  1.00  0.00     0.053 A 
HETATM   23  C30 UNL     1      15.124  -2.836  57.465  1.00  0.00     0.041 A 
HETATM   24  C31 UNL     1      16.397  -3.482  57.177  1.00  0.00     0.074 C 
HETATM   25  C32 UNL     1      16.806  -3.198  55.761  1.00  0.00     0.166 C 
HETATM   26  O6  UNL     1      16.494  -3.981  54.902  1.00  0.00    -0.294 OA
ENDROOT
BRANCH   1  27
HETATM   27  C9  UNL     1      18.162  -2.275  53.993  1.00  0.00     0.050 C 
BRANCH  27  28
HETATM   28  C7  UNL     1      19.577  -2.665  53.917  1.00  0.00    -0.008 C 
HETATM   29  C8  UNL     1      19.870  -4.065  53.464  1.00  0.00     0.010 C 
BRANCH  28  30
HETATM   30  C6  UNL     1      20.234  -1.771  52.825  1.00  0.00     0.082 C 
BRANCH  30  31
HETATM   31  C5  UNL     1      21.519  -1.255  53.334  1.00  0.00     0.129 C 
HETATM   32  O3  UNL     1      22.557  -1.746  52.946  1.00  0.00    -0.298 OA
BRANCH  31  33
HETATM   33  C4  UNL     1      21.578  -0.138  54.309  1.00  0.00     0.105 C 
BRANCH  33  34
HETATM   34  C3  UNL     1      21.084   1.179  53.762  1.00  0.00     0.186 C 
BRANCH  34  35
HETATM   35  O2  UNL     1      22.186   1.873  53.227  1.00  0.00    -0.321 OA
BRANCH  35  36
HETATM   36  C2  UNL     1      22.570   1.907  51.925  1.00  0.00     0.254 C 
HETATM   37  C1  UNL     1      23.729   1.101  51.387  1.00  0.00     0.126 C 
HETATM   38  O1  UNL     1      21.964   2.624  51.102  1.00  0.00    -0.266 OA
ENDBRANCH  35  36
ENDBRANCH  34  35
ENDBRANCH  33  34
ENDBRANCH  31  33
ENDBRANCH  30  31
ENDBRANCH  28  30
ENDBRANCH  27  28
ENDBRANCH   1  27
BRANCH   1  39
HETATM   39  O4  UNL     1      16.594  -0.994  55.169  1.00  0.00    -0.382 OA
ATOM     40  H4  UNL     1      16.569  -0.486  55.971  1.00  0.00     0.211 HD
ENDBRANCH   1  39
TORSDOF 9
ENDMDL
MODEL 3
REMARK VINA RESULT: -9.127322978      3.643      8.621
REMARK  9 active torsions:
REMARK  status: ('A' for Active; 'I' for Inactive)
REMARK    1  A    between atoms: C2_2  and  O2_4 
REMARK    2  A    between atoms: O2_4  and  C3_5 
REMARK    3  A    between atoms: C3_5  and  C4_6 
REMARK    4  A    between atoms: C4_6  and  C5_7 
REMARK    5  A    between atoms: C5_7  and  C6_9 
REMARK    6  A    between atoms: C6_9  and  C7_10 
REMARK    7  A    between atoms: C7_10  and  C9_12 
REMARK    8  A    between atoms: C9_12  and  C10_13 
REMARK    9  A    between atoms: C10_13  and  O4_14 
ROOT
HETATM    1  C10 UNL     1      17.838  -3.831  60.124  1.00  0.00     0.118 C 
HETATM    2  C11 UNL     1      18.188  -2.702  59.257  1.00  0.00     0.047 C 
HETATM    3  C12 UNL     1      17.729  -3.032  57.834  1.00  0.00     0.013 C 
HETATM    4  C13 UNL     1      16.217  -3.149  57.890  1.00  0.00    -0.033 C 
HETATM    5  C14 UNL     1      15.692  -1.993  58.718  1.00  0.00     0.016 C 
HETATM    6  C15 UNL     1      15.701  -2.936  56.501  1.00  0.00     0.016 C 
HETATM    7  C16 UNL     1      16.182  -3.983  55.517  1.00  0.00     0.010 C 
HETATM    8  C17 UNL     1      16.679  -3.420  54.228  1.00  0.00    -0.018 C 
HETATM    9  C18 UNL     1      18.147  -3.864  53.975  1.00  0.00     0.020 C 
HETATM   10  C19 UNL     1      16.798  -1.940  54.188  1.00  0.00    -0.013 C 
HETATM   11  C20 UNL     1      16.150  -1.126  53.412  1.00  0.00     0.047 C 
HETATM   12  C21 UNL     1      15.186  -1.627  52.445  1.00  0.00     0.149 C 
HETATM   13  O5  UNL     1      14.740  -0.956  51.515  1.00  0.00    -0.293 OA
HETATM   14  C22 UNL     1      14.738  -3.058  52.640  1.00  0.00     0.088 C 
HETATM   15  C23 UNL     1      15.952  -3.835  52.996  1.00  0.00     0.005 C 
HETATM   16  C24 UNL     1      15.834  -5.314  53.055  1.00  0.00     0.007 C 
HETATM   17  C25 UNL     1      15.174  -5.906  54.224  1.00  0.00     0.013 C 
HETATM   18  C26 UNL     1      15.276  -5.136  55.532  1.00  0.00    -0.003 C 
HETATM   19  C27 UNL     1      13.830  -4.886  55.896  1.00  0.00     0.019 C 
HETATM   20  C28 UNL     1      15.773  -6.117  56.596  1.00  0.00     0.116 A 
HETATM   21  F1  UNL     1      16.637  -7.071  56.016  1.00  0.00    -0.242 F 
HETATM   22  C29 UNL     1      14.936  -6.610  57.663  1.00  0.00     0.053 A 
HETATM   23  C30 UNL     1      16.148  -5.669  57.891  1.00  0.00     0.041 A 
HETATM   24  C31 UNL     1      15.801  -4.421  58.556  1.00  0.00     0.074 C 
HETATM   25  C32 UNL     1      16.460  -4.358  59.902  1.00  0.00     0.166 C 
HETATM   26  O6  UNL     1      15.850  -4.753  60.862  1.00  0.00    -0.294 OA
ENDROOT
BRANCH   1  27
HETATM   27  C9  UNL     1      17.967  -3.525  61.591  1.00  0.00     0.050 C 
BRANCH  27  28
HETATM   28  C7  UNL     1      18.700  -2.312  61.979  1.00  0.00    -0.008 C 
HETATM   29  C8  UNL     1      17.911  -1.039  62.057  1.00  0.00     0.010 C 
BRANCH  28  30
HETATM   30  C6  UNL     1      19.201  -2.534  63.436  1.00  0.00     0.082 C 
BRANCH  30  31
HETATM   31  C5  UNL     1      20.309  -3.507  63.422  1.00  0.00     0.129 C 
HETATM   32  O3  UNL     1      21.162  -3.430  62.564  1.00  0.00    -0.298 OA
BRANCH  31  33
HETATM   33  C4  UNL     1      20.415  -4.583  64.439  1.00  0.00     0.105 C 
BRANCH  33  34
HETATM   34  C3  UNL     1      19.085  -5.027  64.999  1.00  0.00     0.186 C 
BRANCH  34  35
HETATM   35  O2  UNL     1      19.295  -5.489  66.313  1.00  0.00    -0.321 OA
BRANCH  35  36
HETATM   36  C2  UNL     1      18.904  -4.878  67.460  1.00  0.00     0.254 C 
HETATM   37  C1  UNL     1      17.977  -3.685  67.484  1.00  0.00     0.126 C 
HETATM   38  O1  UNL     1      19.307  -5.290  68.568  1.00  0.00    -0.266 OA
ENDBRANCH  35  36
ENDBRANCH  34  35
ENDBRANCH  33  34
ENDBRANCH  31  33
ENDBRANCH  30  31
ENDBRANCH  28  30
ENDBRANCH  27  28
ENDBRANCH   1  27
BRANCH   1  39
HETATM   39  O4  UNL     1      18.675  -4.944  59.868  1.00  0.00    -0.382 OA
ATOM     40  H4  UNL     1      18.747  -5.019  58.924  1.00  0.00     0.211 HD
ENDBRANCH   1  39
TORSDOF 9
ENDMDL
MODEL 4
REMARK VINA RESULT: -8.849919563      3.733      8.869
REMARK  9 active torsions:
REMARK  status: ('A' for Active; 'I' for Inactive)
REMARK    1  A    between atoms: C2_2  and  O2_4 
REMARK    2  A    between atoms: O2_4  and  C3_5 
REMARK    3  A    between atoms: C3_5  and  C4_6 
REMARK    4  A    between atoms: C4_6  and  C5_7 
REMARK    5  A    between atoms: C5_7  and  C6_9 
REMARK    6  A    between atoms: C6_9  and  C7_10 
REMARK    7  A    between atoms: C7_10  and  C9_12 
REMARK    8  A    between atoms: C9_12  and  C10_13 
REMARK    9  A    between atoms: C10_13  and  O4_14 
ROOT
HETATM    1  C10 UNL     1      18.533  -3.978  59.995  1.00  0.00     0.118 C 
HETATM    2  C11 UNL     1      18.886  -2.913  59.051  1.00  0.00     0.047 C 
HETATM    3  C12 UNL     1      18.246  -3.240  57.699  1.00  0.00     0.013 C 
HETATM    4  C13 UNL     1      16.746  -3.211  57.920  1.00  0.00    -0.033 C 
HETATM    5  C14 UNL     1      16.421  -1.987  58.753  1.00  0.00     0.016 C 
HETATM    6  C15 UNL     1      16.101  -2.992  56.586  1.00  0.00     0.016 C 
HETATM    7  C16 UNL     1      16.375  -4.109  55.599  1.00  0.00     0.010 C 
HETATM    8  C17 UNL     1      16.776  -3.634  54.243  1.00  0.00    -0.018 C 
HETATM    9  C18 UNL     1      18.161  -4.222  53.854  1.00  0.00     0.020 C 
HETATM   10  C19 UNL     1      17.024  -2.173  54.132  1.00  0.00    -0.013 C 
HETATM   11  C20 UNL     1      16.373  -1.325  53.397  1.00  0.00     0.047 C 
HETATM   12  C21 UNL     1      15.266  -1.761  52.559  1.00  0.00     0.149 C 
HETATM   13  O5  UNL     1      14.785  -1.078  51.656  1.00  0.00    -0.293 OA
HETATM   14  C22 UNL     1      14.715  -3.137  52.858  1.00  0.00     0.088 C 
HETATM   15  C23 UNL     1      15.884  -4.014  53.112  1.00  0.00     0.005 C 
HETATM   16  C24 UNL     1      15.639  -5.473  53.243  1.00  0.00     0.007 C 
HETATM   17  C25 UNL     1      15.061  -5.965  54.498  1.00  0.00     0.013 C 
HETATM   18  C26 UNL     1      15.375  -5.169  55.756  1.00  0.00    -0.003 C 
HETATM   19  C27 UNL     1      14.006  -4.772  56.261  1.00  0.00     0.019 C 
HETATM   20  C28 UNL     1      15.894  -6.161  56.799  1.00  0.00     0.116 A 
HETATM   21  F1  UNL     1      16.599  -7.209  56.169  1.00  0.00    -0.242 F 
HETATM   22  C29 UNL     1      15.138  -6.541  57.968  1.00  0.00     0.053 A 
HETATM   23  C30 UNL     1      16.447  -5.712  58.028  1.00  0.00     0.041 A 
HETATM   24  C31 UNL     1      16.290  -4.418  58.676  1.00  0.00     0.074 C 
HETATM   25  C32 UNL     1      17.096  -4.378  59.941  1.00  0.00     0.166 C 
HETATM   26  O6  UNL     1      16.562  -4.685  60.976  1.00  0.00    -0.294 OA
ENDROOT
BRANCH   1  27
HETATM   27  C9  UNL     1      18.848  -3.641  61.426  1.00  0.00     0.050 C 
BRANCH  27  28
HETATM   28  C7  UNL     1      19.845  -4.465  62.123  1.00  0.00    -0.008 C 
HETATM   29  C8  UNL     1      21.068  -4.852  61.346  1.00  0.00     0.010 C 
BRANCH  28  30
HETATM   30  C6  UNL     1      20.401  -3.606  63.296  1.00  0.00     0.082 C 
BRANCH  30  31
HETATM   31  C5  UNL     1      20.133  -4.299  64.570  1.00  0.00     0.129 C 
HETATM   32  O3  UNL     1      20.740  -5.314  64.838  1.00  0.00    -0.298 OA
BRANCH  31  33
HETATM   33  C4  UNL     1      19.140  -3.784  65.544  1.00  0.00     0.105 C 
BRANCH  33  34
HETATM   34  C3  UNL     1      17.920  -4.660  65.695  1.00  0.00     0.186 C 
BRANCH  34  35
HETATM   35  O2  UNL     1      18.110  -5.489  66.818  1.00  0.00    -0.321 OA
BRANCH  35  36
HETATM   36  C2  UNL     1      18.337  -5.088  68.095  1.00  0.00     0.254 C 
HETATM   37  C1  UNL     1      17.312  -4.342  68.917  1.00  0.00     0.126 C 
HETATM   38  O1  UNL     1      19.428  -5.327  68.651  1.00  0.00    -0.266 OA
ENDBRANCH  35  36
ENDBRANCH  34  35
ENDBRANCH  33  34
ENDBRANCH  31  33
ENDBRANCH  30  31
ENDBRANCH  28  30
ENDBRANCH  27  28
ENDBRANCH   1  27
BRANCH   1  39
HETATM   39  O4  UNL     1      19.232  -5.172  59.695  1.00  0.00    -0.382 OA
ATOM     40  H4  UNL     1      18.905  -5.476  58.857  1.00  0.00     0.211 HD
ENDBRANCH   1  39
TORSDOF 9
ENDMDL
MODEL 5
REMARK VINA RESULT: -8.787911297      1.272      1.628
REMARK  9 active torsions:
REMARK  status: ('A' for Active; 'I' for Inactive)
REMARK    1  A    between atoms: C2_2  and  O2_4 
REMARK    2  A    between atoms: O2_4  and  C3_5 
REMARK    3  A    between atoms: C3_5  and  C4_6 
REMARK    4  A    between atoms: C4_6  and  C5_7 
REMARK    5  A    between atoms: C5_7  and  C6_9 
REMARK    6  A    between atoms: C6_9  and  C7_10 
REMARK    7  A    between atoms: C7_10  and  C9_12 
REMARK    8  A    between atoms: C9_12  and  C10_13 
REMARK    9  A    between atoms: C10_13  and  O4_14 
ROOT
HETATM    1  C10 UNL     1      17.384  -2.503  56.179  1.00  0.00     0.118 C 
HETATM    2  C11 UNL     1      18.629  -2.215  56.897  1.00  0.00     0.047 C 
HETATM    3  C12 UNL     1      18.328  -2.220  58.398  1.00  0.00     0.013 C 
HETATM    4  C13 UNL     1      17.888  -3.632  58.740  1.00  0.00    -0.033 C 
HETATM    5  C14 UNL     1      18.834  -4.594  58.048  1.00  0.00     0.016 C 
HETATM    6  C15 UNL     1      18.101  -3.823  60.210  1.00  0.00     0.016 C 
HETATM    7  C16 UNL     1      17.264  -2.890  61.060  1.00  0.00     0.010 C 
HETATM    8  C17 UNL     1      18.024  -2.230  62.163  1.00  0.00    -0.018 C 
HETATM    9  C18 UNL     1      17.924  -0.684  62.036  1.00  0.00     0.020 C 
HETATM   10  C19 UNL     1      19.494  -2.443  62.133  1.00  0.00    -0.013 C 
HETATM   11  C20 UNL     1      20.213  -3.045  63.030  1.00  0.00     0.047 C 
HETATM   12  C21 UNL     1      19.600  -3.601  64.226  1.00  0.00     0.149 C 
HETATM   13  O5  UNL     1      20.236  -3.942  65.223  1.00  0.00    -0.293 OA
HETATM   14  C22 UNL     1      18.096  -3.747  64.190  1.00  0.00     0.088 C 
HETATM   15  C23 UNL     1      17.568  -2.516  63.551  1.00  0.00     0.005 C 
HETATM   16  C24 UNL     1      16.097  -2.308  63.562  1.00  0.00     0.007 C 
HETATM   17  C25 UNL     1      15.285  -3.084  62.619  1.00  0.00     0.013 C 
HETATM   18  C26 UNL     1      15.949  -3.486  61.310  1.00  0.00    -0.003 C 
HETATM   19  C27 UNL     1      15.855  -4.995  61.328  1.00  0.00     0.019 C 
HETATM   20  C28 UNL     1      15.011  -3.059  60.179  1.00  0.00     0.116 A 
HETATM   21  F1  UNL     1      14.313  -1.886  60.539  1.00  0.00    -0.242 F 
HETATM   22  C29 UNL     1      14.265  -4.000  59.378  1.00  0.00     0.053 A 
HETATM   23  C30 UNL     1      15.420  -3.128  58.821  1.00  0.00     0.041 A 
HETATM   24  C31 UNL     1      16.506  -3.902  58.237  1.00  0.00     0.074 C 
HETATM   25  C32 UNL     1      16.596  -3.628  56.765  1.00  0.00     0.166 C 
HETATM   26  O6  UNL     1      16.003  -4.350  56.006  1.00  0.00    -0.294 OA
ENDROOT
BRANCH   1  27
HETATM   27  C9  UNL     1      17.589  -2.815  54.722  1.00  0.00     0.050 C 
BRANCH  27  28
HETATM   28  C7  UNL     1      18.944  -3.165  54.277  1.00  0.00    -0.008 C 
HETATM   29  C8  UNL     1      19.123  -4.512  53.643  1.00  0.00     0.010 C 
BRANCH  28  30
HETATM   30  C6  UNL     1      19.322  -2.164  53.147  1.00  0.00     0.082 C 
BRANCH  30  31
HETATM   31  C5  UNL     1      20.790  -2.044  53.079  1.00  0.00     0.129 C 
HETATM   32  O3  UNL     1      21.420  -2.794  52.364  1.00  0.00    -0.298 OA
BRANCH  31  33
HETATM   33  C4  UNL     1      21.525  -1.020  53.862  1.00  0.00     0.105 C 
BRANCH  33  34
HETATM   34  C3  UNL     1      21.651   0.312  53.162  1.00  0.00     0.186 C 
BRANCH  34  35
HETATM   35  O2  UNL     1      20.588   1.133  53.587  1.00  0.00    -0.321 OA
BRANCH  35  36
HETATM   36  C2  UNL     1      20.199   1.360  54.868  1.00  0.00     0.254 C 
HETATM   37  C1  UNL     1      18.783   1.142  55.348  1.00  0.00     0.126 C 
HETATM   38  O1  UNL     1      21.017   1.767  55.718  1.00  0.00    -0.266 OA
ENDBRANCH  35  36
ENDBRANCH  34  35
ENDBRANCH  33  34
ENDBRANCH  31  33
ENDBRANCH  30  31
ENDBRANCH  28  30
ENDBRANCH  27  28
ENDBRANCH   1  27
BRANCH   1  39
HETATM   39  O4  UNL     1      16.499  -1.400  56.237  1.00  0.00    -0.382 OA
ATOM     40  H4  UNL     1      15.976  -1.428  55.445  1.00  0.00     0.211 HD
ENDBRANCH   1  39
TORSDOF 9
ENDMDL
