MODEL 1
REMARK VINA RESULT: -8.556436601      0.000      0.000
REMARK  9 active torsions:
REMARK  status: ('A' for Active; 'I' for Inactive)
REMARK    1  A    between atoms: C2_2  and  O2_4 
REMARK    2  A    between atoms: O2_4  and  C3_5 
REMARK    3  A    between atoms: C17_20  and  C18_21 
REMARK    4  A    between atoms: C18_21  and  C20_23 
REMARK    5  A    between atoms: C20_23  and  C21_24 
REMARK    6  A    between atoms: C21_24  and  C22_25 
REMARK    7  A    between atoms: C22_25  and  C23_27 
REMARK    8  A    between atoms: C25_30  and  S1_31 
REMARK    9  A    between atoms: S1_31  and  C26_32 
ROOT
HETATM    1  C3  UNL     1      15.527  -1.826  53.145  1.00  0.00     0.137 C 
HETATM    2  C4  UNL     1      15.579  -3.331  53.260  1.00  0.00     0.068 C 
HETATM    3  C5  UNL     1      16.494  -3.545  54.415  1.00  0.00    -0.062 C 
HETATM    4  C6  UNL     1      16.642  -4.535  55.265  1.00  0.00    -0.022 C 
HETATM    5  C7  UNL     1      17.637  -4.504  56.346  1.00  0.00     0.033 C 
HETATM    6  C8  UNL     1      18.079  -3.159  56.793  1.00  0.00     0.000 C 
HETATM    7  C9  UNL     1      17.364  -2.027  56.133  1.00  0.00     0.014 C 
HETATM    8  C10 UNL     1      16.001  -1.920  56.679  1.00  0.00     0.007 C 
HETATM    9  C11 UNL     1      15.769  -2.581  58.016  1.00  0.00     0.011 C 
HETATM   10  C12 UNL     1      16.902  -2.525  58.960  1.00  0.00    -0.025 C 
HETATM   11  C13 UNL     1      17.127  -1.037  59.401  1.00  0.00     0.016 C 
HETATM   12  C14 UNL     1      18.159  -3.020  58.283  1.00  0.00     0.006 C 
HETATM   13  C15 UNL     1      18.577  -4.270  58.979  1.00  0.00     0.084 C 
HETATM   14  C16 UNL     1      17.469  -4.622  59.904  1.00  0.00     0.136 C 
HETATM   15  O3  UNL     1      17.139  -5.675  60.313  1.00  0.00    -0.297 OA
HETATM   16  C17 UNL     1      16.850  -3.281  60.202  1.00  0.00     0.092 C 
HETATM   17  C25 UNL     1      17.386  -2.372  54.618  1.00  0.00     0.044 C 
HETATM   18  C27 UNL     1      16.789  -1.306  53.778  1.00  0.00     0.058 C 
ENDROOT
BRANCH  16  19
HETATM   19  C18 UNL     1      15.645  -3.409  61.052  1.00  0.00    -0.075 C 
HETATM   20  C19 UNL     1      14.594  -4.360  60.746  1.00  0.00     0.044 C 
BRANCH  19  21
HETATM   21  C20 UNL     1      16.053  -3.289  62.486  1.00  0.00    -0.016 C 
BRANCH  21  22
HETATM   22  C21 UNL     1      17.232  -2.547  62.907  1.00  0.00     0.107 C 
BRANCH  22  23
HETATM   23  C22 UNL     1      18.196  -3.267  63.724  1.00  0.00     0.148 C 
HETATM   24  O4  UNL     1      18.091  -3.426  64.906  1.00  0.00    -0.296 OA
BRANCH  23  25
HETATM   25  C23 UNL     1      19.407  -3.858  63.043  1.00  0.00     0.148 C 
HETATM   26  C24 UNL     1      20.464  -4.100  64.071  1.00  0.00     0.034 C 
HETATM   27 CL1  UNL     1      20.043  -2.725  61.829  1.00  0.00    -0.117 Cl
ENDBRANCH  23  25
ENDBRANCH  22  23
ENDBRANCH  21  22
ENDBRANCH  19  21
ENDBRANCH  16  19
BRANCH  17  28
HETATM   28  S1  UNL     1      19.117  -2.679  54.277  1.00  0.00    -0.088 SA
BRANCH  28  29
HETATM   29  C26 UNL     1      20.099  -1.404  53.670  1.00  0.00     0.150 C 
HETATM   30  N1  UNL     1      20.751  -1.573  52.407  1.00  0.00    -0.082 NA
HETATM   31  S2  UNL     1      20.365  -0.012  54.439  1.00  0.00    -0.056 SA
ENDBRANCH  28  29
ENDBRANCH  17  28
BRANCH   1  32
HETATM   32  O2  UNL     1      15.311  -1.430  51.832  1.00  0.00    -0.316 OA
BRANCH  32  33
HETATM   33  C2  UNL     1      14.700  -0.248  51.450  1.00  0.00     0.255 C 
HETATM   34  C1  UNL     1      14.512   0.846  52.423  1.00  0.00     0.126 C 
HETATM   35  O1  UNL     1      14.314  -0.137  50.260  1.00  0.00    -0.266 OA
ENDBRANCH  32  33
ENDBRANCH   1  32
TORSDOF 9
ENDMDL
MODEL 2
REMARK VINA RESULT: -8.443934626      4.999      7.903
REMARK  9 active torsions:
REMARK  status: ('A' for Active; 'I' for Inactive)
REMARK    1  A    between atoms: C2_2  and  O2_4 
REMARK    2  A    between atoms: O2_4  and  C3_5 
REMARK    3  A    between atoms: C17_20  and  C18_21 
REMARK    4  A    between atoms: C18_21  and  C20_23 
REMARK    5  A    between atoms: C20_23  and  C21_24 
REMARK    6  A    between atoms: C21_24  and  C22_25 
REMARK    7  A    between atoms: C22_25  and  C23_27 
REMARK    8  A    between atoms: C25_30  and  S1_31 
REMARK    9  A    between atoms: S1_31  and  C26_32 
ROOT
HETATM    1  C3  UNL     1      16.424  -8.107  53.817  1.00  0.00     0.137 C 
HETATM    2  C4  UNL     1      15.980  -7.286  52.629  1.00  0.00     0.068 C 
HETATM    3  C5  UNL     1      15.625  -5.977  53.243  1.00  0.00    -0.062 C 
HETATM    4  C6  UNL     1      15.565  -4.755  52.767  1.00  0.00    -0.022 C 
HETATM    5  C7  UNL     1      15.183  -3.604  53.597  1.00  0.00     0.033 C 
HETATM    6  C8  UNL     1      15.396  -3.749  55.059  1.00  0.00     0.000 C 
HETATM    7  C9  UNL     1      16.063  -5.023  55.459  1.00  0.00     0.014 C 
HETATM    8  C10 UNL     1      17.493  -4.960  55.110  1.00  0.00     0.007 C 
HETATM    9  C11 UNL     1      18.062  -3.579  54.896  1.00  0.00     0.011 C 
HETATM   10  C12 UNL     1      17.511  -2.520  55.764  1.00  0.00    -0.025 C 
HETATM   11  C13 UNL     1      17.949  -2.794  57.245  1.00  0.00     0.016 C 
HETATM   12  C14 UNL     1      16.001  -2.537  55.699  1.00  0.00     0.006 C 
HETATM   13  C15 UNL     1      15.568  -1.253  55.080  1.00  0.00     0.084 C 
HETATM   14  C16 UNL     1      16.803  -0.589  54.590  1.00  0.00     0.136 C 
HETATM   15  O3  UNL     1      16.945   0.170  53.701  1.00  0.00    -0.297 OA
HETATM   16  C17 UNL     1      17.859  -1.129  55.520  1.00  0.00     0.092 C 
HETATM   17  C25 UNL     1      15.298  -6.133  54.686  1.00  0.00     0.044 C 
HETATM   18  C27 UNL     1      15.769  -7.497  55.025  1.00  0.00     0.058 C 
ENDROOT
BRANCH  16  19
HETATM   19  C18 UNL     1      19.211  -0.657  55.148  1.00  0.00    -0.075 C 
HETATM   20  C19 UNL     1      19.799  -0.967  53.859  1.00  0.00     0.044 C 
BRANCH  19  21
HETATM   21  C20 UNL     1      19.392   0.737  55.656  1.00  0.00    -0.016 C 
BRANCH  21  22
HETATM   22  C21 UNL     1      20.116   1.757  54.911  1.00  0.00     0.107 C 
BRANCH  22  23
HETATM   23  C22 UNL     1      21.535   1.521  54.696  1.00  0.00     0.148 C 
HETATM   24  O4  UNL     1      22.275   1.074  55.524  1.00  0.00    -0.296 OA
BRANCH  23  25
HETATM   25  C23 UNL     1      22.116   1.856  53.343  1.00  0.00     0.148 C 
HETATM   26  C24 UNL     1      21.038   2.438  52.489  1.00  0.00     0.034 C 
HETATM   27 CL1  UNL     1      22.732   0.384  52.558  1.00  0.00    -0.117 Cl
ENDBRANCH  23  25
ENDBRANCH  22  23
ENDBRANCH  21  22
ENDBRANCH  19  21
ENDBRANCH  16  19
BRANCH  17  28
HETATM   28  S1  UNL     1      13.582  -5.834  55.103  1.00  0.00    -0.088 SA
BRANCH  28  29
HETATM   29  C26 UNL     1      13.044  -6.099  56.714  1.00  0.00     0.150 C 
HETATM   30  N1  UNL     1      11.655  -5.935  57.017  1.00  0.00    -0.082 NA
HETATM   31  S2  UNL     1      14.006  -6.507  57.942  1.00  0.00    -0.056 SA
ENDBRANCH  28  29
ENDBRANCH  17  28
BRANCH   1  32
HETATM   32  O2  UNL     1      16.169  -9.457  53.616  1.00  0.00    -0.316 OA
BRANCH  32  33
HETATM   33  C2  UNL     1      15.933 -10.378  54.623  1.00  0.00     0.255 C 
HETATM   34  C1  UNL     1      14.589 -10.961  54.805  1.00  0.00     0.126 C 
HETATM   35  O1  UNL     1      16.891 -10.699  55.370  1.00  0.00    -0.266 OA
ENDBRANCH  32  33
ENDBRANCH   1  32
TORSDOF 9
ENDMDL
MODEL 3
REMARK VINA RESULT: -8.436373882      3.957      8.273
REMARK  9 active torsions:
REMARK  status: ('A' for Active; 'I' for Inactive)
REMARK    1  A    between atoms: C2_2  and  O2_4 
REMARK    2  A    between atoms: O2_4  and  C3_5 
REMARK    3  A    between atoms: C17_20  and  C18_21 
REMARK    4  A    between atoms: C18_21  and  C20_23 
REMARK    5  A    between atoms: C20_23  and  C21_24 
REMARK    6  A    between atoms: C21_24  and  C22_25 
REMARK    7  A    between atoms: C22_25  and  C23_27 
REMARK    8  A    between atoms: C25_30  and  S1_31 
REMARK    9  A    between atoms: S1_31  and  C26_32 
ROOT
HETATM    1  C3  UNL     1      15.119  -0.946  61.627  1.00  0.00     0.137 C 
HETATM    2  C4  UNL     1      16.400  -0.359  61.083  1.00  0.00     0.068 C 
HETATM    3  C5  UNL     1      16.878  -1.414  60.147  1.00  0.00    -0.062 C 
HETATM    4  C6  UNL     1      17.662  -1.384  59.094  1.00  0.00    -0.022 C 
HETATM    5  C7  UNL     1      17.985  -2.589  58.318  1.00  0.00     0.033 C 
HETATM    6  C8  UNL     1      17.009  -3.705  58.401  1.00  0.00     0.000 C 
HETATM    7  C9  UNL     1      15.785  -3.391  59.195  1.00  0.00     0.014 C 
HETATM    8  C10 UNL     1      14.912  -2.493  58.421  1.00  0.00     0.007 C 
HETATM    9  C11 UNL     1      15.150  -2.460  56.931  1.00  0.00     0.011 C 
HETATM   10  C12 UNL     1      15.543  -3.745  56.320  1.00  0.00    -0.025 C 
HETATM   11  C13 UNL     1      14.336  -4.742  56.404  1.00  0.00     0.016 C 
HETATM   12  C14 UNL     1      16.709  -4.338  57.076  1.00  0.00     0.006 C 
HETATM   13  C15 UNL     1      17.875  -4.365  56.148  1.00  0.00     0.084 C 
HETATM   14  C16 UNL     1      17.464  -3.603  54.941  1.00  0.00     0.136 C 
HETATM   15  O3  UNL     1      18.123  -3.000  54.174  1.00  0.00    -0.297 OA
HETATM   16  C17 UNL     1      15.968  -3.786  54.929  1.00  0.00     0.092 C 
HETATM   17  C25 UNL     1      16.315  -2.743  60.505  1.00  0.00     0.044 C 
HETATM   18  C27 UNL     1      15.233  -2.437  61.472  1.00  0.00     0.058 C 
ENDROOT
BRANCH  16  19
HETATM   19  C18 UNL     1      15.330  -3.018  53.836  1.00  0.00    -0.075 C 
HETATM   20  C19 UNL     1      15.727  -1.657  53.528  1.00  0.00     0.044 C 
BRANCH  19  21
HETATM   21  C20 UNL     1      15.096  -3.933  52.677  1.00  0.00    -0.016 C 
BRANCH  21  22
HETATM   22  C21 UNL     1      14.596  -5.291  52.838  1.00  0.00     0.107 C 
BRANCH  22  23
HETATM   23  C22 UNL     1      15.347  -6.343  52.170  1.00  0.00     0.148 C 
HETATM   24  O4  UNL     1      15.248  -6.606  51.006  1.00  0.00    -0.296 OA
BRANCH  23  25
HETATM   25  C23 UNL     1      16.319  -7.156  52.992  1.00  0.00     0.148 C 
HETATM   26  C24 UNL     1      15.770  -7.306  54.373  1.00  0.00     0.034 C 
HETATM   27 CL1  UNL     1      17.887  -6.323  53.090  1.00  0.00    -0.117 Cl
ENDBRANCH  23  25
ENDBRANCH  22  23
ENDBRANCH  21  22
ENDBRANCH  19  21
ENDBRANCH  16  19
BRANCH  17  28
HETATM   28  S1  UNL     1      17.514  -3.928  61.109  1.00  0.00    -0.088 SA
BRANCH  28  29
HETATM   29  C26 UNL     1      18.816  -3.386  62.093  1.00  0.00     0.150 C 
HETATM   30  N1  UNL     1      20.009  -2.907  61.462  1.00  0.00    -0.082 NA
HETATM   31  S2  UNL     1      18.807  -3.394  63.705  1.00  0.00    -0.056 SA
ENDBRANCH  28  29
ENDBRANCH  17  28
BRANCH   1  32
HETATM   32  O2  UNL     1      14.871  -0.497  62.918  1.00  0.00    -0.316 OA
BRANCH  32  33
HETATM   33  C2  UNL     1      14.013   0.538  63.247  1.00  0.00     0.255 C 
HETATM   34  C1  UNL     1      14.527   1.912  63.413  1.00  0.00     0.126 C 
HETATM   35  O1  UNL     1      12.794   0.274  63.397  1.00  0.00    -0.266 OA
ENDBRANCH  32  33
ENDBRANCH   1  32
TORSDOF 9
ENDMDL
MODEL 4
REMARK VINA RESULT: -8.368384037      4.198      7.840
REMARK  9 active torsions:
REMARK  status: ('A' for Active; 'I' for Inactive)
REMARK    1  A    between atoms: C2_2  and  O2_4 
REMARK    2  A    between atoms: O2_4  and  C3_5 
REMARK    3  A    between atoms: C17_20  and  C18_21 
REMARK    4  A    between atoms: C18_21  and  C20_23 
REMARK    5  A    between atoms: C20_23  and  C21_24 
REMARK    6  A    between atoms: C21_24  and  C22_25 
REMARK    7  A    between atoms: C22_25  and  C23_27 
REMARK    8  A    between atoms: C25_30  and  S1_31 
REMARK    9  A    between atoms: S1_31  and  C26_32 
ROOT
HETATM    1  C3  UNL     1      16.806  -1.153  60.270  1.00  0.00     0.137 C 
HETATM    2  C4  UNL     1      17.936  -2.126  60.511  1.00  0.00     0.068 C 
HETATM    3  C5  UNL     1      17.954  -2.932  59.258  1.00  0.00    -0.062 C 
HETATM    4  C6  UNL     1      18.890  -3.632  58.661  1.00  0.00    -0.022 C 
HETATM    5  C7  UNL     1      18.654  -4.349  57.400  1.00  0.00     0.033 C 
HETATM    6  C8  UNL     1      17.547  -3.841  56.553  1.00  0.00     0.000 C 
HETATM    7  C9  UNL     1      16.896  -2.602  57.071  1.00  0.00     0.014 C 
HETATM    8  C10 UNL     1      17.786  -1.449  56.854  1.00  0.00     0.007 C 
HETATM    9  C11 UNL     1      18.859  -1.630  55.808  1.00  0.00     0.011 C 
HETATM   10  C12 UNL     1      18.478  -2.446  54.638  1.00  0.00    -0.025 C 
HETATM   11  C13 UNL     1      17.387  -1.678  53.812  1.00  0.00     0.016 C 
HETATM   12  C14 UNL     1      17.895  -3.762  55.097  1.00  0.00     0.006 C 
HETATM   13  C15 UNL     1      18.818  -4.840  54.643  1.00  0.00     0.084 C 
HETATM   14  C16 UNL     1      20.029  -4.159  54.118  1.00  0.00     0.136 C 
HETATM   15  O3  UNL     1      21.141  -4.542  54.063  1.00  0.00    -0.297 OA
HETATM   16  C17 UNL     1      19.487  -2.829  53.662  1.00  0.00     0.092 C 
HETATM   17  C25 UNL     1      16.633  -2.891  58.576  1.00  0.00     0.044 C 
HETATM   18  C27 UNL     1      15.902  -1.791  59.252  1.00  0.00     0.058 C 
ENDROOT
BRANCH  16  19
HETATM   19  C18 UNL     1      20.563  -1.935  53.176  1.00  0.00    -0.075 C 
HETATM   20  C19 UNL     1      20.341  -0.994  52.095  1.00  0.00     0.044 C 
BRANCH  19  21
HETATM   21  C20 UNL     1      21.349  -1.446  54.349  1.00  0.00    -0.016 C 
BRANCH  21  22
HETATM   22  C21 UNL     1      22.183  -0.254  54.294  1.00  0.00     0.107 C 
BRANCH  22  23
HETATM   23  C22 UNL     1      21.838   0.824  55.206  1.00  0.00     0.148 C 
HETATM   24  O4  UNL     1      22.129   0.843  56.368  1.00  0.00    -0.296 OA
BRANCH  23  25
HETATM   25  C23 UNL     1      21.065   2.001  54.659  1.00  0.00     0.148 C 
HETATM   26  C24 UNL     1      19.611   1.784  54.924  1.00  0.00     0.034 C 
HETATM   27 CL1  UNL     1      21.311   2.134  52.903  1.00  0.00    -0.117 Cl
ENDBRANCH  23  25
ENDBRANCH  22  23
ENDBRANCH  21  22
ENDBRANCH  19  21
ENDBRANCH  16  19
BRANCH  17  28
HETATM   28  S1  UNL     1      15.748  -4.447  58.561  1.00  0.00    -0.088 SA
BRANCH  28  29
HETATM   29  C26 UNL     1      14.189  -4.528  57.840  1.00  0.00     0.150 C 
HETATM   30  N1  UNL     1      13.040  -4.221  58.637  1.00  0.00    -0.082 NA
HETATM   31  S2  UNL     1      13.912  -4.950  56.309  1.00  0.00    -0.056 SA
ENDBRANCH  28  29
ENDBRANCH  17  28
BRANCH   1  32
HETATM   32  O2  UNL     1      16.197  -0.786  61.463  1.00  0.00    -0.316 OA
BRANCH  32  33
HETATM   33  C2  UNL     1      16.451   0.385  62.156  1.00  0.00     0.255 C 
HETATM   34  C1  UNL     1      15.474   0.902  63.135  1.00  0.00     0.126 C 
HETATM   35  O1  UNL     1      17.529   0.988  61.929  1.00  0.00    -0.266 OA
ENDBRANCH  32  33
ENDBRANCH   1  32
TORSDOF 9
ENDMDL
MODEL 5
REMARK VINA RESULT: -8.332678851      1.717      2.077
REMARK  9 active torsions:
REMARK  status: ('A' for Active; 'I' for Inactive)
REMARK    1  A    between atoms: C2_2  and  O2_4 
REMARK    2  A    between atoms: O2_4  and  C3_5 
REMARK    3  A    between atoms: C17_20  and  C18_21 
REMARK    4  A    between atoms: C18_21  and  C20_23 
REMARK    5  A    between atoms: C20_23  and  C21_24 
REMARK    6  A    between atoms: C21_24  and  C22_25 
REMARK    7  A    between atoms: C22_25  and  C23_27 
REMARK    8  A    between atoms: C25_30  and  S1_31 
REMARK    9  A    between atoms: S1_31  and  C26_32 
ROOT
HETATM    1  C3  UNL     1      15.517  -1.831  53.104  1.00  0.00     0.137 C 
HETATM    2  C4  UNL     1      15.567  -3.336  53.221  1.00  0.00     0.068 C 
HETATM    3  C5  UNL     1      16.482  -3.550  54.376  1.00  0.00    -0.062 C 
HETATM    4  C6  UNL     1      16.628  -4.539  55.227  1.00  0.00    -0.022 C 
HETATM    5  C7  UNL     1      17.623  -4.507  56.309  1.00  0.00     0.033 C 
HETATM    6  C8  UNL     1      18.066  -3.162  56.753  1.00  0.00     0.000 C 
HETATM    7  C9  UNL     1      17.353  -2.031  56.092  1.00  0.00     0.014 C 
HETATM    8  C10 UNL     1      15.990  -1.921  56.637  1.00  0.00     0.007 C 
HETATM    9  C11 UNL     1      15.757  -2.580  57.975  1.00  0.00     0.011 C 
HETATM   10  C12 UNL     1      16.891  -2.524  58.919  1.00  0.00    -0.025 C 
HETATM   11  C13 UNL     1      17.118  -1.035  59.358  1.00  0.00     0.016 C 
HETATM   12  C14 UNL     1      18.147  -3.021  58.243  1.00  0.00     0.006 C 
HETATM   13  C15 UNL     1      18.563  -4.271  58.941  1.00  0.00     0.084 C 
HETATM   14  C16 UNL     1      17.455  -4.620  59.866  1.00  0.00     0.136 C 
HETATM   15  O3  UNL     1      17.124  -5.673  60.277  1.00  0.00    -0.297 OA
HETATM   16  C17 UNL     1      16.837  -3.277  60.163  1.00  0.00     0.092 C 
HETATM   17  C25 UNL     1      17.375  -2.377  54.577  1.00  0.00     0.044 C 
HETATM   18  C27 UNL     1      16.779  -1.312  53.736  1.00  0.00     0.058 C 
ENDROOT
BRANCH  16  19
HETATM   19  C18 UNL     1      15.633  -3.403  61.013  1.00  0.00    -0.075 C 
HETATM   20  C19 UNL     1      14.584  -4.359  60.713  1.00  0.00     0.044 C 
BRANCH  19  21
HETATM   21  C20 UNL     1      16.039  -3.273  62.446  1.00  0.00    -0.016 C 
BRANCH  21  22
HETATM   22  C21 UNL     1      16.581  -2.040  63.000  1.00  0.00     0.107 C 
BRANCH  22  23
HETATM   23  C22 UNL     1      15.616  -1.025  63.392  1.00  0.00     0.148 C 
HETATM   24  O4  UNL     1      14.933  -1.088  64.374  1.00  0.00    -0.296 OA
BRANCH  23  25
HETATM   25  C23 UNL     1      15.463   0.193  62.510  1.00  0.00     0.148 C 
HETATM   26  C24 UNL     1      16.821   0.745  62.219  1.00  0.00     0.034 C 
HETATM   27 CL1  UNL     1      14.508   1.439  63.346  1.00  0.00    -0.117 Cl
ENDBRANCH  23  25
ENDBRANCH  22  23
ENDBRANCH  21  22
ENDBRANCH  19  21
ENDBRANCH  16  19
BRANCH  17  28
HETATM   28  S1  UNL     1      19.106  -2.687  54.237  1.00  0.00    -0.088 SA
BRANCH  28  29
HETATM   29  C26 UNL     1      20.087  -1.416  53.623  1.00  0.00     0.150 C 
HETATM   30  N1  UNL     1      20.758  -1.601  52.372  1.00  0.00    -0.082 NA
HETATM   31  S2  UNL     1      20.333  -0.009  54.371  1.00  0.00    -0.056 SA
ENDBRANCH  28  29
ENDBRANCH  17  28
BRANCH   1  32
HETATM   32  O2  UNL     1      15.301  -1.437  51.790  1.00  0.00    -0.316 OA
BRANCH  32  33
HETATM   33  C2  UNL     1      14.700  -0.250  51.406  1.00  0.00     0.255 C 
HETATM   34  C1  UNL     1      14.511   0.843  52.381  1.00  0.00     0.126 C 
HETATM   35  O1  UNL     1      14.325  -0.134  50.213  1.00  0.00    -0.266 OA
ENDBRANCH  32  33
ENDBRANCH   1  32
TORSDOF 9
ENDMDL
