MODEL 1
REMARK VINA RESULT: -7.164593583      0.000      0.000
REMARK  8 active torsions:
REMARK  status: ('A' for Active; 'I' for Inactive)
REMARK    1  A    between atoms: C2_2  and  C3_3 
REMARK    2  A    between atoms: N1_8  and  C8_9 
REMARK    3  A    between atoms: C8_9  and  C9_10 
REMARK    4  A    between atoms: C9_10  and  C10_11 
REMARK    5  A    between atoms: C10_11  and  N2_12 
REMARK       I    between atoms: N2_12  and  C11_14 
REMARK    6  A    between atoms: C11_14  and  C12_16 
REMARK       I    between atoms: C12_16  and  N3_18 
REMARK    7  A    between atoms: N3_18  and  C13_20 
REMARK    8  A    between atoms: C13_20  and  C14_21 
ROOT
HETATM    1  N2  UNL     1      16.678   6.664  11.254  1.00  0.00    -0.353 N 
ATOM      2  H2  UNL     1      16.102   6.759  12.090  1.00  0.00     0.162 HD
HETATM    3  C11 UNL     1      17.043   5.356  10.858  1.00  0.00     0.309 C 
HETATM    4  O1  UNL     1      17.753   5.123   9.843  1.00  0.00    -0.262 OA
ENDROOT
BRANCH   3   5
HETATM    5  C12 UNL     1      16.587   4.226  11.643  1.00  0.00     0.309 C 
HETATM    6  O2  UNL     1      15.538   3.626  11.316  1.00  0.00    -0.262 OA
HETATM    7  N3  UNL     1      17.331   3.812  12.770  1.00  0.00    -0.350 N 
ATOM      8  H3  UNL     1      18.184   4.306  13.029  1.00  0.00     0.162 HD
BRANCH   7   9
HETATM    9  C13 UNL     1      16.874   2.673  13.563  1.00  0.00     0.155 C 
BRANCH   9  10
HETATM   10  C14 UNL     1      15.972   3.191  14.675  1.00  0.00     0.139 C 
HETATM   11  C15 UNL     1      16.476   4.482  15.223  1.00  0.00     0.035 C 
HETATM   12  C16 UNL     1      15.369   5.546  15.268  1.00  0.00     0.029 C 
HETATM   13  C17 UNL     1      14.393   5.261  16.380  1.00  0.00     0.167 C 
HETATM   14  O3  UNL     1      14.137   3.893  16.465  1.00  0.00    -0.389 OA
HETATM   15  C18 UNL     1      14.927   3.388  17.481  1.00  0.00     0.193 C 
HETATM   16  C19 UNL     1      15.908   2.415  16.871  1.00  0.00     0.194 C 
HETATM   17  O4  UNL     1      15.744   2.192  15.545  1.00  0.00    -0.382 OA
ENDBRANCH   9  10
ENDBRANCH   7   9
ENDBRANCH   3   5
BRANCH   1  18
HETATM   18  C10 UNL     1      17.056   7.874  10.569  1.00  0.00     0.125 C 
BRANCH  18  19
HETATM   19  C9  UNL     1      17.187   9.070  11.484  1.00  0.00     0.050 C 
BRANCH  19  20
HETATM   20  C8  UNL     1      18.591   9.559  11.534  1.00  0.00     0.274 C 
BRANCH  20  21
HETATM   21  N1  UNL     1      19.386   9.075  12.632  1.00  0.00     0.093 N 
HETATM   22  C3  UNL     1      18.564   8.524  13.678  1.00  0.00     0.222 C 
HETATM   23  C4  UNL     1      18.305   9.400  14.833  1.00  0.00     0.036 C 
HETATM   24  C5  UNL     1      19.271  10.474  15.145  1.00  0.00     0.004 C 
HETATM   25  C6  UNL     1      19.699  11.142  13.854  1.00  0.00     0.030 C 
HETATM   26  C7  UNL     1      20.345  10.014  13.045  1.00  0.00     0.273 C 
BRANCH  22  27
HETATM   27  C2  UNL     1      19.018   7.135  14.073  1.00  0.00     0.031 C 
HETATM   28  C1  UNL     1      19.855   6.441  13.057  1.00  0.00     0.007 C 
ENDBRANCH  22  27
ENDBRANCH  20  21
ENDBRANCH  19  20
ENDBRANCH  18  19
ENDBRANCH   1  18
TORSDOF 8
ENDMDL
MODEL 2
REMARK VINA RESULT: -7.057088292      2.295      4.144
REMARK  8 active torsions:
REMARK  status: ('A' for Active; 'I' for Inactive)
REMARK    1  A    between atoms: C2_2  and  C3_3 
REMARK    2  A    between atoms: N1_8  and  C8_9 
REMARK    3  A    between atoms: C8_9  and  C9_10 
REMARK    4  A    between atoms: C9_10  and  C10_11 
REMARK    5  A    between atoms: C10_11  and  N2_12 
REMARK       I    between atoms: N2_12  and  C11_14 
REMARK    6  A    between atoms: C11_14  and  C12_16 
REMARK       I    between atoms: C12_16  and  N3_18 
REMARK    7  A    between atoms: N3_18  and  C13_20 
REMARK    8  A    between atoms: C13_20  and  C14_21 
ROOT
HETATM    1  N2  UNL     1      17.424   6.477  11.549  1.00  0.00    -0.353 N 
ATOM      2  H2  UNL     1      17.298   6.535  12.560  1.00  0.00     0.162 HD
HETATM    3  C11 UNL     1      17.104   5.250  10.922  1.00  0.00     0.309 C 
HETATM    4  O1  UNL     1      17.223   5.067   9.681  1.00  0.00    -0.262 OA
ENDROOT
BRANCH   3   5
HETATM    5  C12 UNL     1      16.615   4.149  11.728  1.00  0.00     0.309 C 
HETATM    6  O2  UNL     1      15.544   3.580  11.417  1.00  0.00    -0.262 OA
HETATM    7  N3  UNL     1      17.351   3.730  12.859  1.00  0.00    -0.350 N 
ATOM      8  H3  UNL     1      18.222   4.200  13.105  1.00  0.00     0.162 HD
BRANCH   7   9
HETATM    9  C13 UNL     1      16.861   2.620  13.673  1.00  0.00     0.155 C 
BRANCH   9  10
HETATM   10  C14 UNL     1      15.948   3.182  14.754  1.00  0.00     0.139 C 
HETATM   11  C15 UNL     1      16.474   4.469  15.292  1.00  0.00     0.035 C 
HETATM   12  C16 UNL     1      15.396   5.564  15.291  1.00  0.00     0.029 C 
HETATM   13  C17 UNL     1      14.388   5.325  16.384  1.00  0.00     0.167 C 
HETATM   14  O3  UNL     1      14.091   3.966  16.487  1.00  0.00    -0.389 OA
HETATM   15  C18 UNL     1      14.844   3.458  17.530  1.00  0.00     0.193 C 
HETATM   16  C19 UNL     1      15.811   2.448  16.961  1.00  0.00     0.194 C 
HETATM   17  O4  UNL     1      15.672   2.205  15.636  1.00  0.00    -0.382 OA
ENDBRANCH   9  10
ENDBRANCH   7   9
ENDBRANCH   3   5
BRANCH   1  18
HETATM   18  C10 UNL     1      17.915   7.651  10.875  1.00  0.00     0.125 C 
BRANCH  18  19
HETATM   19  C9  UNL     1      16.874   8.734  10.711  1.00  0.00     0.050 C 
BRANCH  19  20
HETATM   20  C8  UNL     1      16.449   8.864   9.292  1.00  0.00     0.274 C 
BRANCH  20  21
HETATM   21  N1  UNL     1      15.598   9.984   8.991  1.00  0.00     0.093 N 
HETATM   22  C3  UNL     1      14.719  10.291  10.089  1.00  0.00     0.222 C 
HETATM   23  C4  UNL     1      13.341   9.785   9.983  1.00  0.00     0.036 C 
HETATM   24  C5  UNL     1      12.778   9.523   8.641  1.00  0.00     0.004 C 
HETATM   25  C6  UNL     1      13.830   8.845   7.790  1.00  0.00     0.030 C 
HETATM   26  C7  UNL     1      14.979   9.856   7.737  1.00  0.00     0.273 C 
BRANCH  22  27
HETATM   27  C2  UNL     1      14.788  11.755  10.468  1.00  0.00     0.031 C 
HETATM   28  C1  UNL     1      16.162  12.328  10.492  1.00  0.00     0.007 C 
ENDBRANCH  22  27
ENDBRANCH  20  21
ENDBRANCH  19  20
ENDBRANCH  18  19
ENDBRANCH   1  18
TORSDOF 8
ENDMDL
MODEL 3
REMARK VINA RESULT: -7.048858983      2.162      3.945
REMARK  8 active torsions:
REMARK  status: ('A' for Active; 'I' for Inactive)
REMARK    1  A    between atoms: C2_2  and  C3_3 
REMARK    2  A    between atoms: N1_8  and  C8_9 
REMARK    3  A    between atoms: C8_9  and  C9_10 
REMARK    4  A    between atoms: C9_10  and  C10_11 
REMARK    5  A    between atoms: C10_11  and  N2_12 
REMARK       I    between atoms: N2_12  and  C11_14 
REMARK    6  A    between atoms: C11_14  and  C12_16 
REMARK       I    between atoms: C12_16  and  N3_18 
REMARK    7  A    between atoms: N3_18  and  C13_20 
REMARK    8  A    between atoms: C13_20  and  C14_21 
ROOT
HETATM    1  N2  UNL     1      18.068   6.094  11.588  1.00  0.00    -0.353 N 
ATOM      2  H2  UNL     1      18.180   6.054  12.602  1.00  0.00     0.162 HD
HETATM    3  C11 UNL     1      17.302   5.074  10.977  1.00  0.00     0.309 C 
HETATM    4  O1  UNL     1      17.100   5.025   9.734  1.00  0.00    -0.262 OA
ENDROOT
BRANCH   3   5
HETATM    5  C12 UNL     1      16.718   4.036  11.802  1.00  0.00     0.309 C 
HETATM    6  O2  UNL     1      15.607   3.549  11.493  1.00  0.00    -0.262 OA
HETATM    7  N3  UNL     1      17.408   3.584  12.949  1.00  0.00    -0.350 N 
ATOM      8  H3  UNL     1      18.312   3.987  13.194  1.00  0.00     0.162 HD
BRANCH   7   9
HETATM    9  C13 UNL     1      16.822   2.537  13.783  1.00  0.00     0.155 C 
BRANCH   9  10
HETATM   10  C14 UNL     1      15.924   3.195  14.823  1.00  0.00     0.139 C 
HETATM   11  C15 UNL     1      16.496   4.491  15.288  1.00  0.00     0.035 C 
HETATM   12  C16 UNL     1      15.460   5.623  15.215  1.00  0.00     0.029 C 
HETATM   13  C17 UNL     1      14.437   5.487  16.313  1.00  0.00     0.167 C 
HETATM   14  O3  UNL     1      14.090   4.148  16.492  1.00  0.00    -0.389 OA
HETATM   15  C18 UNL     1      14.817   3.675  17.569  1.00  0.00     0.193 C 
HETATM   16  C19 UNL     1      15.749   2.597  17.068  1.00  0.00     0.194 C 
HETATM   17  O4  UNL     1      15.608   2.283  15.758  1.00  0.00    -0.382 OA
ENDBRANCH   9  10
ENDBRANCH   7   9
ENDBRANCH   3   5
BRANCH   1  18
HETATM   18  C10 UNL     1      18.702   7.186  10.894  1.00  0.00     0.125 C 
BRANCH  18  19
HETATM   19  C9  UNL     1      17.847   8.430  10.816  1.00  0.00     0.050 C 
BRANCH  19  20
HETATM   20  C8  UNL     1      17.353   8.659   9.432  1.00  0.00     0.274 C 
BRANCH  20  21
HETATM   21  N1  UNL     1      16.269   9.596   9.299  1.00  0.00     0.093 N 
HETATM   22  C3  UNL     1      15.086   9.137   9.978  1.00  0.00     0.222 C 
HETATM   23  C4  UNL     1      14.055   8.505   9.139  1.00  0.00     0.036 C 
HETATM   24  C5  UNL     1      13.990   8.856   7.704  1.00  0.00     0.004 C 
HETATM   25  C6  UNL     1      15.397   8.910   7.146  1.00  0.00     0.030 C 
HETATM   26  C7  UNL     1      16.084  10.004   7.968  1.00  0.00     0.273 C 
BRANCH  22  27
HETATM   27  C2  UNL     1      14.531  10.193  10.910  1.00  0.00     0.031 C 
HETATM   28  C1  UNL     1      13.457   9.715  11.823  1.00  0.00     0.007 C 
ENDBRANCH  22  27
ENDBRANCH  20  21
ENDBRANCH  19  20
ENDBRANCH  18  19
ENDBRANCH   1  18
TORSDOF 8
ENDMDL
MODEL 4
REMARK VINA RESULT: -7.005996409      1.982      2.841
REMARK  8 active torsions:
REMARK  status: ('A' for Active; 'I' for Inactive)
REMARK    1  A    between atoms: C2_2  and  C3_3 
REMARK    2  A    between atoms: N1_8  and  C8_9 
REMARK    3  A    between atoms: C8_9  and  C9_10 
REMARK    4  A    between atoms: C9_10  and  C10_11 
REMARK    5  A    between atoms: C10_11  and  N2_12 
REMARK       I    between atoms: N2_12  and  C11_14 
REMARK    6  A    between atoms: C11_14  and  C12_16 
REMARK       I    between atoms: C12_16  and  N3_18 
REMARK    7  A    between atoms: N3_18  and  C13_20 
REMARK    8  A    between atoms: C13_20  and  C14_21 
ROOT
HETATM    1  N2  UNL     1      18.351   5.903  10.042  1.00  0.00    -0.353 N 
ATOM      2  H2  UNL     1      19.294   5.702  10.377  1.00  0.00     0.162 HD
HETATM    3  C11 UNL     1      17.273   5.292  10.724  1.00  0.00     0.309 C 
HETATM    4  O1  UNL     1      16.069   5.469  10.396  1.00  0.00    -0.262 OA
ENDROOT
BRANCH   3   5
HETATM    5  C12 UNL     1      17.549   4.424  11.852  1.00  0.00     0.309 C 
HETATM    6  O2  UNL     1      18.730   4.260  12.234  1.00  0.00    -0.262 OA
HETATM    7  N3  UNL     1      16.483   3.771  12.508  1.00  0.00    -0.350 N 
ATOM      8  H3  UNL     1      15.524   3.910  12.190  1.00  0.00     0.162 HD
BRANCH   7   9
HETATM    9  C13 UNL     1      16.758   2.895  13.645  1.00  0.00     0.155 C 
BRANCH   9  10
HETATM   10  C14 UNL     1      15.858   3.311  14.802  1.00  0.00     0.139 C 
HETATM   11  C15 UNL     1      16.299   4.607  15.391  1.00  0.00     0.035 C 
HETATM   12  C16 UNL     1      15.132   5.598  15.510  1.00  0.00     0.029 C 
HETATM   13  C17 UNL     1      14.208   5.209  16.635  1.00  0.00     0.167 C 
HETATM   14  O3  UNL     1      14.037   3.825  16.667  1.00  0.00    -0.389 OA
HETATM   15  C18 UNL     1      14.885   3.328  17.640  1.00  0.00     0.193 C 
HETATM   16  C19 UNL     1      15.904   2.443  16.964  1.00  0.00     0.194 C 
HETATM   17  O4  UNL     1      15.716   2.264  15.634  1.00  0.00    -0.382 OA
ENDBRANCH   9  10
ENDBRANCH   7   9
ENDBRANCH   3   5
BRANCH   1  18
HETATM   18  C10 UNL     1      18.224   6.788   8.912  1.00  0.00     0.125 C 
BRANCH  18  19
HETATM   19  C9  UNL     1      18.301   8.252   9.279  1.00  0.00     0.050 C 
BRANCH  19  20
HETATM   20  C8  UNL     1      16.945   8.830   9.475  1.00  0.00     0.274 C 
BRANCH  20  21
HETATM   21  N1  UNL     1      16.665   9.343  10.790  1.00  0.00     0.093 N 
HETATM   22  C3  UNL     1      15.548   8.666  11.395  1.00  0.00     0.222 C 
HETATM   23  C4  UNL     1      14.251   9.361  11.333  1.00  0.00     0.036 C 
HETATM   24  C5  UNL     1      14.236  10.834  11.204  1.00  0.00     0.004 C 
HETATM   25  C6  UNL     1      15.293  11.251  10.201  1.00  0.00     0.030 C 
HETATM   26  C7  UNL     1      16.605  10.747  10.808  1.00  0.00     0.273 C 
BRANCH  22  27
HETATM   27  C2  UNL     1      15.885   8.159  12.781  1.00  0.00     0.031 C 
HETATM   28  C1  UNL     1      17.340   7.981  13.041  1.00  0.00     0.007 C 
ENDBRANCH  22  27
ENDBRANCH  20  21
ENDBRANCH  19  20
ENDBRANCH  18  19
ENDBRANCH   1  18
TORSDOF 8
ENDMDL
MODEL 5
REMARK VINA RESULT: -6.983067780      2.306      4.270
REMARK  8 active torsions:
REMARK  status: ('A' for Active; 'I' for Inactive)
REMARK    1  A    between atoms: C2_2  and  C3_3 
REMARK    2  A    between atoms: N1_8  and  C8_9 
REMARK    3  A    between atoms: C8_9  and  C9_10 
REMARK    4  A    between atoms: C9_10  and  C10_11 
REMARK    5  A    between atoms: C10_11  and  N2_12 
REMARK       I    between atoms: N2_12  and  C11_14 
REMARK    6  A    between atoms: C11_14  and  C12_16 
REMARK       I    between atoms: C12_16  and  N3_18 
REMARK    7  A    between atoms: N3_18  and  C13_20 
REMARK    8  A    between atoms: C13_20  and  C14_21 
ROOT
HETATM    1  N2  UNL     1      17.230   6.584  11.458  1.00  0.00    -0.353 N 
ATOM      2  H2  UNL     1      16.996   6.674  12.447  1.00  0.00     0.162 HD
HETATM    3  C11 UNL     1      17.074   5.309  10.865  1.00  0.00     0.309 C 
HETATM    4  O1  UNL     1      17.335   5.083   9.653  1.00  0.00    -0.262 OA
ENDROOT
BRANCH   3   5
HETATM    5  C12 UNL     1      16.593   4.206  11.674  1.00  0.00     0.309 C 
HETATM    6  O2  UNL     1      15.516   3.642  11.376  1.00  0.00    -0.262 OA
HETATM    7  N3  UNL     1      17.344   3.779  12.791  1.00  0.00    -0.350 N 
ATOM      8  H3  UNL     1      18.221   4.245  13.027  1.00  0.00     0.162 HD
BRANCH   7   9
HETATM    9  C13 UNL     1      16.863   2.668  13.609  1.00  0.00     0.155 C 
BRANCH   9  10
HETATM   10  C14 UNL     1      15.965   3.229  14.704  1.00  0.00     0.139 C 
HETATM   11  C15 UNL     1      16.491   4.523  15.223  1.00  0.00     0.035 C 
HETATM   12  C16 UNL     1      15.403   5.608  15.237  1.00  0.00     0.029 C 
HETATM   13  C17 UNL     1      14.418   5.367  16.351  1.00  0.00     0.167 C 
HETATM   14  O3  UNL     1      14.136   4.007  16.467  1.00  0.00    -0.389 OA
HETATM   15  C18 UNL     1      14.913   3.512  17.499  1.00  0.00     0.193 C 
HETATM   16  C19 UNL     1      15.878   2.507  16.917  1.00  0.00     0.194 C 
HETATM   17  O4  UNL     1      15.715   2.255  15.596  1.00  0.00    -0.382 OA
ENDBRANCH   9  10
ENDBRANCH   7   9
ENDBRANCH   3   5
BRANCH   1  18
HETATM   18  C10 UNL     1      17.694   7.766  10.776  1.00  0.00     0.125 C 
BRANCH  18  19
HETATM   19  C9  UNL     1      16.856   8.992  11.055  1.00  0.00     0.050 C 
BRANCH  19  20
HETATM   20  C8  UNL     1      16.372   9.613   9.794  1.00  0.00     0.274 C 
BRANCH  20  21
HETATM   21  N1  UNL     1      15.508   8.797   8.983  1.00  0.00     0.093 N 
HETATM   22  C3  UNL     1      15.436   9.284   7.630  1.00  0.00     0.222 C 
HETATM   23  C4  UNL     1      14.254  10.094   7.289  1.00  0.00     0.036 C 
HETATM   24  C5  UNL     1      13.013   9.908   8.071  1.00  0.00     0.004 C 
HETATM   25  C6  UNL     1      13.369   9.789   9.538  1.00  0.00     0.030 C 
HETATM   26  C7  UNL     1      14.272   8.554   9.605  1.00  0.00     0.273 C 
BRANCH  22  27
HETATM   27  C2  UNL     1      15.717   8.187   6.625  1.00  0.00     0.031 C 
HETATM   28  C1  UNL     1      16.912   7.355   6.930  1.00  0.00     0.007 C 
ENDBRANCH  22  27
ENDBRANCH  20  21
ENDBRANCH  19  20
ENDBRANCH  18  19
ENDBRANCH   1  18
TORSDOF 8
ENDMDL
