MODEL 1
REMARK VINA RESULT: -7.170203373      0.000      0.000
REMARK  9 active torsions:
REMARK  status: ('A' for Active; 'I' for Inactive)
REMARK    1  A    between atoms: C2_2  and  N1_3 
REMARK    2  A    between atoms: C5_6  and  C6_7 
REMARK    3  A    between atoms: C6_7  and  O1_8 
REMARK    4  A    between atoms: N2_13  and  C10_14 
REMARK    5  A    between atoms: C10_14  and  C11_15 
REMARK    6  A    between atoms: C15_19  and  C16_20 
REMARK    7  A    between atoms: C16_20  and  O2_21 
REMARK    8  A    between atoms: C16_20  and  C17_23 
REMARK    9  A    between atoms: C18_25  and  C19_26 
ROOT
HETATM    1  N1  UNL     1      17.469   7.882  13.722  1.00  0.00     0.112 N 
HETATM    2  C3  UNL     1      16.595   7.004  13.120  1.00  0.00     0.299 A 
HETATM    3  C4  UNL     1      16.345   6.758  11.693  1.00  0.00     0.265 C 
HETATM    4  C5  UNL     1      17.051   5.523  11.180  1.00  0.00     0.049 C 
HETATM    5  C7  UNL     1      18.509   5.743  11.323  1.00  0.00    -0.002 C 
HETATM    6  C8  UNL     1      18.853   6.845  10.308  1.00  0.00     0.035 C 
HETATM    7  C9  UNL     1      17.651   7.568   9.808  1.00  0.00     0.273 C 
HETATM    8  N2  UNL     1      16.633   7.852  10.803  1.00  0.00     0.096 N 
HETATM    9  C14 UNL     1      18.968   6.236  12.653  1.00  0.00     0.052 C 
HETATM   10  C15 UNL     1      17.932   6.545  13.655  1.00  0.00     0.221 A 
ENDROOT
BRANCH  10  11
HETATM   11  C16 UNL     1      17.956   5.718  14.954  1.00  0.00     0.191 C 
BRANCH  11  12
HETATM   12  O2  UNL     1      19.279   5.407  15.261  1.00  0.00    -0.390 OA
ATOM     13  H2  UNL     1      19.317   4.510  15.570  1.00  0.00     0.210 HD
ENDBRANCH  11  12
BRANCH  11  14
HETATM   14  C17 UNL     1      17.068   4.525  14.881  1.00  0.00     0.182 A 
HETATM   15  O3  UNL     1      17.429   3.321  15.432  1.00  0.00    -0.372 OA
HETATM   16  C18 UNL     1      16.507   4.043  16.184  1.00  0.00     0.157 A 
BRANCH  16  17
HETATM   17  C19 UNL     1      15.073   3.597  16.245  1.00  0.00     0.009 C 
HETATM   18  C20 UNL     1      15.018   2.357  17.127  1.00  0.00     0.012 C 
HETATM   19  C21 UNL     1      14.156   4.617  16.869  1.00  0.00     0.012 C 
ENDBRANCH  16  17
ENDBRANCH  11  14
ENDBRANCH  10  11
BRANCH   1  20
HETATM   20  C2  UNL     1      18.089   9.053  13.382  1.00  0.00     0.270 C 
HETATM   21  C1  UNL     1      18.904   9.589  14.567  1.00  0.00     0.037 C 
ENDBRANCH   1  20
BRANCH   4  22
HETATM   22  C6  UNL     1      16.523   4.233  11.673  1.00  0.00     0.171 C 
BRANCH  22  23
HETATM   23  O1  UNL     1      15.294   3.995  11.034  1.00  0.00    -0.400 OA
ATOM     24  H1  UNL     1      14.779   4.791  11.083  1.00  0.00     0.209 HD
ENDBRANCH  22  23
ENDBRANCH   4  22
BRANCH   8  25
HETATM   25  C10 UNL     1      15.454   8.221   9.995  1.00  0.00     0.277 C 
BRANCH  25  26
HETATM   26  C11 UNL     1      14.923   9.565  10.377  1.00  0.00     0.014 A 
HETATM   27  C12 UNL     1      14.023   9.678  11.523  1.00  0.00     0.007 A 
HETATM   28  C13 UNL     1      13.425   9.749  10.128  1.00  0.00     0.007 A 
ENDBRANCH  25  26
ENDBRANCH   8  25
TORSDOF 9
ENDMDL
MODEL 2
REMARK VINA RESULT: -6.863514840      1.565      2.534
REMARK  9 active torsions:
REMARK  status: ('A' for Active; 'I' for Inactive)
REMARK    1  A    between atoms: C2_2  and  N1_3 
REMARK    2  A    between atoms: C5_6  and  C6_7 
REMARK    3  A    between atoms: C6_7  and  O1_8 
REMARK    4  A    between atoms: N2_13  and  C10_14 
REMARK    5  A    between atoms: C10_14  and  C11_15 
REMARK    6  A    between atoms: C15_19  and  C16_20 
REMARK    7  A    between atoms: C16_20  and  O2_21 
REMARK    8  A    between atoms: C16_20  and  C17_23 
REMARK    9  A    between atoms: C18_25  and  C19_26 
ROOT
HETATM    1  N1  UNL     1      16.117   6.264  14.044  1.00  0.00     0.112 N 
HETATM    2  C3  UNL     1      16.676   6.112  12.795  1.00  0.00     0.299 A 
HETATM    3  C4  UNL     1      17.473   7.057  12.000  1.00  0.00     0.265 C 
HETATM    4  C5  UNL     1      18.958   6.780  12.078  1.00  0.00     0.049 C 
HETATM    5  C7  UNL     1      19.377   6.951  13.489  1.00  0.00    -0.002 C 
HETATM    6  C8  UNL     1      19.241   8.457  13.770  1.00  0.00     0.035 C 
HETATM    7  C9  UNL     1      18.427   9.166  12.744  1.00  0.00     0.273 C 
HETATM    8  N2  UNL     1      17.254   8.454  12.273  1.00  0.00     0.096 N 
HETATM    9  C14 UNL     1      18.542   6.255  14.508  1.00  0.00     0.052 C 
HETATM   10  C15 UNL     1      17.340   5.548  14.031  1.00  0.00     0.221 A 
ENDROOT
BRANCH  10  11
HETATM   11  C16 UNL     1      17.293   4.027  14.258  1.00  0.00     0.191 C 
BRANCH  11  12
HETATM   12  O2  UNL     1      17.621   3.386  13.065  1.00  0.00    -0.390 OA
ATOM     13  H2  UNL     1      16.881   3.449  12.473  1.00  0.00     0.210 HD
ENDBRANCH  11  12
BRANCH  11  14
HETATM   14  C17 UNL     1      15.994   3.580  14.833  1.00  0.00     0.182 A 
HETATM   15  O3  UNL     1      15.825   2.317  15.343  1.00  0.00    -0.372 OA
HETATM   16  C18 UNL     1      15.985   3.310  16.306  1.00  0.00     0.157 A 
BRANCH  16  17
HETATM   17  C19 UNL     1      14.809   3.756  17.128  1.00  0.00     0.009 C 
HETATM   18  C20 UNL     1      13.694   2.741  16.918  1.00  0.00     0.012 C 
HETATM   19  C21 UNL     1      15.092   3.793  18.607  1.00  0.00     0.012 C 
ENDBRANCH  16  17
ENDBRANCH  11  14
ENDBRANCH  10  11
BRANCH   1  20
HETATM   20  C2  UNL     1      15.709   7.309  14.826  1.00  0.00     0.270 C 
HETATM   21  C1  UNL     1      14.517   6.890  15.699  1.00  0.00     0.037 C 
ENDBRANCH   1  20
BRANCH   4  22
HETATM   22  C6  UNL     1      19.416   5.551  11.395  1.00  0.00     0.171 C 
BRANCH  22  23
HETATM   23  O1  UNL     1      20.315   4.890  12.247  1.00  0.00    -0.400 OA
ATOM     24  H1  UNL     1      20.970   4.462  11.708  1.00  0.00     0.209 HD
ENDBRANCH  22  23
ENDBRANCH   4  22
BRANCH   8  25
HETATM   25  C10 UNL     1      16.868   9.191  11.055  1.00  0.00     0.277 C 
BRANCH  25  26
HETATM   26  C11 UNL     1      15.569   9.911  11.235  1.00  0.00     0.014 A 
HETATM   27  C12 UNL     1      14.428   9.194  11.801  1.00  0.00     0.007 A 
HETATM   28  C13 UNL     1      14.451   9.445  10.302  1.00  0.00     0.007 A 
ENDBRANCH  25  26
ENDBRANCH   8  25
TORSDOF 9
ENDMDL
MODEL 3
REMARK VINA RESULT: -6.703183605      2.081      2.871
REMARK  9 active torsions:
REMARK  status: ('A' for Active; 'I' for Inactive)
REMARK    1  A    between atoms: C2_2  and  N1_3 
REMARK    2  A    between atoms: C5_6  and  C6_7 
REMARK    3  A    between atoms: C6_7  and  O1_8 
REMARK    4  A    between atoms: N2_13  and  C10_14 
REMARK    5  A    between atoms: C10_14  and  C11_15 
REMARK    6  A    between atoms: C15_19  and  C16_20 
REMARK    7  A    between atoms: C16_20  and  O2_21 
REMARK    8  A    between atoms: C16_20  and  C17_23 
REMARK    9  A    between atoms: C18_25  and  C19_26 
ROOT
HETATM    1  N1  UNL     1      16.661   7.989  12.561  1.00  0.00     0.112 N 
HETATM    2  C3  UNL     1      16.439   6.936  11.701  1.00  0.00     0.299 A 
HETATM    3  C4  UNL     1      17.391   6.180  10.876  1.00  0.00     0.265 C 
HETATM    4  C5  UNL     1      17.779   4.856  11.495  1.00  0.00     0.049 C 
HETATM    5  C7  UNL     1      18.462   5.139  12.779  1.00  0.00    -0.002 C 
HETATM    6  C8  UNL     1      19.795   5.799  12.390  1.00  0.00     0.035 C 
HETATM    7  C9  UNL     1      19.819   6.266  10.976  1.00  0.00     0.273 C 
HETATM    8  N2  UNL     1      18.593   6.877  10.498  1.00  0.00     0.096 N 
HETATM    9  C14 UNL     1      17.769   6.093  13.690  1.00  0.00     0.052 C 
HETATM   10  C15 UNL     1      16.535   6.729  13.195  1.00  0.00     0.221 A 
ENDROOT
BRANCH  10  11
HETATM   11  C16 UNL     1      15.242   6.436  13.978  1.00  0.00     0.191 C 
BRANCH  11  12
HETATM   12  O2  UNL     1      14.487   7.605  14.047  1.00  0.00    -0.390 OA
ATOM     13  H2  UNL     1      13.746   7.455  14.622  1.00  0.00     0.210 HD
ENDBRANCH  11  12
BRANCH  11  14
HETATM   14  C17 UNL     1      15.514   5.827  15.310  1.00  0.00     0.182 A 
HETATM   15  O3  UNL     1      14.498   5.453  16.155  1.00  0.00    -0.372 OA
HETATM   16  C18 UNL     1      15.099   4.397  15.476  1.00  0.00     0.157 A 
BRANCH  16  17
HETATM   17  C19 UNL     1      16.005   3.450  16.211  1.00  0.00     0.009 C 
HETATM   18  C20 UNL     1      15.166   2.739  17.263  1.00  0.00     0.012 C 
HETATM   19  C21 UNL     1      16.596   2.382  15.328  1.00  0.00     0.012 C 
ENDBRANCH  16  17
ENDBRANCH  11  14
ENDBRANCH  10  11
BRANCH   1  20
HETATM   20  C2  UNL     1      17.608   8.965  12.708  1.00  0.00     0.270 C 
HETATM   21  C1  UNL     1      17.481  10.006  11.587  1.00  0.00     0.037 C 
ENDBRANCH   1  20
BRANCH   4  22
HETATM   22  C6  UNL     1      16.718   3.827  11.520  1.00  0.00     0.171 C 
BRANCH  22  23
HETATM   23  O1  UNL     1      16.246   3.657  10.208  1.00  0.00    -0.400 OA
ATOM     24  H1  UNL     1      16.801   3.017   9.777  1.00  0.00     0.209 HD
ENDBRANCH  22  23
ENDBRANCH   4  22
BRANCH   8  25
HETATM   25  C10 UNL     1      18.769   6.902   9.032  1.00  0.00     0.277 C 
BRANCH  25  26
HETATM   26  C11 UNL     1      17.465   7.099   8.325  1.00  0.00     0.014 A 
HETATM   27  C12 UNL     1      17.436   7.084   6.864  1.00  0.00     0.007 A 
HETATM   28  C13 UNL     1      17.345   8.425   7.574  1.00  0.00     0.007 A 
ENDBRANCH  25  26
ENDBRANCH   8  25
TORSDOF 9
ENDMDL
MODEL 4
REMARK VINA RESULT: -6.658350242      1.779      3.857
REMARK  9 active torsions:
REMARK  status: ('A' for Active; 'I' for Inactive)
REMARK    1  A    between atoms: C2_2  and  N1_3 
REMARK    2  A    between atoms: C5_6  and  C6_7 
REMARK    3  A    between atoms: C6_7  and  O1_8 
REMARK    4  A    between atoms: N2_13  and  C10_14 
REMARK    5  A    between atoms: C10_14  and  C11_15 
REMARK    6  A    between atoms: C15_19  and  C16_20 
REMARK    7  A    between atoms: C16_20  and  O2_21 
REMARK    8  A    between atoms: C16_20  and  C17_23 
REMARK    9  A    between atoms: C18_25  and  C19_26 
ROOT
HETATM    1  N1  UNL     1      17.469   4.973  12.423  1.00  0.00     0.112 N 
HETATM    2  C3  UNL     1      18.455   5.931  12.500  1.00  0.00     0.299 A 
HETATM    3  C4  UNL     1      18.595   7.196  11.766  1.00  0.00     0.265 C 
HETATM    4  C5  UNL     1      18.153   8.395  12.576  1.00  0.00     0.049 C 
HETATM    5  C7  UNL     1      16.710   8.233  12.873  1.00  0.00    -0.002 C 
HETATM    6  C8  UNL     1      15.999   8.389  11.518  1.00  0.00     0.035 C 
HETATM    7  C9  UNL     1      16.929   8.275  10.360  1.00  0.00     0.273 C 
HETATM    8  N2  UNL     1      17.954   7.254  10.478  1.00  0.00     0.096 N 
HETATM    9  C14 UNL     1      16.300   6.908  13.415  1.00  0.00     0.052 C 
HETATM   10  C15 UNL     1      17.337   5.865  13.516  1.00  0.00     0.221 A 
ENDROOT
BRANCH  10  11
HETATM   11  C16 UNL     1      17.658   5.340  14.926  1.00  0.00     0.191 C 
BRANCH  11  12
HETATM   12  O2  UNL     1      19.031   5.442  15.139  1.00  0.00    -0.390 OA
ATOM     13  H2  UNL     1      19.466   4.747  14.660  1.00  0.00     0.210 HD
ENDBRANCH  11  12
BRANCH  11  14
HETATM   14  C17 UNL     1      17.124   3.968  15.154  1.00  0.00     0.182 A 
HETATM   15  O3  UNL     1      17.592   3.169  16.167  1.00  0.00    -0.372 OA
HETATM   16  C18 UNL     1      16.361   3.763  16.427  1.00  0.00     0.157 A 
BRANCH  16  17
HETATM   17  C19 UNL     1      15.108   2.934  16.406  1.00  0.00     0.009 C 
HETATM   18  C20 UNL     1      15.213   1.919  17.536  1.00  0.00     0.012 C 
HETATM   19  C21 UNL     1      13.857   3.736  16.656  1.00  0.00     0.012 C 
ENDBRANCH  16  17
ENDBRANCH  11  14
ENDBRANCH  10  11
BRANCH   1  20
HETATM   20  C2  UNL     1      16.552   4.567  11.493  1.00  0.00     0.270 C 
HETATM   21  C1  UNL     1      16.315   3.054  11.601  1.00  0.00     0.037 C 
ENDBRANCH   1  20
BRANCH   4  22
HETATM   22  C6  UNL     1      19.028   8.757  13.711  1.00  0.00     0.171 C 
BRANCH  22  23
HETATM   23  O1  UNL     1      18.225   9.329  14.712  1.00  0.00    -0.400 OA
ATOM     24  H1  UNL     1      18.799   9.701  15.372  1.00  0.00     0.209 HD
ENDBRANCH  22  23
ENDBRANCH   4  22
BRANCH   8  25
HETATM   25  C10 UNL     1      18.911   7.601   9.409  1.00  0.00     0.277 C 
BRANCH  25  26
HETATM   26  C11 UNL     1      18.930   6.565   8.331  1.00  0.00     0.014 A 
HETATM   27  C12 UNL     1      20.023   6.565   7.360  1.00  0.00     0.007 A 
HETATM   28  C13 UNL     1      18.672   7.109   6.925  1.00  0.00     0.007 A 
ENDBRANCH  25  26
ENDBRANCH   8  25
TORSDOF 9
ENDMDL
MODEL 5
REMARK VINA RESULT: -6.643684782      2.339      6.497
REMARK  9 active torsions:
REMARK  status: ('A' for Active; 'I' for Inactive)
REMARK    1  A    between atoms: C2_2  and  N1_3 
REMARK    2  A    between atoms: C5_6  and  C6_7 
REMARK    3  A    between atoms: C6_7  and  O1_8 
REMARK    4  A    between atoms: N2_13  and  C10_14 
REMARK    5  A    between atoms: C10_14  and  C11_15 
REMARK    6  A    between atoms: C15_19  and  C16_20 
REMARK    7  A    between atoms: C16_20  and  O2_21 
REMARK    8  A    between atoms: C16_20  and  C17_23 
REMARK    9  A    between atoms: C18_25  and  C19_26 
ROOT
HETATM    1  N1  UNL     1      16.900   4.025  11.799  1.00  0.00     0.112 N 
HETATM    2  C3  UNL     1      16.008   4.890  12.394  1.00  0.00     0.299 A 
HETATM    3  C4  UNL     1      15.854   5.253  13.809  1.00  0.00     0.265 C 
HETATM    4  C5  UNL     1      16.496   6.580  14.146  1.00  0.00     0.049 C 
HETATM    5  C7  UNL     1      17.951   6.455  13.897  1.00  0.00    -0.002 C 
HETATM    6  C8  UNL     1      18.463   5.484  14.973  1.00  0.00     0.035 C 
HETATM    7  C9  UNL     1      17.367   4.727  15.638  1.00  0.00     0.273 C 
HETATM    8  N2  UNL     1      16.300   4.274  14.766  1.00  0.00     0.096 N 
HETATM    9  C14 UNL     1      18.340   5.871  12.582  1.00  0.00     0.052 C 
HETATM   10  C15 UNL     1      17.257   5.393  11.705  1.00  0.00     0.221 A 
ENDROOT
BRANCH  10  11
HETATM   11  C16 UNL     1      17.110   6.090  10.340  1.00  0.00     0.191 C 
BRANCH  11  12
HETATM   12  O2  UNL     1      17.986   5.493   9.437  1.00  0.00    -0.390 OA
ATOM     13  H2  UNL     1      17.992   6.003   8.636  1.00  0.00     0.210 HD
ENDBRANCH  11  12
BRANCH  11  14
HETATM   14  C17 UNL     1      17.276   7.567  10.439  1.00  0.00     0.182 A 
HETATM   15  O3  UNL     1      17.435   8.353   9.325  1.00  0.00    -0.372 OA
HETATM   16  C18 UNL     1      16.159   8.393   9.879  1.00  0.00     0.157 A 
BRANCH  16  17
HETATM   17  C19 UNL     1      15.703   9.614  10.626  1.00  0.00     0.009 C 
HETATM   18  C20 UNL     1      16.054  10.828   9.776  1.00  0.00     0.012 C 
HETATM   19  C21 UNL     1      14.213   9.655  10.851  1.00  0.00     0.012 C 
ENDBRANCH  16  17
ENDBRANCH  11  14
ENDBRANCH  10  11
BRANCH   1  20
HETATM   20  C2  UNL     1      17.638   2.941  12.187  1.00  0.00     0.270 C 
HETATM   21  C1  UNL     1      16.768   1.676  12.188  1.00  0.00     0.037 C 
ENDBRANCH   1  20
BRANCH   4  22
HETATM   22  C6  UNL     1      15.827   7.774  13.587  1.00  0.00     0.171 C 
BRANCH  22  23
HETATM   23  O1  UNL     1      14.440   7.599  13.725  1.00  0.00    -0.400 OA
ATOM     24  H1  UNL     1      14.062   8.434  13.977  1.00  0.00     0.209 HD
ENDBRANCH  22  23
ENDBRANCH   4  22
BRANCH   8  25
HETATM   25  C10 UNL     1      15.223   3.899  15.703  1.00  0.00     0.277 C 
BRANCH  25  26
HETATM   26  C11 UNL     1      15.772   3.368  16.988  1.00  0.00     0.014 A 
HETATM   27  C12 UNL     1      15.144   2.201  17.606  1.00  0.00     0.007 A 
HETATM   28  C13 UNL     1      14.861   3.571  18.199  1.00  0.00     0.007 A 
ENDBRANCH  25  26
ENDBRANCH   8  25
TORSDOF 9
ENDMDL
