MODEL 1
REMARK VINA RESULT: -7.439847694      0.000      0.000
REMARK  9 active torsions:
REMARK  status: ('A' for Active; 'I' for Inactive)
REMARK    1  A    between atoms: C2_2  and  O1_3 
REMARK    2  A    between atoms: C2_2  and  C3_5 
REMARK    3  A    between atoms: C3_5  and  C5_8 
REMARK    4  A    between atoms: C5_8  and  C7_10 
REMARK    5  A    between atoms: C7_10  and  C9_12 
REMARK    6  A    between atoms: C9_12  and  C10_13 
REMARK    7  A    between atoms: C10_13  and  C11_14 
REMARK    8  A    between atoms: C13_19  and  C14_20 
REMARK    9  A    between atoms: C14_20  and  C15_21 
REMARK       I    between atoms: C15_21  and  N3_23 
ROOT
HETATM    1  C3  UNL     1      15.738   3.723  15.342  1.00  0.00     0.125 C 
HETATM    2  C4  UNL     1      16.569   3.449  14.166  1.00  0.00     0.067 C 
HETATM    3  N1  UNL     1      17.243   3.195  13.228  1.00  0.00    -0.197 NA
ENDROOT
BRANCH   1   4
HETATM    4  C2  UNL     1      16.348   2.849  16.424  1.00  0.00     0.132 C 
HETATM    5  C1  UNL     1      15.284   2.117  17.217  1.00  0.00     0.040 C 
BRANCH   4   6
HETATM    6  O1  UNL     1      17.359   2.043  15.990  1.00  0.00    -0.395 OA
ATOM      7  H1  UNL     1      17.249   1.740  15.097  1.00  0.00     0.210 HD
ENDBRANCH   4   6
ENDBRANCH   1   4
BRANCH   1   8
HETATM    8  C5  UNL     1      15.777   5.165  15.666  1.00  0.00     0.005 C 
HETATM    9  C6  UNL     1      14.499   5.635  16.373  1.00  0.00     0.011 C 
BRANCH   8  10
HETATM   10  C7  UNL     1      15.932   6.100  14.511  1.00  0.00    -0.013 C 
HETATM   11  C8  UNL     1      15.005   7.250  14.423  1.00  0.00     0.010 C 
BRANCH  10  12
HETATM   12  C9  UNL     1      17.353   6.600  14.358  1.00  0.00     0.007 C 
BRANCH  12  13
HETATM   13  C10 UNL     1      17.345   7.765  13.394  1.00  0.00     0.026 C 
BRANCH  13  14
HETATM   14  C11 UNL     1      17.849   7.329  12.016  1.00  0.00     0.098 C 
HETATM   15  N2  UNL     1      18.205   5.930  11.954  1.00  0.00    -0.355 N 
HETATM   16  C12 UNL     1      17.645   5.898  10.646  1.00  0.00     0.224 C 
ATOM     17  H2  UNL     1      18.659   5.261  12.574  1.00  0.00     0.162 HD
HETATM   18  O2  UNL     1      17.883   5.234   9.607  1.00  0.00    -0.273 OA
HETATM   19  C13 UNL     1      16.707   6.960  11.081  1.00  0.00     0.109 C 
BRANCH  19  20
HETATM   20  C14 UNL     1      16.446   7.940   9.986  1.00  0.00     0.119 C 
BRANCH  20  21
HETATM   21  C15 UNL     1      15.138   8.581  10.236  1.00  0.00     0.220 C 
HETATM   22  O3  UNL     1      14.554   8.528  11.356  1.00  0.00    -0.273 OA
HETATM   23  N3  UNL     1      14.515   9.281   9.179  1.00  0.00    -0.348 N 
HETATM   24  C16 UNL     1      15.117   9.388   7.867  1.00  0.00     0.152 C 
HETATM   25  C19 UNL     1      13.219   9.941   9.350  1.00  0.00     0.152 C 
HETATM   26  C17 UNL     1      14.488  10.584   7.185  1.00  0.00     0.187 C 
HETATM   27  O4  UNL     1      13.129  10.399   6.980  1.00  0.00    -0.388 OA
HETATM   28  C18 UNL     1      12.468   9.853   8.050  1.00  0.00     0.187 C 
ENDBRANCH  20  21
ENDBRANCH  19  20
ENDBRANCH  13  14
ENDBRANCH  12  13
ENDBRANCH  10  12
ENDBRANCH   8  10
ENDBRANCH   1   8
TORSDOF 9
ENDMDL
MODEL 2
REMARK VINA RESULT: -7.281480217      2.191      7.888
REMARK  9 active torsions:
REMARK  status: ('A' for Active; 'I' for Inactive)
REMARK    1  A    between atoms: C2_2  and  O1_3 
REMARK    2  A    between atoms: C2_2  and  C3_5 
REMARK    3  A    between atoms: C3_5  and  C5_8 
REMARK    4  A    between atoms: C5_8  and  C7_10 
REMARK    5  A    between atoms: C7_10  and  C9_12 
REMARK    6  A    between atoms: C9_12  and  C10_13 
REMARK    7  A    between atoms: C10_13  and  C11_14 
REMARK    8  A    between atoms: C13_19  and  C14_20 
REMARK    9  A    between atoms: C14_20  and  C15_21 
REMARK       I    between atoms: C15_21  and  N3_23 
ROOT
HETATM    1  C3  UNL     1      14.331   9.474   8.989  1.00  0.00     0.125 C 
HETATM    2  C4  UNL     1      15.246   8.703   8.143  1.00  0.00     0.067 C 
HETATM    3  N1  UNL     1      15.965   8.085   7.435  1.00  0.00    -0.197 NA
ENDROOT
BRANCH   1   4
HETATM    4  C2  UNL     1      12.957   9.116   8.449  1.00  0.00     0.132 C 
HETATM    5  C1  UNL     1      12.292  10.301   7.781  1.00  0.00     0.040 C 
BRANCH   4   6
HETATM    6  O1  UNL     1      12.929   7.977   7.697  1.00  0.00    -0.395 OA
ATOM      7  H1  UNL     1      12.129   7.475   7.796  1.00  0.00     0.210 HD
ENDBRANCH   4   6
ENDBRANCH   1   4
BRANCH   1   8
HETATM    8  C5  UNL     1      14.515   9.102  10.407  1.00  0.00     0.005 C 
HETATM    9  C6  UNL     1      13.636   9.940  11.345  1.00  0.00     0.011 C 
BRANCH   8  10
HETATM   10  C7  UNL     1      15.896   9.249  10.957  1.00  0.00    -0.013 C 
HETATM   11  C8  UNL     1      16.479  10.609  11.010  1.00  0.00     0.010 C 
BRANCH  10  12
HETATM   12  C9  UNL     1      16.053   8.593  12.313  1.00  0.00     0.007 C 
BRANCH  12  13
HETATM   13  C10 UNL     1      17.441   8.896  12.830  1.00  0.00     0.026 C 
BRANCH  13  14
HETATM   14  C11 UNL     1      18.226   7.601  13.056  1.00  0.00     0.098 C 
HETATM   15  N2  UNL     1      19.361   7.766  13.935  1.00  0.00    -0.355 N 
HETATM   16  C12 UNL     1      19.054   6.492  14.488  1.00  0.00     0.224 C 
ATOM     17  H2  UNL     1      20.070   8.482  14.090  1.00  0.00     0.162 HD
HETATM   18  O2  UNL     1      19.737   5.574  15.006  1.00  0.00    -0.273 OA
HETATM   19  C13 UNL     1      17.630   6.760  14.175  1.00  0.00     0.109 C 
BRANCH  19  20
HETATM   20  C14 UNL     1      16.927   5.521  13.727  1.00  0.00     0.119 C 
BRANCH  20  21
HETATM   21  C15 UNL     1      15.715   5.348  14.555  1.00  0.00     0.220 C 
HETATM   22  O3  UNL     1      14.710   6.109  14.461  1.00  0.00    -0.273 OA
HETATM   23  N3  UNL     1      15.680   4.289  15.488  1.00  0.00    -0.348 N 
HETATM   24  C16 UNL     1      16.790   3.375  15.657  1.00  0.00     0.152 C 
HETATM   25  C19 UNL     1      14.515   4.055  16.344  1.00  0.00     0.152 C 
HETATM   26  C17 UNL     1      16.239   2.121  16.303  1.00  0.00     0.187 C 
HETATM   27  O4  UNL     1      15.743   2.376  17.572  1.00  0.00    -0.388 OA
HETATM   28  C18 UNL     1      14.997   3.524  17.665  1.00  0.00     0.187 C 
ENDBRANCH  20  21
ENDBRANCH  19  20
ENDBRANCH  13  14
ENDBRANCH  12  13
ENDBRANCH  10  12
ENDBRANCH   8  10
ENDBRANCH   1   8
TORSDOF 9
ENDMDL
MODEL 3
REMARK VINA RESULT: -7.255728537      2.153      4.776
REMARK  9 active torsions:
REMARK  status: ('A' for Active; 'I' for Inactive)
REMARK    1  A    between atoms: C2_2  and  O1_3 
REMARK    2  A    between atoms: C2_2  and  C3_5 
REMARK    3  A    between atoms: C3_5  and  C5_8 
REMARK    4  A    between atoms: C5_8  and  C7_10 
REMARK    5  A    between atoms: C7_10  and  C9_12 
REMARK    6  A    between atoms: C9_12  and  C10_13 
REMARK    7  A    between atoms: C10_13  and  C11_14 
REMARK    8  A    between atoms: C13_19  and  C14_20 
REMARK    9  A    between atoms: C14_20  and  C15_21 
REMARK       I    between atoms: C15_21  and  N3_23 
ROOT
HETATM    1  C3  UNL     1      16.279   3.954  14.729  1.00  0.00     0.125 C 
HETATM    2  C4  UNL     1      16.570   2.811  13.859  1.00  0.00     0.067 C 
HETATM    3  N1  UNL     1      16.799   1.868  13.183  1.00  0.00    -0.197 NA
ENDROOT
BRANCH   1   4
HETATM    4  C2  UNL     1      16.777   3.504  16.092  1.00  0.00     0.132 C 
HETATM    5  C1  UNL     1      15.665   3.502  17.120  1.00  0.00     0.040 C 
BRANCH   4   6
HETATM    6  O1  UNL     1      17.505   2.351  16.070  1.00  0.00    -0.395 OA
ATOM      7  H1  UNL     1      18.384   2.448  16.416  1.00  0.00     0.210 HD
ENDBRANCH   4   6
ENDBRANCH   1   4
BRANCH   1   8
HETATM    8  C5  UNL     1      16.965   5.163  14.226  1.00  0.00     0.005 C 
HETATM    9  C6  UNL     1      18.207   5.512  15.058  1.00  0.00     0.011 C 
BRANCH   8  10
HETATM   10  C7  UNL     1      16.161   6.422  14.205  1.00  0.00    -0.013 C 
HETATM   11  C8  UNL     1      14.933   6.471  15.029  1.00  0.00     0.010 C 
BRANCH  10  12
HETATM   12  C9  UNL     1      17.000   7.649  14.496  1.00  0.00     0.007 C 
BRANCH  12  13
HETATM   13  C10 UNL     1      17.114   8.459  13.224  1.00  0.00     0.026 C 
BRANCH  13  14
HETATM   14  C11 UNL     1      16.279   7.827  12.107  1.00  0.00     0.098 C 
HETATM   15  N2  UNL     1      15.467   8.782  11.390  1.00  0.00    -0.355 N 
HETATM   16  C12 UNL     1      15.767   8.067  10.197  1.00  0.00     0.224 C 
ATOM     17  H2  UNL     1      14.919   9.607  11.632  1.00  0.00     0.162 HD
HETATM   18  O2  UNL     1      15.155   7.866   9.118  1.00  0.00    -0.273 OA
HETATM   19  C13 UNL     1      17.065   7.698  10.810  1.00  0.00     0.109 C 
BRANCH  19  20
HETATM   20  C14 UNL     1      17.463   6.305  10.449  1.00  0.00     0.119 C 
BRANCH  20  21
HETATM   21  C15 UNL     1      18.664   6.371   9.590  1.00  0.00     0.220 C 
HETATM   22  O3  UNL     1      18.615   6.225   8.336  1.00  0.00    -0.273 OA
HETATM   23  N3  UNL     1      19.917   6.606  10.198  1.00  0.00    -0.348 N 
HETATM   24  C16 UNL     1      20.058   6.782  11.628  1.00  0.00     0.152 C 
HETATM   25  C19 UNL     1      21.151   6.684   9.413  1.00  0.00     0.152 C 
HETATM   26  C17 UNL     1      21.365   7.510  11.860  1.00  0.00     0.187 C 
HETATM   27  O4  UNL     1      22.451   6.753  11.448  1.00  0.00    -0.388 OA
HETATM   28  C18 UNL     1      22.274   6.124  10.241  1.00  0.00     0.187 C 
ENDBRANCH  20  21
ENDBRANCH  19  20
ENDBRANCH  13  14
ENDBRANCH  12  13
ENDBRANCH  10  12
ENDBRANCH   8  10
ENDBRANCH   1   8
TORSDOF 9
ENDMDL
MODEL 4
REMARK VINA RESULT: -7.186234254      2.870      5.203
REMARK  9 active torsions:
REMARK  status: ('A' for Active; 'I' for Inactive)
REMARK    1  A    between atoms: C2_2  and  O1_3 
REMARK    2  A    between atoms: C2_2  and  C3_5 
REMARK    3  A    between atoms: C3_5  and  C5_8 
REMARK    4  A    between atoms: C5_8  and  C7_10 
REMARK    5  A    between atoms: C7_10  and  C9_12 
REMARK    6  A    between atoms: C9_12  and  C10_13 
REMARK    7  A    between atoms: C10_13  and  C11_14 
REMARK    8  A    between atoms: C13_19  and  C14_20 
REMARK    9  A    between atoms: C14_20  and  C15_21 
REMARK       I    between atoms: C15_21  and  N3_23 
ROOT
HETATM    1  C3  UNL     1      16.261   3.849  14.660  1.00  0.00     0.125 C 
HETATM    2  C4  UNL     1      16.597   2.717  13.791  1.00  0.00     0.067 C 
HETATM    3  N1  UNL     1      16.863   1.783  13.116  1.00  0.00    -0.197 NA
ENDROOT
BRANCH   1   4
HETATM    4  C2  UNL     1      16.797   3.430  16.018  1.00  0.00     0.132 C 
HETATM    5  C1  UNL     1      15.715   3.457  17.079  1.00  0.00     0.040 C 
BRANCH   4   6
HETATM    6  O1  UNL     1      17.519   2.273  16.003  1.00  0.00    -0.395 OA
ATOM      7  H1  UNL     1      17.844   2.015  16.857  1.00  0.00     0.210 HD
ENDBRANCH   4   6
ENDBRANCH   1   4
BRANCH   1   8
HETATM    8  C5  UNL     1      16.883   5.087  14.145  1.00  0.00     0.005 C 
HETATM    9  C6  UNL     1      18.080   5.532  14.995  1.00  0.00     0.011 C 
BRANCH   8  10
HETATM   10  C7  UNL     1      16.002   6.292  14.077  1.00  0.00    -0.013 C 
HETATM   11  C8  UNL     1      14.953   6.441  15.110  1.00  0.00     0.010 C 
BRANCH  10  12
HETATM   12  C9  UNL     1      16.791   7.582  13.986  1.00  0.00     0.007 C 
BRANCH  12  13
HETATM   13  C10 UNL     1      16.543   8.195  12.626  1.00  0.00     0.026 C 
BRANCH  13  14
HETATM   14  C11 UNL     1      16.733   7.153  11.521  1.00  0.00     0.098 C 
HETATM   15  N2  UNL     1      16.125   7.532  10.267  1.00  0.00    -0.355 N 
HETATM   16  C12 UNL     1      17.250   6.964   9.607  1.00  0.00     0.224 C 
ATOM     17  H2  UNL     1      15.266   8.001   9.980  1.00  0.00     0.162 HD
HETATM   18  O2  UNL     1      17.426   6.408   8.495  1.00  0.00    -0.273 OA
HETATM   19  C13 UNL     1      18.059   7.324  10.796  1.00  0.00     0.109 C 
BRANCH  19  20
HETATM   20  C14 UNL     1      19.082   6.279  11.097  1.00  0.00     0.119 C 
BRANCH  20  21
HETATM   21  C15 UNL     1      20.231   6.929  11.763  1.00  0.00     0.220 C 
HETATM   22  O3  UNL     1      20.140   7.481  12.897  1.00  0.00    -0.273 OA
HETATM   23  N3  UNL     1      21.480   6.934  11.105  1.00  0.00    -0.348 N 
HETATM   24  C16 UNL     1      21.666   6.324   9.805  1.00  0.00     0.152 C 
HETATM   25  C19 UNL     1      22.662   7.558  11.701  1.00  0.00     0.152 C 
HETATM   26  C17 UNL     1      23.147   6.049   9.651  1.00  0.00     0.187 C 
HETATM   27  O4  UNL     1      23.887   7.222   9.646  1.00  0.00    -0.388 OA
HETATM   28  C18 UNL     1      23.501   8.135  10.594  1.00  0.00     0.187 C 
ENDBRANCH  20  21
ENDBRANCH  19  20
ENDBRANCH  13  14
ENDBRANCH  12  13
ENDBRANCH  10  12
ENDBRANCH   8  10
ENDBRANCH   1   8
TORSDOF 9
ENDMDL
MODEL 5
REMARK VINA RESULT: -7.172348780      1.463      1.867
REMARK  9 active torsions:
REMARK  status: ('A' for Active; 'I' for Inactive)
REMARK    1  A    between atoms: C2_2  and  O1_3 
REMARK    2  A    between atoms: C2_2  and  C3_5 
REMARK    3  A    between atoms: C3_5  and  C5_8 
REMARK    4  A    between atoms: C5_8  and  C7_10 
REMARK    5  A    between atoms: C7_10  and  C9_12 
REMARK    6  A    between atoms: C9_12  and  C10_13 
REMARK    7  A    between atoms: C10_13  and  C11_14 
REMARK    8  A    between atoms: C13_19  and  C14_20 
REMARK    9  A    between atoms: C14_20  and  C15_21 
REMARK       I    between atoms: C15_21  and  N3_23 
ROOT
HETATM    1  C3  UNL     1      15.768   3.794  15.262  1.00  0.00     0.125 C 
HETATM    2  C4  UNL     1      16.622   3.525  14.101  1.00  0.00     0.067 C 
HETATM    3  N1  UNL     1      17.314   3.276  13.175  1.00  0.00    -0.197 NA
ENDROOT
BRANCH   1   4
HETATM    4  C2  UNL     1      16.354   2.911  16.350  1.00  0.00     0.132 C 
HETATM    5  C1  UNL     1      15.272   2.194  17.132  1.00  0.00     0.040 C 
BRANCH   4   6
HETATM    6  O1  UNL     1      17.358   2.090  15.927  1.00  0.00    -0.395 OA
ATOM      7  H1  UNL     1      17.899   2.470  15.245  1.00  0.00     0.210 HD
ENDBRANCH   4   6
ENDBRANCH   1   4
BRANCH   1   8
HETATM    8  C5  UNL     1      15.804   5.233  15.596  1.00  0.00     0.005 C 
HETATM    9  C6  UNL     1      14.529   5.694  16.314  1.00  0.00     0.011 C 
BRANCH   8  10
HETATM   10  C7  UNL     1      15.950   6.177  14.448  1.00  0.00    -0.013 C 
HETATM   11  C8  UNL     1      14.766   6.970  14.049  1.00  0.00     0.010 C 
BRANCH  10  12
HETATM   12  C9  UNL     1      17.135   7.107  14.609  1.00  0.00     0.007 C 
BRANCH  12  13
HETATM   13  C10 UNL     1      18.399   6.279  14.561  1.00  0.00     0.026 C 
BRANCH  13  14
HETATM   14  C11 UNL     1      19.228   6.633  13.323  1.00  0.00     0.098 C 
HETATM   15  N2  UNL     1      20.039   5.538  12.845  1.00  0.00    -0.355 N 
HETATM   16  C12 UNL     1      19.734   5.956  11.520  1.00  0.00     0.224 C 
ATOM     17  H2  UNL     1      20.589   4.792  13.271  1.00  0.00     0.162 HD
HETATM   18  O2  UNL     1      20.340   5.899  10.422  1.00  0.00    -0.273 OA
HETATM   19  C13 UNL     1      18.437   6.456  12.036  1.00  0.00     0.109 C 
BRANCH  19  20
HETATM   20  C14 UNL     1      18.036   7.727  11.362  1.00  0.00     0.119 C 
BRANCH  20  21
HETATM   21  C15 UNL     1      16.663   7.563  10.837  1.00  0.00     0.220 C 
HETATM   22  O3  UNL     1      16.125   6.430  10.676  1.00  0.00    -0.273 OA
HETATM   23  N3  UNL     1      15.925   8.719  10.502  1.00  0.00    -0.348 N 
HETATM   24  C16 UNL     1      16.470  10.051  10.656  1.00  0.00     0.152 C 
HETATM   25  C19 UNL     1      14.561   8.636   9.976  1.00  0.00     0.152 C 
HETATM   26  C17 UNL     1      15.298  11.007  10.719  1.00  0.00     0.187 C 
HETATM   27  O4  UNL     1      14.578  11.010   9.533  1.00  0.00    -0.388 OA
HETATM   28  C18 UNL     1      14.360   9.764   9.003  1.00  0.00     0.187 C 
ENDBRANCH  20  21
ENDBRANCH  19  20
ENDBRANCH  13  14
ENDBRANCH  12  13
ENDBRANCH  10  12
ENDBRANCH   8  10
ENDBRANCH   1   8
TORSDOF 9
ENDMDL
