MODEL 1
REMARK VINA RESULT: -6.763772881      0.000      0.000
REMARK  10 active torsions:
REMARK  status: ('A' for Active; 'I' for Inactive)
REMARK    1  A    between atoms: C7_7  and  O1_8 
REMARK    2  A    between atoms: C8_10  and  C9_11 
REMARK    3  A    between atoms: C10_12  and  C11_13 
REMARK    4  A    between atoms: C11_13  and  C12_15 
REMARK    5  A    between atoms: C12_15  and  N1_16 
REMARK    6  A    between atoms: N1_16  and  C13_17 
REMARK    7  A    between atoms: N1_16  and  C15_19 
REMARK    8  A    between atoms: C15_19  and  C16_20 
REMARK    9  A    between atoms: C16_20  and  O3_21 
REMARK   10  A    between atoms: C18_25  and  C19_26 
ROOT
HETATM    1  C1  UNL     1      12.904   9.527   9.206  1.00  0.00     0.015 C 
HETATM    2  C2  UNL     1      14.132   9.850   9.526  1.00  0.00    -0.082 C 
HETATM    3  C3  UNL     1      15.233  10.167   8.586  1.00  0.00     0.039 C 
HETATM    4  C4  UNL     1      16.382  10.574   9.482  1.00  0.00    -0.002 C 
HETATM    5  C5  UNL     1      15.605  11.177  10.664  1.00  0.00     0.017 C 
HETATM    6  C6  UNL     1      14.701   9.971  10.871  1.00  0.00     0.050 C 
HETATM    7  C7  UNL     1      15.734   8.851  11.008  1.00  0.00     0.083 C 
HETATM    8  C8  UNL     1      16.219   8.689  12.362  1.00  0.00     0.114 C 
HETATM    9  C17 UNL     1      17.604   9.320  12.440  1.00  0.00     0.142 C 
HETATM   10  O4  UNL     1      18.238   9.442  13.447  1.00  0.00    -0.297 OA
HETATM   11  C18 UNL     1      18.003   9.738  11.095  1.00  0.00     0.063 C 
HETATM   12  C21 UNL     1      16.911   9.341  10.142  1.00  0.00     0.037 C 
ENDROOT
BRANCH   8  13
HETATM   13  C9  UNL     1      16.321   7.430  13.053  1.00  0.00    -0.008 C 
HETATM   14  C10 UNL     1      17.122   6.423  12.967  1.00  0.00     0.052 C 
BRANCH  14  15
HETATM   15  C11 UNL     1      17.161   5.191  13.689  1.00  0.00     0.181 C 
HETATM   16  O2  UNL     1      17.952   5.137  14.707  1.00  0.00    -0.288 OA
BRANCH  15  17
HETATM   17  C12 UNL     1      16.413   4.000  13.411  1.00  0.00     0.114 C 
BRANCH  17  18
HETATM   18  N1  UNL     1      17.108   2.757  13.255  1.00  0.00    -0.288 NA
BRANCH  18  19
HETATM   19  C13 UNL     1      16.719   2.259  11.944  1.00  0.00     0.090 C 
HETATM   20  C14 UNL     1      15.956   3.227  11.131  1.00  0.00     0.021 C 
ENDBRANCH  18  19
BRANCH  18  21
HETATM   21  C15 UNL     1      16.764   1.795  14.291  1.00  0.00     0.121 C 
BRANCH  21  22
HETATM   22  C16 UNL     1      16.360   2.446  15.595  1.00  0.00     0.179 C 
BRANCH  22  23
HETATM   23  O3  UNL     1      17.557   2.536  16.345  1.00  0.00    -0.400 OA
ATOM     24  H3  UNL     1      17.387   3.203  17.000  1.00  0.00     0.209 HD
ENDBRANCH  22  23
ENDBRANCH  21  22
ENDBRANCH  18  21
ENDBRANCH  17  18
ENDBRANCH  15  17
ENDBRANCH  14  15
ENDBRANCH   8  13
BRANCH   7  25
HETATM   25  O1  UNL     1      15.197   7.792  10.327  1.00  0.00    -0.388 OA
ATOM     26  H1  UNL     1      15.843   7.574   9.666  1.00  0.00     0.210 HD
ENDBRANCH   7  25
BRANCH  11  27
HETATM   27  C19 UNL     1      19.340   9.160  10.713  1.00  0.00     0.008 C 
HETATM   28  C20 UNL     1      19.125   7.807  10.071  1.00  0.00     0.006 C 
ENDBRANCH  11  27
TORSDOF 10
ENDMDL
MODEL 2
REMARK VINA RESULT: -6.645785375      3.093      5.143
REMARK  10 active torsions:
REMARK  status: ('A' for Active; 'I' for Inactive)
REMARK    1  A    between atoms: C7_7  and  O1_8 
REMARK    2  A    between atoms: C8_10  and  C9_11 
REMARK    3  A    between atoms: C10_12  and  C11_13 
REMARK    4  A    between atoms: C11_13  and  C12_15 
REMARK    5  A    between atoms: C12_15  and  N1_16 
REMARK    6  A    between atoms: N1_16  and  C13_17 
REMARK    7  A    between atoms: N1_16  and  C15_19 
REMARK    8  A    between atoms: C15_19  and  C16_20 
REMARK    9  A    between atoms: C16_20  and  O3_21 
REMARK   10  A    between atoms: C18_25  and  C19_26 
ROOT
HETATM    1  C1  UNL     1      22.802   5.728  10.539  1.00  0.00     0.015 C 
HETATM    2  C2  UNL     1      21.828   6.516  10.917  1.00  0.00    -0.082 C 
HETATM    3  C3  UNL     1      21.945   7.700  11.801  1.00  0.00     0.039 C 
HETATM    4  C4  UNL     1      20.555   8.296  11.812  1.00  0.00    -0.002 C 
HETATM    5  C5  UNL     1      20.075   7.893  10.407  1.00  0.00     0.017 C 
HETATM    6  C6  UNL     1      20.410   6.417  10.560  1.00  0.00     0.050 C 
HETATM    7  C7  UNL     1      19.661   6.078  11.850  1.00  0.00     0.083 C 
HETATM    8  C8  UNL     1      18.278   5.716  11.625  1.00  0.00     0.114 C 
HETATM    9  C17 UNL     1      17.415   6.912  12.006  1.00  0.00     0.142 C 
HETATM   10  O4  UNL     1      16.231   6.973  11.844  1.00  0.00    -0.297 OA
HETATM   11  C18 UNL     1      18.275   7.942  12.590  1.00  0.00     0.063 C 
HETATM   12  C21 UNL     1      19.678   7.405  12.633  1.00  0.00     0.037 C 
ENDROOT
BRANCH   8  13
HETATM   13  C9  UNL     1      17.627   4.564  12.192  1.00  0.00    -0.008 C 
HETATM   14  C10 UNL     1      17.388   4.173  13.399  1.00  0.00     0.052 C 
BRANCH  14  15
HETATM   15  C11 UNL     1      16.736   3.004  13.893  1.00  0.00     0.181 C 
HETATM   16  O2  UNL     1      16.508   2.060  13.044  1.00  0.00    -0.288 OA
BRANCH  15  17
HETATM   17  C12 UNL     1      16.304   2.755  15.239  1.00  0.00     0.114 C 
BRANCH  17  18
HETATM   18  N1  UNL     1      15.847   3.850  16.040  1.00  0.00    -0.288 NA
BRANCH  18  19
HETATM   19  C13 UNL     1      15.359   3.249  17.273  1.00  0.00     0.090 C 
HETATM   20  C14 UNL     1      13.965   2.768  17.202  1.00  0.00     0.021 C 
ENDBRANCH  18  19
BRANCH  18  21
HETATM   21  C15 UNL     1      14.791   4.611  15.390  1.00  0.00     0.121 C 
BRANCH  21  22
HETATM   22  C16 UNL     1      15.072   6.097  15.344  1.00  0.00     0.179 C 
BRANCH  22  23
HETATM   23  O3  UNL     1      14.581   6.524  14.087  1.00  0.00    -0.400 OA
ATOM     24  H3  UNL     1      15.276   6.326  13.471  1.00  0.00     0.209 HD
ENDBRANCH  22  23
ENDBRANCH  21  22
ENDBRANCH  18  21
ENDBRANCH  17  18
ENDBRANCH  15  17
ENDBRANCH  14  15
ENDBRANCH   8  13
BRANCH   7  25
HETATM   25  O1  UNL     1      20.500   5.241  12.535  1.00  0.00    -0.388 OA
ATOM     26  H1  UNL     1      20.061   4.398  12.529  1.00  0.00     0.210 HD
ENDBRANCH   7  25
BRANCH  11  27
HETATM   27  C19 UNL     1      17.779   8.370  13.946  1.00  0.00     0.008 C 
HETATM   28  C20 UNL     1      18.650   9.497  14.454  1.00  0.00     0.006 C 
ENDBRANCH  11  27
TORSDOF 10
ENDMDL
MODEL 3
REMARK VINA RESULT: -6.640585226      1.242      2.096
REMARK  10 active torsions:
REMARK  status: ('A' for Active; 'I' for Inactive)
REMARK    1  A    between atoms: C7_7  and  O1_8 
REMARK    2  A    between atoms: C8_10  and  C9_11 
REMARK    3  A    between atoms: C10_12  and  C11_13 
REMARK    4  A    between atoms: C11_13  and  C12_15 
REMARK    5  A    between atoms: C12_15  and  N1_16 
REMARK    6  A    between atoms: N1_16  and  C13_17 
REMARK    7  A    between atoms: N1_16  and  C15_19 
REMARK    8  A    between atoms: C15_19  and  C16_20 
REMARK    9  A    between atoms: C16_20  and  O3_21 
REMARK   10  A    between atoms: C18_25  and  C19_26 
ROOT
HETATM    1  C1  UNL     1      12.941   9.590   9.125  1.00  0.00     0.015 C 
HETATM    2  C2  UNL     1      14.173   9.846   9.486  1.00  0.00    -0.082 C 
HETATM    3  C3  UNL     1      15.322  10.098   8.584  1.00  0.00     0.039 C 
HETATM    4  C4  UNL     1      16.460  10.447   9.518  1.00  0.00    -0.002 C 
HETATM    5  C5  UNL     1      15.676  11.097  10.671  1.00  0.00     0.017 C 
HETATM    6  C6  UNL     1      14.702   9.943  10.850  1.00  0.00     0.050 C 
HETATM    7  C7  UNL     1      15.666   8.769  11.026  1.00  0.00     0.083 C 
HETATM    8  C8  UNL     1      16.095   8.587  12.396  1.00  0.00     0.114 C 
HETATM    9  C17 UNL     1      17.508   9.142  12.520  1.00  0.00     0.142 C 
HETATM   10  O4  UNL     1      18.113   9.234  13.548  1.00  0.00    -0.297 OA
HETATM   11  C18 UNL     1      17.976   9.531  11.188  1.00  0.00     0.063 C 
HETATM   12  C21 UNL     1      16.897   9.190  10.200  1.00  0.00     0.037 C 
ENDROOT
BRANCH   8  13
HETATM   13  C9  UNL     1      16.103   7.328  13.094  1.00  0.00    -0.008 C 
HETATM   14  C10 UNL     1      15.590   6.915  14.204  1.00  0.00     0.052 C 
BRANCH  14  15
HETATM   15  C11 UNL     1      15.643   5.641  14.844  1.00  0.00     0.181 C 
HETATM   16  O2  UNL     1      14.712   5.377  15.698  1.00  0.00    -0.288 OA
BRANCH  15  17
HETATM   17  C12 UNL     1      16.620   4.610  14.644  1.00  0.00     0.114 C 
BRANCH  17  18
HETATM   18  N1  UNL     1      16.312   3.514  13.774  1.00  0.00    -0.288 NA
BRANCH  18  19
HETATM   19  C13 UNL     1      16.739   2.321  14.491  1.00  0.00     0.090 C 
HETATM   20  C14 UNL     1      16.450   2.350  15.939  1.00  0.00     0.021 C 
ENDBRANCH  18  19
BRANCH  18  21
HETATM   21  C15 UNL     1      16.996   3.613  12.493  1.00  0.00     0.121 C 
BRANCH  21  22
HETATM   22  C16 UNL     1      16.263   2.905  11.374  1.00  0.00     0.179 C 
BRANCH  22  23
HETATM   23  O3  UNL     1      15.188   3.764  11.041  1.00  0.00    -0.400 OA
ATOM     24  H3  UNL     1      15.597   4.585  10.794  1.00  0.00     0.209 HD
ENDBRANCH  22  23
ENDBRANCH  21  22
ENDBRANCH  18  21
ENDBRANCH  17  18
ENDBRANCH  15  17
ENDBRANCH  14  15
ENDBRANCH   8  13
BRANCH   7  25
HETATM   25  O1  UNL     1      15.095   7.738  10.330  1.00  0.00    -0.388 OA
ATOM     26  H1  UNL     1      14.833   8.119   9.501  1.00  0.00     0.210 HD
ENDBRANCH   7  25
BRANCH  11  27
HETATM   27  C19 UNL     1      19.291   8.879  10.855  1.00  0.00     0.008 C 
HETATM   28  C20 UNL     1      19.047   7.425  10.516  1.00  0.00     0.006 C 
ENDBRANCH  11  27
TORSDOF 10
ENDMDL
MODEL 4
REMARK VINA RESULT: -6.616643032      2.772      4.798
REMARK  10 active torsions:
REMARK  status: ('A' for Active; 'I' for Inactive)
REMARK    1  A    between atoms: C7_7  and  O1_8 
REMARK    2  A    between atoms: C8_10  and  C9_11 
REMARK    3  A    between atoms: C10_12  and  C11_13 
REMARK    4  A    between atoms: C11_13  and  C12_15 
REMARK    5  A    between atoms: C12_15  and  N1_16 
REMARK    6  A    between atoms: N1_16  and  C13_17 
REMARK    7  A    between atoms: N1_16  and  C15_19 
REMARK    8  A    between atoms: C15_19  and  C16_20 
REMARK    9  A    between atoms: C16_20  and  O3_21 
REMARK   10  A    between atoms: C18_25  and  C19_26 
ROOT
HETATM    1  C1  UNL     1      22.803   5.808  10.718  1.00  0.00     0.015 C 
HETATM    2  C2  UNL     1      21.766   6.608  10.739  1.00  0.00    -0.082 C 
HETATM    3  C3  UNL     1      21.789   8.072  10.974  1.00  0.00     0.039 C 
HETATM    4  C4  UNL     1      20.351   8.502  10.779  1.00  0.00    -0.002 C 
HETATM    5  C5  UNL     1      19.895   7.462   9.742  1.00  0.00     0.017 C 
HETATM    6  C6  UNL     1      20.359   6.252  10.539  1.00  0.00     0.050 C 
HETATM    7  C7  UNL     1      19.656   6.494  11.876  1.00  0.00     0.083 C 
HETATM    8  C8  UNL     1      18.308   5.969  11.911  1.00  0.00     0.114 C 
HETATM    9  C17 UNL     1      17.347   7.139  11.743  1.00  0.00     0.142 C 
HETATM   10  O4  UNL     1      16.161   7.032  11.630  1.00  0.00    -0.297 OA
HETATM   11  C18 UNL     1      18.120   8.382  11.745  1.00  0.00     0.063 C 
HETATM   12  C21 UNL     1      19.565   8.030  11.960  1.00  0.00     0.037 C 
ENDROOT
BRANCH   8  13
HETATM   13  C9  UNL     1      17.767   5.165  12.976  1.00  0.00    -0.008 C 
HETATM   14  C10 UNL     1      17.129   4.044  13.018  1.00  0.00     0.052 C 
BRANCH  14  15
HETATM   15  C11 UNL     1      16.613   3.299  14.121  1.00  0.00     0.181 C 
HETATM   16  O2  UNL     1      16.514   2.022  13.967  1.00  0.00    -0.288 OA
BRANCH  15  17
HETATM   17  C12 UNL     1      16.191   3.813  15.392  1.00  0.00     0.114 C 
BRANCH  17  18
HETATM   18  N1  UNL     1      14.806   4.115  15.600  1.00  0.00    -0.288 NA
BRANCH  18  19
HETATM   19  C13 UNL     1      14.772   5.515  15.996  1.00  0.00     0.090 C 
HETATM   20  C14 UNL     1      14.914   6.464  14.874  1.00  0.00     0.021 C 
ENDBRANCH  18  19
BRANCH  18  21
HETATM   21  C15 UNL     1      14.204   3.278  16.626  1.00  0.00     0.121 C 
BRANCH  21  22
HETATM   22  C16 UNL     1      15.224   2.617  17.527  1.00  0.00     0.179 C 
BRANCH  22  23
HETATM   23  O3  UNL     1      15.212   1.252  17.153  1.00  0.00    -0.400 OA
ATOM     24  H3  UNL     1      15.726   0.810  17.818  1.00  0.00     0.209 HD
ENDBRANCH  22  23
ENDBRANCH  21  22
ENDBRANCH  18  21
ENDBRANCH  17  18
ENDBRANCH  15  17
ENDBRANCH  14  15
ENDBRANCH   8  13
BRANCH   7  25
HETATM   25  O1  UNL     1      20.572   6.131  12.826  1.00  0.00    -0.388 OA
ATOM     26  H1  UNL     1      20.054   5.832  13.563  1.00  0.00     0.210 HD
ENDBRANCH   7  25
BRANCH  11  27
HETATM   27  C19 UNL     1      17.603   9.350  12.776  1.00  0.00     0.008 C 
HETATM   28  C20 UNL     1      17.993   8.857  14.152  1.00  0.00     0.006 C 
ENDBRANCH  11  27
TORSDOF 10
ENDMDL
MODEL 5
REMARK VINA RESULT: -6.467364061      1.560      2.083
REMARK  10 active torsions:
REMARK  status: ('A' for Active; 'I' for Inactive)
REMARK    1  A    between atoms: C7_7  and  O1_8 
REMARK    2  A    between atoms: C8_10  and  C9_11 
REMARK    3  A    between atoms: C10_12  and  C11_13 
REMARK    4  A    between atoms: C11_13  and  C12_15 
REMARK    5  A    between atoms: C12_15  and  N1_16 
REMARK    6  A    between atoms: N1_16  and  C13_17 
REMARK    7  A    between atoms: N1_16  and  C15_19 
REMARK    8  A    between atoms: C15_19  and  C16_20 
REMARK    9  A    between atoms: C16_20  and  O3_21 
REMARK   10  A    between atoms: C18_25  and  C19_26 
ROOT
HETATM    1  C1  UNL     1      11.979   9.744   8.448  1.00  0.00     0.015 C 
HETATM    2  C2  UNL     1      13.157  10.202   8.790  1.00  0.00    -0.082 C 
HETATM    3  C3  UNL     1      14.094  10.955   7.923  1.00  0.00     0.039 C 
HETATM    4  C4  UNL     1      15.233  11.331   8.845  1.00  0.00    -0.002 C 
HETATM    5  C5  UNL     1      14.477  11.450  10.179  1.00  0.00     0.017 C 
HETATM    6  C6  UNL     1      13.819  10.081  10.092  1.00  0.00     0.050 C 
HETATM    7  C7  UNL     1      15.038   9.182   9.877  1.00  0.00     0.083 C 
HETATM    8  C8  UNL     1      15.668   8.774  11.115  1.00  0.00     0.114 C 
HETATM    9  C17 UNL     1      16.923   9.618  11.299  1.00  0.00     0.142 C 
HETATM   10  O4  UNL     1      17.617   9.595  12.273  1.00  0.00    -0.297 OA
HETATM   11  C18 UNL     1      17.117  10.435  10.101  1.00  0.00     0.063 C 
HETATM   12  C21 UNL     1      16.026  10.094   9.125  1.00  0.00     0.037 C 
ENDROOT
BRANCH   8  13
HETATM   13  C9  UNL     1      16.049   7.424  11.435  1.00  0.00    -0.008 C 
HETATM   14  C10 UNL     1      16.675   6.493  10.797  1.00  0.00     0.052 C 
BRANCH  14  15
HETATM   15  C11 UNL     1      17.018   5.161  11.179  1.00  0.00     0.181 C 
HETATM   16  O2  UNL     1      16.924   4.251  10.269  1.00  0.00    -0.288 OA
BRANCH  15  17
HETATM   17  C12 UNL     1      17.460   4.716  12.468  1.00  0.00     0.114 C 
BRANCH  17  18
HETATM   18  N1  UNL     1      16.489   4.322  13.444  1.00  0.00    -0.288 NA
BRANCH  18  19
HETATM   19  C13 UNL     1      16.619   5.285  14.529  1.00  0.00     0.090 C 
HETATM   20  C14 UNL     1      15.458   6.183  14.682  1.00  0.00     0.021 C 
ENDBRANCH  18  19
BRANCH  18  21
HETATM   21  C15 UNL     1      16.708   2.969  13.932  1.00  0.00     0.121 C 
BRANCH  21  22
HETATM   22  C16 UNL     1      16.341   2.797  15.390  1.00  0.00     0.179 C 
BRANCH  22  23
HETATM   23  O3  UNL     1      17.498   2.251  15.996  1.00  0.00    -0.400 OA
ATOM     24  H3  UNL     1      17.543   2.660  16.852  1.00  0.00     0.209 HD
ENDBRANCH  22  23
ENDBRANCH  21  22
ENDBRANCH  18  21
ENDBRANCH  17  18
ENDBRANCH  15  17
ENDBRANCH  14  15
ENDBRANCH   8  13
BRANCH   7  25
HETATM   25  O1  UNL     1      14.632   8.251   8.960  1.00  0.00    -0.388 OA
ATOM     26  H1  UNL     1      14.290   7.532   9.477  1.00  0.00     0.210 HD
ENDBRANCH   7  25
BRANCH  11  27
HETATM   27  C19 UNL     1      18.493  10.242   9.519  1.00  0.00     0.008 C 
HETATM   28  C20 UNL     1      18.469   9.050   8.588  1.00  0.00     0.006 C 
ENDBRANCH  11  27
TORSDOF 10
ENDMDL
