MODEL 1
REMARK VINA RESULT: -6.343761640      0.000      0.000
REMARK  7 active torsions:
REMARK  status: ('A' for Active; 'I' for Inactive)
REMARK    1  A    between atoms: S1_2  and  C2_3 
REMARK    2  A    between atoms: C2_3  and  C3_4 
REMARK    3  A    between atoms: C3_4  and  C4_5 
REMARK    4  A    between atoms: C4_5  and  N1_6 
REMARK    5  A    between atoms: C4_5  and  C11_17 
REMARK       I    between atoms: N1_6  and  C5_8 
REMARK    6  A    between atoms: C5_8  and  C6_10 
REMARK       I    between atoms: C11_17  and  N3_19 
REMARK    7  A    between atoms: N3_19  and  C12_21 
ROOT
HETATM    1  C4  UNL     1      18.356   6.383   9.194  1.00  0.00     0.177 C 
ENDROOT
BRANCH   1   2
HETATM    2  C3  UNL     1      19.621   7.147   9.043  1.00  0.00     0.045 C 
BRANCH   2   3
HETATM    3  C2  UNL     1      20.228   7.305  10.424  1.00  0.00     0.076 C 
BRANCH   3   4
HETATM    4  S1  UNL     1      22.020   7.350  10.252  1.00  0.00    -0.173 SA
HETATM    5  C1  UNL     1      22.748   5.762  10.707  1.00  0.00     0.089 C 
ENDBRANCH   3   4
ENDBRANCH   2   3
ENDBRANCH   1   2
BRANCH   1   6
HETATM    6  N1  UNL     1      18.076   6.061  10.569  1.00  0.00    -0.346 N 
HETATM    7  C5  UNL     1      17.296   4.991  11.049  1.00  0.00     0.249 C 
HETATM    8  O1  UNL     1      16.743   4.180  10.282  1.00  0.00    -0.271 OA
ATOM      9  H1  UNL     1      18.489   6.673  11.273  1.00  0.00     0.163 HD
BRANCH   7  10
HETATM   10  C6  UNL     1      17.123   4.814  12.511  1.00  0.00     0.241 C 
HETATM   11  C7  UNL     1      18.145   5.740  13.184  1.00  0.00     0.313 C 
HETATM   12  N2  UNL     1      17.746   6.031  14.529  1.00  0.00     0.089 N 
HETATM   13  C8  UNL     1      16.955   7.245  14.485  1.00  0.00     0.310 C 
HETATM   14  C9  UNL     1      16.986   4.893  15.018  1.00  0.00     0.298 C 
HETATM   15  C10 UNL     1      15.690   4.812  14.241  1.00  0.00     0.199 C 
HETATM   16  O2  UNL     1      15.842   5.104  12.908  1.00  0.00    -0.373 OA
ENDBRANCH   7  10
ENDBRANCH   1   6
BRANCH   1  17
HETATM   17  C11 UNL     1      17.156   7.073   8.626  1.00  0.00     0.240 C 
HETATM   18  O3  UNL     1      16.747   6.641   7.499  1.00  0.00    -0.271 OA
HETATM   19  N3  UNL     1      16.490   8.140   9.280  1.00  0.00    -0.354 N 
ATOM     20  H3  UNL     1      16.813   8.484  10.184  1.00  0.00     0.162 HD
BRANCH  19  21
HETATM   21  C12 UNL     1      15.337   8.726   8.629  1.00  0.00     0.088 C 
HETATM   22  C13 UNL     1      15.758  10.022   8.043  1.00  0.00     0.025 C 
HETATM   23  C14 UNL     1      14.642  10.857   7.475  1.00  0.00     0.002 C 
HETATM   24  C15 UNL     1      13.393  10.041   7.505  1.00  0.00     0.001 C 
HETATM   25  C16 UNL     1      13.043   9.510   8.863  1.00  0.00     0.006 C 
HETATM   26  C17 UNL     1      14.161   8.809   9.575  1.00  0.00     0.004 C 
HETATM   27  C18 UNL     1      14.553   9.408  10.882  1.00  0.00     0.012 C 
ENDBRANCH  19  21
ENDBRANCH   1  17
TORSDOF 7
ENDMDL
MODEL 2
REMARK VINA RESULT: -6.319264573      4.141      5.831
REMARK  7 active torsions:
REMARK  status: ('A' for Active; 'I' for Inactive)
REMARK    1  A    between atoms: S1_2  and  C2_3 
REMARK    2  A    between atoms: C2_3  and  C3_4 
REMARK    3  A    between atoms: C3_4  and  C4_5 
REMARK    4  A    between atoms: C4_5  and  N1_6 
REMARK    5  A    between atoms: C4_5  and  C11_17 
REMARK       I    between atoms: N1_6  and  C5_8 
REMARK    6  A    between atoms: C5_8  and  C6_10 
REMARK       I    between atoms: C11_17  and  N3_19 
REMARK    7  A    between atoms: N3_19  and  C12_21 
ROOT
HETATM    1  C4  UNL     1      17.697   5.923  12.814  1.00  0.00     0.177 C 
ENDROOT
BRANCH   1   2
HETATM    2  C3  UNL     1      18.140   4.977  11.758  1.00  0.00     0.045 C 
BRANCH   2   3
HETATM    3  C2  UNL     1      16.995   4.818  10.776  1.00  0.00     0.076 C 
BRANCH   3   4
HETATM    4  S1  UNL     1      16.157   3.264  11.133  1.00  0.00    -0.173 SA
HETATM    5  C1  UNL     1      17.102   2.281  12.315  1.00  0.00     0.089 C 
ENDBRANCH   3   4
ENDBRANCH   2   3
ENDBRANCH   1   2
BRANCH   1   6
HETATM    6  N1  UNL     1      17.368   5.249  14.043  1.00  0.00    -0.346 N 
HETATM    7  C5  UNL     1      16.081   5.023  14.569  1.00  0.00     0.249 C 
HETATM    8  O1  UNL     1      15.051   5.408  13.985  1.00  0.00    -0.271 OA
ATOM      9  H1  UNL     1      18.151   4.896  14.593  1.00  0.00     0.163 HD
BRANCH   7  10
HETATM   10  C6  UNL     1      15.937   4.301  15.856  1.00  0.00     0.241 C 
HETATM   11  C7  UNL     1      14.613   4.771  16.472  1.00  0.00     0.313 C 
HETATM   12  N2  UNL     1      14.132   3.811  17.420  1.00  0.00     0.089 N 
HETATM   13  C8  UNL     1      13.261   2.903  16.703  1.00  0.00     0.310 C 
HETATM   14  C9  UNL     1      15.289   3.137  17.986  1.00  0.00     0.298 C 
HETATM   15  C10 UNL     1      15.942   2.311  16.899  1.00  0.00     0.199 C 
HETATM   16  O2  UNL     1      15.955   2.940  15.679  1.00  0.00    -0.373 OA
ENDBRANCH   7  10
ENDBRANCH   1   6
BRANCH   1  17
HETATM   17  C11 UNL     1      18.689   6.998  13.125  1.00  0.00     0.240 C 
HETATM   18  O3  UNL     1      19.916   6.676  13.005  1.00  0.00    -0.271 OA
HETATM   19  N3  UNL     1      18.317   8.307  13.526  1.00  0.00    -0.354 N 
ATOM     20  H3  UNL     1      17.336   8.568  13.619  1.00  0.00     0.162 HD
BRANCH  19  21
HETATM   21  C12 UNL     1      19.371   9.262  13.799  1.00  0.00     0.088 C 
HETATM   22  C13 UNL     1      18.974  10.044  14.996  1.00  0.00     0.025 C 
HETATM   23  C14 UNL     1      19.872  11.206  15.324  1.00  0.00     0.002 C 
HETATM   24  C15 UNL     1      21.057  11.144  14.418  1.00  0.00     0.001 C 
HETATM   25  C16 UNL     1      20.711  11.114  12.959  1.00  0.00     0.006 C 
HETATM   26  C17 UNL     1      19.685  10.090  12.574  1.00  0.00     0.004 C 
HETATM   27  C18 UNL     1      18.446  10.638  11.952  1.00  0.00     0.012 C 
ENDBRANCH  19  21
ENDBRANCH   1  17
TORSDOF 7
ENDMDL
MODEL 3
REMARK VINA RESULT: -6.246245443      2.208      2.801
REMARK  7 active torsions:
REMARK  status: ('A' for Active; 'I' for Inactive)
REMARK    1  A    between atoms: S1_2  and  C2_3 
REMARK    2  A    between atoms: C2_3  and  C3_4 
REMARK    3  A    between atoms: C3_4  and  C4_5 
REMARK    4  A    between atoms: C4_5  and  N1_6 
REMARK    5  A    between atoms: C4_5  and  C11_17 
REMARK       I    between atoms: N1_6  and  C5_8 
REMARK    6  A    between atoms: C5_8  and  C6_10 
REMARK       I    between atoms: C11_17  and  N3_19 
REMARK    7  A    between atoms: N3_19  and  C12_21 
ROOT
HETATM    1  C4  UNL     1      17.958   7.132  11.505  1.00  0.00     0.177 C 
ENDROOT
BRANCH   1   2
HETATM    2  C3  UNL     1      18.672   8.381  11.873  1.00  0.00     0.045 C 
BRANCH   2   3
HETATM    3  C2  UNL     1      18.354   8.680  13.326  1.00  0.00     0.076 C 
BRANCH   3   4
HETATM    4  S1  UNL     1      19.722   9.622  14.021  1.00  0.00    -0.173 SA
HETATM    5  C1  UNL     1      19.183  10.574  15.457  1.00  0.00     0.089 C 
ENDBRANCH   3   4
ENDBRANCH   2   3
ENDBRANCH   1   2
BRANCH   1   6
HETATM    6  N1  UNL     1      17.638   6.330  12.658  1.00  0.00    -0.346 N 
HETATM    7  C5  UNL     1      17.991   4.985  12.880  1.00  0.00     0.249 C 
HETATM    8  O1  UNL     1      18.650   4.329  12.052  1.00  0.00    -0.271 OA
ATOM      9  H1  UNL     1      17.097   6.785  13.393  1.00  0.00     0.163 HD
BRANCH   7  10
HETATM   10  C6  UNL     1      17.574   4.321  14.139  1.00  0.00     0.241 C 
HETATM   11  C7  UNL     1      16.868   5.392  14.981  1.00  0.00     0.313 C 
HETATM   12  N2  UNL     1      16.007   4.780  15.949  1.00  0.00     0.089 N 
HETATM   13  C8  UNL     1      14.697   4.663  15.340  1.00  0.00     0.310 C 
HETATM   14  C9  UNL     1      16.576   3.487  16.288  1.00  0.00     0.298 C 
HETATM   15  C10 UNL     1      16.488   2.590  15.073  1.00  0.00     0.199 C 
HETATM   16  O2  UNL     1      16.753   3.248  13.898  1.00  0.00    -0.373 OA
ENDBRANCH   7  10
ENDBRANCH   1   6
BRANCH   1  17
HETATM   17  C11 UNL     1      16.698   7.355  10.731  1.00  0.00     0.240 C 
HETATM   18  O3  UNL     1      16.040   6.308  10.424  1.00  0.00    -0.271 OA
HETATM   19  N3  UNL     1      16.234   8.641  10.353  1.00  0.00    -0.354 N 
ATOM     20  H3  UNL     1      16.757   9.480  10.601  1.00  0.00     0.162 HD
BRANCH  19  21
HETATM   21  C12 UNL     1      14.998   8.728   9.604  1.00  0.00     0.088 C 
HETATM   22  C13 UNL     1      15.335   9.142   8.220  1.00  0.00     0.025 C 
HETATM   23  C14 UNL     1      14.152   9.454   7.343  1.00  0.00     0.002 C 
HETATM   24  C15 UNL     1      12.914   9.080   8.088  1.00  0.00     0.001 C 
HETATM   25  C16 UNL     1      12.787   9.734   9.431  1.00  0.00     0.006 C 
HETATM   26  C17 UNL     1      13.997   9.616  10.308  1.00  0.00     0.004 C 
HETATM   27  C18 UNL     1      14.610  10.912  10.717  1.00  0.00     0.012 C 
ENDBRANCH  19  21
ENDBRANCH   1  17
TORSDOF 7
ENDMDL
MODEL 4
REMARK VINA RESULT: -6.221957631      2.607      3.916
REMARK  7 active torsions:
REMARK  status: ('A' for Active; 'I' for Inactive)
REMARK    1  A    between atoms: S1_2  and  C2_3 
REMARK    2  A    between atoms: C2_3  and  C3_4 
REMARK    3  A    between atoms: C3_4  and  C4_5 
REMARK    4  A    between atoms: C4_5  and  N1_6 
REMARK    5  A    between atoms: C4_5  and  C11_17 
REMARK       I    between atoms: N1_6  and  C5_8 
REMARK    6  A    between atoms: C5_8  and  C6_10 
REMARK       I    between atoms: C11_17  and  N3_19 
REMARK    7  A    between atoms: N3_19  and  C12_21 
ROOT
HETATM    1  C4  UNL     1      17.203   5.539  12.588  1.00  0.00     0.177 C 
ENDROOT
BRANCH   1   2
HETATM    2  C3  UNL     1      18.671   5.724  12.470  1.00  0.00     0.045 C 
BRANCH   2   3
HETATM    3  C2  UNL     1      19.148   6.419  13.731  1.00  0.00     0.076 C 
BRANCH   3   4
HETATM    4  S1  UNL     1      19.631   8.100  13.302  1.00  0.00    -0.173 SA
HETATM    5  C1  UNL     1      18.530   9.302  14.076  1.00  0.00     0.089 C 
ENDBRANCH   3   4
ENDBRANCH   2   3
ENDBRANCH   1   2
BRANCH   1   6
HETATM    6  N1  UNL     1      16.819   5.044  13.885  1.00  0.00    -0.346 N 
HETATM    7  C5  UNL     1      16.707   3.697  14.281  1.00  0.00     0.249 C 
HETATM    8  O1  UNL     1      16.943   2.756  13.498  1.00  0.00    -0.271 OA
ATOM      9  H1  UNL     1      16.606   5.745  14.595  1.00  0.00     0.163 HD
BRANCH   7  10
HETATM   10  C6  UNL     1      16.301   3.377  15.670  1.00  0.00     0.241 C 
HETATM   11  C7  UNL     1      15.248   4.421  16.065  1.00  0.00     0.313 C 
HETATM   12  N2  UNL     1      14.441   3.935  17.145  1.00  0.00     0.089 N 
HETATM   13  C8  UNL     1      13.294   3.275  16.555  1.00  0.00     0.310 C 
HETATM   14  C9  UNL     1      15.260   3.026  17.929  1.00  0.00     0.298 C 
HETATM   15  C10 UNL     1      15.557   1.803  17.089  1.00  0.00     0.199 C 
HETATM   16  O2  UNL     1      15.808   2.101  15.773  1.00  0.00    -0.373 OA
ENDBRANCH   7  10
ENDBRANCH   1   6
BRANCH   1  17
HETATM   17  C11 UNL     1      16.408   6.775  12.310  1.00  0.00     0.240 C 
HETATM   18  O3  UNL     1      15.624   7.154  13.240  1.00  0.00    -0.271 OA
HETATM   19  N3  UNL     1      16.505   7.506  11.099  1.00  0.00    -0.354 N 
ATOM     20  H3  UNL     1      17.135   7.206  10.355  1.00  0.00     0.162 HD
BRANCH  19  21
HETATM   21  C12 UNL     1      15.684   8.689  10.948  1.00  0.00     0.088 C 
HETATM   22  C13 UNL     1      14.903   8.541   9.695  1.00  0.00     0.025 C 
HETATM   23  C14 UNL     1      14.120   9.760   9.285  1.00  0.00     0.002 C 
HETATM   24  C15 UNL     1      14.216  10.762  10.387  1.00  0.00     0.001 C 
HETATM   25  C16 UNL     1      15.621  11.117  10.771  1.00  0.00     0.006 C 
HETATM   26  C17 UNL     1      16.520   9.946  11.030  1.00  0.00     0.004 C 
HETATM   27  C18 UNL     1      17.720   9.862  10.151  1.00  0.00     0.012 C 
ENDBRANCH  19  21
ENDBRANCH   1  17
TORSDOF 7
ENDMDL
MODEL 5
REMARK VINA RESULT: -6.212713462      2.399      3.528
REMARK  7 active torsions:
REMARK  status: ('A' for Active; 'I' for Inactive)
REMARK    1  A    between atoms: S1_2  and  C2_3 
REMARK    2  A    between atoms: C2_3  and  C3_4 
REMARK    3  A    between atoms: C3_4  and  C4_5 
REMARK    4  A    between atoms: C4_5  and  N1_6 
REMARK    5  A    between atoms: C4_5  and  C11_17 
REMARK       I    between atoms: N1_6  and  C5_8 
REMARK    6  A    between atoms: C5_8  and  C6_10 
REMARK       I    between atoms: C11_17  and  N3_19 
REMARK    7  A    between atoms: N3_19  and  C12_21 
ROOT
HETATM    1  C4  UNL     1      17.124   6.510  13.036  1.00  0.00     0.177 C 
ENDROOT
BRANCH   1   2
HETATM    2  C3  UNL     1      17.564   7.680  13.837  1.00  0.00     0.045 C 
BRANCH   2   3
HETATM    3  C2  UNL     1      19.081   7.708  13.811  1.00  0.00     0.076 C 
BRANCH   3   4
HETATM    4  S1  UNL     1      19.602   8.898  12.563  1.00  0.00    -0.173 SA
HETATM    5  C1  UNL     1      19.880   8.085  10.976  1.00  0.00     0.089 C 
ENDBRANCH   3   4
ENDBRANCH   2   3
ENDBRANCH   1   2
BRANCH   1   6
HETATM    6  N1  UNL     1      16.255   5.637  13.783  1.00  0.00    -0.346 N 
HETATM    7  C5  UNL     1      16.608   4.813  14.869  1.00  0.00     0.249 C 
HETATM    8  O1  UNL     1      17.773   4.761  15.307  1.00  0.00    -0.271 OA
ATOM      9  H1  UNL     1      15.277   5.613  13.494  1.00  0.00     0.163 HD
BRANCH   7  10
HETATM   10  C6  UNL     1      15.568   3.980  15.519  1.00  0.00     0.241 C 
HETATM   11  C7  UNL     1      16.256   3.264  16.689  1.00  0.00     0.313 C 
HETATM   12  N2  UNL     1      15.288   2.850  17.661  1.00  0.00     0.089 N 
HETATM   13  C8  UNL     1      15.173   3.922  18.630  1.00  0.00     0.310 C 
HETATM   14  C9  UNL     1      14.040   2.602  16.960  1.00  0.00     0.298 C 
HETATM   15  C10 UNL     1      13.516   3.919  16.431  1.00  0.00     0.199 C 
HETATM   16  O2  UNL     1      14.507   4.737  15.946  1.00  0.00    -0.373 OA
ENDBRANCH   7  10
ENDBRANCH   1   6
BRANCH   1  17
HETATM   17  C11 UNL     1      16.434   6.870  11.759  1.00  0.00     0.240 C 
HETATM   18  O3  UNL     1      16.266   5.917  10.929  1.00  0.00    -0.271 OA
HETATM   19  N3  UNL     1      15.978   8.180  11.463  1.00  0.00    -0.354 N 
ATOM     20  H3  UNL     1      16.109   8.943  12.127  1.00  0.00     0.162 HD
BRANCH  19  21
HETATM   21  C12 UNL     1      15.323   8.403  10.191  1.00  0.00     0.088 C 
HETATM   22  C13 UNL     1      16.315   9.015   9.272  1.00  0.00     0.025 C 
HETATM   23  C14 UNL     1      15.758   9.480   7.953  1.00  0.00     0.002 C 
HETATM   24  C15 UNL     1      14.340   9.022   7.863  1.00  0.00     0.001 C 
HETATM   25  C16 UNL     1      13.480   9.468   9.008  1.00  0.00     0.006 C 
HETATM   26  C17 UNL     1      14.048   9.195  10.368  1.00  0.00     0.004 C 
HETATM   27  C18 UNL     1      14.267  10.402  11.216  1.00  0.00     0.012 C 
ENDBRANCH  19  21
ENDBRANCH   1  17
TORSDOF 7
ENDMDL
