MODEL 1
REMARK VINA RESULT: -6.643663865      0.000      0.000
REMARK  6 active torsions:
REMARK  status: ('A' for Active; 'I' for Inactive)
REMARK    1  A    between atoms: C2_2  and  C3_3 
REMARK    2  A    between atoms: N2_8  and  C7_9 
REMARK    3  A    between atoms: C7_9  and  C8_10 
REMARK       I    between atoms: C8_10  and  N3_12 
REMARK    4  A    between atoms: N3_12  and  C9_14 
REMARK    5  A    between atoms: C14_19  and  C15_20 
REMARK    6  A    between atoms: C17_24  and  C18_25 
ROOT
HETATM    1  C18 UNL     1      16.361   3.113  12.144  1.00  0.00     0.178 C 
HETATM    2  C19 UNL     1      16.246   2.379  10.845  1.00  0.00     0.065 C 
HETATM    3  N4  UNL     1      16.135   1.817   9.846  1.00  0.00    -0.197 NA
ENDROOT
BRANCH   1   4
HETATM    4  C17 UNL     1      17.246   4.291  12.002  1.00  0.00     0.030 C 
HETATM    5  N1  UNL     1      17.610   5.063  13.094  1.00  0.00    -0.357 N 
HETATM    6  C3  UNL     1      16.933   5.407  14.196  1.00  0.00    -0.015 C 
HETATM    7  C5  UNL     1      18.907   5.633  12.864  1.00  0.00     0.158 C 
HETATM    8  C4  UNL     1      15.436   5.309  14.269  1.00  0.00     0.063 C 
HETATM    9  C6  UNL     1      19.089   5.932  11.411  1.00  0.00     0.293 C 
HETATM   10  N2  UNL     1      17.932   6.159  10.615  1.00  0.00     0.104 N 
HETATM   11  C16 UNL     1      16.907   5.157  10.769  1.00  0.00     0.326 C 
BRANCH   6  12
HETATM   12  C2  UNL     1      17.444   4.927  15.508  1.00  0.00     0.048 C 
HETATM   13  C1  UNL     1      16.934   3.648  16.066  1.00  0.00     0.011 C 
ENDBRANCH   6  12
BRANCH  10  14
HETATM   14  C7  UNL     1      18.360   6.329   9.257  1.00  0.00     0.375 C 
BRANCH  14  15
HETATM   15  C8  UNL     1      17.426   7.014   8.382  1.00  0.00     0.246 C 
HETATM   16  O1  UNL     1      17.011   6.618   7.276  1.00  0.00    -0.272 OA
HETATM   17  N3  UNL     1      16.914   8.283   8.823  1.00  0.00    -0.354 N 
ATOM     18  H3  UNL     1      17.227   8.645   9.725  1.00  0.00     0.162 HD
BRANCH  17  19
HETATM   19  C9  UNL     1      15.993   9.063   8.065  1.00  0.00     0.098 C 
HETATM   20  C10 UNL     1      16.374  10.534   8.179  1.00  0.00     0.026 C 
HETATM   21  C11 UNL     1      15.576  11.349   7.192  1.00  0.00     0.002 C 
HETATM   22  C12 UNL     1      14.561  10.513   6.448  1.00  0.00     0.001 C 
HETATM   23  C13 UNL     1      13.716   9.675   7.386  1.00  0.00     0.017 C 
HETATM   24  C14 UNL     1      14.547   8.833   8.331  1.00  0.00     0.109 C 
BRANCH  24  25
HETATM   25  C15 UNL     1      14.095   9.033   9.702  1.00  0.00     0.179 C 
HETATM   26  O2  UNL     1      13.229   9.844  10.082  1.00  0.00    -0.648 OA
HETATM   27  O3  UNL     1      14.679   8.248  10.703  1.00  0.00    -0.648 OA
ENDBRANCH  24  25
ENDBRANCH  17  19
ENDBRANCH  14  15
ENDBRANCH  10  14
ENDBRANCH   1   4
TORSDOF 6
ENDMDL
MODEL 2
REMARK VINA RESULT: -6.617168116      2.912      7.733
REMARK  6 active torsions:
REMARK  status: ('A' for Active; 'I' for Inactive)
REMARK    1  A    between atoms: C2_2  and  C3_3 
REMARK    2  A    between atoms: N2_8  and  C7_9 
REMARK    3  A    between atoms: C7_9  and  C8_10 
REMARK       I    between atoms: C8_10  and  N3_12 
REMARK    4  A    between atoms: N3_12  and  C9_14 
REMARK    5  A    between atoms: C14_19  and  C15_20 
REMARK    6  A    between atoms: C17_24  and  C18_25 
ROOT
HETATM    1  C18 UNL     1      16.576  11.240  10.720  1.00  0.00     0.178 C 
HETATM    2  C19 UNL     1      17.853  11.921  11.103  1.00  0.00     0.065 C 
HETATM    3  N4  UNL     1      18.824  12.454  11.414  1.00  0.00    -0.197 NA
ENDROOT
BRANCH   1   4
HETATM    4  C17 UNL     1      16.732   9.769  10.767  1.00  0.00     0.030 C 
HETATM    5  N1  UNL     1      15.807   8.921  10.181  1.00  0.00    -0.357 N 
HETATM    6  C3  UNL     1      14.477   9.013  10.062  1.00  0.00    -0.015 C 
HETATM    7  C5  UNL     1      16.465   7.718   9.756  1.00  0.00     0.158 C 
HETATM    8  C4  UNL     1      13.667   9.940  10.922  1.00  0.00     0.063 C 
HETATM    9  C6  UNL     1      17.577   7.377  10.695  1.00  0.00     0.293 C 
HETATM   10  N2  UNL     1      17.500   7.849  12.035  1.00  0.00     0.104 N 
HETATM   11  C16 UNL     1      17.197   9.254  12.147  1.00  0.00     0.326 C 
BRANCH   6  12
HETATM   12  C2  UNL     1      13.904   9.112   8.692  1.00  0.00     0.048 C 
HETATM   13  C1  UNL     1      12.518   9.617   8.515  1.00  0.00     0.011 C 
ENDBRANCH   6  12
BRANCH  10  14
HETATM   14  C7  UNL     1      18.714   7.475  12.702  1.00  0.00     0.375 C 
BRANCH  14  15
HETATM   15  C8  UNL     1      18.632   6.297  13.545  1.00  0.00     0.246 C 
HETATM   16  O1  UNL     1      19.552   5.796  14.220  1.00  0.00    -0.272 OA
HETATM   17  N3  UNL     1      17.364   5.624  13.623  1.00  0.00    -0.354 N 
ATOM     18  H3  UNL     1      16.582   6.001  13.086  1.00  0.00     0.162 HD
BRANCH  17  19
HETATM   19  C9  UNL     1      17.143   4.457  14.410  1.00  0.00     0.098 C 
HETATM   20  C10 UNL     1      16.615   3.343  13.513  1.00  0.00     0.026 C 
HETATM   21  C11 UNL     1      16.613   2.035  14.265  1.00  0.00     0.002 C 
HETATM   22  C12 UNL     1      17.029   2.205  15.707  1.00  0.00     0.001 C 
HETATM   23  C13 UNL     1      16.262   3.315  16.395  1.00  0.00     0.017 C 
HETATM   24  C14 UNL     1      16.323   4.626  15.640  1.00  0.00     0.109 C 
BRANCH  24  25
HETATM   25  C15 UNL     1      14.979   5.159  15.460  1.00  0.00     0.179 C 
HETATM   26  O2  UNL     1      14.592   5.887  14.526  1.00  0.00    -0.648 OA
HETATM   27  O3  UNL     1      14.014   4.831  16.419  1.00  0.00    -0.648 OA
ENDBRANCH  24  25
ENDBRANCH  17  19
ENDBRANCH  14  15
ENDBRANCH  10  14
ENDBRANCH   1   4
TORSDOF 6
ENDMDL
MODEL 3
REMARK VINA RESULT: -6.332363134      2.583      7.579
REMARK  6 active torsions:
REMARK  status: ('A' for Active; 'I' for Inactive)
REMARK    1  A    between atoms: C2_2  and  C3_3 
REMARK    2  A    between atoms: N2_8  and  C7_9 
REMARK    3  A    between atoms: C7_9  and  C8_10 
REMARK       I    between atoms: C8_10  and  N3_12 
REMARK    4  A    between atoms: N3_12  and  C9_14 
REMARK    5  A    between atoms: C14_19  and  C15_20 
REMARK    6  A    between atoms: C17_24  and  C18_25 
ROOT
HETATM    1  C18 UNL     1      14.245  10.751  10.367  1.00  0.00     0.178 C 
HETATM    2  C19 UNL     1      13.735   9.845  11.444  1.00  0.00     0.065 C 
HETATM    3  N4  UNL     1      13.324   9.156  12.268  1.00  0.00    -0.197 NA
ENDROOT
BRANCH   1   4
HETATM    4  C17 UNL     1      15.009   9.984   9.357  1.00  0.00     0.030 C 
HETATM    5  N1  UNL     1      14.733  10.089   8.004  1.00  0.00    -0.357 N 
HETATM    6  C3  UNL     1      13.578  10.256   7.348  1.00  0.00    -0.015 C 
HETATM    7  C5  UNL     1      15.935   9.859   7.253  1.00  0.00     0.158 C 
HETATM    8  C4  UNL     1      12.253   9.975   7.996  1.00  0.00     0.063 C 
HETATM    9  C6  UNL     1      16.798   8.858   7.952  1.00  0.00     0.293 C 
HETATM   10  N2  UNL     1      16.178   7.924   8.830  1.00  0.00     0.104 N 
HETATM   11  C16 UNL     1      15.275   8.523   9.782  1.00  0.00     0.326 C 
BRANCH   6  12
HETATM   12  C2  UNL     1      13.398  11.505   6.560  1.00  0.00     0.048 C 
HETATM   13  C1  UNL     1      12.030  11.921   6.155  1.00  0.00     0.011 C 
ENDBRANCH   6  12
BRANCH  10  14
HETATM   14  C7  UNL     1      17.213   7.144   9.442  1.00  0.00     0.375 C 
BRANCH  14  15
HETATM   15  C8  UNL     1      16.809   6.350  10.588  1.00  0.00     0.246 C 
HETATM   16  O1  UNL     1      16.378   5.181  10.572  1.00  0.00    -0.272 OA
HETATM   17  N3  UNL     1      16.911   6.960  11.886  1.00  0.00    -0.354 N 
ATOM     18  H3  UNL     1      17.260   7.917  11.945  1.00  0.00     0.162 HD
BRANCH  17  19
HETATM   19  C9  UNL     1      16.548   6.297  13.094  1.00  0.00     0.098 C 
HETATM   20  C10 UNL     1      15.872   7.295  14.027  1.00  0.00     0.026 C 
HETATM   21  C11 UNL     1      15.257   6.569  15.197  1.00  0.00     0.002 C 
HETATM   22  C12 UNL     1      15.564   5.090  15.178  1.00  0.00     0.001 C 
HETATM   23  C13 UNL     1      17.042   4.817  14.988  1.00  0.00     0.017 C 
HETATM   24  C14 UNL     1      17.618   5.522  13.778  1.00  0.00     0.109 C 
BRANCH  24  25
HETATM   25  C15 UNL     1      18.817   6.259  14.156  1.00  0.00     0.179 C 
HETATM   26  O2  UNL     1      19.165   7.375  13.724  1.00  0.00    -0.648 OA
HETATM   27  O3  UNL     1      19.674   5.673  15.094  1.00  0.00    -0.648 OA
ENDBRANCH  24  25
ENDBRANCH  17  19
ENDBRANCH  14  15
ENDBRANCH  10  14
ENDBRANCH   1   4
TORSDOF 6
ENDMDL
MODEL 4
REMARK VINA RESULT: -6.309165079      1.766      2.016
REMARK  6 active torsions:
REMARK  status: ('A' for Active; 'I' for Inactive)
REMARK    1  A    between atoms: C2_2  and  C3_3 
REMARK    2  A    between atoms: N2_8  and  C7_9 
REMARK    3  A    between atoms: C7_9  and  C8_10 
REMARK       I    between atoms: C8_10  and  N3_12 
REMARK    4  A    between atoms: N3_12  and  C9_14 
REMARK    5  A    between atoms: C14_19  and  C15_20 
REMARK    6  A    between atoms: C17_24  and  C18_25 
ROOT
HETATM    1  C18 UNL     1      16.092   3.644  11.799  1.00  0.00     0.178 C 
HETATM    2  C19 UNL     1      16.648   2.377  12.371  1.00  0.00     0.065 C 
HETATM    3  N4  UNL     1      17.074   1.394  12.791  1.00  0.00    -0.197 NA
ENDROOT
BRANCH   1   4
HETATM    4  C17 UNL     1      17.012   4.777  12.047  1.00  0.00     0.030 C 
HETATM    5  N1  UNL     1      17.369   5.156  13.330  1.00  0.00    -0.357 N 
HETATM    6  C3  UNL     1      16.674   5.162  14.475  1.00  0.00    -0.015 C 
HETATM    7  C5  UNL     1      18.686   5.725  13.311  1.00  0.00     0.158 C 
HETATM    8  C4  UNL     1      15.174   5.096  14.490  1.00  0.00     0.063 C 
HETATM    9  C6  UNL     1      18.914   6.457  12.027  1.00  0.00     0.293 C 
HETATM   10  N2  UNL     1      17.783   6.961  11.324  1.00  0.00     0.104 N 
HETATM   11  C16 UNL     1      16.727   5.996  11.142  1.00  0.00     0.326 C 
BRANCH   6  12
HETATM   12  C2  UNL     1      17.140   4.279  15.578  1.00  0.00     0.048 C 
HETATM   13  C1  UNL     1      16.291   3.137  16.006  1.00  0.00     0.011 C 
ENDBRANCH   6  12
BRANCH  10  14
HETATM   14  C7  UNL     1      18.249   7.532  10.094  1.00  0.00     0.375 C 
BRANCH  14  15
HETATM   15  C8  UNL     1      17.744   8.857   9.784  1.00  0.00     0.246 C 
HETATM   16  O1  UNL     1      18.417   9.892   9.619  1.00  0.00    -0.272 OA
HETATM   17  N3  UNL     1      16.321   9.009   9.648  1.00  0.00    -0.354 N 
ATOM     18  H3  UNL     1      15.732   8.185   9.774  1.00  0.00     0.162 HD
BRANCH  17  19
HETATM   19  C9  UNL     1      15.691  10.251   9.346  1.00  0.00     0.098 C 
HETATM   20  C10 UNL     1      15.160  10.866  10.636  1.00  0.00     0.026 C 
HETATM   21  C11 UNL     1      14.718  12.286  10.383  1.00  0.00     0.002 C 
HETATM   22  C12 UNL     1      14.823  12.667   8.925  1.00  0.00     0.001 C 
HETATM   23  C13 UNL     1      14.168  11.644   8.020  1.00  0.00     0.017 C 
HETATM   24  C14 UNL     1      14.668  10.236   8.266  1.00  0.00     0.109 C 
BRANCH  24  25
HETATM   25  C15 UNL     1      13.540   9.333   8.448  1.00  0.00     0.179 C 
HETATM   26  O2  UNL     1      13.594   8.090   8.528  1.00  0.00    -0.648 OA
HETATM   27  O3  UNL     1      12.262   9.895   8.544  1.00  0.00    -0.648 OA
ENDBRANCH  24  25
ENDBRANCH  17  19
ENDBRANCH  14  15
ENDBRANCH  10  14
ENDBRANCH   1   4
TORSDOF 6
ENDMDL
MODEL 5
REMARK VINA RESULT: -6.305512990      1.749      2.968
REMARK  6 active torsions:
REMARK  status: ('A' for Active; 'I' for Inactive)
REMARK    1  A    between atoms: C2_2  and  C3_3 
REMARK    2  A    between atoms: N2_8  and  C7_9 
REMARK    3  A    between atoms: C7_9  and  C8_10 
REMARK       I    between atoms: C8_10  and  N3_12 
REMARK    4  A    between atoms: N3_12  and  C9_14 
REMARK    5  A    between atoms: C14_19  and  C15_20 
REMARK    6  A    between atoms: C17_24  and  C18_25 
ROOT
HETATM    1  C18 UNL     1      16.041   4.167  12.581  1.00  0.00     0.178 C 
HETATM    2  C19 UNL     1      16.448   4.058  11.145  1.00  0.00     0.065 C 
HETATM    3  N4  UNL     1      16.742   3.981  10.035  1.00  0.00    -0.197 NA
ENDROOT
BRANCH   1   4
HETATM    4  C17 UNL     1      16.913   5.121  13.302  1.00  0.00     0.030 C 
HETATM    5  N1  UNL     1      17.091   5.051  14.674  1.00  0.00    -0.357 N 
HETATM    6  C3  UNL     1      16.246   4.715  15.656  1.00  0.00    -0.015 C 
HETATM    7  C5  UNL     1      18.396   5.543  15.012  1.00  0.00     0.158 C 
HETATM    8  C4  UNL     1      14.758   4.708  15.454  1.00  0.00     0.063 C 
HETATM    9  C6  UNL     1      18.792   6.640  14.077  1.00  0.00     0.293 C 
HETATM   10  N2  UNL     1      17.766   7.389  13.436  1.00  0.00     0.104 N 
HETATM   11  C16 UNL     1      16.749   6.577  12.813  1.00  0.00     0.326 C 
BRANCH   6  12
HETATM   12  C2  UNL     1      16.560   3.505  16.463  1.00  0.00     0.048 C 
HETATM   13  C1  UNL     1      15.453   2.740  17.093  1.00  0.00     0.011 C 
ENDBRANCH   6  12
BRANCH  10  14
HETATM   14  C7  UNL     1      18.393   8.307  12.530  1.00  0.00     0.375 C 
BRANCH  14  15
HETATM   15  C8  UNL     1      17.522   8.903  11.533  1.00  0.00     0.246 C 
HETATM   16  O1  UNL     1      16.833   9.932  11.664  1.00  0.00    -0.272 OA
HETATM   17  N3  UNL     1      17.434   8.250  10.256  1.00  0.00    -0.354 N 
ATOM     18  H3  UNL     1      17.984   7.403  10.105  1.00  0.00     0.162 HD
BRANCH  17  19
HETATM   19  C9  UNL     1      16.618   8.725   9.188  1.00  0.00     0.098 C 
HETATM   20  C10 UNL     1      15.181   8.274   9.421  1.00  0.00     0.026 C 
HETATM   21  C11 UNL     1      14.260   8.971   8.450  1.00  0.00     0.002 C 
HETATM   22  C12 UNL     1      15.015   9.828   7.462  1.00  0.00     0.001 C 
HETATM   23  C13 UNL     1      16.153   9.073   6.804  1.00  0.00     0.017 C 
HETATM   24  C14 UNL     1      17.084   8.427   7.808  1.00  0.00     0.109 C 
BRANCH  24  25
HETATM   25  C15 UNL     1      17.277   7.022   7.472  1.00  0.00     0.179 C 
HETATM   26  O2  UNL     1      16.542   6.330   6.741  1.00  0.00    -0.648 OA
HETATM   27  O3  UNL     1      18.390   6.368   8.014  1.00  0.00    -0.648 OA
ENDBRANCH  24  25
ENDBRANCH  17  19
ENDBRANCH  14  15
ENDBRANCH  10  14
ENDBRANCH   1   4
TORSDOF 6
ENDMDL
