MODEL 1
REMARK VINA RESULT: -6.997964800      0.000      0.000
REMARK  9 active torsions:
REMARK  status: ('A' for Active; 'I' for Inactive)
REMARK    1  A    between atoms: O1_2  and  C2_3 
REMARK    2  A    between atoms: C2_3  and  C3_4 
REMARK    3  A    between atoms: C2_3  and  N3_24 
REMARK       I    between atoms: C3_4  and  N1_6 
REMARK    4  A    between atoms: N1_6  and  C4_8 
REMARK    5  A    between atoms: C4_8  and  C5_9 
REMARK    6  A    between atoms: C4_8  and  C13_21 
REMARK    7  A    between atoms: C5_9  and  O3_10 
REMARK    8  A    between atoms: C5_9  and  N2_12 
REMARK    9  A    between atoms: N2_12  and  C6_14 
ROOT
HETATM    1  C4  UNL     1      17.314   2.540  12.670  1.00  0.00     0.162 C 
ENDROOT
BRANCH   1   2
HETATM    2  N1  UNL     1      17.111   3.968  12.390  1.00  0.00    -0.345 N 
HETATM    3  C3  UNL     1      18.130   4.902  12.192  1.00  0.00     0.267 C 
HETATM    4  O2  UNL     1      19.326   4.532  12.242  1.00  0.00    -0.269 OA
ATOM      5  H1  UNL     1      16.149   4.304  12.336  1.00  0.00     0.163 HD
BRANCH   3   6
HETATM    6  C2  UNL     1      17.865   6.347  11.919  1.00  0.00     0.315 C 
BRANCH   6   7
HETATM    7  O1  UNL     1      16.489   6.598  11.902  1.00  0.00    -0.362 OA
HETATM    8  C1  UNL     1      16.152   7.850  12.340  1.00  0.00     0.204 C 
ENDBRANCH   6   7
BRANCH   6   9
HETATM    9  N3  UNL     1      18.459   6.834  10.751  1.00  0.00    -0.356 N 
HETATM   10  C16 UNL     1      18.038   6.259   9.543  1.00  0.00     0.087 C 
HETATM   11  C17 UNL     1      18.981   6.358   8.372  1.00  0.00     0.212 C 
HETATM   12  O4  UNL     1      20.157   7.004   8.598  1.00  0.00    -0.385 OA
HETATM   13  C18 UNL     1      20.652   6.828   9.861  1.00  0.00     0.188 C 
HETATM   14  C19 UNL     1      19.671   7.543  10.803  1.00  0.00     0.151 C 
ENDBRANCH   6   9
ENDBRANCH   3   6
ENDBRANCH   1   2
BRANCH   1  15
HETATM   15  C5  UNL     1      16.919   2.246  14.057  1.00  0.00     0.135 C 
BRANCH  15  16
HETATM   16  O3  UNL     1      16.427   1.052  14.224  1.00  0.00    -0.348 OA
ATOM     17  H3  UNL     1      15.746   0.825  13.603  1.00  0.00     0.219 HD
ENDBRANCH  15  16
BRANCH  15  18
HETATM   18  N2  UNL     1      17.002   3.067  15.188  1.00  0.00    -0.368 N 
ATOM     19  H2  UNL     1      17.869   3.083  15.725  1.00  0.00     0.161 HD
BRANCH  18  20
HETATM   20  C6  UNL     1      15.896   3.895  15.617  1.00  0.00     0.087 C 
HETATM   21  C7  UNL     1      16.157   5.361  15.365  1.00  0.00     0.025 C 
HETATM   22  C8  UNL     1      14.790   6.041  15.384  1.00  0.00     0.002 C 
HETATM   23  C9  UNL     1      14.185   5.875  16.760  1.00  0.00     0.001 C 
HETATM   24  C10 UNL     1      14.150   4.457  17.217  1.00  0.00     0.006 C 
HETATM   25  C11 UNL     1      15.471   3.714  17.027  1.00  0.00     0.004 C 
HETATM   26  C12 UNL     1      15.195   2.253  17.310  1.00  0.00     0.012 C 
ENDBRANCH  18  20
ENDBRANCH  15  18
ENDBRANCH   1  15
BRANCH   1  27
HETATM   27  C13 UNL     1      16.406   1.745  11.734  1.00  0.00     0.008 C 
HETATM   28  C14 UNL     1      17.030   0.436  11.346  1.00  0.00     0.012 C 
HETATM   29  C15 UNL     1      16.093   2.506  10.460  1.00  0.00     0.012 C 
ENDBRANCH   1  27
TORSDOF 9
ENDMDL
MODEL 2
REMARK VINA RESULT: -6.957414700      2.777      7.248
REMARK  9 active torsions:
REMARK  status: ('A' for Active; 'I' for Inactive)
REMARK    1  A    between atoms: O1_2  and  C2_3 
REMARK    2  A    between atoms: C2_3  and  C3_4 
REMARK    3  A    between atoms: C2_3  and  N3_24 
REMARK       I    between atoms: C3_4  and  N1_6 
REMARK    4  A    between atoms: N1_6  and  C4_8 
REMARK    5  A    between atoms: C4_8  and  C5_9 
REMARK    6  A    between atoms: C4_8  and  C13_21 
REMARK    7  A    between atoms: C5_9  and  O3_10 
REMARK    8  A    between atoms: C5_9  and  N2_12 
REMARK    9  A    between atoms: N2_12  and  C6_14 
ROOT
HETATM    1  C4  UNL     1      17.144   7.120  12.161  1.00  0.00     0.162 C 
ENDROOT
BRANCH   1   2
HETATM    2  N1  UNL     1      16.695   5.819  12.674  1.00  0.00    -0.345 N 
HETATM    3  C3  UNL     1      17.519   4.713  12.893  1.00  0.00     0.267 C 
HETATM    4  O2  UNL     1      18.746   4.798  12.652  1.00  0.00    -0.269 OA
ATOM      5  H1  UNL     1      15.703   5.715  12.888  1.00  0.00     0.163 HD
BRANCH   3   6
HETATM    6  C2  UNL     1      17.006   3.408  13.410  1.00  0.00     0.315 C 
BRANCH   6   7
HETATM    7  O1  UNL     1      15.911   2.978  12.653  1.00  0.00    -0.362 OA
HETATM    8  C1  UNL     1      16.241   2.571  11.389  1.00  0.00     0.204 C 
ENDBRANCH   6   7
BRANCH   6   9
HETATM    9  N3  UNL     1      16.681   3.411  14.769  1.00  0.00    -0.356 N 
HETATM   10  C16 UNL     1      16.411   2.167  15.356  1.00  0.00     0.087 C 
HETATM   11  C17 UNL     1      15.575   2.167  16.610  1.00  0.00     0.212 C 
HETATM   12  O4  UNL     1      15.162   3.383  17.059  1.00  0.00    -0.385 OA
HETATM   13  C18 UNL     1      14.899   4.282  16.062  1.00  0.00     0.188 C 
HETATM   14  C19 UNL     1      16.253   4.590  15.402  1.00  0.00     0.151 C 
ENDBRANCH   6   9
ENDBRANCH   3   6
ENDBRANCH   1   2
BRANCH   1  15
HETATM   15  C5  UNL     1      16.471   7.409  10.884  1.00  0.00     0.135 C 
BRANCH  15  16
HETATM   16  O3  UNL     1      16.125   6.346  10.217  1.00  0.00    -0.348 OA
ATOM     17  H3  UNL     1      15.185   6.241  10.118  1.00  0.00     0.219 HD
ENDBRANCH  15  16
BRANCH  15  18
HETATM   18  N2  UNL     1      16.167   8.650  10.312  1.00  0.00    -0.368 N 
ATOM     19  H2  UNL     1      16.810   9.429  10.449  1.00  0.00     0.161 HD
BRANCH  18  20
HETATM   20  C6  UNL     1      14.967   8.860   9.530  1.00  0.00     0.087 C 
HETATM   21  C7  UNL     1      15.275   9.046   8.064  1.00  0.00     0.025 C 
HETATM   22  C8  UNL     1      13.971   8.761   7.321  1.00  0.00     0.002 C 
HETATM   23  C9  UNL     1      12.939   9.782   7.745  1.00  0.00     0.001 C 
HETATM   24  C10 UNL     1      12.774   9.870   9.223  1.00  0.00     0.006 C 
HETATM   25  C11 UNL     1      14.093   9.970   9.987  1.00  0.00     0.004 C 
HETATM   26  C12 UNL     1      13.761   9.809  11.455  1.00  0.00     0.012 C 
ENDBRANCH  18  20
ENDBRANCH  15  18
ENDBRANCH   1  15
BRANCH   1  27
HETATM   27  C13 UNL     1      16.736   8.189  13.171  1.00  0.00     0.008 C 
HETATM   28  C14 UNL     1      17.841   8.474  14.147  1.00  0.00     0.012 C 
HETATM   29  C15 UNL     1      15.508   7.787  13.965  1.00  0.00     0.012 C 
ENDBRANCH   1  27
TORSDOF 9
ENDMDL
MODEL 3
REMARK VINA RESULT: -6.947781447      1.170      1.541
REMARK  9 active torsions:
REMARK  status: ('A' for Active; 'I' for Inactive)
REMARK    1  A    between atoms: O1_2  and  C2_3 
REMARK    2  A    between atoms: C2_3  and  C3_4 
REMARK    3  A    between atoms: C2_3  and  N3_24 
REMARK       I    between atoms: C3_4  and  N1_6 
REMARK    4  A    between atoms: N1_6  and  C4_8 
REMARK    5  A    between atoms: C4_8  and  C5_9 
REMARK    6  A    between atoms: C4_8  and  C13_21 
REMARK    7  A    between atoms: C5_9  and  O3_10 
REMARK    8  A    between atoms: C5_9  and  N2_12 
REMARK    9  A    between atoms: N2_12  and  C6_14 
ROOT
HETATM    1  C4  UNL     1      17.380   2.517  12.695  1.00  0.00     0.162 C 
ENDROOT
BRANCH   1   2
HETATM    2  N1  UNL     1      17.293   3.939  12.338  1.00  0.00    -0.345 N 
HETATM    3  C3  UNL     1      18.384   4.774  12.089  1.00  0.00     0.267 C 
HETATM    4  O2  UNL     1      19.547   4.310  12.156  1.00  0.00    -0.269 OA
ATOM      5  H1  UNL     1      16.362   4.350  12.267  1.00  0.00     0.163 HD
BRANCH   3   6
HETATM    6  C2  UNL     1      18.237   6.219  11.737  1.00  0.00     0.315 C 
BRANCH   6   7
HETATM    7  O1  UNL     1      17.732   6.939  12.825  1.00  0.00    -0.362 OA
HETATM    8  C1  UNL     1      18.701   7.507  13.607  1.00  0.00     0.204 C 
ENDBRANCH   6   7
BRANCH   6   9
HETATM    9  N3  UNL     1      17.465   6.463  10.598  1.00  0.00    -0.356 N 
HETATM   10  C16 UNL     1      18.096   6.284   9.359  1.00  0.00     0.087 C 
HETATM   11  C17 UNL     1      17.508   7.014   8.179  1.00  0.00     0.212 C 
HETATM   12  O4  UNL     1      16.411   7.779   8.429  1.00  0.00    -0.385 OA
HETATM   13  C18 UNL     1      16.416   8.367   9.663  1.00  0.00     0.188 C 
HETATM   14  C19 UNL     1      16.285   7.221  10.679  1.00  0.00     0.151 C 
ENDBRANCH   6   9
ENDBRANCH   3   6
ENDBRANCH   1   2
BRANCH   1  15
HETATM   15  C5  UNL     1      16.934   2.326  14.084  1.00  0.00     0.135 C 
BRANCH  15  16
HETATM   16  O3  UNL     1      16.380   1.168  14.307  1.00  0.00    -0.348 OA
ATOM     17  H3  UNL     1      16.791   0.672  15.006  1.00  0.00     0.219 HD
ENDBRANCH  15  16
BRANCH  15  18
HETATM   18  N2  UNL     1      17.026   3.209  15.166  1.00  0.00    -0.368 N 
ATOM     19  H2  UNL     1      17.913   3.292  15.663  1.00  0.00     0.161 HD
BRANCH  18  20
HETATM   20  C6  UNL     1      15.901   4.009  15.601  1.00  0.00     0.087 C 
HETATM   21  C7  UNL     1      16.128   5.481  15.356  1.00  0.00     0.025 C 
HETATM   22  C8  UNL     1      14.745   6.130  15.380  1.00  0.00     0.002 C 
HETATM   23  C9  UNL     1      14.146   5.942  16.756  1.00  0.00     0.001 C 
HETATM   24  C10 UNL     1      14.145   4.521  17.206  1.00  0.00     0.006 C 
HETATM   25  C11 UNL     1      15.483   3.811  17.011  1.00  0.00     0.004 C 
HETATM   26  C12 UNL     1      15.241   2.343  17.287  1.00  0.00     0.012 C 
ENDBRANCH  18  20
ENDBRANCH  15  18
ENDBRANCH   1  15
BRANCH   1  27
HETATM   27  C13 UNL     1      16.435   1.745  11.777  1.00  0.00     0.008 C 
HETATM   28  C14 UNL     1      17.026   0.428  11.363  1.00  0.00     0.012 C 
HETATM   29  C15 UNL     1      16.101   2.520  10.517  1.00  0.00     0.012 C 
ENDBRANCH   1  27
TORSDOF 9
ENDMDL
MODEL 4
REMARK VINA RESULT: -6.894306238      2.661      6.987
REMARK  9 active torsions:
REMARK  status: ('A' for Active; 'I' for Inactive)
REMARK    1  A    between atoms: O1_2  and  C2_3 
REMARK    2  A    between atoms: C2_3  and  C3_4 
REMARK    3  A    between atoms: C2_3  and  N3_24 
REMARK       I    between atoms: C3_4  and  N1_6 
REMARK    4  A    between atoms: N1_6  and  C4_8 
REMARK    5  A    between atoms: C4_8  and  C5_9 
REMARK    6  A    between atoms: C4_8  and  C13_21 
REMARK    7  A    between atoms: C5_9  and  O3_10 
REMARK    8  A    between atoms: C5_9  and  N2_12 
REMARK    9  A    between atoms: N2_12  and  C6_14 
ROOT
HETATM    1  C4  UNL     1      17.267   6.198  10.511  1.00  0.00     0.162 C 
ENDROOT
BRANCH   1   2
HETATM    2  N1  UNL     1      17.524   5.157  11.515  1.00  0.00    -0.345 N 
HETATM    3  C3  UNL     1      16.653   4.110  11.829  1.00  0.00     0.267 C 
HETATM    4  O2  UNL     1      15.560   4.012  11.224  1.00  0.00    -0.269 OA
ATOM      5  H1  UNL     1      18.407   5.201  12.023  1.00  0.00     0.163 HD
BRANCH   3   6
HETATM    6  C2  UNL     1      16.962   3.081  12.868  1.00  0.00     0.315 C 
BRANCH   6   7
HETATM    7  O1  UNL     1      16.286   1.888  12.591  1.00  0.00    -0.362 OA
HETATM    8  C1  UNL     1      17.060   0.950  11.962  1.00  0.00     0.204 C 
ENDBRANCH   6   7
BRANCH   6   9
HETATM    9  N3  UNL     1      16.706   3.487  14.180  1.00  0.00    -0.356 N 
HETATM   10  C16 UNL     1      16.524   2.473  15.130  1.00  0.00     0.087 C 
HETATM   11  C17 UNL     1      15.752   2.829  16.374  1.00  0.00     0.212 C 
HETATM   12  O4  UNL     1      15.307   4.112  16.460  1.00  0.00    -0.385 OA
HETATM   13  C18 UNL     1      14.953   4.657  15.257  1.00  0.00     0.188 C 
HETATM   14  C19 UNL     1      16.256   4.790  14.453  1.00  0.00     0.151 C 
ENDBRANCH   6   9
ENDBRANCH   3   6
ENDBRANCH   1   2
BRANCH   1  15
HETATM   15  C5  UNL     1      16.488   7.290  11.118  1.00  0.00     0.135 C 
BRANCH  15  16
HETATM   16  O3  UNL     1      16.022   7.012  12.301  1.00  0.00    -0.348 OA
ATOM     17  H3  UNL     1      16.274   7.637  12.972  1.00  0.00     0.219 HD
ENDBRANCH  15  16
BRANCH  15  18
HETATM   18  N2  UNL     1      16.192   8.554  10.594  1.00  0.00    -0.368 N 
ATOM     19  H2  UNL     1      16.797   9.341  10.829  1.00  0.00     0.161 HD
BRANCH  18  20
HETATM   20  C6  UNL     1      15.053   8.779   9.730  1.00  0.00     0.087 C 
HETATM   21  C7  UNL     1      15.467   8.973   8.291  1.00  0.00     0.025 C 
HETATM   22  C8  UNL     1      14.218   8.702   7.454  1.00  0.00     0.002 C 
HETATM   23  C9  UNL     1      13.165   9.727   7.810  1.00  0.00     0.001 C 
HETATM   24  C10 UNL     1      12.895   9.806   9.274  1.00  0.00     0.006 C 
HETATM   25  C11 UNL     1      14.156   9.891  10.131  1.00  0.00     0.004 C 
HETATM   26  C12 UNL     1      13.718   9.721  11.570  1.00  0.00     0.012 C 
ENDBRANCH  18  20
ENDBRANCH  15  18
ENDBRANCH   1  15
BRANCH   1  27
HETATM   27  C13 UNL     1      18.615   6.761  10.065  1.00  0.00     0.008 C 
HETATM   28  C14 UNL     1      18.903   6.421   8.631  1.00  0.00     0.012 C 
HETATM   29  C15 UNL     1      19.762   6.234  10.906  1.00  0.00     0.012 C 
ENDBRANCH   1  27
TORSDOF 9
ENDMDL
MODEL 5
REMARK VINA RESULT: -6.826103893      1.520      2.299
REMARK  9 active torsions:
REMARK  status: ('A' for Active; 'I' for Inactive)
REMARK    1  A    between atoms: O1_2  and  C2_3 
REMARK    2  A    between atoms: C2_3  and  C3_4 
REMARK    3  A    between atoms: C2_3  and  N3_24 
REMARK       I    between atoms: C3_4  and  N1_6 
REMARK    4  A    between atoms: N1_6  and  C4_8 
REMARK    5  A    between atoms: C4_8  and  C5_9 
REMARK    6  A    between atoms: C4_8  and  C13_21 
REMARK    7  A    between atoms: C5_9  and  O3_10 
REMARK    8  A    between atoms: C5_9  and  N2_12 
REMARK    9  A    between atoms: N2_12  and  C6_14 
ROOT
HETATM    1  C4  UNL     1      17.384   2.501  12.760  1.00  0.00     0.162 C 
ENDROOT
BRANCH   1   2
HETATM    2  N1  UNL     1      17.291   3.936  12.463  1.00  0.00    -0.345 N 
HETATM    3  C3  UNL     1      18.374   4.770  12.176  1.00  0.00     0.267 C 
HETATM    4  O2  UNL     1      19.533   4.294  12.153  1.00  0.00    -0.269 OA
ATOM      5  H1  UNL     1      16.362   4.358  12.466  1.00  0.00     0.163 HD
BRANCH   3   6
HETATM    6  C2  UNL     1      18.221   6.229  11.888  1.00  0.00     0.315 C 
BRANCH   6   7
HETATM    7  O1  UNL     1      18.697   6.527  10.607  1.00  0.00    -0.362 OA
HETATM    8  C1  UNL     1      17.803   6.247   9.609  1.00  0.00     0.204 C 
ENDBRANCH   6   7
BRANCH   6   9
HETATM    9  N3  UNL     1      18.816   7.070  12.831  1.00  0.00    -0.356 N 
HETATM   10  C16 UNL     1      17.952   7.819  13.643  1.00  0.00     0.087 C 
HETATM   11  C17 UNL     1      18.512   9.072  14.266  1.00  0.00     0.212 C 
HETATM   12  O4  UNL     1      19.812   9.357  13.985  1.00  0.00    -0.385 OA
HETATM   13  C18 UNL     1      20.200   8.989  12.726  1.00  0.00     0.188 C 
HETATM   14  C19 UNL     1      20.163   7.452  12.705  1.00  0.00     0.151 C 
ENDBRANCH   6   9
ENDBRANCH   3   6
ENDBRANCH   1   2
BRANCH   1  15
HETATM   15  C5  UNL     1      16.944   2.251  14.143  1.00  0.00     0.135 C 
BRANCH  15  16
HETATM   16  O3  UNL     1      16.419   1.074  14.326  1.00  0.00    -0.348 OA
ATOM     17  H3  UNL     1      17.058   0.384  14.466  1.00  0.00     0.219 HD
ENDBRANCH  15  16
BRANCH  15  18
HETATM   18  N2  UNL     1      17.015   3.100  15.254  1.00  0.00    -0.368 N 
ATOM     19  H2  UNL     1      17.882   3.141  15.790  1.00  0.00     0.161 HD
BRANCH  18  20
HETATM   20  C6  UNL     1      15.896   3.920  15.666  1.00  0.00     0.087 C 
HETATM   21  C7  UNL     1      16.141   5.385  15.392  1.00  0.00     0.025 C 
HETATM   22  C8  UNL     1      14.765   6.048  15.395  1.00  0.00     0.002 C 
HETATM   23  C9  UNL     1      14.156   5.895  16.771  1.00  0.00     0.001 C 
HETATM   24  C10 UNL     1      14.136   4.483  17.249  1.00  0.00     0.006 C 
HETATM   25  C11 UNL     1      15.468   3.755  17.077  1.00  0.00     0.004 C 
HETATM   26  C12 UNL     1      15.208   2.295  17.381  1.00  0.00     0.012 C 
ENDBRANCH  18  20
ENDBRANCH  15  18
ENDBRANCH   1  15
BRANCH   1  27
HETATM   27  C13 UNL     1      16.438   1.764  11.815  1.00  0.00     0.008 C 
HETATM   28  C14 UNL     1      17.020   0.454  11.367  1.00  0.00     0.012 C 
HETATM   29  C15 UNL     1      16.118   2.578  10.576  1.00  0.00     0.012 C 
ENDBRANCH   1  27
TORSDOF 9
ENDMDL
