MODEL 1
REMARK VINA RESULT: -6.864167091      0.000      0.000
REMARK  7 active torsions:
REMARK  status: ('A' for Active; 'I' for Inactive)
REMARK    1  A    between atoms: C2_2  and  N1_3 
REMARK    2  A    between atoms: C2_2  and  C11_15 
REMARK    3  A    between atoms: N1_3  and  C3_5 
REMARK    4  A    between atoms: C3_5  and  C4_6 
REMARK    5  A    between atoms: C4_6  and  O1_7 
REMARK    6  A    between atoms: C4_6  and  C5_9 
REMARK       I    between atoms: C11_15  and  N2_17 
REMARK    7  A    between atoms: N2_17  and  C12_19 
ROOT
HETATM    1  N1  UNL     1     -46.779   3.860  31.276  1.00  0.00    -0.407 N 
ATOM      2  H1  UNL     1     -47.494   3.482  31.899  1.00  0.00     0.154 HD
ENDROOT
BRANCH   1   3
HETATM    3  C2  UNL     1     -45.503   4.259  31.754  1.00  0.00     0.165 C 
HETATM    4  C1  UNL     1     -45.207   5.734  31.546  1.00  0.00     0.042 C 
BRANCH   3   5
HETATM    5  C11 UNL     1     -45.170   3.869  33.125  1.00  0.00     0.240 C 
HETATM    6  O2  UNL     1     -44.342   4.513  33.847  1.00  0.00    -0.271 OA
HETATM    7  N2  UNL     1     -45.778   2.730  33.707  1.00  0.00    -0.351 N 
ATOM      8  H2  UNL     1     -46.449   2.198  33.152  1.00  0.00     0.163 HD
BRANCH   7   9
HETATM    9  C12 UNL     1     -45.488   2.289  35.053  1.00  0.00     0.022 C 
HETATM   10  C13 UNL     1     -45.588   3.357  36.090  1.00  0.00     0.037 C 
HETATM   11  C14 UNL     1     -44.140   1.635  35.081  1.00  0.00     0.037 C 
HETATM   12  C15 UNL     1     -46.528   1.219  35.429  1.00  0.00     0.037 C 
ENDBRANCH   7   9
ENDBRANCH   3   5
ENDBRANCH   1   3
BRANCH   1  13
HETATM   13  C3  UNL     1     -47.008   4.015  29.878  1.00  0.00     0.146 C 
BRANCH  13  14
HETATM   14  C4  UNL     1     -46.984   2.681  29.144  1.00  0.00     0.139 C 
BRANCH  14  15
HETATM   15  O1  UNL     1     -46.895   1.624  30.043  1.00  0.00    -0.394 OA
ATOM     16  H1  UNL     1     -45.989   1.372  30.178  1.00  0.00     0.210 HD
ENDBRANCH  14  15
BRANCH  14  17
HETATM   17  C5  UNL     1     -45.829   2.683  28.156  1.00  0.00     0.016 C 
HETATM   18  C6  UNL     1     -45.303   4.083  28.059  1.00  0.00     0.007 C 
HETATM   19  C7  UNL     1     -44.655   4.241  26.702  1.00  0.00     0.000 C 
HETATM   20  C8  UNL     1     -45.782   4.285  25.694  1.00  0.00     0.000 C 
HETATM   21  C9  UNL     1     -46.716   3.110  25.841  1.00  0.00     0.000 C 
HETATM   22  C10 UNL     1     -46.239   2.096  26.838  1.00  0.00     0.007 C 
ENDBRANCH  14  17
ENDBRANCH  13  14
ENDBRANCH   1  13
TORSDOF 7
ENDMDL
MODEL 2
REMARK VINA RESULT: -6.759053945      1.505      1.993
REMARK  7 active torsions:
REMARK  status: ('A' for Active; 'I' for Inactive)
REMARK    1  A    between atoms: C2_2  and  N1_3 
REMARK    2  A    between atoms: C2_2  and  C11_15 
REMARK    3  A    between atoms: N1_3  and  C3_5 
REMARK    4  A    between atoms: C3_5  and  C4_6 
REMARK    5  A    between atoms: C4_6  and  O1_7 
REMARK    6  A    between atoms: C4_6  and  C5_9 
REMARK       I    between atoms: C11_15  and  N2_17 
REMARK    7  A    between atoms: N2_17  and  C12_19 
ROOT
HETATM    1  N1  UNL     1     -46.249   3.783  31.775  1.00  0.00    -0.407 N 
ATOM      2  H1  UNL     1     -46.881   3.119  32.223  1.00  0.00     0.154 HD
ENDROOT
BRANCH   1   3
HETATM    3  C2  UNL     1     -45.039   4.198  32.391  1.00  0.00     0.165 C 
HETATM    4  C1  UNL     1     -44.311   5.294  31.633  1.00  0.00     0.042 C 
BRANCH   3   5
HETATM    5  C11 UNL     1     -45.115   4.537  33.814  1.00  0.00     0.240 C 
HETATM    6  O2  UNL     1     -44.173   4.295  34.636  1.00  0.00    -0.271 OA
HETATM    7  N2  UNL     1     -46.273   5.165  34.332  1.00  0.00    -0.351 N 
ATOM      8  H2  UNL     1     -47.042   5.375  33.695  1.00  0.00     0.163 HD
BRANCH   7   9
HETATM    9  C12 UNL     1     -46.414   5.520  35.727  1.00  0.00     0.022 C 
HETATM   10  C13 UNL     1     -45.403   6.501  36.220  1.00  0.00     0.037 C 
HETATM   11  C14 UNL     1     -46.407   4.274  36.560  1.00  0.00     0.037 C 
HETATM   12  C15 UNL     1     -47.789   6.187  35.904  1.00  0.00     0.037 C 
ENDBRANCH   7   9
ENDBRANCH   3   5
ENDBRANCH   1   3
BRANCH   1  13
HETATM   13  C3  UNL     1     -46.532   4.344  30.496  1.00  0.00     0.146 C 
BRANCH  13  14
HETATM   14  C4  UNL     1     -46.819   3.271  29.453  1.00  0.00     0.139 C 
BRANCH  14  15
HETATM   15  O1  UNL     1     -47.057   2.043  30.060  1.00  0.00    -0.394 OA
ATOM     16  H1  UNL     1     -46.253   1.678  30.411  1.00  0.00     0.210 HD
ENDBRANCH  14  15
BRANCH  14  17
HETATM   17  C5  UNL     1     -45.651   3.205  28.482  1.00  0.00     0.016 C 
HETATM   18  C6  UNL     1     -45.298   4.605  28.084  1.00  0.00     0.007 C 
HETATM   19  C7  UNL     1     -44.645   4.549  26.721  1.00  0.00     0.000 C 
HETATM   20  C8  UNL     1     -45.747   4.237  25.733  1.00  0.00     0.000 C 
HETATM   21  C9  UNL     1     -46.534   3.015  26.134  1.00  0.00     0.000 C 
HETATM   22  C10 UNL     1     -45.958   2.304  27.323  1.00  0.00     0.007 C 
ENDBRANCH  14  17
ENDBRANCH  13  14
ENDBRANCH   1  13
TORSDOF 7
ENDMDL
MODEL 3
REMARK VINA RESULT: -6.674880534      3.073      4.624
REMARK  7 active torsions:
REMARK  status: ('A' for Active; 'I' for Inactive)
REMARK    1  A    between atoms: C2_2  and  N1_3 
REMARK    2  A    between atoms: C2_2  and  C11_15 
REMARK    3  A    between atoms: N1_3  and  C3_5 
REMARK    4  A    between atoms: C3_5  and  C4_6 
REMARK    5  A    between atoms: C4_6  and  O1_7 
REMARK    6  A    between atoms: C4_6  and  C5_9 
REMARK       I    between atoms: C11_15  and  N2_17 
REMARK    7  A    between atoms: N2_17  and  C12_19 
ROOT
HETATM    1  N1  UNL     1     -45.871   5.882  31.477  1.00  0.00    -0.407 N 
ATOM      2  H1  UNL     1     -46.736   5.999  32.005  1.00  0.00     0.154 HD
ENDROOT
BRANCH   1   3
HETATM    3  C2  UNL     1     -45.019   6.980  31.184  1.00  0.00     0.165 C 
HETATM    4  C1  UNL     1     -45.590   7.938  30.153  1.00  0.00     0.042 C 
BRANCH   3   5
HETATM    5  C11 UNL     1     -44.500   7.727  32.331  1.00  0.00     0.240 C 
HETATM    6  O2  UNL     1     -44.773   7.423  33.537  1.00  0.00    -0.271 OA
HETATM    7  N2  UNL     1     -43.654   8.843  32.127  1.00  0.00    -0.351 N 
ATOM      8  H2  UNL     1     -43.415   9.107  31.171  1.00  0.00     0.163 HD
BRANCH   7   9
HETATM    9  C12 UNL     1     -43.114   9.626  33.216  1.00  0.00     0.022 C 
HETATM   10  C13 UNL     1     -42.396   8.831  34.254  1.00  0.00     0.037 C 
HETATM   11  C14 UNL     1     -44.209  10.447  33.827  1.00  0.00     0.037 C 
HETATM   12  C15 UNL     1     -42.081  10.601  32.624  1.00  0.00     0.037 C 
ENDBRANCH   7   9
ENDBRANCH   3   5
ENDBRANCH   1   3
BRANCH   1  13
HETATM   13  C3  UNL     1     -45.453   4.609  30.993  1.00  0.00     0.146 C 
BRANCH  13  14
HETATM   14  C4  UNL     1     -46.210   4.199  29.737  1.00  0.00     0.139 C 
BRANCH  14  15
HETATM   15  O1  UNL     1     -47.028   3.103  29.988  1.00  0.00    -0.394 OA
ATOM     16  H1  UNL     1     -47.934   3.373  30.081  1.00  0.00     0.210 HD
ENDBRANCH  14  15
BRANCH  14  17
HETATM   17  C5  UNL     1     -45.208   3.915  28.629  1.00  0.00     0.016 C 
HETATM   18  C6  UNL     1     -45.127   5.129  27.755  1.00  0.00     0.007 C 
HETATM   19  C7  UNL     1     -44.689   4.680  26.378  1.00  0.00     0.000 C 
HETATM   20  C8  UNL     1     -45.873   3.963  25.768  1.00  0.00     0.000 C 
HETATM   21  C9  UNL     1     -46.404   2.880  26.672  1.00  0.00     0.000 C 
HETATM   22  C10 UNL     1     -45.556   2.658  27.890  1.00  0.00     0.007 C 
ENDBRANCH  14  17
ENDBRANCH  13  14
ENDBRANCH   1  13
TORSDOF 7
ENDMDL
MODEL 4
REMARK VINA RESULT: -6.558597372      2.612      4.044
REMARK  7 active torsions:
REMARK  status: ('A' for Active; 'I' for Inactive)
REMARK    1  A    between atoms: C2_2  and  N1_3 
REMARK    2  A    between atoms: C2_2  and  C11_15 
REMARK    3  A    between atoms: N1_3  and  C3_5 
REMARK    4  A    between atoms: C3_5  and  C4_6 
REMARK    5  A    between atoms: C4_6  and  O1_7 
REMARK    6  A    between atoms: C4_6  and  C5_9 
REMARK       I    between atoms: C11_15  and  N2_17 
REMARK    7  A    between atoms: N2_17  and  C12_19 
ROOT
HETATM    1  N1  UNL     1     -46.430   4.926  31.581  1.00  0.00    -0.407 N 
ATOM      2  H1  UNL     1     -47.180   4.552  32.162  1.00  0.00     0.154 HD
ENDROOT
BRANCH   1   3
HETATM    3  C2  UNL     1     -45.226   5.427  32.142  1.00  0.00     0.165 C 
HETATM    4  C1  UNL     1     -43.978   5.012  31.382  1.00  0.00     0.042 C 
BRANCH   3   5
HETATM    5  C11 UNL     1     -45.187   6.864  32.423  1.00  0.00     0.240 C 
HETATM    6  O2  UNL     1     -46.216   7.612  32.355  1.00  0.00    -0.271 OA
HETATM    7  N2  UNL     1     -43.967   7.482  32.789  1.00  0.00    -0.351 N 
ATOM      8  H2  UNL     1     -43.128   6.906  32.855  1.00  0.00     0.163 HD
BRANCH   7   9
HETATM    9  C12 UNL     1     -43.860   8.896  33.073  1.00  0.00     0.022 C 
HETATM   10  C13 UNL     1     -44.964   9.444  33.914  1.00  0.00     0.037 C 
HETATM   11  C14 UNL     1     -43.736   9.653  31.785  1.00  0.00     0.037 C 
HETATM   12  C15 UNL     1     -42.560   9.117  33.866  1.00  0.00     0.037 C 
ENDBRANCH   7   9
ENDBRANCH   3   5
ENDBRANCH   1   3
BRANCH   1  13
HETATM   13  C3  UNL     1     -46.534   4.974  30.160  1.00  0.00     0.146 C 
BRANCH  13  14
HETATM   14  C4  UNL     1     -46.646   3.583  29.549  1.00  0.00     0.139 C 
BRANCH  14  15
HETATM   15  O1  UNL     1     -46.592   2.605  30.534  1.00  0.00    -0.394 OA
ATOM     16  H1  UNL     1     -47.414   2.558  31.009  1.00  0.00     0.210 HD
ENDBRANCH  14  15
BRANCH  14  17
HETATM   17  C5  UNL     1     -45.543   3.409  28.517  1.00  0.00     0.016 C 
HETATM   18  C6  UNL     1     -45.280   4.744  27.889  1.00  0.00     0.007 C 
HETATM   19  C7  UNL     1     -44.715   4.503  26.507  1.00  0.00     0.000 C 
HETATM   20  C8  UNL     1     -45.866   4.007  25.659  1.00  0.00     0.000 C 
HETATM   21  C9  UNL     1     -46.569   2.834  26.293  1.00  0.00     0.000 C 
HETATM   22  C10 UNL     1     -45.886   2.332  27.531  1.00  0.00     0.007 C 
ENDBRANCH  14  17
ENDBRANCH  13  14
ENDBRANCH   1  13
TORSDOF 7
ENDMDL
MODEL 5
REMARK VINA RESULT: -6.554748090      1.797      2.103
REMARK  7 active torsions:
REMARK  status: ('A' for Active; 'I' for Inactive)
REMARK    1  A    between atoms: C2_2  and  N1_3 
REMARK    2  A    between atoms: C2_2  and  C11_15 
REMARK    3  A    between atoms: N1_3  and  C3_5 
REMARK    4  A    between atoms: C3_5  and  C4_6 
REMARK    5  A    between atoms: C4_6  and  O1_7 
REMARK    6  A    between atoms: C4_6  and  C5_9 
REMARK       I    between atoms: C11_15  and  N2_17 
REMARK    7  A    between atoms: N2_17  and  C12_19 
ROOT
HETATM    1  N1  UNL     1     -46.249   3.636  31.643  1.00  0.00    -0.407 N 
ATOM      2  H1  UNL     1     -46.699   2.803  32.023  1.00  0.00     0.154 HD
ENDROOT
BRANCH   1   3
HETATM    3  C2  UNL     1     -45.215   4.314  32.340  1.00  0.00     0.165 C 
HETATM    4  C1  UNL     1     -44.204   4.990  31.430  1.00  0.00     0.042 C 
BRANCH   3   5
HETATM    5  C11 UNL     1     -45.638   5.240  33.394  1.00  0.00     0.240 C 
HETATM    6  O2  UNL     1     -45.684   6.502  33.230  1.00  0.00    -0.271 OA
HETATM    7  N2  UNL     1     -46.019   4.742  34.663  1.00  0.00    -0.351 N 
ATOM      8  H2  UNL     1     -45.996   3.735  34.821  1.00  0.00     0.163 HD
BRANCH   7   9
HETATM    9  C12 UNL     1     -46.441   5.603  35.747  1.00  0.00     0.022 C 
HETATM   10  C13 UNL     1     -47.659   6.413  35.456  1.00  0.00     0.037 C 
HETATM   11  C14 UNL     1     -45.296   6.477  36.160  1.00  0.00     0.037 C 
HETATM   12  C15 UNL     1     -46.793   4.706  36.946  1.00  0.00     0.037 C 
ENDBRANCH   7   9
ENDBRANCH   3   5
ENDBRANCH   1   3
BRANCH   1  13
HETATM   13  C3  UNL     1     -46.625   4.183  30.381  1.00  0.00     0.146 C 
BRANCH  13  14
HETATM   14  C4  UNL     1     -46.889   3.097  29.345  1.00  0.00     0.139 C 
BRANCH  14  15
HETATM   15  O1  UNL     1     -47.096   1.868  29.960  1.00  0.00    -0.394 OA
ATOM     16  H1  UNL     1     -47.151   1.173  29.314  1.00  0.00     0.210 HD
ENDBRANCH  14  15
BRANCH  14  17
HETATM   17  C5  UNL     1     -45.722   3.053  28.371  1.00  0.00     0.016 C 
HETATM   18  C6  UNL     1     -45.352   4.463  28.026  1.00  0.00     0.007 C 
HETATM   19  C7  UNL     1     -44.700   4.451  26.661  1.00  0.00     0.000 C 
HETATM   20  C8  UNL     1     -45.807   4.190  25.664  1.00  0.00     0.000 C 
HETATM   21  C9  UNL     1     -46.609   2.964  26.018  1.00  0.00     0.000 C 
HETATM   22  C10 UNL     1     -46.042   2.201  27.179  1.00  0.00     0.007 C 
ENDBRANCH  14  17
ENDBRANCH  13  14
ENDBRANCH   1  13
TORSDOF 7
ENDMDL
