MODEL 1
REMARK VINA RESULT: -7.795835324      0.000      0.000
REMARK  5 active torsions:
REMARK  status: ('A' for Active; 'I' for Inactive)
REMARK    1  A    between atoms: N1_2  and  C2_4 
REMARK    2  A    between atoms: C2_4  and  C3_5 
REMARK    3  A    between atoms: C3_5  and  N2_6 
REMARK       I    between atoms: N2_6  and  C4_8 
REMARK       I    between atoms: C4_8  and  N4_15 
REMARK    4  A    between atoms: N3_9  and  C5_11 
REMARK    5  A    between atoms: N4_15  and  C9_17 
ROOT
HETATM    1  N2  UNL     1     -45.802   8.258  32.784  1.00  0.00    -0.225 N 
ATOM      2  H2  UNL     1     -46.485   8.652  32.136  1.00  0.00     0.177 HD
HETATM    3  C4  UNL     1     -44.527   7.961  32.254  1.00  0.00     0.670 C 
HETATM    4  N3  UNL     1     -43.649   8.804  32.073  1.00  0.00    -0.218 N 
ATOM      5  H3  UNL     1     -42.836   8.326  31.686  1.00  0.00     0.178 HD
HETATM    6  N4  UNL     1     -44.228   6.571  31.897  1.00  0.00    -0.222 N 
ATOM      7  H4  UNL     1     -43.534   6.050  32.433  1.00  0.00     0.178 HD
ENDROOT
BRANCH   1   8
HETATM    8  C3  UNL     1     -46.237   8.067  34.132  1.00  0.00     0.157 C 
BRANCH   8   9
HETATM    9  C2  UNL     1     -46.575   6.601  34.347  1.00  0.00     0.133 C 
BRANCH   9  10
HETATM   10  N1  UNL     1     -47.925   6.457  34.778  1.00  0.00    -0.424 N 
HETATM   11  C1  UNL     1     -48.117   6.129  36.154  1.00  0.00     0.139 C 
ATOM     12  H1  UNL     1     -48.710   6.582  34.139  1.00  0.00     0.152 HD
ENDBRANCH   9  10
ENDBRANCH   8   9
ENDBRANCH   1   8
BRANCH   4  13
HETATM   13  C5  UNL     1     -43.335  10.141  32.188  1.00  0.00     0.036 C 
HETATM   14  C6  UNL     1     -43.989  10.931  33.289  1.00  0.00     0.038 C 
HETATM   15  C7  UNL     1     -41.821  10.238  32.481  1.00  0.00     0.038 C 
HETATM   16  C8  UNL     1     -43.579  10.948  30.904  1.00  0.00     0.038 C 
ENDBRANCH   4  13
BRANCH   6  17
HETATM   17  C9  UNL     1     -44.915   5.925  30.780  1.00  0.00     0.099 C 
HETATM   18  C10 UNL     1     -44.070   5.930  29.518  1.00  0.00     0.026 C 
HETATM   19  C11 UNL     1     -45.004   5.498  28.385  1.00  0.00     0.002 C 
HETATM   20  C12 UNL     1     -44.994   4.002  28.364  1.00  0.00     0.000 C 
HETATM   21  C13 UNL     1     -46.133   3.350  29.087  1.00  0.00     0.004 C 
HETATM   22  C14 UNL     1     -46.365   3.879  30.478  1.00  0.00    -0.017 C 
HETATM   23  C15 UNL     1     -47.635   4.669  30.511  1.00  0.00     0.010 C 
HETATM   24  C16 UNL     1     -45.194   4.504  31.124  1.00  0.00     0.030 C 
ENDBRANCH   6  17
TORSDOF 5
ENDMDL
MODEL 2
REMARK VINA RESULT: -7.524824122      2.577      5.038
REMARK  5 active torsions:
REMARK  status: ('A' for Active; 'I' for Inactive)
REMARK    1  A    between atoms: N1_2  and  C2_4 
REMARK    2  A    between atoms: C2_4  and  C3_5 
REMARK    3  A    between atoms: C3_5  and  N2_6 
REMARK       I    between atoms: N2_6  and  C4_8 
REMARK       I    between atoms: C4_8  and  N4_15 
REMARK    4  A    between atoms: N3_9  and  C5_11 
REMARK    5  A    between atoms: N4_15  and  C9_17 
ROOT
HETATM    1  N2  UNL     1     -45.267   5.225  33.201  1.00  0.00    -0.225 N 
ATOM      2  H2  UNL     1     -44.266   5.347  33.046  1.00  0.00     0.177 HD
HETATM    3  C4  UNL     1     -45.805   3.958  32.885  1.00  0.00     0.670 C 
HETATM    4  N3  UNL     1     -45.721   2.976  33.623  1.00  0.00    -0.218 N 
ATOM      5  H3  UNL     1     -46.191   2.199  33.159  1.00  0.00     0.178 HD
HETATM    6  N4  UNL     1     -46.503   3.797  31.606  1.00  0.00    -0.222 N 
ATOM      7  H4  UNL     1     -47.509   3.630  31.596  1.00  0.00     0.178 HD
ENDROOT
BRANCH   1   8
HETATM    8  C3  UNL     1     -45.976   6.353  33.715  1.00  0.00     0.157 C 
BRANCH   8   9
HETATM    9  C2  UNL     1     -45.945   7.476  32.692  1.00  0.00     0.133 C 
BRANCH   9  10
HETATM   10  N1  UNL     1     -46.542   8.654  33.222  1.00  0.00    -0.424 N 
HETATM   11  C1  UNL     1     -45.923   9.211  34.382  1.00  0.00     0.139 C 
ATOM     12  H1  UNL     1     -47.368   9.077  32.797  1.00  0.00     0.152 HD
ENDBRANCH   9  10
ENDBRANCH   8   9
ENDBRANCH   1   8
BRANCH   4  13
HETATM   13  C5  UNL     1     -45.243   2.517  34.830  1.00  0.00     0.036 C 
HETATM   14  C6  UNL     1     -45.705   1.168  35.310  1.00  0.00     0.038 C 
HETATM   15  C7  UNL     1     -43.708   2.383  34.701  1.00  0.00     0.038 C 
HETATM   16  C8  UNL     1     -45.494   3.477  36.003  1.00  0.00     0.038 C 
ENDBRANCH   4  13
BRANCH   6  17
HETATM   17  C9  UNL     1     -45.770   3.873  30.343  1.00  0.00     0.099 C 
HETATM   18  C10 UNL     1     -46.150   2.744  29.400  1.00  0.00     0.026 C 
HETATM   19  C11 UNL     1     -45.120   2.778  28.268  1.00  0.00     0.002 C 
HETATM   20  C12 UNL     1     -45.619   3.764  27.260  1.00  0.00     0.000 C 
HETATM   21  C13 UNL     1     -45.030   5.137  27.371  1.00  0.00     0.004 C 
HETATM   22  C14 UNL     1     -45.060   5.711  28.762  1.00  0.00    -0.017 C 
HETATM   23  C15 UNL     1     -43.671   5.766  29.315  1.00  0.00     0.010 C 
HETATM   24  C16 UNL     1     -46.093   5.154  29.658  1.00  0.00     0.030 C 
ENDBRANCH   6  17
TORSDOF 5
ENDMDL
MODEL 3
REMARK VINA RESULT: -7.009641406      1.272      4.712
REMARK  5 active torsions:
REMARK  status: ('A' for Active; 'I' for Inactive)
REMARK    1  A    between atoms: N1_2  and  C2_4 
REMARK    2  A    between atoms: C2_4  and  C3_5 
REMARK    3  A    between atoms: C3_5  and  N2_6 
REMARK       I    between atoms: N2_6  and  C4_8 
REMARK       I    between atoms: C4_8  and  N4_15 
REMARK    4  A    between atoms: N3_9  and  C5_11 
REMARK    5  A    between atoms: N4_15  and  C9_17 
ROOT
HETATM    1  N2  UNL     1     -45.416   7.304  33.573  1.00  0.00    -0.225 N 
ATOM      2  H2  UNL     1     -44.546   6.790  33.715  1.00  0.00     0.177 HD
HETATM    3  C4  UNL     1     -46.597   6.535  33.484  1.00  0.00     0.670 C 
HETATM    4  N3  UNL     1     -47.195   6.086  34.462  1.00  0.00    -0.218 N 
ATOM      5  H3  UNL     1     -48.008   5.574  34.120  1.00  0.00     0.178 HD
HETATM    6  N4  UNL     1     -47.145   6.251  32.155  1.00  0.00    -0.222 N 
ATOM      7  H4  UNL     1     -48.034   6.666  31.876  1.00  0.00     0.178 HD
ENDROOT
BRANCH   1   8
HETATM    8  C3  UNL     1     -45.310   8.727  33.485  1.00  0.00     0.157 C 
BRANCH   8   9
HETATM    9  C2  UNL     1     -43.961   9.095  32.891  1.00  0.00     0.133 C 
BRANCH   9  10
HETATM   10  N1  UNL     1     -44.124   9.672  31.600  1.00  0.00    -0.424 N 
HETATM   11  C1  UNL     1     -43.244  10.748  31.273  1.00  0.00     0.139 C 
ATOM     12  H1  UNL     1     -44.830   9.335  30.944  1.00  0.00     0.152 HD
ENDBRANCH   9  10
ENDBRANCH   8   9
ENDBRANCH   1   8
BRANCH   4  13
HETATM   13  C5  UNL     1     -47.196   6.005  35.838  1.00  0.00     0.036 C 
HETATM   14  C6  UNL     1     -48.337   5.286  36.505  1.00  0.00     0.038 C 
HETATM   15  C7  UNL     1     -45.935   5.215  36.258  1.00  0.00     0.038 C 
HETATM   16  C8  UNL     1     -47.104   7.369  36.540  1.00  0.00     0.038 C 
ENDBRANCH   4  13
BRANCH   6  17
HETATM   17  C9  UNL     1     -46.430   5.379  31.225  1.00  0.00     0.099 C 
HETATM   18  C10 UNL     1     -47.357   4.370  30.570  1.00  0.00     0.026 C 
HETATM   19  C11 UNL     1     -46.448   3.359  29.865  1.00  0.00     0.002 C 
HETATM   20  C12 UNL     1     -46.139   3.925  28.515  1.00  0.00     0.000 C 
HETATM   21  C13 UNL     1     -44.832   4.650  28.416  1.00  0.00     0.004 C 
HETATM   22  C14 UNL     1     -44.605   5.666  29.503  1.00  0.00    -0.017 C 
HETATM   23  C15 UNL     1     -43.536   5.182  30.431  1.00  0.00     0.010 C 
HETATM   24  C16 UNL     1     -45.825   6.199  30.141  1.00  0.00     0.030 C 
ENDBRANCH   6  17
TORSDOF 5
ENDMDL
MODEL 4
REMARK VINA RESULT: -7.004805880      1.645      4.179
REMARK  5 active torsions:
REMARK  status: ('A' for Active; 'I' for Inactive)
REMARK    1  A    between atoms: N1_2  and  C2_4 
REMARK    2  A    between atoms: C2_4  and  C3_5 
REMARK    3  A    between atoms: C3_5  and  N2_6 
REMARK       I    between atoms: N2_6  and  C4_8 
REMARK       I    between atoms: C4_8  and  N4_15 
REMARK    4  A    between atoms: N3_9  and  C5_11 
REMARK    5  A    between atoms: N4_15  and  C9_17 
ROOT
HETATM    1  N2  UNL     1     -44.162   8.860  31.856  1.00  0.00    -0.225 N 
ATOM      2  H2  UNL     1     -43.372   8.254  32.080  1.00  0.00     0.177 HD
HETATM    3  C4  UNL     1     -45.418   8.481  32.379  1.00  0.00     0.670 C 
HETATM    4  N3  UNL     1     -45.769   8.700  33.538  1.00  0.00    -0.218 N 
ATOM      5  H3  UNL     1     -46.712   8.327  33.651  1.00  0.00     0.178 HD
HETATM    6  N4  UNL     1     -46.359   7.786  31.496  1.00  0.00    -0.222 N 
ATOM      7  H4  UNL     1     -47.220   8.251  31.209  1.00  0.00     0.178 HD
ENDROOT
BRANCH   1   8
HETATM    8  C3  UNL     1     -43.880  10.003  31.046  1.00  0.00     0.157 C 
BRANCH   8   9
HETATM    9  C2  UNL     1     -42.884  10.896  31.767  1.00  0.00     0.133 C 
BRANCH   9  10
HETATM   10  N1  UNL     1     -41.630  10.236  31.906  1.00  0.00    -0.424 N 
HETATM   11  C1  UNL     1     -41.037  10.272  33.204  1.00  0.00     0.139 C 
ATOM     12  H1  UNL     1     -41.180   9.764  31.121  1.00  0.00     0.152 HD
ENDBRANCH   9  10
ENDBRANCH   8   9
ENDBRANCH   1   8
BRANCH   4  13
HETATM   13  C5  UNL     1     -45.388   9.251  34.742  1.00  0.00     0.036 C 
HETATM   14  C6  UNL     1     -43.949   9.115  35.161  1.00  0.00     0.038 C 
HETATM   15  C7  UNL     1     -45.629  10.775  34.652  1.00  0.00     0.038 C 
HETATM   16  C8  UNL     1     -46.212   8.754  35.940  1.00  0.00     0.038 C 
ENDBRANCH   4  13
BRANCH   6  17
HETATM   17  C9  UNL     1     -46.076   6.433  31.022  1.00  0.00     0.099 C 
HETATM   18  C10 UNL     1     -47.328   5.575  30.978  1.00  0.00     0.026 C 
HETATM   19  C11 UNL     1     -46.847   4.139  30.752  1.00  0.00     0.002 C 
HETATM   20  C12 UNL     1     -46.696   3.962  29.275  1.00  0.00     0.000 C 
HETATM   21  C13 UNL     1     -45.303   4.145  28.754  1.00  0.00     0.004 C 
HETATM   22  C14 UNL     1     -44.626   5.402  29.228  1.00  0.00    -0.017 C 
HETATM   23  C15 UNL     1     -43.534   5.054  30.191  1.00  0.00     0.010 C 
HETATM   24  C16 UNL     1     -45.529   6.495  29.639  1.00  0.00     0.030 C 
ENDBRANCH   6  17
TORSDOF 5
ENDMDL
MODEL 5
REMARK VINA RESULT: -6.984291874      2.294      4.614
REMARK  5 active torsions:
REMARK  status: ('A' for Active; 'I' for Inactive)
REMARK    1  A    between atoms: N1_2  and  C2_4 
REMARK    2  A    between atoms: C2_4  and  C3_5 
REMARK    3  A    between atoms: C3_5  and  N2_6 
REMARK       I    between atoms: N2_6  and  C4_8 
REMARK       I    between atoms: C4_8  and  N4_15 
REMARK    4  A    between atoms: N3_9  and  C5_11 
REMARK    5  A    between atoms: N4_15  and  C9_17 
ROOT
HETATM    1  N2  UNL     1     -44.555   5.516  32.864  1.00  0.00    -0.225 N 
ATOM      2  H2  UNL     1     -43.708   5.171  32.413  1.00  0.00     0.177 HD
HETATM    3  C4  UNL     1     -45.677   4.659  32.842  1.00  0.00     0.670 C 
HETATM    4  N3  UNL     1     -45.830   3.713  33.615  1.00  0.00    -0.218 N 
ATOM      5  H3  UNL     1     -46.716   3.265  33.385  1.00  0.00     0.178 HD
HETATM    6  N4  UNL     1     -46.722   4.903  31.842  1.00  0.00    -0.222 N 
ATOM      7  H4  UNL     1     -47.644   5.220  32.142  1.00  0.00     0.178 HD
ENDROOT
BRANCH   1   8
HETATM    8  C3  UNL     1     -44.482   6.817  33.450  1.00  0.00     0.157 C 
BRANCH   8   9
HETATM    9  C2  UNL     1     -44.991   7.846  32.455  1.00  0.00     0.133 C 
BRANCH   9  10
HETATM   10  N1  UNL     1     -46.250   8.365  32.871  1.00  0.00    -0.424 N 
HETATM   11  C1  UNL     1     -46.548   8.264  34.263  1.00  0.00     0.139 C 
ATOM     12  H1  UNL     1     -46.904   8.785  32.210  1.00  0.00     0.152 HD
ENDBRANCH   9  10
ENDBRANCH   8   9
ENDBRANCH   1   8
BRANCH   4  13
HETATM   13  C5  UNL     1     -45.272   3.025  34.670  1.00  0.00     0.036 C 
HETATM   14  C6  UNL     1     -43.811   2.670  34.594  1.00  0.00     0.038 C 
HETATM   15  C7  UNL     1     -45.394   3.918  35.925  1.00  0.00     0.038 C 
HETATM   16  C8  UNL     1     -45.995   1.710  35.004  1.00  0.00     0.038 C 
ENDBRANCH   4  13
BRANCH   6  17
HETATM   17  C9  UNL     1     -46.454   4.696  30.420  1.00  0.00     0.099 C 
HETATM   18  C10 UNL     1     -45.628   5.826  29.830  1.00  0.00     0.026 C 
HETATM   19  C11 UNL     1     -45.674   5.632  28.312  1.00  0.00     0.002 C 
HETATM   20  C12 UNL     1     -44.579   4.673  27.966  1.00  0.00     0.000 C 
HETATM   21  C13 UNL     1     -45.011   3.246  27.814  1.00  0.00     0.004 C 
HETATM   22  C14 UNL     1     -45.853   2.732  28.951  1.00  0.00    -0.017 C 
HETATM   23  C15 UNL     1     -47.262   2.538  28.487  1.00  0.00     0.010 C 
HETATM   24  C16 UNL     1     -45.685   3.436  30.237  1.00  0.00     0.030 C 
ENDBRANCH   6  17
TORSDOF 5
ENDMDL
