MODEL 1
REMARK VINA RESULT: -6.188338806      0.000      0.000
REMARK  5 active torsions:
REMARK  status: ('A' for Active; 'I' for Inactive)
REMARK    1  A    between atoms: C2_2  and  N1_3 
REMARK       I    between atoms: N1_3  and  C3_5 
REMARK       I    between atoms: C3_5  and  N2_7 
REMARK    2  A    between atoms: C6_10  and  N3_11 
REMARK    3  A    between atoms: N3_11  and  C7_13 
REMARK    4  A    between atoms: C7_13  and  N4_15 
REMARK    5  A    between atoms: N5_18  and  C10_19 
ROOT
HETATM    1  N1  UNL     1      -0.694   8.025  13.408  1.00  0.00    -0.343 N 
ATOM      2  H1  UNL     1       0.024   7.350  13.670  1.00  0.00     0.164 HD
HETATM    3  C3  UNL     1      -1.664   7.662  12.441  1.00  0.00     0.318 C 
HETATM    4  O1  UNL     1      -2.537   8.502  12.131  1.00  0.00    -0.247 OA
HETATM    5  N2  UNL     1      -1.626   6.382  11.855  1.00  0.00    -0.334 N 
HETATM    6  C4  UNL     1      -0.601   5.437  12.235  1.00  0.00     0.129 C 
HETATM    7  C5  UNL     1      -0.995   4.113  11.604  1.00  0.00     0.045 C 
HETATM    8  C6  UNL     1      -2.398   3.823  12.060  1.00  0.00     0.087 C 
HETATM    9  C13 UNL     1      -3.329   4.722  11.223  1.00  0.00     0.045 C 
HETATM   10  C14 UNL     1      -2.611   6.008  10.873  1.00  0.00     0.129 C 
ENDROOT
BRANCH   8  11
HETATM   11  N3  UNL     1      -2.799   2.460  11.989  1.00  0.00    -0.362 N 
ATOM     12  H3  UNL     1      -2.128   1.838  11.536  1.00  0.00     0.162 HD
BRANCH  11  13
HETATM   13  C7  UNL     1      -3.947   1.848  12.433  1.00  0.00     0.171 C 
HETATM   14  S1  UNL     1      -4.736   0.915  11.252  1.00  0.00    -0.041 SA
BRANCH  13  15
HETATM   15  N4  UNL     1      -4.566   1.876  13.707  1.00  0.00    -0.331 N 
HETATM   16  C8  UNL     1      -5.320   3.083  14.153  1.00  0.00     0.157 C 
HETATM   17  C9  UNL     1      -5.972   2.660  15.451  1.00  0.00     0.294 C 
HETATM   18  N5  UNL     1      -5.022   1.710  15.942  1.00  0.00     0.107 N 
HETATM   19  C12 UNL     1      -4.646   0.953  14.783  1.00  0.00     0.399 C 
BRANCH  18  20
HETATM   20  C10 UNL     1      -5.547   0.881  17.008  1.00  0.00     0.270 C 
HETATM   21  C11 UNL     1      -7.012   1.062  17.222  1.00  0.00     0.037 C 
ENDBRANCH  18  20
ENDBRANCH  13  15
ENDBRANCH  11  13
ENDBRANCH   8  11
BRANCH   1  22
HETATM   22  C2  UNL     1      -0.697   9.340  14.038  1.00  0.00     0.120 C 
HETATM   23  C1  UNL     1      -1.362   9.177  15.387  1.00  0.00     0.026 C 
ENDBRANCH   1  22
TORSDOF 5
ENDMDL
MODEL 2
REMARK VINA RESULT: -6.162515333      3.177      4.339
REMARK  5 active torsions:
REMARK  status: ('A' for Active; 'I' for Inactive)
REMARK    1  A    between atoms: C2_2  and  N1_3 
REMARK       I    between atoms: N1_3  and  C3_5 
REMARK       I    between atoms: C3_5  and  N2_7 
REMARK    2  A    between atoms: C6_10  and  N3_11 
REMARK    3  A    between atoms: N3_11  and  C7_13 
REMARK    4  A    between atoms: C7_13  and  N4_15 
REMARK    5  A    between atoms: N5_18  and  C10_19 
ROOT
HETATM    1  N1  UNL     1      -6.752   7.222   8.636  1.00  0.00    -0.343 N 
ATOM      2  H1  UNL     1      -7.020   7.345   9.612  1.00  0.00     0.164 HD
HETATM    3  C3  UNL     1      -5.508   6.616   8.331  1.00  0.00     0.318 C 
HETATM    4  O1  UNL     1      -5.196   6.473   7.128  1.00  0.00    -0.247 OA
HETATM    5  N2  UNL     1      -4.660   6.193   9.373  1.00  0.00    -0.334 N 
HETATM    6  C4  UNL     1      -5.052   6.376  10.751  1.00  0.00     0.129 C 
HETATM    7  C5  UNL     1      -4.039   5.609  11.582  1.00  0.00     0.045 C 
HETATM    8  C6  UNL     1      -4.030   4.202  11.053  1.00  0.00     0.087 C 
HETATM    9  C13 UNL     1      -3.224   4.229   9.740  1.00  0.00     0.045 C 
HETATM   10  C14 UNL     1      -3.395   5.574   9.068  1.00  0.00     0.129 C 
ENDROOT
BRANCH   8  11
HETATM   11  N3  UNL     1      -3.528   3.213  11.944  1.00  0.00    -0.362 N 
ATOM     12  H3  UNL     1      -2.523   3.254  12.111  1.00  0.00     0.162 HD
BRANCH  11  13
HETATM   13  C7  UNL     1      -4.184   2.209  12.617  1.00  0.00     0.171 C 
HETATM   14  S1  UNL     1      -4.293   0.750  11.751  1.00  0.00    -0.041 SA
BRANCH  13  15
HETATM   15  N4  UNL     1      -4.778   2.203  13.904  1.00  0.00    -0.331 N 
HETATM   16  C8  UNL     1      -5.573   3.375  14.372  1.00  0.00     0.157 C 
HETATM   17  C9  UNL     1      -6.179   2.916  15.681  1.00  0.00     0.294 C 
HETATM   18  N5  UNL     1      -5.179   2.007  16.146  1.00  0.00     0.107 N 
HETATM   19  C12 UNL     1      -4.795   1.273  14.976  1.00  0.00     0.399 C 
BRANCH  18  20
HETATM   20  C10 UNL     1      -5.645   1.150  17.218  1.00  0.00     0.270 C 
HETATM   21  C11 UNL     1      -7.129   0.994  17.238  1.00  0.00     0.037 C 
ENDBRANCH  18  20
ENDBRANCH  13  15
ENDBRANCH  11  13
ENDBRANCH   8  11
BRANCH   1  22
HETATM   22  C2  UNL     1      -7.660   7.675   7.588  1.00  0.00     0.120 C 
HETATM   23  C1  UNL     1      -8.986   7.964   8.254  1.00  0.00     0.026 C 
ENDBRANCH   1  22
TORSDOF 5
ENDMDL
MODEL 3
REMARK VINA RESULT: -6.135064435      1.182      1.450
REMARK  5 active torsions:
REMARK  status: ('A' for Active; 'I' for Inactive)
REMARK    1  A    between atoms: C2_2  and  N1_3 
REMARK       I    between atoms: N1_3  and  C3_5 
REMARK       I    between atoms: C3_5  and  N2_7 
REMARK    2  A    between atoms: C6_10  and  N3_11 
REMARK    3  A    between atoms: N3_11  and  C7_13 
REMARK    4  A    between atoms: C7_13  and  N4_15 
REMARK    5  A    between atoms: N5_18  and  C10_19 
ROOT
HETATM    1  N1  UNL     1      -1.793   8.857  12.995  1.00  0.00    -0.343 N 
ATOM      2  H1  UNL     1      -2.384   8.545  13.764  1.00  0.00     0.164 HD
HETATM    3  C3  UNL     1      -0.992   7.909  12.309  1.00  0.00     0.318 C 
HETATM    4  O1  UNL     1      -0.273   8.310  11.368  1.00  0.00    -0.247 OA
HETATM    5  N2  UNL     1      -1.022   6.556  12.697  1.00  0.00    -0.334 N 
HETATM    6  C4  UNL     1      -1.864   6.129  13.791  1.00  0.00     0.129 C 
HETATM    7  C5  UNL     1      -1.832   4.611  13.778  1.00  0.00     0.045 C 
HETATM    8  C6  UNL     1      -2.239   4.186  12.395  1.00  0.00     0.087 C 
HETATM    9  C13 UNL     1      -1.015   4.414  11.486  1.00  0.00     0.045 C 
HETATM   10  C14 UNL     1      -0.212   5.589  12.001  1.00  0.00     0.129 C 
ENDROOT
BRANCH   8  11
HETATM   11  N3  UNL     1      -2.726   2.855  12.278  1.00  0.00    -0.362 N 
ATOM     12  H3  UNL     1      -2.055   2.183  11.904  1.00  0.00     0.162 HD
BRANCH  11  13
HETATM   13  C7  UNL     1      -3.958   2.329  12.590  1.00  0.00     0.171 C 
HETATM   14  S1  UNL     1      -4.796   1.689  11.257  1.00  0.00    -0.041 SA
BRANCH  13  15
HETATM   15  N4  UNL     1      -4.628   2.241  13.836  1.00  0.00    -0.331 N 
HETATM   16  C8  UNL     1      -5.443   3.386  14.336  1.00  0.00     0.157 C 
HETATM   17  C9  UNL     1      -6.130   2.845  15.571  1.00  0.00     0.294 C 
HETATM   18  N5  UNL     1      -5.166   1.895  16.031  1.00  0.00     0.107 N 
HETATM   19  C12 UNL     1      -4.716   1.240  14.838  1.00  0.00     0.399 C 
BRANCH  18  20
HETATM   20  C10 UNL     1      -5.701   0.972  17.011  1.00  0.00     0.270 C 
HETATM   21  C11 UNL     1      -7.185   1.051  17.139  1.00  0.00     0.037 C 
ENDBRANCH  18  20
ENDBRANCH  13  15
ENDBRANCH  11  13
ENDBRANCH   8  11
BRANCH   1  22
HETATM   22  C2  UNL     1      -1.791  10.268  12.626  1.00  0.00     0.120 C 
HETATM   23  C1  UNL     1      -1.455  11.046  13.879  1.00  0.00     0.026 C 
ENDBRANCH   1  22
TORSDOF 5
ENDMDL
MODEL 4
REMARK VINA RESULT: -5.866655215      1.594      2.019
REMARK  5 active torsions:
REMARK  status: ('A' for Active; 'I' for Inactive)
REMARK    1  A    between atoms: C2_2  and  N1_3 
REMARK       I    between atoms: N1_3  and  C3_5 
REMARK       I    between atoms: C3_5  and  N2_7 
REMARK    2  A    between atoms: C6_10  and  N3_11 
REMARK    3  A    between atoms: N3_11  and  C7_13 
REMARK    4  A    between atoms: C7_13  and  N4_15 
REMARK    5  A    between atoms: N5_18  and  C10_19 
ROOT
HETATM    1  N1  UNL     1      -1.603   9.414  12.496  1.00  0.00    -0.343 N 
ATOM      2  H1  UNL     1      -2.129   9.233  11.642  1.00  0.00     0.164 HD
HETATM    3  C3  UNL     1      -1.715   8.511  13.582  1.00  0.00     0.318 C 
HETATM    4  O1  UNL     1      -1.062   8.748  14.622  1.00  0.00    -0.247 OA
HETATM    5  N2  UNL     1      -2.549   7.381  13.472  1.00  0.00    -0.334 N 
HETATM    6  C4  UNL     1      -3.291   7.140  12.256  1.00  0.00     0.129 C 
HETATM    7  C5  UNL     1      -3.880   5.747  12.392  1.00  0.00     0.045 C 
HETATM    8  C6  UNL     1      -2.730   4.824  12.688  1.00  0.00     0.087 C 
HETATM    9  C13 UNL     1      -2.370   5.030  14.173  1.00  0.00     0.045 C 
HETATM   10  C14 UNL     1      -2.665   6.460  14.572  1.00  0.00     0.129 C 
ENDROOT
BRANCH   8  11
HETATM   11  N3  UNL     1      -2.955   3.449  12.399  1.00  0.00    -0.362 N 
ATOM     12  H3  UNL     1      -2.197   2.987  11.896  1.00  0.00     0.162 HD
BRANCH  11  13
HETATM   13  C7  UNL     1      -4.031   2.645  12.689  1.00  0.00     0.171 C 
HETATM   14  S1  UNL     1      -4.648   1.801  11.349  1.00  0.00    -0.041 SA
BRANCH  13  15
HETATM   15  N4  UNL     1      -4.699   2.416  13.918  1.00  0.00    -0.331 N 
HETATM   16  C8  UNL     1      -5.625   3.443  14.477  1.00  0.00     0.157 C 
HETATM   17  C9  UNL     1      -6.265   2.762  15.667  1.00  0.00     0.294 C 
HETATM   18  N5  UNL     1      -5.216   1.883  16.081  1.00  0.00     0.107 N 
HETATM   19  C12 UNL     1      -4.696   1.350  14.856  1.00  0.00     0.399 C 
BRANCH  18  20
HETATM   20  C10 UNL     1      -5.665   0.853  16.995  1.00  0.00     0.270 C 
HETATM   21  C11 UNL     1      -7.134   0.900  17.252  1.00  0.00     0.037 C 
ENDBRANCH  18  20
ENDBRANCH  13  15
ENDBRANCH  11  13
ENDBRANCH   8  11
BRANCH   1  22
HETATM   22  C2  UNL     1      -0.751  10.596  12.569  1.00  0.00     0.120 C 
HETATM   23  C1  UNL     1      -1.645  11.755  12.949  1.00  0.00     0.026 C 
ENDBRANCH   1  22
TORSDOF 5
ENDMDL
MODEL 5
REMARK VINA RESULT: -5.813145850      1.970      2.516
REMARK  5 active torsions:
REMARK  status: ('A' for Active; 'I' for Inactive)
REMARK    1  A    between atoms: C2_2  and  N1_3 
REMARK       I    between atoms: N1_3  and  C3_5 
REMARK       I    between atoms: C3_5  and  N2_7 
REMARK    2  A    between atoms: C6_10  and  N3_11 
REMARK    3  A    between atoms: N3_11  and  C7_13 
REMARK    4  A    between atoms: C7_13  and  N4_15 
REMARK    5  A    between atoms: N5_18  and  C10_19 
ROOT
HETATM    1  N1  UNL     1      -4.189   8.498  10.862  1.00  0.00    -0.343 N 
ATOM      2  H1  UNL     1      -4.502   8.332  11.818  1.00  0.00     0.164 HD
HETATM    3  C3  UNL     1      -3.207   7.645  10.298  1.00  0.00     0.318 C 
HETATM    4  O1  UNL     1      -2.834   7.863   9.124  1.00  0.00    -0.247 OA
HETATM    5  N2  UNL     1      -2.678   6.586  11.060  1.00  0.00    -0.334 N 
HETATM    6  C4  UNL     1      -3.130   6.365  12.414  1.00  0.00     0.129 C 
HETATM    7  C5  UNL     1      -2.543   5.031  12.841  1.00  0.00     0.045 C 
HETATM    8  C6  UNL     1      -2.966   4.027  11.805  1.00  0.00     0.087 C 
HETATM    9  C13 UNL     1      -2.062   4.253  10.577  1.00  0.00     0.045 C 
HETATM   10  C14 UNL     1      -1.681   5.715  10.490  1.00  0.00     0.129 C 
ENDROOT
BRANCH   8  11
HETATM   11  N3  UNL     1      -2.939   2.667  12.220  1.00  0.00    -0.362 N 
ATOM     12  H3  UNL     1      -2.033   2.207  12.129  1.00  0.00     0.162 HD
BRANCH  11  13
HETATM   13  C7  UNL     1      -3.942   1.872  12.724  1.00  0.00     0.171 C 
HETATM   14  S1  UNL     1      -4.448   0.640  11.668  1.00  0.00    -0.041 SA
BRANCH  13  15
HETATM   15  N4  UNL     1      -4.611   1.923  13.972  1.00  0.00    -0.331 N 
HETATM   16  C8  UNL     1      -5.415   3.121  14.349  1.00  0.00     0.157 C 
HETATM   17  C9  UNL     1      -6.105   2.720  15.634  1.00  0.00     0.294 C 
HETATM   18  N5  UNL     1      -5.149   1.816  16.193  1.00  0.00     0.107 N 
HETATM   19  C12 UNL     1      -4.707   1.034  15.075  1.00  0.00     0.399 C 
BRANCH  18  20
HETATM   20  C10 UNL     1      -5.691   1.006  17.264  1.00  0.00     0.270 C 
HETATM   21  C11 UNL     1      -7.182   0.953  17.261  1.00  0.00     0.037 C 
ENDBRANCH  18  20
ENDBRANCH  13  15
ENDBRANCH  11  13
ENDBRANCH   8  11
BRANCH   1  22
HETATM   22  C2  UNL     1      -4.762   9.607  10.107  1.00  0.00     0.120 C 
HETATM   23  C1  UNL     1      -6.193   9.759  10.575  1.00  0.00     0.026 C 
ENDBRANCH   1  22
TORSDOF 5
ENDMDL
