MODEL 1
REMARK VINA RESULT: -6.240384128      0.000      0.000
REMARK  6 active torsions:
REMARK  status: ('A' for Active; 'I' for Inactive)
REMARK    1  A    between atoms: N1_1  and  C1_5 
REMARK    2  A    between atoms: C1_5  and  C2_6 
REMARK    3  A    between atoms: C2_6  and  N2_7 
REMARK    4  A    between atoms: N3_11  and  C6_12 
REMARK    5  A    between atoms: C6_12  and  N4_14 
REMARK    6  A    between atoms: N4_14  and  C7_16 
ROOT
HETATM    1  N2  UNL     1      -4.370   3.068  14.011  1.00  0.00    -0.409 N 
HETATM    2  C3  UNL     1      -3.374   3.894  14.600  1.00  0.00     0.118 C 
HETATM    3  C4  UNL     1      -3.350   5.288  14.012  1.00  0.00     0.039 C 
HETATM    4  C5  UNL     1      -4.468   5.344  12.983  1.00  0.00     0.127 C 
HETATM    5  N3  UNL     1      -4.032   4.671  11.807  1.00  0.00    -0.356 N 
HETATM    6  C16 UNL     1      -3.831   3.265  11.599  1.00  0.00     0.144 C 
HETATM    7  C17 UNL     1      -4.035   2.400  12.809  1.00  0.00     0.136 C 
ENDROOT
BRANCH   5   8
HETATM    8  C6  UNL     1      -3.748   5.479  10.667  1.00  0.00     0.174 C 
HETATM    9  S1  UNL     1      -3.196   4.700   9.363  1.00  0.00    -0.041 SA
BRANCH   8  10
HETATM   10  N4  UNL     1      -3.931   6.868  10.655  1.00  0.00    -0.340 N 
ATOM     11  H4  UNL     1      -3.146   7.368  11.070  1.00  0.00     0.167 HD
BRANCH  10  12
HETATM   12  C7  UNL     1      -4.938   7.732  10.207  1.00  0.00    -0.003 C 
HETATM   13  C8  UNL     1      -5.874   8.392  11.138  1.00  0.00     0.032 C 
HETATM   14  C9  UNL     1      -6.172   9.780  10.448  1.00  0.00     0.015 C 
HETATM   15  C15 UNL     1      -7.291   7.920  11.194  1.00  0.00     0.015 C 
HETATM   16  C10 UNL     1      -6.946   9.273   9.248  1.00  0.00    -0.009 C 
HETATM   17  C11 UNL     1      -5.952   8.748   8.238  1.00  0.00     0.015 C 
HETATM   18  C14 UNL     1      -7.696   8.038   9.715  1.00  0.00    -0.009 C 
HETATM   19  C12 UNL     1      -5.607   7.381   8.892  1.00  0.00     0.032 C 
HETATM   20  C13 UNL     1      -7.012   6.855   9.038  1.00  0.00     0.015 C 
ENDBRANCH  10  12
ENDBRANCH   8  10
ENDBRANCH   5   8
BRANCH   1  21
HETATM   21  C2  UNL     1      -5.212   2.398  14.932  1.00  0.00     0.144 C 
BRANCH  21  22
HETATM   22  C1  UNL     1      -4.525   1.643  16.031  1.00  0.00     0.248 C 
BRANCH  22  23
HETATM   23  N1  UNL     1      -4.412   0.243  15.664  1.00  0.00    -0.078 N 
ATOM     24  H13 UNL     1      -4.387   0.111  14.652  1.00  0.00     0.274 HD
ATOM     25  H12 UNL     1      -3.493  -0.140  15.884  1.00  0.00     0.274 HD
ATOM     26  H11 UNL     1      -5.166  -0.288  16.102  1.00  0.00     0.274 HD
ENDBRANCH  22  23
ENDBRANCH  21  22
ENDBRANCH   1  21
TORSDOF 6
ENDMDL
MODEL 2
REMARK VINA RESULT: -6.212413824      1.361      2.452
REMARK  6 active torsions:
REMARK  status: ('A' for Active; 'I' for Inactive)
REMARK    1  A    between atoms: N1_1  and  C1_5 
REMARK    2  A    between atoms: C1_5  and  C2_6 
REMARK    3  A    between atoms: C2_6  and  N2_7 
REMARK    4  A    between atoms: N3_11  and  C6_12 
REMARK    5  A    between atoms: C6_12  and  N4_14 
REMARK    6  A    between atoms: N4_14  and  C7_16 
ROOT
HETATM    1  N2  UNL     1      -4.653   2.680  14.432  1.00  0.00    -0.409 N 
HETATM    2  C3  UNL     1      -4.677   2.064  13.150  1.00  0.00     0.118 C 
HETATM    3  C4  UNL     1      -3.757   2.743  12.159  1.00  0.00     0.039 C 
HETATM    4  C5  UNL     1      -3.064   3.867  12.911  1.00  0.00     0.127 C 
HETATM    5  N3  UNL     1      -3.977   4.951  13.042  1.00  0.00    -0.356 N 
HETATM    6  C16 UNL     1      -5.149   5.043  13.867  1.00  0.00     0.144 C 
HETATM    7  C17 UNL     1      -5.497   3.798  14.632  1.00  0.00     0.136 C 
ENDROOT
BRANCH   5   8
HETATM    8  C6  UNL     1      -3.718   6.115  12.261  1.00  0.00     0.174 C 
HETATM    9  S1  UNL     1      -2.747   7.219  12.931  1.00  0.00    -0.041 SA
BRANCH   8  10
HETATM   10  N4  UNL     1      -4.260   6.309  10.984  1.00  0.00    -0.340 N 
ATOM     11  H4  UNL     1      -3.651   5.959  10.245  1.00  0.00     0.167 HD
BRANCH  10  12
HETATM   12  C7  UNL     1      -5.440   6.871  10.482  1.00  0.00    -0.003 C 
HETATM   13  C8  UNL     1      -5.665   7.058   9.036  1.00  0.00     0.032 C 
HETATM   14  C9  UNL     1      -7.221   6.857   8.869  1.00  0.00     0.015 C 
HETATM   15  C15 UNL     1      -5.608   8.439   8.469  1.00  0.00     0.015 C 
HETATM   16  C10 UNL     1      -7.688   8.097   9.605  1.00  0.00    -0.009 C 
HETATM   17  C11 UNL     1      -7.601   7.821  11.088  1.00  0.00     0.015 C 
HETATM   18  C14 UNL     1      -6.635   9.162   9.357  1.00  0.00    -0.009 C 
HETATM   19  C12 UNL     1      -6.069   7.984  11.298  1.00  0.00     0.032 C 
HETATM   20  C13 UNL     1      -5.917   9.354  10.688  1.00  0.00     0.015 C 
ENDBRANCH  10  12
ENDBRANCH   8  10
ENDBRANCH   5   8
BRANCH   1  21
HETATM   21  C2  UNL     1      -4.455   1.793  15.518  1.00  0.00     0.144 C 
BRANCH  21  22
HETATM   22  C1  UNL     1      -5.616   1.617  16.451  1.00  0.00     0.248 C 
BRANCH  22  23
HETATM   23  N1  UNL     1      -5.563   0.296  17.051  1.00  0.00    -0.078 N 
ATOM     24  H13 UNL     1      -5.941  -0.422  16.433  1.00  0.00     0.274 HD
ATOM     25  H12 UNL     1      -4.609  -0.058  17.119  1.00  0.00     0.274 HD
ATOM     26  H11 UNL     1      -6.033   0.311  17.956  1.00  0.00     0.274 HD
ENDBRANCH  22  23
ENDBRANCH  21  22
ENDBRANCH   1  21
TORSDOF 6
ENDMDL
MODEL 3
REMARK VINA RESULT: -6.210871347      0.477      1.726
REMARK  6 active torsions:
REMARK  status: ('A' for Active; 'I' for Inactive)
REMARK    1  A    between atoms: N1_1  and  C1_5 
REMARK    2  A    between atoms: C1_5  and  C2_6 
REMARK    3  A    between atoms: C2_6  and  N2_7 
REMARK    4  A    between atoms: N3_11  and  C6_12 
REMARK    5  A    between atoms: C6_12  and  N4_14 
REMARK    6  A    between atoms: N4_14  and  C7_16 
ROOT
HETATM    1  N2  UNL     1      -4.637   2.833  14.277  1.00  0.00    -0.409 N 
HETATM    2  C3  UNL     1      -3.525   3.535  14.820  1.00  0.00     0.118 C 
HETATM    3  C4  UNL     1      -3.336   4.901  14.197  1.00  0.00     0.039 C 
HETATM    4  C5  UNL     1      -4.465   5.080  13.196  1.00  0.00     0.127 C 
HETATM    5  N3  UNL     1      -4.153   4.331  12.026  1.00  0.00    -0.356 N 
HETATM    6  C16 UNL     1      -4.144   2.906  11.848  1.00  0.00     0.144 C 
HETATM    7  C17 UNL     1      -4.425   2.101  13.085  1.00  0.00     0.136 C 
ENDROOT
BRANCH   5   8
HETATM    8  C6  UNL     1      -3.799   5.069  10.859  1.00  0.00     0.174 C 
HETATM    9  S1  UNL     1      -2.844   4.310   9.800  1.00  0.00    -0.041 SA
BRANCH   8  10
HETATM   10  N4  UNL     1      -4.243   6.377  10.624  1.00  0.00    -0.340 N 
ATOM     11  H4  UNL     1      -3.512   7.071  10.784  1.00  0.00     0.167 HD
BRANCH  10  12
HETATM   12  C7  UNL     1      -5.451   6.957  10.221  1.00  0.00    -0.003 C 
HETATM   13  C8  UNL     1      -5.763   7.209   8.800  1.00  0.00     0.032 C 
HETATM   14  C9  UNL     1      -7.327   7.011   8.719  1.00  0.00     0.015 C 
HETATM   15  C15 UNL     1      -5.741   8.615   8.294  1.00  0.00     0.015 C 
HETATM   16  C10 UNL     1      -7.749   8.215   9.537  1.00  0.00    -0.009 C 
HETATM   17  C11 UNL     1      -7.572   7.873  10.998  1.00  0.00     0.015 C 
HETATM   18  C14 UNL     1      -6.713   9.293   9.275  1.00  0.00    -0.009 C 
HETATM   19  C12 UNL     1      -6.030   8.031  11.123  1.00  0.00     0.032 C 
HETATM   20  C13 UNL     1      -5.915   9.428  10.567  1.00  0.00     0.015 C 
ENDBRANCH  10  12
ENDBRANCH   8  10
ENDBRANCH   5   8
BRANCH   1  21
HETATM   21  C2  UNL     1      -5.533   2.299  15.235  1.00  0.00     0.144 C 
BRANCH  21  22
HETATM   22  C1  UNL     1      -4.912   1.569  16.390  1.00  0.00     0.248 C 
BRANCH  22  23
HETATM   23  N1  UNL     1      -4.673   0.186  16.018  1.00  0.00    -0.078 N 
ATOM     24  H13 UNL     1      -3.825   0.077  15.463  1.00  0.00     0.274 HD
ATOM     25  H12 UNL     1      -4.399  -0.385  16.817  1.00  0.00     0.274 HD
ATOM     26  H11 UNL     1      -5.495  -0.188  15.542  1.00  0.00     0.274 HD
ENDBRANCH  22  23
ENDBRANCH  21  22
ENDBRANCH   1  21
TORSDOF 6
ENDMDL
MODEL 4
REMARK VINA RESULT: -6.208211501      1.368      1.844
REMARK  6 active torsions:
REMARK  status: ('A' for Active; 'I' for Inactive)
REMARK    1  A    between atoms: N1_1  and  C1_5 
REMARK    2  A    between atoms: C1_5  and  C2_6 
REMARK    3  A    between atoms: C2_6  and  N2_7 
REMARK    4  A    between atoms: N3_11  and  C6_12 
REMARK    5  A    between atoms: C6_12  and  N4_14 
REMARK    6  A    between atoms: N4_14  and  C7_16 
ROOT
HETATM    1  N2  UNL     1      -4.700   2.548  14.627  1.00  0.00    -0.409 N 
HETATM    2  C3  UNL     1      -4.668   1.905  13.359  1.00  0.00     0.118 C 
HETATM    3  C4  UNL     1      -3.776   2.618  12.365  1.00  0.00     0.039 C 
HETATM    4  C5  UNL     1      -3.164   3.798  13.101  1.00  0.00     0.127 C 
HETATM    5  N3  UNL     1      -4.143   4.827  13.198  1.00  0.00    -0.356 N 
HETATM    6  C16 UNL     1      -5.330   4.864  14.005  1.00  0.00     0.144 C 
HETATM    7  C17 UNL     1      -5.612   3.617  14.792  1.00  0.00     0.136 C 
ENDROOT
BRANCH   5   8
HETATM    8  C6  UNL     1      -3.943   5.987  12.394  1.00  0.00     0.174 C 
HETATM    9  S1  UNL     1      -2.929   7.097  12.988  1.00  0.00    -0.041 SA
BRANCH   8  10
HETATM   10  N4  UNL     1      -4.577   6.175  11.159  1.00  0.00    -0.340 N 
ATOM     11  H4  UNL     1      -4.530   5.347  10.567  1.00  0.00     0.167 HD
BRANCH  10  12
HETATM   12  C7  UNL     1      -5.261   7.232  10.546  1.00  0.00    -0.003 C 
HETATM   13  C8  UNL     1      -6.234   8.066  11.278  1.00  0.00     0.032 C 
HETATM   14  C9  UNL     1      -6.082   9.490  10.615  1.00  0.00     0.015 C 
HETATM   15  C15 UNL     1      -7.690   7.897  10.993  1.00  0.00     0.015 C 
HETATM   16  C10 UNL     1      -6.646   9.162   9.248  1.00  0.00    -0.009 C 
HETATM   17  C11 UNL     1      -5.573   8.449   8.457  1.00  0.00     0.015 C 
HETATM   18  C14 UNL     1      -7.714   8.106   9.469  1.00  0.00    -0.009 C 
HETATM   19  C12 UNL     1      -5.667   7.035   9.098  1.00  0.00     0.032 C 
HETATM   20  C13 UNL     1      -7.145   6.812   8.899  1.00  0.00     0.015 C 
ENDBRANCH  10  12
ENDBRANCH   8  10
ENDBRANCH   5   8
BRANCH   1  21
HETATM   21  C2  UNL     1      -4.463   1.698  15.735  1.00  0.00     0.144 C 
BRANCH  21  22
HETATM   22  C1  UNL     1      -5.589   1.558  16.716  1.00  0.00     0.248 C 
BRANCH  22  23
HETATM   23  N1  UNL     1      -5.647   0.191  17.200  1.00  0.00    -0.078 N 
ATOM     24  H13 UNL     1      -6.582  -0.208  17.116  1.00  0.00     0.274 HD
ATOM     25  H12 UNL     1      -5.156  -0.457  16.583  1.00  0.00     0.274 HD
ATOM     26  H11 UNL     1      -5.296   0.151  18.157  1.00  0.00     0.274 HD
ENDBRANCH  22  23
ENDBRANCH  21  22
ENDBRANCH   1  21
TORSDOF 6
ENDMDL
MODEL 5
REMARK VINA RESULT: -6.082099586      1.681      2.315
REMARK  6 active torsions:
REMARK  status: ('A' for Active; 'I' for Inactive)
REMARK    1  A    between atoms: N1_1  and  C1_5 
REMARK    2  A    between atoms: C1_5  and  C2_6 
REMARK    3  A    between atoms: C2_6  and  N2_7 
REMARK    4  A    between atoms: N3_11  and  C6_12 
REMARK    5  A    between atoms: C6_12  and  N4_14 
REMARK    6  A    between atoms: N4_14  and  C7_16 
ROOT
HETATM    1  N2  UNL     1      -4.750   2.549  14.229  1.00  0.00    -0.409 N 
HETATM    2  C3  UNL     1      -4.686   2.266  12.837  1.00  0.00     0.118 C 
HETATM    3  C4  UNL     1      -3.628   3.081  12.124  1.00  0.00     0.039 C 
HETATM    4  C5  UNL     1      -2.942   3.925  13.186  1.00  0.00     0.127 C 
HETATM    5  N3  UNL     1      -3.792   5.021  13.509  1.00  0.00    -0.356 N 
HETATM    6  C16 UNL     1      -5.032   5.013  14.232  1.00  0.00     0.144 C 
HETATM    7  C17 UNL     1      -5.535   3.656  14.633  1.00  0.00     0.136 C 
ENDROOT
BRANCH   5   8
HETATM    8  C6  UNL     1      -3.380   6.311  13.065  1.00  0.00     0.174 C 
HETATM    9  S1  UNL     1      -2.484   7.167  14.102  1.00  0.00    -0.041 SA
BRANCH   8  10
HETATM   10  N4  UNL     1      -3.720   6.827  11.807  1.00  0.00    -0.340 N 
ATOM     11  H4  UNL     1      -3.059   6.549  11.082  1.00  0.00     0.167 HD
BRANCH  10  12
HETATM   12  C7  UNL     1      -4.751   7.633  11.311  1.00  0.00    -0.003 C 
HETATM   13  C8  UNL     1      -6.112   7.111  11.083  1.00  0.00     0.032 C 
HETATM   14  C9  UNL     1      -7.044   8.348  11.386  1.00  0.00     0.015 C 
HETATM   15  C15 UNL     1      -6.575   6.887   9.680  1.00  0.00     0.015 C 
HETATM   16  C10 UNL     1      -6.649   9.221  10.213  1.00  0.00    -0.009 C 
HETATM   17  C11 UNL     1      -5.325   9.873  10.540  1.00  0.00     0.015 C 
HETATM   18  C14 UNL     1      -6.330   8.277   9.068  1.00  0.00    -0.009 C 
HETATM   19  C12 UNL     1      -4.368   8.676  10.278  1.00  0.00     0.032 C 
HETATM   20  C13 UNL     1      -4.819   8.347   8.877  1.00  0.00     0.015 C 
ENDBRANCH  10  12
ENDBRANCH   8  10
ENDBRANCH   5   8
BRANCH   1  21
HETATM   21  C2  UNL     1      -4.720   1.412  15.073  1.00  0.00     0.144 C 
BRANCH  21  22
HETATM   22  C1  UNL     1      -5.465   1.528  16.370  1.00  0.00     0.248 C 
BRANCH  22  23
HETATM   23  N1  UNL     1      -5.546   0.223  17.002  1.00  0.00    -0.078 N 
ATOM     24  H13 UNL     1      -5.612  -0.532  16.320  1.00  0.00     0.274 HD
ATOM     25  H12 UNL     1      -4.665  -0.050  17.437  1.00  0.00     0.274 HD
ATOM     26  H11 UNL     1      -6.322   0.212  17.665  1.00  0.00     0.274 HD
ENDBRANCH  22  23
ENDBRANCH  21  22
ENDBRANCH   1  21
TORSDOF 6
ENDMDL
