MODEL 1
REMARK VINA RESULT: -6.643504695      0.000      0.000
REMARK  6 active torsions:
REMARK  status: ('A' for Active; 'I' for Inactive)
REMARK    1  A    between atoms: C2_2  and  O1_3 
REMARK    2  A    between atoms: C2_2  and  C3_5 
REMARK    3  A    between atoms: C3_5  and  N1_6 
REMARK    4  A    between atoms: N1_6  and  C5_8 
REMARK    5  A    between atoms: C5_8  and  N2_10 
REMARK       I    between atoms: N3_13  and  C8_14 
REMARK    6  A    between atoms: C8_14  and  C9_16 
ROOT
HETATM    1  N2  UNL     1      -3.544   3.960  11.399  1.00  0.00    -0.355 N 
HETATM    2  C6  UNL     1      -3.014   3.981  12.787  1.00  0.00     0.145 C 
HETATM    3  C7  UNL     1      -4.119   3.460  13.708  1.00  0.00     0.145 C 
HETATM    4  N3  UNL     1      -4.294   2.057  13.391  1.00  0.00    -0.347 N 
HETATM    5  C8  UNL     1      -4.541   1.122  14.401  1.00  0.00     0.250 C 
HETATM    6  O2  UNL     1      -4.651  -0.101  14.030  1.00  0.00    -0.271 OA
HETATM    7  C14 UNL     1      -4.183   1.684  12.007  1.00  0.00     0.145 C 
HETATM    8  C15 UNL     1      -4.401   2.886  11.067  1.00  0.00     0.145 C 
ENDROOT
BRANCH   5   9
HETATM    9  C9  UNL     1      -4.666   1.506  15.816  1.00  0.00     0.277 C 
HETATM   10  C10 UNL     1      -5.803   2.516  15.960  1.00  0.00     0.043 C 
HETATM   11  C11 UNL     1      -7.088   1.682  16.098  1.00  0.00     0.004 C 
HETATM   12  C12 UNL     1      -7.058   1.160  17.539  1.00  0.00     0.027 C 
HETATM   13  C13 UNL     1      -5.688   0.557  17.796  1.00  0.00     0.233 C 
HETATM   14  N4  UNL     1      -4.995   0.294  16.552  1.00  0.00    -0.062 N 
ATOM     15  H42 UNL     1      -5.526  -0.352  15.970  1.00  0.00     0.278 HD
ATOM     16  H41 UNL     1      -4.161  -0.271  16.713  1.00  0.00     0.278 HD
ENDBRANCH   5   9
BRANCH   1  17
HETATM   17  C5  UNL     1      -3.134   4.987  10.559  1.00  0.00     0.171 C 
HETATM   18  S1  UNL     1      -1.681   4.671   9.733  1.00  0.00    -0.041 SA
BRANCH  17  19
HETATM   19  N1  UNL     1      -3.680   6.231  10.247  1.00  0.00    -0.360 N 
HETATM   20  C4  UNL     1      -3.207   6.979   9.109  1.00  0.00     0.152 C 
BRANCH  19  21
HETATM   21  C3  UNL     1      -4.744   6.747  11.093  1.00  0.00     0.155 C 
BRANCH  21  22
HETATM   22  C2  UNL     1      -6.006   7.096  10.402  1.00  0.00     0.132 C 
HETATM   23  C1  UNL     1      -6.941   7.800  11.325  1.00  0.00     0.041 C 
BRANCH  22  24
HETATM   24  O1  UNL     1      -6.571   6.071   9.681  1.00  0.00    -0.394 OA
ATOM     25  H1  UNL     1      -6.012   5.702   9.007  1.00  0.00     0.210 HD
ENDBRANCH  22  24
ENDBRANCH  21  22
ENDBRANCH  19  21
ENDBRANCH  17  19
ENDBRANCH   1  17
TORSDOF 6
ENDMDL
MODEL 2
REMARK VINA RESULT: -6.462757926      4.362      8.056
REMARK  6 active torsions:
REMARK  status: ('A' for Active; 'I' for Inactive)
REMARK    1  A    between atoms: C2_2  and  O1_3 
REMARK    2  A    between atoms: C2_2  and  C3_5 
REMARK    3  A    between atoms: C3_5  and  N1_6 
REMARK    4  A    between atoms: N1_6  and  C5_8 
REMARK    5  A    between atoms: C5_8  and  N2_10 
REMARK       I    between atoms: N3_13  and  C8_14 
REMARK    6  A    between atoms: C8_14  and  C9_16 
ROOT
HETATM    1  N2  UNL     1      -3.620   4.442  14.328  1.00  0.00    -0.355 N 
HETATM    2  C6  UNL     1      -4.146   5.784  13.963  1.00  0.00     0.145 C 
HETATM    3  C7  UNL     1      -3.170   6.825  14.516  1.00  0.00     0.145 C 
HETATM    4  N3  UNL     1      -1.941   6.682  13.761  1.00  0.00    -0.347 N 
HETATM    5  C8  UNL     1      -1.197   7.805  13.389  1.00  0.00     0.250 C 
HETATM    6  O2  UNL     1      -0.140   7.584  12.695  1.00  0.00    -0.271 OA
HETATM    7  C14 UNL     1      -1.549   5.345  13.406  1.00  0.00     0.145 C 
HETATM    8  C15 UNL     1      -2.215   4.289  14.309  1.00  0.00     0.145 C 
ENDROOT
BRANCH   5   9
HETATM    9  C9  UNL     1      -1.594   9.172  13.762  1.00  0.00     0.277 C 
HETATM   10  C10 UNL     1      -1.009   9.503  15.135  1.00  0.00     0.043 C 
HETATM   11  C11 UNL     1       0.416  10.015  14.870  1.00  0.00     0.004 C 
HETATM   12  C12 UNL     1       0.224  11.444  14.350  1.00  0.00     0.027 C 
HETATM   13  C13 UNL     1      -0.825  11.411  13.252  1.00  0.00     0.233 C 
HETATM   14  N4  UNL     1      -1.023  10.063  12.763  1.00  0.00    -0.062 N 
ATOM     15  H42 UNL     1      -0.154   9.681  12.389  1.00  0.00     0.278 HD
ATOM     16  H41 UNL     1      -1.585  10.063  11.912  1.00  0.00     0.278 HD
ENDBRANCH   5   9
BRANCH   1  17
HETATM   17  C5  UNL     1      -4.560   3.468  14.634  1.00  0.00     0.171 C 
HETATM   18  S1  UNL     1      -6.143   4.061  14.821  1.00  0.00    -0.041 SA
BRANCH  17  19
HETATM   19  N1  UNL     1      -4.469   2.088  14.813  1.00  0.00    -0.360 N 
HETATM   20  C4  UNL     1      -4.424   1.199  13.678  1.00  0.00     0.152 C 
BRANCH  19  21
HETATM   21  C3  UNL     1      -4.412   1.571  16.171  1.00  0.00     0.155 C 
BRANCH  21  22
HETATM   22  C2  UNL     1      -5.646   0.919  16.665  1.00  0.00     0.132 C 
HETATM   23  C1  UNL     1      -6.242   1.692  17.791  1.00  0.00     0.041 C 
BRANCH  22  24
HETATM   24  O1  UNL     1      -5.533  -0.433  16.891  1.00  0.00    -0.394 OA
ATOM     25  H1  UNL     1      -5.342  -0.951  16.117  1.00  0.00     0.210 HD
ENDBRANCH  22  24
ENDBRANCH  21  22
ENDBRANCH  19  21
ENDBRANCH  17  19
ENDBRANCH   1  17
TORSDOF 6
ENDMDL
MODEL 3
REMARK VINA RESULT: -6.412165988      2.310      3.258
REMARK  6 active torsions:
REMARK  status: ('A' for Active; 'I' for Inactive)
REMARK    1  A    between atoms: C2_2  and  O1_3 
REMARK    2  A    between atoms: C2_2  and  C3_5 
REMARK    3  A    between atoms: C3_5  and  N1_6 
REMARK    4  A    between atoms: N1_6  and  C5_8 
REMARK    5  A    between atoms: C5_8  and  N2_10 
REMARK       I    between atoms: N3_13  and  C8_14 
REMARK    6  A    between atoms: C8_14  and  C9_16 
ROOT
HETATM    1  N2  UNL     1      -3.409   4.038  11.591  1.00  0.00    -0.355 N 
HETATM    2  C6  UNL     1      -2.964   4.066  13.009  1.00  0.00     0.145 C 
HETATM    3  C7  UNL     1      -4.118   3.541  13.864  1.00  0.00     0.145 C 
HETATM    4  N3  UNL     1      -4.266   2.135  13.541  1.00  0.00    -0.347 N 
HETATM    5  C8  UNL     1      -4.567   1.202  14.537  1.00  0.00     0.250 C 
HETATM    6  O2  UNL     1      -4.648  -0.023  14.164  1.00  0.00    -0.271 OA
HETATM    7  C14 UNL     1      -4.069   1.760  12.168  1.00  0.00     0.145 C 
HETATM    8  C15 UNL     1      -4.239   2.958  11.212  1.00  0.00     0.145 C 
ENDROOT
BRANCH   5   9
HETATM    9  C9  UNL     1      -4.779   1.589  15.941  1.00  0.00     0.277 C 
HETATM   10  C10 UNL     1      -6.005   2.496  16.028  1.00  0.00     0.043 C 
HETATM   11  C11 UNL     1      -7.216   1.554  16.130  1.00  0.00     0.004 C 
HETATM   12  C12 UNL     1      -7.196   1.053  17.579  1.00  0.00     0.027 C 
HETATM   13  C13 UNL     1      -5.789   0.576  17.895  1.00  0.00     0.233 C 
HETATM   14  N4  UNL     1      -5.029   0.362  16.682  1.00  0.00    -0.062 N 
ATOM     15  H42 UNL     1      -5.479  -0.336  16.089  1.00  0.00     0.278 HD
ATOM     16  H41 UNL     1      -4.156  -0.127  16.881  1.00  0.00     0.278 HD
ENDBRANCH   5   9
BRANCH   1  17
HETATM   17  C5  UNL     1      -2.956   5.065  10.775  1.00  0.00     0.171 C 
HETATM   18  S1  UNL     1      -4.195   5.982  10.057  1.00  0.00    -0.041 SA
BRANCH  17  19
HETATM   19  N1  UNL     1      -1.679   5.506  10.428  1.00  0.00    -0.360 N 
HETATM   20  C4  UNL     1      -1.343   6.907  10.485  1.00  0.00     0.152 C 
BRANCH  19  21
HETATM   21  C3  UNL     1      -0.697   4.516  10.018  1.00  0.00     0.155 C 
BRANCH  21  22
HETATM   22  C2  UNL     1       0.239   4.061  11.071  1.00  0.00     0.132 C 
HETATM   23  C1  UNL     1       1.640   4.034  10.563  1.00  0.00     0.041 C 
BRANCH  22  24
HETATM   24  O1  UNL     1      -0.153   2.924  11.739  1.00  0.00    -0.394 OA
ATOM     25  H1  UNL     1      -1.032   2.625  11.534  1.00  0.00     0.210 HD
ENDBRANCH  22  24
ENDBRANCH  21  22
ENDBRANCH  19  21
ENDBRANCH  17  19
ENDBRANCH   1  17
TORSDOF 6
ENDMDL
MODEL 4
REMARK VINA RESULT: -6.410197310      4.291      7.976
REMARK  6 active torsions:
REMARK  status: ('A' for Active; 'I' for Inactive)
REMARK    1  A    between atoms: C2_2  and  O1_3 
REMARK    2  A    between atoms: C2_2  and  C3_5 
REMARK    3  A    between atoms: C3_5  and  N1_6 
REMARK    4  A    between atoms: N1_6  and  C5_8 
REMARK    5  A    between atoms: C5_8  and  N2_10 
REMARK       I    between atoms: N3_13  and  C8_14 
REMARK    6  A    between atoms: C8_14  and  C9_16 
ROOT
HETATM    1  N2  UNL     1      -3.189   4.472  13.672  1.00  0.00    -0.355 N 
HETATM    2  C6  UNL     1      -3.822   5.811  13.549  1.00  0.00     0.145 C 
HETATM    3  C7  UNL     1      -2.907   6.818  14.248  1.00  0.00     0.145 C 
HETATM    4  N3  UNL     1      -1.696   6.897  13.455  1.00  0.00    -0.347 N 
HETATM    5  C8  UNL     1      -1.048   8.120  13.261  1.00  0.00     0.250 C 
HETATM    6  O2  UNL     1      -0.002   8.100  12.519  1.00  0.00    -0.271 OA
HETATM    7  C14 UNL     1      -1.220   5.672  12.872  1.00  0.00     0.145 C 
HETATM    8  C15 UNL     1      -1.778   4.433  13.599  1.00  0.00     0.145 C 
ENDROOT
BRANCH   5   9
HETATM    9  C9  UNL     1      -1.531   9.372  13.866  1.00  0.00     0.277 C 
HETATM   10  C10 UNL     1      -0.900   9.531  15.249  1.00  0.00     0.043 C 
HETATM   11  C11 UNL     1       0.463  10.200  15.012  1.00  0.00     0.004 C 
HETATM   12  C12 UNL     1       0.132  11.671  14.738  1.00  0.00     0.027 C 
HETATM   13  C13 UNL     1      -0.970  11.721  13.693  1.00  0.00     0.233 C 
HETATM   14  N4  UNL     1      -1.087  10.455  13.002  1.00  0.00    -0.062 N 
ATOM     15  H42 UNL     1      -0.213  10.213  12.536  1.00  0.00     0.278 HD
ATOM     16  H41 UNL     1      -1.693  10.541  12.186  1.00  0.00     0.278 HD
ENDBRANCH   5   9
BRANCH   1  17
HETATM   17  C5  UNL     1      -4.044   3.390  13.830  1.00  0.00     0.171 C 
HETATM   18  S1  UNL     1      -4.114   2.355  12.482  1.00  0.00    -0.041 SA
BRANCH  17  19
HETATM   19  N1  UNL     1      -4.858   2.972  14.882  1.00  0.00    -0.360 N 
HETATM   20  C4  UNL     1      -6.168   3.545  15.074  1.00  0.00     0.152 C 
BRANCH  19  21
HETATM   21  C3  UNL     1      -4.354   1.940  15.774  1.00  0.00     0.155 C 
BRANCH  21  22
HETATM   22  C2  UNL     1      -5.239   0.770  15.970  1.00  0.00     0.132 C 
HETATM   23  C1  UNL     1      -5.738   0.710  17.373  1.00  0.00     0.041 C 
BRANCH  22  24
HETATM   24  O1  UNL     1      -4.743  -0.417  15.485  1.00  0.00    -0.394 OA
ATOM     25  H1  UNL     1      -4.505  -0.403  14.565  1.00  0.00     0.210 HD
ENDBRANCH  22  24
ENDBRANCH  21  22
ENDBRANCH  19  21
ENDBRANCH  17  19
ENDBRANCH   1  17
TORSDOF 6
ENDMDL
MODEL 5
REMARK VINA RESULT: -6.312341758      3.482      4.571
REMARK  6 active torsions:
REMARK  status: ('A' for Active; 'I' for Inactive)
REMARK    1  A    between atoms: C2_2  and  O1_3 
REMARK    2  A    between atoms: C2_2  and  C3_5 
REMARK    3  A    between atoms: C3_5  and  N1_6 
REMARK    4  A    between atoms: N1_6  and  C5_8 
REMARK    5  A    between atoms: C5_8  and  N2_10 
REMARK       I    between atoms: N3_13  and  C8_14 
REMARK    6  A    between atoms: C8_14  and  C9_16 
ROOT
HETATM    1  N2  UNL     1      -1.674   4.721  10.007  1.00  0.00    -0.355 N 
HETATM    2  C6  UNL     1      -1.254   4.033  11.256  1.00  0.00     0.145 C 
HETATM    3  C7  UNL     1      -2.371   4.224  12.283  1.00  0.00     0.145 C 
HETATM    4  N3  UNL     1      -3.510   3.470  11.801  1.00  0.00    -0.347 N 
HETATM    5  C8  UNL     1      -4.327   2.764  12.688  1.00  0.00     0.250 C 
HETATM    6  O2  UNL     1      -5.293   2.100  12.168  1.00  0.00    -0.271 OA
HETATM    7  C14 UNL     1      -3.738   3.474  10.381  1.00  0.00     0.145 C 
HETATM    8  C15 UNL     1      -3.050   4.667   9.690  1.00  0.00     0.145 C 
ENDROOT
BRANCH   5   9
HETATM    9  C9  UNL     1      -4.100   2.770  14.142  1.00  0.00     0.277 C 
HETATM   10  C10 UNL     1      -4.979   3.846  14.779  1.00  0.00     0.043 C 
HETATM   11  C11 UNL     1      -6.344   3.181  15.020  1.00  0.00     0.004 C 
HETATM   12  C12 UNL     1      -6.133   2.295  16.253  1.00  0.00     0.027 C 
HETATM   13  C13 UNL     1      -4.875   1.471  16.034  1.00  0.00     0.233 C 
HETATM   14  N4  UNL     1      -4.499   1.461  14.635  1.00  0.00    -0.062 N 
ATOM     15  H42 UNL     1      -5.245   1.068  14.061  1.00  0.00     0.278 HD
ATOM     16  H41 UNL     1      -3.771   0.768  14.460  1.00  0.00     0.278 HD
ENDBRANCH   5   9
BRANCH   1  17
HETATM   17  C5  UNL     1      -0.673   5.335   9.266  1.00  0.00     0.171 C 
HETATM   18  S1  UNL     1      -0.397   6.961   9.684  1.00  0.00    -0.041 SA
BRANCH  17  19
HETATM   19  N1  UNL     1       0.165   4.883   8.248  1.00  0.00    -0.360 N 
HETATM   20  C4  UNL     1      -0.381   4.438   6.988  1.00  0.00     0.152 C 
BRANCH  19  21
HETATM   21  C3  UNL     1       1.598   4.880   8.485  1.00  0.00     0.155 C 
BRANCH  21  22
HETATM   22  C2  UNL     1       2.086   3.893   9.476  1.00  0.00     0.132 C 
HETATM   23  C1  UNL     1       2.633   4.576  10.682  1.00  0.00     0.041 C 
BRANCH  22  24
HETATM   24  O1  UNL     1       2.891   2.906   8.958  1.00  0.00    -0.394 OA
ATOM     25  H1  UNL     1       2.656   2.617   8.084  1.00  0.00     0.210 HD
ENDBRANCH  22  24
ENDBRANCH  21  22
ENDBRANCH  19  21
ENDBRANCH  17  19
ENDBRANCH   1  17
TORSDOF 6
ENDMDL
