MODEL 1
REMARK VINA RESULT: -7.411839157      0.000      0.000
REMARK  3 active torsions:
REMARK  status: ('A' for Active; 'I' for Inactive)
REMARK       I    between atoms: N1_2  and  C2_4 
REMARK    1  A    between atoms: C2_4  and  C3_6 
REMARK       I    between atoms: N2_10  and  C7_11 
REMARK       I    between atoms: C7_11  and  N3_13 
REMARK    2  A    between atoms: N3_13  and  C8_15 
REMARK    3  A    between atoms: C8_15  and  C9_16 
REMARK       I    between atoms: C9_16  and  N4_18 
ROOT
HETATM    1  C3  UNL     1       0.985   5.737  10.472  1.00  0.00     0.040 C 
HETATM    2  C4  UNL     1       1.496   7.073   9.917  1.00  0.00     0.025 C 
HETATM    3  C5  UNL     1       0.016   5.969  11.597  1.00  0.00     0.039 C 
HETATM    4  C6  UNL     1      -0.948   4.811  11.774  1.00  0.00     0.129 C 
HETATM    5  N2  UNL     1      -1.669   4.647  10.543  1.00  0.00    -0.334 N 
HETATM    6  C7  UNL     1      -2.840   3.850  10.518  1.00  0.00     0.318 C 
HETATM    7  O2  UNL     1      -3.425   3.745   9.412  1.00  0.00    -0.247 OA
HETATM    8  N3  UNL     1      -3.276   3.229  11.712  1.00  0.00    -0.334 N 
ATOM      9  H3  UNL     1      -2.739   3.364  12.569  1.00  0.00     0.164 HD
HETATM   10  C15 UNL     1      -1.147   5.320   9.370  1.00  0.00     0.129 C 
HETATM   11  C16 UNL     1       0.349   5.009   9.334  1.00  0.00     0.039 C 
ENDROOT
BRANCH   8  12
HETATM   12  C8  UNL     1      -4.451   2.419  11.747  1.00  0.00     0.227 C 
BRANCH  12  13
HETATM   13  C9  UNL     1      -4.370   1.350  12.762  1.00  0.00     0.237 C 
HETATM   14  O3  UNL     1      -4.072   0.177  12.451  1.00  0.00    -0.272 OA
HETATM   15  N4  UNL     1      -4.632   1.656  14.109  1.00  0.00    -0.351 N 
HETATM   16  C10 UNL     1      -4.553   0.613  15.100  1.00  0.00     0.126 C 
HETATM   17  C14 UNL     1      -4.978   2.999  14.502  1.00  0.00     0.126 C 
HETATM   18  C11 UNL     1      -4.645   1.279  16.458  1.00  0.00     0.020 C 
HETATM   19  C12 UNL     1      -6.005   1.967  16.524  1.00  0.00     0.003 C 
HETATM   20  C13 UNL     1      -6.200   2.929  15.397  1.00  0.00     0.020 C 
ENDBRANCH  12  13
ENDBRANCH   8  12
BRANCH   1  21
HETATM   21  C2  UNL     1       2.173   5.032  11.007  1.00  0.00     0.225 C 
HETATM   22  N1  UNL     1       3.107   5.671  11.867  1.00  0.00    -0.365 N 
HETATM   23  C1  UNL     1       4.272   4.967  12.387  1.00  0.00     0.149 C 
ATOM     24  H1  UNL     1       2.958   6.647  12.126  1.00  0.00     0.161 HD
HETATM   25  O1  UNL     1       2.322   3.812  10.658  1.00  0.00    -0.273 OA
ENDBRANCH   1  21
TORSDOF 3
ENDMDL
MODEL 2
REMARK VINA RESULT: -7.198972830      1.131      1.610
REMARK  3 active torsions:
REMARK  status: ('A' for Active; 'I' for Inactive)
REMARK       I    between atoms: N1_2  and  C2_4 
REMARK    1  A    between atoms: C2_4  and  C3_6 
REMARK       I    between atoms: N2_10  and  C7_11 
REMARK       I    between atoms: C7_11  and  N3_13 
REMARK    2  A    between atoms: N3_13  and  C8_15 
REMARK    3  A    between atoms: C8_15  and  C9_16 
REMARK       I    between atoms: C9_16  and  N4_18 
ROOT
HETATM    1  C3  UNL     1       1.018   5.495  10.384  1.00  0.00     0.040 C 
HETATM    2  C4  UNL     1       1.397   6.724   9.548  1.00  0.00     0.025 C 
HETATM    3  C5  UNL     1       0.175   5.898  11.561  1.00  0.00     0.039 C 
HETATM    4  C6  UNL     1      -0.706   4.764  12.052  1.00  0.00     0.129 C 
HETATM    5  N2  UNL     1      -1.555   4.364  10.966  1.00  0.00    -0.334 N 
HETATM    6  C7  UNL     1      -2.681   3.544  11.222  1.00  0.00     0.318 C 
HETATM    7  O2  UNL     1      -3.384   3.228  10.230  1.00  0.00    -0.247 OA
HETATM    8  N3  UNL     1      -2.947   3.135  12.550  1.00  0.00    -0.334 N 
ATOM      9  H3  UNL     1      -2.322   3.434  13.299  1.00  0.00     0.164 HD
HETATM   10  C15 UNL     1      -1.204   4.832   9.639  1.00  0.00     0.129 C 
HETATM   11  C16 UNL     1       0.291   4.559   9.476  1.00  0.00     0.039 C 
ENDROOT
BRANCH   8  12
HETATM   12  C8  UNL     1      -4.070   2.313  12.868  1.00  0.00     0.227 C 
BRANCH  12  13
HETATM   13  C9  UNL     1      -5.037   2.994  13.751  1.00  0.00     0.237 C 
HETATM   14  O3  UNL     1      -5.438   4.152  13.508  1.00  0.00    -0.272 OA
HETATM   15  N4  UNL     1      -5.518   2.328  14.892  1.00  0.00    -0.351 N 
HETATM   16  C10 UNL     1      -6.461   2.992  15.755  1.00  0.00     0.126 C 
HETATM   17  C14 UNL     1      -5.075   0.992  15.201  1.00  0.00     0.126 C 
HETATM   18  C11 UNL     1      -6.970   1.960  16.739  1.00  0.00     0.020 C 
HETATM   19  C12 UNL     1      -5.765   1.482  17.545  1.00  0.00     0.003 C 
HETATM   20  C13 UNL     1      -4.679   0.953  16.664  1.00  0.00     0.020 C 
ENDBRANCH  12  13
ENDBRANCH   8  12
BRANCH   1  21
HETATM   21  C2  UNL     1       2.292   4.930  10.886  1.00  0.00     0.225 C 
HETATM   22  N1  UNL     1       3.002   5.512  11.970  1.00  0.00    -0.365 N 
HETATM   23  C1  UNL     1       4.254   4.947  12.455  1.00  0.00     0.149 C 
ATOM     24  H1  UNL     1       2.626   6.346  12.421  1.00  0.00     0.161 HD
HETATM   25  O1  UNL     1       2.728   3.885  10.294  1.00  0.00    -0.273 OA
ENDBRANCH   1  21
TORSDOF 3
ENDMDL
MODEL 3
REMARK VINA RESULT: -6.975726054      1.575      1.955
REMARK  3 active torsions:
REMARK  status: ('A' for Active; 'I' for Inactive)
REMARK       I    between atoms: N1_2  and  C2_4 
REMARK    1  A    between atoms: C2_4  and  C3_6 
REMARK       I    between atoms: N2_10  and  C7_11 
REMARK       I    between atoms: C7_11  and  N3_13 
REMARK    2  A    between atoms: N3_13  and  C8_15 
REMARK    3  A    between atoms: C8_15  and  C9_16 
REMARK       I    between atoms: C9_16  and  N4_18 
ROOT
HETATM    1  C3  UNL     1       1.403   5.148   9.657  1.00  0.00     0.040 C 
HETATM    2  C4  UNL     1       2.346   6.352   9.763  1.00  0.00     0.025 C 
HETATM    3  C5  UNL     1       1.147   4.558  11.016  1.00  0.00     0.039 C 
HETATM    4  C6  UNL     1      -0.173   3.812  11.080  1.00  0.00     0.129 C 
HETATM    5  N2  UNL     1      -1.219   4.740  10.752  1.00  0.00    -0.334 N 
HETATM    6  C7  UNL     1      -2.567   4.403  11.031  1.00  0.00     0.318 C 
HETATM    7  O2  UNL     1      -3.435   5.256  10.721  1.00  0.00    -0.247 OA
HETATM    8  N3  UNL     1      -2.855   3.153  11.628  1.00  0.00    -0.334 N 
ATOM      9  H3  UNL     1      -2.088   2.516  11.845  1.00  0.00     0.164 HD
HETATM   10  C15 UNL     1      -0.829   5.996  10.143  1.00  0.00     0.129 C 
HETATM   11  C16 UNL     1       0.144   5.638   9.020  1.00  0.00     0.039 C 
ENDROOT
BRANCH   8  12
HETATM   12  C8  UNL     1      -4.193   2.763  11.935  1.00  0.00     0.227 C 
BRANCH  12  13
HETATM   13  C9  UNL     1      -4.247   1.618  12.866  1.00  0.00     0.237 C 
HETATM   14  O3  UNL     1      -3.975   0.458  12.490  1.00  0.00    -0.272 OA
HETATM   15  N4  UNL     1      -4.612   1.835  14.206  1.00  0.00    -0.351 N 
HETATM   16  C10 UNL     1      -4.666   0.719  15.115  1.00  0.00     0.126 C 
HETATM   17  C14 UNL     1      -4.932   3.161  14.673  1.00  0.00     0.126 C 
HETATM   18  C11 UNL     1      -4.846   1.285  16.508  1.00  0.00     0.020 C 
HETATM   19  C12 UNL     1      -6.176   2.034  16.515  1.00  0.00     0.003 C 
HETATM   20  C13 UNL     1      -6.229   3.086  15.454  1.00  0.00     0.020 C 
ENDBRANCH  12  13
ENDBRANCH   8  12
BRANCH   1  21
HETATM   21  C2  UNL     1       2.108   4.143   8.830  1.00  0.00     0.225 C 
HETATM   22  N1  UNL     1       1.739   3.878   7.484  1.00  0.00    -0.365 N 
HETATM   23  C1  UNL     1       2.441   2.886   6.680  1.00  0.00     0.149 C 
ATOM     24  H1  UNL     1       0.964   4.396   7.069  1.00  0.00     0.161 HD
HETATM   25  O1  UNL     1       3.073   3.517   9.387  1.00  0.00    -0.273 OA
ENDBRANCH   1  21
TORSDOF 3
ENDMDL
MODEL 4
REMARK VINA RESULT: -6.654026917      6.081      8.528
REMARK  3 active torsions:
REMARK  status: ('A' for Active; 'I' for Inactive)
REMARK       I    between atoms: N1_2  and  C2_4 
REMARK    1  A    between atoms: C2_4  and  C3_6 
REMARK       I    between atoms: N2_10  and  C7_11 
REMARK       I    between atoms: C7_11  and  N3_13 
REMARK    2  A    between atoms: N3_13  and  C8_15 
REMARK    3  A    between atoms: C8_15  and  C9_16 
REMARK       I    between atoms: C9_16  and  N4_18 
ROOT
HETATM    1  C3  UNL     1      -2.874   4.083  10.868  1.00  0.00     0.040 C 
HETATM    2  C4  UNL     1      -1.584   4.028  11.695  1.00  0.00     0.025 C 
HETATM    3  C5  UNL     1      -3.772   5.181  11.365  1.00  0.00     0.039 C 
HETATM    4  C6  UNL     1      -4.718   5.683  10.290  1.00  0.00     0.129 C 
HETATM    5  N2  UNL     1      -3.923   6.167   9.197  1.00  0.00    -0.334 N 
HETATM    6  C7  UNL     1      -4.524   6.969   8.195  1.00  0.00     0.318 C 
HETATM    7  O2  UNL     1      -3.776   7.361   7.265  1.00  0.00    -0.247 OA
HETATM    8  N3  UNL     1      -5.902   7.276   8.293  1.00  0.00    -0.334 N 
ATOM      9  H3  UNL     1      -6.438   6.913   9.081  1.00  0.00     0.164 HD
HETATM   10  C15 UNL     1      -2.520   5.802   9.179  1.00  0.00     0.129 C 
HETATM   11  C16 UNL     1      -2.471   4.298   9.447  1.00  0.00     0.039 C 
ENDROOT
BRANCH   8  12
HETATM   12  C8  UNL     1      -6.559   8.082   7.316  1.00  0.00     0.227 C 
BRANCH  12  13
HETATM   13  C9  UNL     1      -8.009   8.205   7.568  1.00  0.00     0.237 C 
HETATM   14  O3  UNL     1      -8.601   7.434   8.353  1.00  0.00    -0.272 OA
HETATM   15  N4  UNL     1      -8.741   9.209   6.912  1.00  0.00    -0.351 N 
HETATM   16  C10 UNL     1     -10.156   9.330   7.157  1.00  0.00     0.126 C 
HETATM   17  C14 UNL     1      -8.088  10.115   6.000  1.00  0.00     0.126 C 
HETATM   18  C11 UNL     1     -10.612  10.623   6.514  1.00  0.00     0.020 C 
HETATM   19  C12 UNL     1     -10.347  10.493   5.016  1.00  0.00     0.003 C 
HETATM   20  C13 UNL     1      -8.913  10.181   4.729  1.00  0.00     0.020 C 
ENDBRANCH  12  13
ENDBRANCH   8  12
BRANCH   1  21
HETATM   21  C2  UNL     1      -3.555   2.785  11.078  1.00  0.00     0.225 C 
HETATM   22  N1  UNL     1      -3.532   2.113  12.331  1.00  0.00    -0.365 N 
HETATM   23  C1  UNL     1      -4.205   0.836  12.525  1.00  0.00     0.149 C 
ATOM     24  H1  UNL     1      -3.033   2.537  13.113  1.00  0.00     0.161 HD
HETATM   25  O1  UNL     1      -4.168   2.289  10.073  1.00  0.00    -0.273 OA
ENDBRANCH   1  21
TORSDOF 3
ENDMDL
MODEL 5
REMARK VINA RESULT: -6.625205355      4.936      6.967
REMARK  3 active torsions:
REMARK  status: ('A' for Active; 'I' for Inactive)
REMARK       I    between atoms: N1_2  and  C2_4 
REMARK    1  A    between atoms: C2_4  and  C3_6 
REMARK       I    between atoms: N2_10  and  C7_11 
REMARK       I    between atoms: C7_11  and  N3_13 
REMARK    2  A    between atoms: N3_13  and  C8_15 
REMARK    3  A    between atoms: C8_15  and  C9_16 
REMARK       I    between atoms: C9_16  and  N4_18 
ROOT
HETATM    1  C3  UNL     1      -6.589   9.430   9.129  1.00  0.00     0.040 C 
HETATM    2  C4  UNL     1      -6.578  10.957   8.981  1.00  0.00     0.025 C 
HETATM    3  C5  UNL     1      -5.545   8.808   8.244  1.00  0.00     0.039 C 
HETATM    4  C6  UNL     1      -5.088   7.455   8.756  1.00  0.00     0.129 C 
HETATM    5  N2  UNL     1      -4.554   7.641  10.075  1.00  0.00    -0.334 N 
HETATM    6  C7  UNL     1      -3.780   6.613  10.669  1.00  0.00     0.318 C 
HETATM    7  O2  UNL     1      -3.341   6.837  11.825  1.00  0.00    -0.247 OA
HETATM    8  N3  UNL     1      -3.550   5.419   9.946  1.00  0.00    -0.334 N 
ATOM      9  H3  UNL     1      -3.947   5.318   9.012  1.00  0.00     0.164 HD
HETATM   10  C15 UNL     1      -4.841   8.897  10.740  1.00  0.00     0.129 C 
HETATM   11  C16 UNL     1      -6.342   9.132  10.571  1.00  0.00     0.039 C 
ENDROOT
BRANCH   8  12
HETATM   12  C8  UNL     1      -2.774   4.353  10.492  1.00  0.00     0.227 C 
BRANCH  12  13
HETATM   13  C9  UNL     1      -3.603   3.197  10.889  1.00  0.00     0.237 C 
HETATM   14  O3  UNL     1      -4.080   2.415  10.038  1.00  0.00    -0.272 OA
HETATM   15  N4  UNL     1      -3.864   2.969  12.250  1.00  0.00    -0.351 N 
HETATM   16  C10 UNL     1      -4.673   1.842  12.638  1.00  0.00     0.126 C 
HETATM   17  C14 UNL     1      -3.330   3.853  13.257  1.00  0.00     0.126 C 
HETATM   18  C11 UNL     1      -4.577   1.720  14.145  1.00  0.00     0.020 C 
HETATM   19  C12 UNL     1      -5.151   3.007  14.732  1.00  0.00     0.003 C 
HETATM   20  C13 UNL     1      -4.453   4.219  14.207  1.00  0.00     0.020 C 
ENDBRANCH  12  13
ENDBRANCH   8  12
BRANCH   1  21
HETATM   21  C2  UNL     1      -7.924   8.981   8.672  1.00  0.00     0.225 C 
HETATM   22  N1  UNL     1      -8.664   9.690   7.688  1.00  0.00    -0.365 N 
HETATM   23  C1  UNL     1      -9.978   9.238   7.248  1.00  0.00     0.149 C 
ATOM     24  H1  UNL     1      -8.267  10.536   7.280  1.00  0.00     0.161 HD
HETATM   25  O1  UNL     1      -8.385   7.917   9.209  1.00  0.00    -0.273 OA
ENDBRANCH   1  21
TORSDOF 3
ENDMDL
