MODEL 1
REMARK VINA RESULT: -7.475971101      0.000      0.000
REMARK  3 active torsions:
REMARK  status: ('A' for Active; 'I' for Inactive)
REMARK    1  A    between atoms: C1_2  and  C2_4 
REMARK       I    between atoms: N1_7  and  C5_8 
REMARK    2  A    between atoms: C5_8  and  C6_10 
REMARK       I    between atoms: N2_13  and  C9_14 
REMARK       I    between atoms: C9_14  and  N3_16 
REMARK    3  A    between atoms: N3_16  and  C10_18 
ROOT
HETATM    1  C6  UNL     1      -4.300   3.396  11.270  1.00  0.00     0.081 C 
HETATM    2  C7  UNL     1      -4.013   1.921  11.132  1.00  0.00     0.034 C 
HETATM    3  C8  UNL     1      -3.971   1.157  12.386  1.00  0.00     0.128 C 
HETATM    4  N2  UNL     1      -4.341   1.863  13.585  1.00  0.00    -0.334 N 
HETATM    5  C9  UNL     1      -4.752   1.079  14.695  1.00  0.00     0.318 C 
HETATM    6  O4  UNL     1      -4.798  -0.191  14.653  1.00  0.00    -0.247 OA
HETATM    7  N3  UNL     1      -5.133   1.685  15.908  1.00  0.00    -0.338 N 
ATOM      8  H3  UNL     1      -5.105   2.703  15.965  1.00  0.00     0.164 HD
HETATM    9  C13 UNL     1      -4.326   3.285  13.738  1.00  0.00     0.128 C 
HETATM   10  C14 UNL     1      -3.644   3.890  12.538  1.00  0.00     0.034 C 
ENDROOT
BRANCH   1  11
HETATM   11  C5  UNL     1      -3.682   4.110  10.124  1.00  0.00     0.224 C 
HETATM   12  N1  UNL     1      -4.061   5.383   9.650  1.00  0.00    -0.352 N 
HETATM   13  C4  UNL     1      -5.140   6.075  10.301  1.00  0.00     0.126 C 
HETATM   14  C15 UNL     1      -3.338   5.937   8.520  1.00  0.00     0.126 C 
HETATM   15  C3  UNL     1      -6.007   6.834   9.313  1.00  0.00     0.035 C 
HETATM   16  C2  UNL     1      -5.034   7.696   8.500  1.00  0.00     0.090 C 
HETATM   17  C16 UNL     1      -4.249   6.755   7.633  1.00  0.00     0.035 C 
HETATM   18  O3  UNL     1      -2.724   3.515   9.516  1.00  0.00    -0.273 OA
BRANCH  16  19
HETATM   19  C1  UNL     1      -5.790   8.699   7.754  1.00  0.00     0.177 C 
HETATM   20  O1  UNL     1      -5.573   9.926   7.892  1.00  0.00    -0.648 OA
HETATM   21  O2  UNL     1      -6.774   8.307   6.868  1.00  0.00    -0.648 OA
ENDBRANCH  16  19
ENDBRANCH   1  11
BRANCH   7  22
HETATM   22  C10 UNL     1      -5.562   0.951  17.078  1.00  0.00     0.086 A 
HETATM   23  C11 UNL     1      -6.180   1.696  18.200  1.00  0.00     0.027 A 
HETATM   24  C12 UNL     1      -7.091   0.929  17.247  1.00  0.00     0.027 A 
ENDBRANCH   7  22
TORSDOF 3
ENDMDL
MODEL 2
REMARK VINA RESULT: -7.251100420      3.993      8.648
REMARK  3 active torsions:
REMARK  status: ('A' for Active; 'I' for Inactive)
REMARK    1  A    between atoms: C1_2  and  C2_4 
REMARK       I    between atoms: N1_7  and  C5_8 
REMARK    2  A    between atoms: C5_8  and  C6_10 
REMARK       I    between atoms: N2_13  and  C9_14 
REMARK       I    between atoms: C9_14  and  N3_16 
REMARK    3  A    between atoms: N3_16  and  C10_18 
ROOT
HETATM    1  C6  UNL     1      -2.683   4.357  13.130  1.00  0.00     0.081 C 
HETATM    2  C7  UNL     1      -2.656   3.846  11.711  1.00  0.00     0.034 C 
HETATM    3  C8  UNL     1      -1.515   4.280  10.895  1.00  0.00     0.128 C 
HETATM    4  N2  UNL     1      -0.484   5.025  11.571  1.00  0.00    -0.334 N 
HETATM    5  C9  UNL     1       0.798   5.054  10.960  1.00  0.00     0.318 C 
HETATM    6  O4  UNL     1       1.045   4.456   9.866  1.00  0.00    -0.247 OA
HETATM    7  N3  UNL     1       1.865   5.756  11.552  1.00  0.00    -0.338 N 
ATOM      8  H3  UNL     1       1.690   6.244  12.431  1.00  0.00     0.164 HD
HETATM    9  C13 UNL     1      -0.656   5.731  12.803  1.00  0.00     0.128 C 
HETATM   10  C14 UNL     1      -2.124   5.760  13.139  1.00  0.00     0.034 C 
ENDROOT
BRANCH   1  11
HETATM   11  C5  UNL     1      -4.094   4.420  13.587  1.00  0.00     0.224 C 
HETATM   12  N1  UNL     1      -4.657   3.645  14.623  1.00  0.00    -0.352 N 
HETATM   13  C4  UNL     1      -3.825   2.695  15.311  1.00  0.00     0.126 C 
HETATM   14  C15 UNL     1      -6.057   3.845  14.946  1.00  0.00     0.126 C 
HETATM   15  C3  UNL     1      -4.579   1.422  15.651  1.00  0.00     0.035 C 
HETATM   16  C2  UNL     1      -5.842   1.884  16.387  1.00  0.00     0.090 C 
HETATM   17  C16 UNL     1      -6.716   2.549  15.363  1.00  0.00     0.035 C 
HETATM   18  O3  UNL     1      -4.863   5.250  12.986  1.00  0.00    -0.273 OA
BRANCH  16  19
HETATM   19  C1  UNL     1      -6.464   0.735  17.041  1.00  0.00     0.177 C 
HETATM   20  O1  UNL     1      -7.701   0.676  17.235  1.00  0.00    -0.648 OA
HETATM   21  O2  UNL     1      -5.687  -0.326  17.464  1.00  0.00    -0.648 OA
ENDBRANCH  16  19
ENDBRANCH   1  11
BRANCH   7  22
HETATM   22  C10 UNL     1       3.194   5.830  10.988  1.00  0.00     0.086 A 
HETATM   23  C11 UNL     1       4.159   6.800  11.559  1.00  0.00     0.027 A 
HETATM   24  C12 UNL     1       4.285   5.331  11.952  1.00  0.00     0.027 A 
ENDBRANCH   7  22
TORSDOF 3
ENDMDL
MODEL 3
REMARK VINA RESULT: -7.148944016      3.199      8.625
REMARK  3 active torsions:
REMARK  status: ('A' for Active; 'I' for Inactive)
REMARK    1  A    between atoms: C1_2  and  C2_4 
REMARK       I    between atoms: N1_7  and  C5_8 
REMARK    2  A    between atoms: C5_8  and  C6_10 
REMARK       I    between atoms: N2_13  and  C9_14 
REMARK       I    between atoms: C9_14  and  N3_16 
REMARK    3  A    between atoms: N3_16  and  C10_18 
ROOT
HETATM    1  C6  UNL     1      -3.471   4.253  12.339  1.00  0.00     0.081 C 
HETATM    2  C7  UNL     1      -4.029   4.274  10.938  1.00  0.00     0.034 C 
HETATM    3  C8  UNL     1      -3.092   4.679   9.881  1.00  0.00     0.128 C 
HETATM    4  N2  UNL     1      -1.721   4.874  10.274  1.00  0.00    -0.334 N 
HETATM    5  C9  UNL     1      -0.740   4.806   9.250  1.00  0.00     0.318 C 
HETATM    6  O4  UNL     1      -1.038   4.583   8.035  1.00  0.00    -0.247 OA
HETATM    7  N3  UNL     1       0.626   4.984   9.543  1.00  0.00    -0.338 N 
ATOM      8  H3  UNL     1       0.889   5.163  10.512  1.00  0.00     0.164 HD
HETATM    9  C13 UNL     1      -1.279   5.130  11.610  1.00  0.00     0.128 C 
HETATM   10  C14 UNL     1      -2.486   5.390  12.474  1.00  0.00     0.034 C 
ENDROOT
BRANCH   1  11
HETATM   11  C5  UNL     1      -4.580   4.488  13.297  1.00  0.00     0.224 C 
HETATM   12  N1  UNL     1      -4.871   3.696  14.427  1.00  0.00    -0.352 N 
HETATM   13  C4  UNL     1      -4.052   2.547  14.700  1.00  0.00     0.126 C 
HETATM   14  C15 UNL     1      -5.992   4.080  15.264  1.00  0.00     0.126 C 
HETATM   15  C3  UNL     1      -4.865   1.381  15.232  1.00  0.00     0.035 C 
HETATM   16  C2  UNL     1      -5.661   1.950  16.414  1.00  0.00     0.090 C 
HETATM   17  C16 UNL     1      -6.696   2.867  15.831  1.00  0.00     0.035 C 
HETATM   18  O3  UNL     1      -5.335   5.500  13.075  1.00  0.00    -0.273 OA
BRANCH  16  19
HETATM   19  C1  UNL     1      -6.218   0.847  17.193  1.00  0.00     0.177 C 
HETATM   20  O1  UNL     1      -5.490   0.084  17.871  1.00  0.00    -0.648 OA
HETATM   21  O2  UNL     1      -7.581   0.620  17.196  1.00  0.00    -0.648 OA
ENDBRANCH  16  19
ENDBRANCH   1  11
BRANCH   7  22
HETATM   22  C10 UNL     1       1.678   4.928   8.554  1.00  0.00     0.086 A 
HETATM   23  C11 UNL     1       3.086   5.065   9.000  1.00  0.00     0.027 A 
HETATM   24  C12 UNL     1       2.556   3.670   8.679  1.00  0.00     0.027 A 
ENDBRANCH   7  22
TORSDOF 3
ENDMDL
MODEL 4
REMARK VINA RESULT: -7.131783494      2.426      8.661
REMARK  3 active torsions:
REMARK  status: ('A' for Active; 'I' for Inactive)
REMARK    1  A    between atoms: C1_2  and  C2_4 
REMARK       I    between atoms: N1_7  and  C5_8 
REMARK    2  A    between atoms: C5_8  and  C6_10 
REMARK       I    between atoms: N2_13  and  C9_14 
REMARK       I    between atoms: C9_14  and  N3_16 
REMARK    3  A    between atoms: N3_16  and  C10_18 
ROOT
HETATM    1  C6  UNL     1      -4.013   5.581  10.856  1.00  0.00     0.081 C 
HETATM    2  C7  UNL     1      -2.995   6.001   9.824  1.00  0.00     0.034 C 
HETATM    3  C8  UNL     1      -3.128   7.372   9.314  1.00  0.00     0.128 C 
HETATM    4  N2  UNL     1      -4.118   8.203   9.947  1.00  0.00    -0.334 N 
HETATM    5  C9  UNL     1      -3.962   9.609   9.814  1.00  0.00     0.318 C 
HETATM    6  O4  UNL     1      -2.999  10.129   9.168  1.00  0.00    -0.247 OA
HETATM    7  N3  UNL     1      -4.882  10.498  10.401  1.00  0.00    -0.338 N 
ATOM      8  H3  UNL     1      -5.663  10.103  10.925  1.00  0.00     0.164 HD
HETATM    9  C13 UNL     1      -5.237   7.721  10.696  1.00  0.00     0.128 C 
HETATM   10  C14 UNL     1      -5.333   6.229  10.510  1.00  0.00     0.034 C 
ENDROOT
BRANCH   1  11
HETATM   11  C5  UNL     1      -4.189   4.109  10.779  1.00  0.00     0.224 C 
HETATM   12  N1  UNL     1      -4.455   3.257  11.871  1.00  0.00    -0.352 N 
HETATM   13  C4  UNL     1      -4.562   3.826  13.187  1.00  0.00     0.126 C 
HETATM   14  C15 UNL     1      -4.609   1.837  11.612  1.00  0.00     0.126 C 
HETATM   15  C3  UNL     1      -3.953   2.925  14.247  1.00  0.00     0.035 C 
HETATM   16  C2  UNL     1      -4.610   1.555  14.039  1.00  0.00     0.090 C 
HETATM   17  C16 UNL     1      -4.063   1.008  12.753  1.00  0.00     0.035 C 
HETATM   18  O3  UNL     1      -4.090   3.570   9.621  1.00  0.00    -0.273 OA
BRANCH  16  19
HETATM   19  C1  UNL     1      -4.343   0.713  15.203  1.00  0.00     0.177 C 
HETATM   20  O1  UNL     1      -4.802  -0.450  15.295  1.00  0.00    -0.648 OA
HETATM   21  O2  UNL     1      -3.567   1.191  16.240  1.00  0.00    -0.648 OA
ENDBRANCH  16  19
ENDBRANCH   1  11
BRANCH   7  22
HETATM   22  C10 UNL     1      -4.787  11.937  10.307  1.00  0.00     0.086 A 
HETATM   23  C11 UNL     1      -5.419  12.620   9.152  1.00  0.00     0.027 A 
HETATM   24  C12 UNL     1      -6.142  12.644  10.496  1.00  0.00     0.027 A 
ENDBRANCH   7  22
TORSDOF 3
ENDMDL
MODEL 5
REMARK VINA RESULT: -7.111244397      3.503      8.661
REMARK  3 active torsions:
REMARK  status: ('A' for Active; 'I' for Inactive)
REMARK    1  A    between atoms: C1_2  and  C2_4 
REMARK       I    between atoms: N1_7  and  C5_8 
REMARK    2  A    between atoms: C5_8  and  C6_10 
REMARK       I    between atoms: N2_13  and  C9_14 
REMARK       I    between atoms: C9_14  and  N3_16 
REMARK    3  A    between atoms: N3_16  and  C10_18 
ROOT
HETATM    1  C6  UNL     1      -3.111   4.107  12.270  1.00  0.00     0.081 C 
HETATM    2  C7  UNL     1      -3.450   4.399  10.829  1.00  0.00     0.034 C 
HETATM    3  C8  UNL     1      -2.327   4.818   9.979  1.00  0.00     0.128 C 
HETATM    4  N2  UNL     1      -1.016   4.770  10.572  1.00  0.00    -0.334 N 
HETATM    5  C9  UNL     1       0.092   4.715   9.685  1.00  0.00     0.318 C 
HETATM    6  O4  UNL     1      -0.047   4.706   8.422  1.00  0.00    -0.247 OA
HETATM    7  N3  UNL     1       1.410   4.665  10.176  1.00  0.00    -0.338 N 
ATOM      8  H3  UNL     1       1.546   4.670  11.188  1.00  0.00     0.164 HD
HETATM    9  C13 UNL     1      -0.750   4.775  11.977  1.00  0.00     0.128 C 
HETATM   10  C14 UNL     1      -2.034   5.072  12.708  1.00  0.00     0.034 C 
ENDROOT
BRANCH   1  11
HETATM   11  C5  UNL     1      -4.316   4.354  13.102  1.00  0.00     0.224 C 
HETATM   12  N1  UNL     1      -4.688   3.617  14.245  1.00  0.00    -0.352 N 
HETATM   13  C4  UNL     1      -3.861   2.519  14.665  1.00  0.00     0.126 C 
HETATM   14  C15 UNL     1      -5.898   4.004  14.947  1.00  0.00     0.126 C 
HETATM   15  C3  UNL     1      -4.682   1.355  15.188  1.00  0.00     0.035 C 
HETATM   16  C2  UNL     1      -5.608   1.959  16.251  1.00  0.00     0.090 C 
HETATM   17  C16 UNL     1      -6.612   2.799  15.518  1.00  0.00     0.035 C 
HETATM   18  O3  UNL     1      -5.080   5.320  12.747  1.00  0.00    -0.273 OA
BRANCH  16  19
HETATM   19  C1  UNL     1      -6.200   0.882  17.041  1.00  0.00     0.177 C 
HETATM   20  O1  UNL     1      -7.404   0.558  16.916  1.00  0.00    -0.648 OA
HETATM   21  O2  UNL     1      -5.430   0.189  17.955  1.00  0.00    -0.648 OA
ENDBRANCH  16  19
ENDBRANCH   1  11
BRANCH   7  22
HETATM   22  C10 UNL     1       2.584   4.607   9.335  1.00  0.00     0.086 A 
HETATM   23  C11 UNL     1       3.269   5.873   8.977  1.00  0.00     0.027 A 
HETATM   24  C12 UNL     1       3.875   5.003  10.074  1.00  0.00     0.027 A 
ENDBRANCH   7  22
TORSDOF 3
ENDMDL
