MODEL 1
REMARK VINA RESULT: -6.591217496      0.000      0.000
REMARK  4 active torsions:
REMARK  status: ('A' for Active; 'I' for Inactive)
REMARK    1  A    between atoms: N1_1  and  C1_4 
REMARK    2  A    between atoms: C3_8  and  C4_9 
REMARK       I    between atoms: C4_9  and  N3_11 
REMARK    3  A    between atoms: N3_11  and  N4_13 
REMARK    4  A    between atoms: C5_15  and  C6_16 
ROOT
HETATM    1  C4  UNL     1     -15.534 -25.886 -22.391  1.00  0.00     0.288 C 
HETATM    2  O1  UNL     1     -16.556 -26.526 -22.054  1.00  0.00    -0.264 OA
HETATM    3  N3  UNL     1     -15.190 -25.828 -23.762  1.00  0.00    -0.265 N 
ATOM      4  H3  UNL     1     -14.358 -25.308 -24.043  1.00  0.00     0.190 HD
ENDROOT
BRANCH   3   5
HETATM    5  N4  UNL     1     -15.951 -26.457 -24.732  1.00  0.00    -0.307 N 
HETATM    6  C5  UNL     1     -15.480 -27.199 -25.659  1.00  0.00     0.138 C 
ATOM      7  H4  UNL     1     -16.961 -26.319 -24.705  1.00  0.00     0.186 HD
BRANCH   6   8
HETATM    8  C6  UNL     1     -16.380 -27.806 -26.620  1.00  0.00     0.064 A 
HETATM    9  C7  UNL     1     -15.902 -28.318 -27.807  1.00  0.00     0.118 A 
HETATM   10  N5  UNL     1     -16.810 -28.871 -28.657  1.00  0.00    -0.372 N 
HETATM   11  C8  UNL     1     -18.123 -28.921 -28.361  1.00  0.00     0.104 A 
ATOM     12  H5  UNL     1     -16.487 -29.260 -29.544  1.00  0.00     0.164 HD
HETATM   13  C9  UNL     1     -18.589 -28.410 -27.181  1.00  0.00     0.105 A 
HETATM   14  N6  UNL     1     -17.691 -27.863 -26.339  1.00  0.00    -0.362 N 
ATOM     15  H6  UNL     1     -18.021 -27.476 -25.454  1.00  0.00     0.165 HD
ENDBRANCH   6   8
ENDBRANCH   3   5
BRANCH   1  16
HETATM   16  C3  UNL     1     -14.753 -25.235 -21.350  1.00  0.00     0.134 A 
HETATM   17  C2  UNL     1     -14.514 -23.886 -21.187  1.00  0.00     0.142 A 
HETATM   18  N2  UNL     1     -13.749 -23.716 -20.103  1.00  0.00    -0.200 N 
HETATM   19  C1  UNL     1     -13.485 -24.921 -19.559  1.00  0.00     0.676 A 
ATOM     20  H2  UNL     1     -13.418 -22.820 -19.746  1.00  0.00     0.183 HD
HETATM   21  N7  UNL     1     -14.102 -25.827 -20.329  1.00  0.00    -0.185 N 
ATOM     22  H7  UNL     1     -14.081 -26.833 -20.164  1.00  0.00     0.184 HD
BRANCH  19  23
HETATM   23  N1  UNL     1     -12.764 -25.143 -18.486  1.00  0.00    -0.234 N 
ATOM     24  H12 UNL     1     -11.943 -24.625 -18.171  1.00  0.00     0.174 HD
ATOM     25  H11 UNL     1     -12.921 -25.879 -17.798  1.00  0.00     0.174 HD
ENDBRANCH  19  23
ENDBRANCH   1  16
TORSDOF 4
ENDMDL
MODEL 2
REMARK VINA RESULT: -6.538762946      4.435      5.346
REMARK  4 active torsions:
REMARK  status: ('A' for Active; 'I' for Inactive)
REMARK    1  A    between atoms: N1_1  and  C1_4 
REMARK    2  A    between atoms: C3_8  and  C4_9 
REMARK       I    between atoms: C4_9  and  N3_11 
REMARK    3  A    between atoms: N3_11  and  N4_13 
REMARK    4  A    between atoms: C5_15  and  C6_16 
ROOT
HETATM    1  C4  UNL     1     -14.121 -27.997 -26.706  1.00  0.00     0.288 C 
HETATM    2  O1  UNL     1     -14.626 -28.798 -27.525  1.00  0.00    -0.264 OA
HETATM    3  N3  UNL     1     -14.982 -27.182 -25.933  1.00  0.00    -0.265 N 
ATOM      4  H3  UNL     1     -14.577 -26.528 -25.263  1.00  0.00     0.190 HD
ENDROOT
BRANCH   3   5
HETATM    5  N4  UNL     1     -16.359 -27.249 -26.062  1.00  0.00    -0.307 N 
HETATM    6  C5  UNL     1     -17.190 -27.010 -25.122  1.00  0.00     0.138 C 
ATOM      7  H4  UNL     1     -16.737 -27.509 -26.972  1.00  0.00     0.186 HD
BRANCH   6   8
HETATM    8  C6  UNL     1     -18.613 -27.113 -25.379  1.00  0.00     0.064 A 
HETATM    9  C7  UNL     1     -19.091 -27.960 -26.356  1.00  0.00     0.118 A 
HETATM   10  N5  UNL     1     -20.441 -28.000 -26.538  1.00  0.00    -0.372 N 
HETATM   11  C8  UNL     1     -21.280 -27.249 -25.801  1.00  0.00     0.104 A 
ATOM     12  H5  UNL     1     -20.826 -28.618 -27.253  1.00  0.00     0.164 HD
HETATM   13  C9  UNL     1     -20.797 -26.411 -24.834  1.00  0.00     0.105 A 
HETATM   14  N6  UNL     1     -19.462 -26.370 -24.653  1.00  0.00    -0.362 N 
ATOM     15  H6  UNL     1     -19.084 -25.751 -23.937  1.00  0.00     0.165 HD
ENDBRANCH   6   8
ENDBRANCH   3   5
BRANCH   1  16
HETATM   16  C3  UNL     1     -12.671 -27.948 -26.592  1.00  0.00     0.134 A 
HETATM   17  C2  UNL     1     -11.750 -27.696 -27.587  1.00  0.00     0.142 A 
HETATM   18  N2  UNL     1     -10.523 -27.744 -27.055  1.00  0.00    -0.200 N 
HETATM   19  C1  UNL     1     -10.626 -28.023 -25.740  1.00  0.00     0.676 A 
ATOM     20  H2  UNL     1      -9.651 -27.594 -27.562  1.00  0.00     0.183 HD
HETATM   21  N7  UNL     1     -11.934 -28.143 -25.480  1.00  0.00    -0.185 N 
ATOM     22  H7  UNL     1     -12.322 -28.354 -24.560  1.00  0.00     0.184 HD
BRANCH  19  23
HETATM   23  N1  UNL     1      -9.629 -28.148 -24.897  1.00  0.00    -0.234 N 
ATOM     24  H12 UNL     1      -9.021 -27.411 -24.541  1.00  0.00     0.174 HD
ATOM     25  H11 UNL     1      -9.310 -29.017 -24.468  1.00  0.00     0.174 HD
ENDBRANCH  19  23
ENDBRANCH   1  16
TORSDOF 4
ENDMDL
MODEL 3
REMARK VINA RESULT: -6.487834965      4.415      5.440
REMARK  4 active torsions:
REMARK  status: ('A' for Active; 'I' for Inactive)
REMARK    1  A    between atoms: N1_1  and  C1_4 
REMARK    2  A    between atoms: C3_8  and  C4_9 
REMARK       I    between atoms: C4_9  and  N3_11 
REMARK    3  A    between atoms: N3_11  and  N4_13 
REMARK    4  A    between atoms: C5_15  and  C6_16 
ROOT
HETATM    1  C4  UNL     1     -14.131 -27.980 -26.636  1.00  0.00     0.288 C 
HETATM    2  O1  UNL     1     -14.662 -28.802 -27.416  1.00  0.00    -0.264 OA
HETATM    3  N3  UNL     1     -14.967 -27.138 -25.864  1.00  0.00    -0.265 N 
ATOM      4  H3  UNL     1     -14.541 -26.466 -25.226  1.00  0.00     0.190 HD
ENDROOT
BRANCH   3   5
HETATM    5  N4  UNL     1     -16.347 -27.204 -25.952  1.00  0.00    -0.307 N 
HETATM    6  C5  UNL     1     -17.152 -26.873 -25.016  1.00  0.00     0.138 C 
ATOM      7  H4  UNL     1     -16.751 -27.539 -26.826  1.00  0.00     0.186 HD
BRANCH   6   8
HETATM    8  C6  UNL     1     -18.582 -26.985 -25.227  1.00  0.00     0.064 A 
HETATM    9  C7  UNL     1     -19.468 -26.313 -24.413  1.00  0.00     0.118 A 
HETATM   10  N5  UNL     1     -20.796 -26.468 -24.675  1.00  0.00    -0.372 N 
HETATM   11  C8  UNL     1     -21.234 -27.245 -25.684  1.00  0.00     0.104 A 
ATOM     12  H5  UNL     1     -21.477 -25.983 -24.091  1.00  0.00     0.164 HD
HETATM   13  C9  UNL     1     -20.348 -27.908 -26.487  1.00  0.00     0.105 A 
HETATM   14  N6  UNL     1     -19.035 -27.755 -26.229  1.00  0.00    -0.362 N 
ATOM     15  H6  UNL     1     -18.359 -28.243 -26.817  1.00  0.00     0.165 HD
ENDBRANCH   6   8
ENDBRANCH   3   5
BRANCH   1  16
HETATM   16  C3  UNL     1     -12.679 -27.934 -26.564  1.00  0.00     0.134 A 
HETATM   17  C2  UNL     1     -11.787 -27.664 -27.581  1.00  0.00     0.142 A 
HETATM   18  N2  UNL     1     -10.545 -27.722 -27.087  1.00  0.00    -0.200 N 
HETATM   19  C1  UNL     1     -10.609 -28.025 -25.775  1.00  0.00     0.676 A 
ATOM     20  H2  UNL     1      -9.689 -27.564 -27.618  1.00  0.00     0.183 HD
HETATM   21  N7  UNL     1     -11.909 -28.148 -25.478  1.00  0.00    -0.185 N 
ATOM     22  H7  UNL     1     -12.269 -28.375 -24.551  1.00  0.00     0.184 HD
BRANCH  19  23
HETATM   23  N1  UNL     1      -9.587 -28.165 -24.965  1.00  0.00    -0.234 N 
ATOM     24  H12 UNL     1      -8.888 -27.464 -24.719  1.00  0.00     0.174 HD
ATOM     25  H11 UNL     1      -9.338 -29.012 -24.454  1.00  0.00     0.174 HD
ENDBRANCH  19  23
ENDBRANCH   1  16
TORSDOF 4
ENDMDL
MODEL 4
REMARK VINA RESULT: -6.466190005      3.872      6.121
REMARK  4 active torsions:
REMARK  status: ('A' for Active; 'I' for Inactive)
REMARK    1  A    between atoms: N1_1  and  C1_4 
REMARK    2  A    between atoms: C3_8  and  C4_9 
REMARK       I    between atoms: C4_9  and  N3_11 
REMARK    3  A    between atoms: N3_11  and  N4_13 
REMARK    4  A    between atoms: C5_15  and  C6_16 
ROOT
HETATM    1  C4  UNL     1     -14.126 -27.117 -25.582  1.00  0.00     0.288 C 
HETATM    2  O1  UNL     1     -15.061 -27.334 -26.386  1.00  0.00    -0.264 OA
HETATM    3  N3  UNL     1     -14.343 -26.214 -24.515  1.00  0.00    -0.265 N 
ATOM      4  H3  UNL     1     -13.586 -26.033 -23.856  1.00  0.00     0.190 HD
ENDROOT
BRANCH   3   5
HETATM    5  N4  UNL     1     -15.557 -25.571 -24.340  1.00  0.00    -0.307 N 
HETATM    6  C5  UNL     1     -16.003 -25.153 -23.218  1.00  0.00     0.138 C 
ATOM      7  H4  UNL     1     -16.135 -25.419 -25.165  1.00  0.00     0.186 HD
BRANCH   6   8
HETATM    8  C6  UNL     1     -17.292 -24.491 -23.162  1.00  0.00     0.064 A 
HETATM    9  C7  UNL     1     -17.433 -23.279 -22.518  1.00  0.00     0.118 A 
HETATM   10  N5  UNL     1     -18.675 -22.721 -22.508  1.00  0.00    -0.372 N 
HETATM   11  C8  UNL     1     -19.728 -23.318 -23.098  1.00  0.00     0.104 A 
ATOM     12  H5  UNL     1     -18.812 -21.824 -22.040  1.00  0.00     0.164 HD
HETATM   13  C9  UNL     1     -19.579 -24.520 -23.734  1.00  0.00     0.105 A 
HETATM   14  N6  UNL     1     -18.351 -25.073 -23.745  1.00  0.00    -0.362 N 
ATOM     15  H6  UNL     1     -18.221 -25.970 -24.214  1.00  0.00     0.165 HD
ENDBRANCH   6   8
ENDBRANCH   3   5
BRANCH   1  16
HETATM   16  C3  UNL     1     -12.862 -27.807 -25.791  1.00  0.00     0.134 A 
HETATM   17  C2  UNL     1     -12.647 -29.006 -26.438  1.00  0.00     0.142 A 
HETATM   18  N2  UNL     1     -11.338 -29.280 -26.404  1.00  0.00    -0.200 N 
HETATM   19  C1  UNL     1     -10.699 -28.289 -25.750  1.00  0.00     0.676 A 
ATOM     20  H2  UNL     1     -10.894 -30.105 -26.808  1.00  0.00     0.183 HD
HETATM   21  N7  UNL     1     -11.639 -27.408 -25.387  1.00  0.00    -0.185 N 
ATOM     22  H7  UNL     1     -11.454 -26.547 -24.873  1.00  0.00     0.184 HD
BRANCH  19  23
HETATM   23  N1  UNL     1      -9.409 -28.220 -25.525  1.00  0.00    -0.234 N 
ATOM     24  H12 UNL     1      -8.858 -27.387 -25.317  1.00  0.00     0.174 HD
ATOM     25  H11 UNL     1      -8.755 -29.003 -25.526  1.00  0.00     0.174 HD
ENDBRANCH  19  23
ENDBRANCH   1  16
TORSDOF 4
ENDMDL
MODEL 5
REMARK VINA RESULT: -6.457161301      3.945      5.998
REMARK  4 active torsions:
REMARK  status: ('A' for Active; 'I' for Inactive)
REMARK    1  A    between atoms: N1_1  and  C1_4 
REMARK    2  A    between atoms: C3_8  and  C4_9 
REMARK       I    between atoms: C4_9  and  N3_11 
REMARK    3  A    between atoms: N3_11  and  N4_13 
REMARK    4  A    between atoms: C5_15  and  C6_16 
ROOT
HETATM    1  C4  UNL     1     -14.281 -27.239 -25.639  1.00  0.00     0.288 C 
HETATM    2  O1  UNL     1     -15.101 -27.335 -26.580  1.00  0.00    -0.264 OA
HETATM    3  N3  UNL     1     -14.659 -26.525 -24.478  1.00  0.00    -0.265 N 
ATOM      4  H3  UNL     1     -13.996 -26.443 -23.707  1.00  0.00     0.190 HD
ENDROOT
BRANCH   3   5
HETATM    5  N4  UNL     1     -15.907 -25.936 -24.358  1.00  0.00    -0.307 N 
HETATM    6  C5  UNL     1     -16.139 -24.844 -23.736  1.00  0.00     0.138 C 
ATOM      7  H4  UNL     1     -16.697 -26.407 -24.798  1.00  0.00     0.186 HD
BRANCH   6   8
HETATM    8  C6  UNL     1     -17.491 -24.325 -23.681  1.00  0.00     0.064 A 
HETATM    9  C7  UNL     1     -18.575 -25.175 -23.744  1.00  0.00     0.118 A 
HETATM   10  N5  UNL     1     -19.813 -24.611 -23.686  1.00  0.00    -0.372 N 
HETATM   11  C8  UNL     1     -19.983 -23.280 -23.572  1.00  0.00     0.104 A 
ATOM     12  H5  UNL     1     -20.635 -25.214 -23.730  1.00  0.00     0.164 HD
HETATM   13  C9  UNL     1     -18.903 -22.444 -23.510  1.00  0.00     0.105 A 
HETATM   14  N6  UNL     1     -17.677 -23.001 -23.567  1.00  0.00    -0.362 N 
ATOM     15  H6  UNL     1     -16.860 -22.392 -23.523  1.00  0.00     0.165 HD
ENDBRANCH   6   8
ENDBRANCH   3   5
BRANCH   1  16
HETATM   16  C3  UNL     1     -12.978 -27.868 -25.792  1.00  0.00     0.134 A 
HETATM   17  C2  UNL     1     -12.668 -29.020 -26.485  1.00  0.00     0.142 A 
HETATM   18  N2  UNL     1     -11.354 -29.245 -26.372  1.00  0.00    -0.200 N 
HETATM   19  C1  UNL     1     -10.804 -28.269 -25.622  1.00  0.00     0.676 A 
ATOM     20  H2  UNL     1     -10.850 -30.029 -26.786  1.00  0.00     0.183 HD
HETATM   21  N7  UNL     1     -11.803 -27.446 -25.281  1.00  0.00    -0.185 N 
ATOM     22  H7  UNL     1     -11.691 -26.608 -24.711  1.00  0.00     0.184 HD
BRANCH  19  23
HETATM   23  N1  UNL     1      -9.537 -28.163 -25.301  1.00  0.00    -0.234 N 
ATOM     24  H12 UNL     1      -8.729 -28.331 -25.900  1.00  0.00     0.174 HD
ATOM     25  H11 UNL     1      -9.169 -27.894 -24.389  1.00  0.00     0.174 HD
ENDBRANCH  19  23
ENDBRANCH   1  16
TORSDOF 4
ENDMDL
