MODEL 1
REMARK VINA RESULT: -8.228930936      0.000      0.000
REMARK  4 active torsions:
REMARK  status: ('A' for Active; 'I' for Inactive)
REMARK    1  A    between atoms: N1_1  and  C1_4 
REMARK    2  A    between atoms: C2_9  and  C3_10 
REMARK    3  A    between atoms: C3_10  and  C4_11 
REMARK       I    between atoms: C4_11  and  N4_13 
REMARK    4  A    between atoms: N4_13  and  C5_15 
ROOT
HETATM    1  C1  UNL     1     -13.405 -25.004 -19.432  1.00  0.00     0.705 A 
HETATM    2  N2  UNL     1     -13.634 -23.797 -19.991  1.00  0.00    -0.130 N 
ATOM      3  H2  UNL     1     -13.157 -22.977 -19.617  1.00  0.00     0.205 HD
HETATM    4  N3  UNL     1     -14.474 -23.649 -21.027  1.00  0.00    -0.273 N 
ATOM      5  H3  UNL     1     -14.636 -22.730 -21.438  1.00  0.00     0.189 HD
HETATM    6  C2  UNL     1     -15.095 -24.733 -21.509  1.00  0.00     0.120 A 
HETATM    7  N6  UNL     1     -14.856 -25.920 -20.943  1.00  0.00    -0.273 N 
ATOM      8  H6  UNL     1     -15.332 -26.743 -21.314  1.00  0.00     0.189 HD
HETATM    9  N7  UNL     1     -14.025 -26.074 -19.917  1.00  0.00    -0.130 N 
ATOM     10  H7  UNL     1     -13.867 -26.996 -19.511  1.00  0.00     0.205 HD
ENDROOT
BRANCH   6  11
HETATM   11  C3  UNL     1     -16.028 -24.629 -22.645  1.00  0.00     0.182 C 
BRANCH  11  12
HETATM   12  C4  UNL     1     -15.326 -24.940 -23.936  1.00  0.00     0.229 C 
HETATM   13  O1  UNL     1     -14.971 -23.976 -24.625  1.00  0.00    -0.273 OA
HETATM   14  N4  UNL     1     -15.115 -26.280 -24.284  1.00  0.00    -0.325 N 
ATOM     15  H4  UNL     1     -15.464 -26.967 -23.615  1.00  0.00     0.169 HD
BRANCH  14  16
HETATM   16  C5  UNL     1     -14.489 -26.811 -25.427  1.00  0.00     0.059 A 
HETATM   17  C6  UNL     1     -13.142 -26.687 -25.726  1.00  0.00     0.031 A 
HETATM   18  C7  UNL     1     -12.584 -27.235 -26.874  1.00  0.00     0.002 A 
HETATM   19  C8  UNL     1     -13.422 -27.918 -27.723  1.00  0.00     0.002 A 
HETATM   20  C9  UNL     1     -14.766 -28.062 -27.459  1.00  0.00     0.029 A 
HETATM   21  C10 UNL     1     -15.308 -27.517 -26.323  1.00  0.00     0.073 A 
HETATM   22  N5  UNL     1     -16.708 -27.681 -26.074  1.00  0.00    -0.100 NA
ENDBRANCH  14  16
ENDBRANCH  11  12
ENDBRANCH   6  11
BRANCH   1  23
HETATM   23  N1  UNL     1     -12.601 -25.132 -18.446  1.00  0.00    -0.232 N 
ATOM     24  H12 UNL     1     -11.757 -25.695 -18.554  1.00  0.00     0.174 HD
ATOM     25  H11 UNL     1     -12.790 -24.681 -17.551  1.00  0.00     0.174 HD
ENDBRANCH   1  23
TORSDOF 4
ENDMDL
MODEL 2
REMARK VINA RESULT: -8.223402131      3.813      6.192
REMARK  4 active torsions:
REMARK  status: ('A' for Active; 'I' for Inactive)
REMARK    1  A    between atoms: N1_1  and  C1_4 
REMARK    2  A    between atoms: C2_9  and  C3_10 
REMARK    3  A    between atoms: C3_10  and  C4_11 
REMARK       I    between atoms: C4_11  and  N4_13 
REMARK    4  A    between atoms: N4_13  and  C5_15 
ROOT
HETATM    1  C1  UNL     1     -10.612 -28.271 -25.855  1.00  0.00     0.705 A 
HETATM    2  N2  UNL     1     -10.639 -27.446 -26.922  1.00  0.00    -0.130 N 
ATOM      3  H2  UNL     1      -9.931 -26.717 -27.005  1.00  0.00     0.205 HD
HETATM    4  N3  UNL     1     -11.575 -27.561 -27.876  1.00  0.00    -0.273 N 
ATOM      5  H3  UNL     1     -11.581 -26.929 -28.678  1.00  0.00     0.189 HD
HETATM    6  C2  UNL     1     -12.500 -28.521 -27.756  1.00  0.00     0.120 A 
HETATM    7  N6  UNL     1     -12.458 -29.329 -26.692  1.00  0.00    -0.273 N 
ATOM      8  H6  UNL     1     -13.165 -30.059 -26.605  1.00  0.00     0.189 HD
HETATM    9  N7  UNL     1     -11.534 -29.222 -25.743  1.00  0.00    -0.130 N 
ATOM     10  H7  UNL     1     -11.532 -29.857 -24.945  1.00  0.00     0.205 HD
ENDROOT
BRANCH   6  11
HETATM   11  C3  UNL     1     -13.551 -28.693 -28.774  1.00  0.00     0.182 C 
BRANCH  11  12
HETATM   12  C4  UNL     1     -14.911 -28.485 -28.171  1.00  0.00     0.229 C 
HETATM   13  O1  UNL     1     -15.868 -29.007 -28.756  1.00  0.00    -0.273 OA
HETATM   14  N4  UNL     1     -15.021 -27.726 -26.999  1.00  0.00    -0.325 N 
ATOM     15  H4  UNL     1     -14.143 -27.359 -26.630  1.00  0.00     0.169 HD
BRANCH  14  16
HETATM   16  C5  UNL     1     -16.173 -27.400 -26.259  1.00  0.00     0.059 A 
HETATM   17  C6  UNL     1     -17.454 -27.841 -26.547  1.00  0.00     0.031 A 
HETATM   18  C7  UNL     1     -18.552 -27.482 -25.775  1.00  0.00     0.002 A 
HETATM   19  C8  UNL     1     -18.328 -26.660 -24.696  1.00  0.00     0.002 A 
HETATM   20  C9  UNL     1     -17.069 -26.202 -24.379  1.00  0.00     0.029 A 
HETATM   21  C10 UNL     1     -15.991 -26.562 -25.147  1.00  0.00     0.073 A 
HETATM   22  N5  UNL     1     -14.693 -26.071 -24.795  1.00  0.00    -0.100 NA
ENDBRANCH  14  16
ENDBRANCH  11  12
ENDBRANCH   6  11
BRANCH   1  23
HETATM   23  N1  UNL     1      -9.714 -28.152 -24.952  1.00  0.00    -0.232 N 
ATOM     24  H12 UNL     1      -9.128 -28.954 -24.716  1.00  0.00     0.174 HD
ATOM     25  H11 UNL     1      -9.573 -27.269 -24.462  1.00  0.00     0.174 HD
ENDBRANCH   1  23
TORSDOF 4
ENDMDL
MODEL 3
REMARK VINA RESULT: -8.192501381      3.822      6.276
REMARK  4 active torsions:
REMARK  status: ('A' for Active; 'I' for Inactive)
REMARK    1  A    between atoms: N1_1  and  C1_4 
REMARK    2  A    between atoms: C2_9  and  C3_10 
REMARK    3  A    between atoms: C3_10  and  C4_11 
REMARK       I    between atoms: C4_11  and  N4_13 
REMARK    4  A    between atoms: N4_13  and  C5_15 
ROOT
HETATM    1  C1  UNL     1     -10.630 -28.284 -25.864  1.00  0.00     0.705 A 
HETATM    2  N2  UNL     1     -11.597 -29.215 -25.723  1.00  0.00    -0.130 N 
ATOM      3  H2  UNL     1     -11.587 -29.823 -24.904  1.00  0.00     0.205 HD
HETATM    4  N3  UNL     1     -12.571 -29.361 -26.634  1.00  0.00    -0.273 N 
ATOM      5  H3  UNL     1     -13.295 -30.069 -26.512  1.00  0.00     0.189 HD
HETATM    6  C2  UNL     1     -12.574 -28.558 -27.705  1.00  0.00     0.120 A 
HETATM    7  N6  UNL     1     -11.608 -27.642 -27.828  1.00  0.00    -0.273 N 
ATOM      8  H6  UNL     1     -11.615 -27.032 -28.646  1.00  0.00     0.189 HD
HETATM    9  N7  UNL     1     -10.640 -27.491 -26.930  1.00  0.00    -0.130 N 
ATOM     10  H7  UNL     1      -9.920 -26.780 -27.057  1.00  0.00     0.205 HD
ENDROOT
BRANCH   6  11
HETATM   11  C3  UNL     1     -13.620 -28.674 -28.737  1.00  0.00     0.182 C 
BRANCH  11  12
HETATM   12  C4  UNL     1     -14.983 -28.502 -28.130  1.00  0.00     0.229 C 
HETATM   13  O1  UNL     1     -15.922 -29.079 -28.691  1.00  0.00    -0.273 OA
HETATM   14  N4  UNL     1     -15.115 -27.711 -26.981  1.00  0.00    -0.325 N 
ATOM     15  H4  UNL     1     -14.250 -27.299 -26.631  1.00  0.00     0.169 HD
BRANCH  14  16
HETATM   16  C5  UNL     1     -16.274 -27.408 -26.243  1.00  0.00     0.059 A 
HETATM   17  C6  UNL     1     -17.549 -27.862 -26.541  1.00  0.00     0.031 A 
HETATM   18  C7  UNL     1     -18.654 -27.525 -25.771  1.00  0.00     0.002 A 
HETATM   19  C8  UNL     1     -18.446 -26.711 -24.683  1.00  0.00     0.002 A 
HETATM   20  C9  UNL     1     -17.194 -26.240 -24.356  1.00  0.00     0.029 A 
HETATM   21  C10 UNL     1     -16.108 -26.578 -25.122  1.00  0.00     0.073 A 
HETATM   22  N5  UNL     1     -14.818 -26.073 -24.760  1.00  0.00    -0.100 NA
ENDBRANCH  14  16
ENDBRANCH  11  12
ENDBRANCH   6  11
BRANCH   1  23
HETATM   23  N1  UNL     1      -9.707 -28.154 -24.988  1.00  0.00    -0.232 N 
ATOM     24  H12 UNL     1      -9.956 -27.932 -24.024  1.00  0.00     0.174 HD
ATOM     25  H11 UNL     1      -8.725 -28.268 -25.238  1.00  0.00     0.174 HD
ENDBRANCH   1  23
TORSDOF 4
ENDMDL
MODEL 4
REMARK VINA RESULT: -8.112500024      4.861      6.235
REMARK  4 active torsions:
REMARK  status: ('A' for Active; 'I' for Inactive)
REMARK    1  A    between atoms: N1_1  and  C1_4 
REMARK    2  A    between atoms: C2_9  and  C3_10 
REMARK    3  A    between atoms: C3_10  and  C4_11 
REMARK       I    between atoms: C4_11  and  N4_13 
REMARK    4  A    between atoms: N4_13  and  C5_15 
ROOT
HETATM    1  C1  UNL     1     -10.192 -29.311 -25.356  1.00  0.00     0.705 A 
HETATM    2  N2  UNL     1      -9.807 -28.226 -26.061  1.00  0.00    -0.130 N 
ATOM      3  H2  UNL     1      -8.880 -27.831 -25.899  1.00  0.00     0.205 HD
HETATM    4  N3  UNL     1     -10.612 -27.654 -26.968  1.00  0.00    -0.273 N 
ATOM      5  H3  UNL     1     -10.306 -26.834 -27.492  1.00  0.00     0.189 HD
HETATM    6  C2  UNL     1     -11.826 -28.180 -27.171  1.00  0.00     0.120 A 
HETATM    7  N6  UNL     1     -12.191 -29.255 -26.465  1.00  0.00    -0.273 N 
ATOM      8  H6  UNL     1     -13.117 -29.652 -26.623  1.00  0.00     0.189 HD
HETATM    9  N7  UNL     1     -11.398 -29.828 -25.565  1.00  0.00    -0.130 N 
ATOM     10  H7  UNL     1     -11.710 -30.647 -25.045  1.00  0.00     0.205 HD
ENDROOT
BRANCH   6  11
HETATM   11  C3  UNL     1     -12.752 -27.592 -28.155  1.00  0.00     0.182 C 
BRANCH  11  12
HETATM   12  C4  UNL     1     -14.057 -28.335 -28.163  1.00  0.00     0.229 C 
HETATM   13  O1  UNL     1     -14.118 -29.351 -28.866  1.00  0.00    -0.273 OA
HETATM   14  N4  UNL     1     -15.116 -27.846 -27.388  1.00  0.00    -0.325 N 
ATOM     15  H4  UNL     1     -14.918 -26.997 -26.859  1.00  0.00     0.169 HD
BRANCH  14  16
HETATM   16  C5  UNL     1     -16.416 -28.365 -27.236  1.00  0.00     0.059 A 
HETATM   17  C6  UNL     1     -17.265 -28.701 -28.278  1.00  0.00     0.031 A 
HETATM   18  C7  UNL     1     -18.539 -29.209 -28.061  1.00  0.00     0.002 A 
HETATM   19  C8  UNL     1     -18.944 -29.373 -26.758  1.00  0.00     0.002 A 
HETATM   20  C9  UNL     1     -18.129 -29.049 -25.697  1.00  0.00     0.029 A 
HETATM   21  C10 UNL     1     -16.872 -28.549 -25.921  1.00  0.00     0.073 A 
HETATM   22  N5  UNL     1     -16.045 -28.221 -24.799  1.00  0.00    -0.100 NA
ENDBRANCH  14  16
ENDBRANCH  11  12
ENDBRANCH   6  11
BRANCH   1  23
HETATM   23  N1  UNL     1      -9.415 -29.848 -24.495  1.00  0.00    -0.232 N 
ATOM     24  H12 UNL     1      -8.704 -30.513 -24.802  1.00  0.00     0.174 HD
ATOM     25  H11 UNL     1      -9.493 -29.623 -23.503  1.00  0.00     0.174 HD
ENDBRANCH   1  23
TORSDOF 4
ENDMDL
MODEL 5
REMARK VINA RESULT: -7.952560134      4.649      6.099
REMARK  4 active torsions:
REMARK  status: ('A' for Active; 'I' for Inactive)
REMARK    1  A    between atoms: N1_1  and  C1_4 
REMARK    2  A    between atoms: C2_9  and  C3_10 
REMARK    3  A    between atoms: C3_10  and  C4_11 
REMARK       I    between atoms: C4_11  and  N4_13 
REMARK    4  A    between atoms: N4_13  and  C5_15 
ROOT
HETATM    1  C1  UNL     1     -10.370 -28.183 -25.264  1.00  0.00     0.705 A 
HETATM    2  N2  UNL     1     -10.568 -29.219 -26.106  1.00  0.00    -0.130 N 
ATOM      3  H2  UNL     1      -9.891 -29.982 -26.123  1.00  0.00     0.205 HD
HETATM    4  N3  UNL     1     -11.631 -29.270 -26.921  1.00  0.00    -0.273 N 
ATOM      5  H3  UNL     1     -11.767 -30.061 -27.551  1.00  0.00     0.189 HD
HETATM    6  C2  UNL     1     -12.513 -28.262 -26.891  1.00  0.00     0.120 A 
HETATM    7  N6  UNL     1     -12.300 -27.244 -26.051  1.00  0.00    -0.273 N 
ATOM      8  H6  UNL     1     -12.974 -26.479 -26.032  1.00  0.00     0.189 HD
HETATM    9  N7  UNL     1     -11.249 -27.187 -25.240  1.00  0.00    -0.130 N 
ATOM     10  H7  UNL     1     -11.121 -26.394 -24.612  1.00  0.00     0.205 HD
ENDROOT
BRANCH   6  11
HETATM   11  C3  UNL     1     -13.699 -28.266 -27.765  1.00  0.00     0.182 C 
BRANCH  11  12
HETATM   12  C4  UNL     1     -14.947 -28.494 -26.961  1.00  0.00     0.229 C 
HETATM   13  O1  UNL     1     -14.811 -29.042 -25.861  1.00  0.00    -0.273 OA
HETATM   14  N4  UNL     1     -16.176 -28.081 -27.491  1.00  0.00    -0.325 N 
ATOM     15  H4  UNL     1     -16.132 -27.643 -28.411  1.00  0.00     0.169 HD
BRANCH  14  16
HETATM   16  C5  UNL     1     -17.463 -28.186 -26.930  1.00  0.00     0.059 A 
HETATM   17  C6  UNL     1     -17.948 -27.398 -25.899  1.00  0.00     0.031 A 
HETATM   18  C7  UNL     1     -19.231 -27.552 -25.390  1.00  0.00     0.002 A 
HETATM   19  C8  UNL     1     -20.022 -28.529 -25.947  1.00  0.00     0.002 A 
HETATM   20  C9  UNL     1     -19.574 -29.331 -26.972  1.00  0.00     0.029 A 
HETATM   21  C10 UNL     1     -18.306 -29.171 -27.469  1.00  0.00     0.073 A 
HETATM   22  N5  UNL     1     -17.866 -30.019 -28.535  1.00  0.00    -0.100 NA
ENDBRANCH  14  16
ENDBRANCH  11  12
ENDBRANCH   6  11
BRANCH   1  23
HETATM   23  N1  UNL     1      -9.352 -28.146 -24.491  1.00  0.00    -0.232 N 
ATOM     24  H12 UNL     1      -8.500 -27.679 -24.802  1.00  0.00     0.174 HD
ATOM     25  H11 UNL     1      -9.377 -28.576 -23.566  1.00  0.00     0.174 HD
ENDBRANCH   1  23
TORSDOF 4
ENDMDL
