MODEL 1
REMARK VINA RESULT: -7.900570366      0.000      0.000
REMARK  4 active torsions:
REMARK  status: ('A' for Active; 'I' for Inactive)
REMARK    1  A    between atoms: C5_8  and  N3_9 
REMARK       I    between atoms: N3_9  and  C6_11 
REMARK    2  A    between atoms: C6_11  and  C7_13 
REMARK    3  A    between atoms: C8_14  and  N4_15 
REMARK    4  A    between atoms: N4_15  and  C9_17 
ROOT
HETATM    1  C7  UNL     1     -14.093 -28.204 -27.549  1.00  0.00     0.092 C 
HETATM    2  C8  UNL     1     -13.331 -28.944 -26.770  1.00  0.00     0.112 C 
ENDROOT
BRANCH   1   3
HETATM    3  C6  UNL     1     -15.569 -28.257 -27.476  1.00  0.00     0.247 C 
HETATM    4  N3  UNL     1     -16.242 -27.663 -26.400  1.00  0.00    -0.321 N 
ATOM      5  H3  UNL     1     -15.648 -27.211 -25.705  1.00  0.00     0.169 HD
HETATM    6  O1  UNL     1     -16.124 -28.848 -28.413  1.00  0.00    -0.268 OA
BRANCH   4   7
HETATM    7  C5  UNL     1     -17.626 -27.605 -26.149  1.00  0.00     0.074 A 
HETATM    8  C1  UNL     1     -18.117 -26.726 -25.175  1.00  0.00     0.075 A 
HETATM    9  N1  UNL     1     -17.162 -25.916 -24.472  1.00  0.00    -0.100 NA
HETATM   10  C2  UNL     1     -19.455 -26.614 -24.877  1.00  0.00     0.046 A 
HETATM   11  C3  UNL     1     -20.349 -27.393 -25.556  1.00  0.00     0.089 A 
HETATM   12  N2  UNL     1     -19.910 -28.243 -26.492  1.00  0.00    -0.373 N 
HETATM   13  C4  UNL     1     -18.578 -28.351 -26.787  1.00  0.00     0.119 A 
ATOM     14  H2  UNL     1     -20.583 -28.821 -26.995  1.00  0.00     0.164 HD
ENDBRANCH   4   7
ENDBRANCH   1   3
BRANCH   2  15
HETATM   15  N4  UNL     1     -11.929 -28.862 -26.874  1.00  0.00    -0.199 N 
ATOM     16  H4  UNL     1     -11.497 -29.192 -27.736  1.00  0.00     0.183 HD
BRANCH  15  17
HETATM   17  C9  UNL     1     -11.157 -28.402 -25.960  1.00  0.00     0.713 A 
HETATM   18  N5  UNL     1     -11.329 -27.301 -25.201  1.00  0.00    -0.115 N 
HETATM   19  N6  UNL     1     -10.278 -27.230 -24.403  1.00  0.00    -0.213 N 
ATOM     20  H5  UNL     1     -12.115 -26.651 -25.236  1.00  0.00     0.207 HD
HETATM   21  N7  UNL     1      -9.480 -28.230 -24.638  1.00  0.00    -0.213 N 
ATOM     22  H6  UNL     1     -10.117 -26.501 -23.707  1.00  0.00     0.210 HD
HETATM   23  N8  UNL     1     -10.006 -28.960 -25.594  1.00  0.00    -0.115 N 
ATOM     24  H7  UNL     1      -8.597 -28.415 -24.162  1.00  0.00     0.210 HD
ATOM     25  H8  UNL     1      -9.603 -29.809 -25.988  1.00  0.00     0.207 HD
ENDBRANCH  15  17
ENDBRANCH   2  15
TORSDOF 4
ENDMDL
MODEL 2
REMARK VINA RESULT: -7.719919749      2.624      3.068
REMARK  4 active torsions:
REMARK  status: ('A' for Active; 'I' for Inactive)
REMARK    1  A    between atoms: C5_8  and  N3_9 
REMARK       I    between atoms: N3_9  and  C6_11 
REMARK    2  A    between atoms: C6_11  and  C7_13 
REMARK    3  A    between atoms: C8_14  and  N4_15 
REMARK    4  A    between atoms: N4_15  and  C9_17 
ROOT
HETATM    1  C7  UNL     1     -13.767 -27.407 -25.835  1.00  0.00     0.092 C 
HETATM    2  C8  UNL     1     -13.725 -28.507 -26.559  1.00  0.00     0.112 C 
ENDROOT
BRANCH   1   3
HETATM    3  C6  UNL     1     -15.043 -26.844 -25.341  1.00  0.00     0.247 C 
HETATM    4  N3  UNL     1     -15.071 -26.103 -24.153  1.00  0.00    -0.321 N 
ATOM      5  H3  UNL     1     -14.174 -25.991 -23.682  1.00  0.00     0.169 HD
HETATM    6  O1  UNL     1     -16.033 -27.081 -26.047  1.00  0.00    -0.268 OA
BRANCH   4   7
HETATM    7  C5  UNL     1     -16.171 -25.490 -23.522  1.00  0.00     0.074 A 
HETATM    8  C1  UNL     1     -16.264 -24.093 -23.496  1.00  0.00     0.075 A 
HETATM    9  N1  UNL     1     -15.213 -23.347 -24.128  1.00  0.00    -0.100 NA
HETATM   10  C2  UNL     1     -17.309 -23.425 -22.899  1.00  0.00     0.046 A 
HETATM   11  C3  UNL     1     -18.300 -24.152 -22.303  1.00  0.00     0.089 A 
HETATM   12  N2  UNL     1     -18.238 -25.489 -22.311  1.00  0.00    -0.373 N 
HETATM   13  C4  UNL     1     -17.198 -26.150 -22.906  1.00  0.00     0.119 A 
ATOM     14  H2  UNL     1     -18.982 -26.026 -21.864  1.00  0.00     0.164 HD
ENDBRANCH   4   7
ENDBRANCH   1   3
BRANCH   2  15
HETATM   15  N4  UNL     1     -12.488 -29.007 -27.008  1.00  0.00    -0.199 N 
ATOM     16  H4  UNL     1     -12.482 -29.556 -27.866  1.00  0.00     0.183 HD
BRANCH  15  17
HETATM   17  C9  UNL     1     -11.368 -28.820 -26.413  1.00  0.00     0.713 A 
HETATM   18  N5  UNL     1     -10.388 -27.953 -26.737  1.00  0.00    -0.115 N 
HETATM   19  N6  UNL     1      -9.432 -28.118 -25.840  1.00  0.00    -0.213 N 
ATOM     20  H5  UNL     1     -10.384 -27.298 -27.519  1.00  0.00     0.207 HD
HETATM   21  N7  UNL     1      -9.782 -29.039 -24.989  1.00  0.00    -0.213 N 
ATOM     22  H6  UNL     1      -8.552 -27.602 -25.817  1.00  0.00     0.210 HD
HETATM   23  N8  UNL     1     -10.971 -29.480 -25.329  1.00  0.00    -0.115 N 
ATOM     24  H7  UNL     1      -9.229 -29.362 -24.196  1.00  0.00     0.210 HD
ATOM     25  H8  UNL     1     -11.500 -30.206 -24.845  1.00  0.00     0.207 HD
ENDBRANCH  15  17
ENDBRANCH   2  15
TORSDOF 4
ENDMDL
MODEL 3
REMARK VINA RESULT: -7.540875370      2.623      3.134
REMARK  4 active torsions:
REMARK  status: ('A' for Active; 'I' for Inactive)
REMARK    1  A    between atoms: C5_8  and  N3_9 
REMARK       I    between atoms: N3_9  and  C6_11 
REMARK    2  A    between atoms: C6_11  and  C7_13 
REMARK    3  A    between atoms: C8_14  and  N4_15 
REMARK    4  A    between atoms: N4_15  and  C9_17 
ROOT
HETATM    1  C7  UNL     1     -13.955 -27.835 -25.431  1.00  0.00     0.092 C 
HETATM    2  C8  UNL     1     -13.730 -28.344 -26.625  1.00  0.00     0.112 C 
ENDROOT
BRANCH   1   3
HETATM    3  C6  UNL     1     -15.148 -27.009 -25.144  1.00  0.00     0.247 C 
HETATM    4  N3  UNL     1     -15.202 -26.233 -23.980  1.00  0.00    -0.321 N 
ATOM      5  H3  UNL     1     -14.383 -26.286 -23.376  1.00  0.00     0.169 HD
HETATM    6  O1  UNL     1     -16.047 -27.069 -25.994  1.00  0.00    -0.268 OA
BRANCH   4   7
HETATM    7  C5  UNL     1     -16.236 -25.389 -23.531  1.00  0.00     0.074 A 
HETATM    8  C1  UNL     1     -17.244 -25.907 -22.707  1.00  0.00     0.075 A 
HETATM    9  N1  UNL     1     -17.165 -27.297 -22.358  1.00  0.00    -0.100 NA
HETATM   10  C2  UNL     1     -18.284 -25.143 -22.229  1.00  0.00     0.046 A 
HETATM   11  C3  UNL     1     -18.343 -23.822 -22.573  1.00  0.00     0.089 A 
HETATM   12  N2  UNL     1     -17.395 -23.298 -23.359  1.00  0.00    -0.373 N 
HETATM   13  C4  UNL     1     -16.361 -24.061 -23.831  1.00  0.00     0.119 A 
ATOM     14  H2  UNL     1     -17.445 -22.312 -23.611  1.00  0.00     0.164 HD
ENDBRANCH   4   7
ENDBRANCH   1   3
BRANCH   2  15
HETATM   15  N4  UNL     1     -12.581 -29.125 -26.852  1.00  0.00    -0.199 N 
ATOM     16  H4  UNL     1     -12.671 -29.933 -27.467  1.00  0.00     0.183 HD
BRANCH  15  17
HETATM   17  C9  UNL     1     -11.429 -28.890 -26.342  1.00  0.00     0.713 A 
HETATM   18  N5  UNL     1     -10.535 -27.947 -26.701  1.00  0.00    -0.115 N 
HETATM   19  N6  UNL     1      -9.499 -28.088 -25.893  1.00  0.00    -0.213 N 
ATOM     20  H5  UNL     1     -10.637 -27.261 -27.448  1.00  0.00     0.207 HD
HETATM   21  N7  UNL     1      -9.719 -29.066 -25.063  1.00  0.00    -0.213 N 
ATOM     22  H6  UNL     1      -8.654 -27.516 -25.916  1.00  0.00     0.210 HD
HETATM   23  N8  UNL     1     -10.902 -29.570 -25.326  1.00  0.00    -0.115 N 
ATOM     24  H7  UNL     1      -9.082 -29.386 -24.334  1.00  0.00     0.210 HD
ATOM     25  H8  UNL     1     -11.343 -30.349 -24.837  1.00  0.00     0.207 HD
ENDBRANCH  15  17
ENDBRANCH   2  15
TORSDOF 4
ENDMDL
MODEL 4
REMARK VINA RESULT: -7.516923837      3.617      5.683
REMARK  4 active torsions:
REMARK  status: ('A' for Active; 'I' for Inactive)
REMARK    1  A    between atoms: C5_8  and  N3_9 
REMARK       I    between atoms: N3_9  and  C6_11 
REMARK    2  A    between atoms: C6_11  and  C7_13 
REMARK    3  A    between atoms: C8_14  and  N4_15 
REMARK    4  A    between atoms: N4_15  and  C9_17 
ROOT
HETATM    1  C7  UNL     1     -16.305 -25.804 -23.600  1.00  0.00     0.092 C 
HETATM    2  C8  UNL     1     -15.476 -24.820 -23.319  1.00  0.00     0.112 C 
ENDROOT
BRANCH   1   3
HETATM    3  C6  UNL     1     -16.305 -26.474 -24.919  1.00  0.00     0.247 C 
HETATM    4  N3  UNL     1     -15.107 -26.952 -25.464  1.00  0.00    -0.321 N 
ATOM      5  H3  UNL     1     -14.274 -26.804 -24.895  1.00  0.00     0.169 HD
HETATM    6  O1  UNL     1     -17.414 -26.565 -25.465  1.00  0.00    -0.268 OA
BRANCH   4   7
HETATM    7  C5  UNL     1     -14.898 -27.610 -26.691  1.00  0.00     0.074 A 
HETATM    8  C1  UNL     1     -13.601 -27.707 -27.212  1.00  0.00     0.075 A 
HETATM    9  N1  UNL     1     -12.535 -27.119 -26.450  1.00  0.00    -0.100 NA
HETATM   10  C2  UNL     1     -13.320 -28.335 -28.403  1.00  0.00     0.046 A 
HETATM   11  C3  UNL     1     -14.347 -28.888 -29.114  1.00  0.00     0.089 A 
HETATM   12  N2  UNL     1     -15.597 -28.812 -28.643  1.00  0.00    -0.373 N 
HETATM   13  C4  UNL     1     -15.873 -28.187 -27.457  1.00  0.00     0.119 A 
ATOM     14  H2  UNL     1     -16.359 -29.227 -29.178  1.00  0.00     0.164 HD
ENDBRANCH   4   7
ENDBRANCH   1   3
BRANCH   2  15
HETATM   15  N4  UNL     1     -15.511 -24.210 -22.050  1.00  0.00    -0.199 N 
ATOM     16  H4  UNL     1     -16.243 -23.522 -21.875  1.00  0.00     0.183 HD
BRANCH  15  17
HETATM   17  C9  UNL     1     -14.689 -24.460 -21.099  1.00  0.00     0.713 A 
HETATM   18  N5  UNL     1     -13.922 -23.591 -20.410  1.00  0.00    -0.115 N 
HETATM   19  N6  UNL     1     -13.242 -24.307 -19.533  1.00  0.00    -0.213 N 
ATOM     20  H5  UNL     1     -13.876 -22.581 -20.541  1.00  0.00     0.207 HD
HETATM   21  N7  UNL     1     -13.558 -25.565 -19.653  1.00  0.00    -0.213 N 
ATOM     22  H6  UNL     1     -12.571 -23.932 -18.862  1.00  0.00     0.210 HD
HETATM   23  N8  UNL     1     -14.447 -25.675 -20.612  1.00  0.00    -0.115 N 
ATOM     24  H7  UNL     1     -13.180 -26.331 -19.097  1.00  0.00     0.210 HD
ATOM     25  H8  UNL     1     -14.878 -26.542 -20.930  1.00  0.00     0.207 HD
ENDBRANCH  15  17
ENDBRANCH   2  15
TORSDOF 4
ENDMDL
MODEL 5
REMARK VINA RESULT: -7.470274590      1.868      2.636
REMARK  4 active torsions:
REMARK  status: ('A' for Active; 'I' for Inactive)
REMARK    1  A    between atoms: C5_8  and  N3_9 
REMARK       I    between atoms: N3_9  and  C6_11 
REMARK    2  A    between atoms: C6_11  and  C7_13 
REMARK    3  A    between atoms: C8_14  and  N4_15 
REMARK    4  A    between atoms: N4_15  and  C9_17 
ROOT
HETATM    1  C7  UNL     1     -15.223 -27.799 -26.971  1.00  0.00     0.092 C 
HETATM    2  C8  UNL     1     -14.192 -27.408 -26.250  1.00  0.00     0.112 C 
ENDROOT
BRANCH   1   3
HETATM    3  C6  UNL     1     -16.510 -28.181 -26.351  1.00  0.00     0.247 C 
HETATM    4  N3  UNL     1     -17.645 -28.371 -27.149  1.00  0.00    -0.321 N 
ATOM      5  H3  UNL     1     -17.510 -28.229 -28.149  1.00  0.00     0.169 HD
HETATM    6  O1  UNL     1     -16.485 -28.310 -25.119  1.00  0.00    -0.268 OA
BRANCH   4   7
HETATM    7  C5  UNL     1     -18.949 -28.732 -26.756  1.00  0.00     0.074 A 
HETATM    8  C1  UNL     1     -19.327 -30.080 -26.769  1.00  0.00     0.075 A 
HETATM    9  N1  UNL     1     -18.346 -31.040 -27.191  1.00  0.00    -0.100 NA
HETATM   10  C2  UNL     1     -20.581 -30.507 -26.399  1.00  0.00     0.046 A 
HETATM   11  C3  UNL     1     -21.502 -29.580 -26.001  1.00  0.00     0.089 A 
HETATM   12  N2  UNL     1     -21.170 -28.283 -25.978  1.00  0.00    -0.373 N 
HETATM   13  C4  UNL     1     -19.921 -27.862 -26.346  1.00  0.00     0.119 A 
ATOM     14  H2  UNL     1     -21.862 -27.596 -25.679  1.00  0.00     0.164 HD
ENDBRANCH   4   7
ENDBRANCH   1   3
BRANCH   2  15
HETATM   15  N4  UNL     1     -12.984 -27.054 -26.883  1.00  0.00    -0.199 N 
ATOM     16  H4  UNL     1     -13.042 -26.496 -27.734  1.00  0.00     0.183 HD
BRANCH  15  17
HETATM   17  C9  UNL     1     -11.819 -27.383 -26.464  1.00  0.00     0.713 A 
HETATM   18  N5  UNL     1     -10.737 -27.725 -27.193  1.00  0.00    -0.115 N 
HETATM   19  N6  UNL     1      -9.771 -27.981 -26.329  1.00  0.00    -0.213 N 
ATOM     20  H5  UNL     1     -10.677 -27.776 -28.210  1.00  0.00     0.207 HD
HETATM   21  N7  UNL     1     -10.210 -27.811 -25.115  1.00  0.00    -0.213 N 
ATOM     22  H6  UNL     1      -8.824 -28.269 -26.576  1.00  0.00     0.210 HD
HETATM   23  N8  UNL     1     -11.468 -27.443 -25.182  1.00  0.00    -0.115 N 
ATOM     24  H7  UNL     1      -9.670 -27.941 -24.260  1.00  0.00     0.210 HD
ATOM     25  H8  UNL     1     -12.074 -27.239 -24.387  1.00  0.00     0.207 HD
ENDBRANCH  15  17
ENDBRANCH   2  15
TORSDOF 4
ENDMDL
