MODEL 1
REMARK VINA RESULT: -8.421459406      0.000      0.000
REMARK  4 active torsions:
REMARK  status: ('A' for Active; 'I' for Inactive)
REMARK    1  A    between atoms: C1_4  and  C2_6 
REMARK    2  A    between atoms: C5_9  and  C6_10 
REMARK    3  A    between atoms: N3_11  and  N4_13 
REMARK    4  A    between atoms: N4_13  and  C7_15 
ROOT
HETATM    1  C6  UNL     1     -14.982 -25.809 -23.949  1.00  0.00     0.137 C 
HETATM    2  N3  UNL     1     -14.953 -26.342 -22.784  1.00  0.00    -0.295 N 
ATOM      3  H3  UNL     1     -14.563 -27.279 -22.691  1.00  0.00     0.186 HD
ENDROOT
BRANCH   1   4
HETATM    4  C5  UNL     1     -14.479 -26.509 -25.104  1.00  0.00     0.049 A 
HETATM    5  C4  UNL     1     -15.360 -27.234 -25.883  1.00  0.00     0.032 A 
HETATM    6  C3  UNL     1     -14.851 -27.892 -26.978  1.00  0.00     0.018 A 
HETATM    7  C2  UNL     1     -13.513 -27.824 -27.275  1.00  0.00     0.020 A 
HETATM    8  C8  UNL     1     -12.675 -27.091 -26.472  1.00  0.00     0.103 A 
HETATM    9  N9  UNL     1     -13.171 -26.456 -25.415  1.00  0.00    -0.364 N 
ATOM     10  H9  UNL     1     -12.543 -25.912 -24.823  1.00  0.00     0.165 HD
BRANCH   7  11
HETATM   11  C1  UNL     1     -13.012 -28.545 -28.459  1.00  0.00     0.121 C 
HETATM   12  N1  UNL     1     -13.822 -29.295 -29.119  1.00  0.00    -0.387 N 
ATOM     13  H12 UNL     1     -13.476 -29.795 -29.938  1.00  0.00     0.157 HD
ATOM     14  H11 UNL     1     -14.796 -29.397 -28.837  1.00  0.00     0.157 HD
HETATM   15  N2  UNL     1     -11.658 -28.403 -28.851  1.00  0.00    -0.082 NA
ENDBRANCH   7  11
ENDBRANCH   1   4
BRANCH   2  16
HETATM   16  N4  UNL     1     -15.428 -25.706 -21.637  1.00  0.00    -0.130 N 
ATOM     17  H4  UNL     1     -16.430 -25.582 -21.487  1.00  0.00     0.205 HD
BRANCH  16  18
HETATM   18  C7  UNL     1     -14.577 -25.280 -20.776  1.00  0.00     0.728 A 
HETATM   19  N5  UNL     1     -14.366 -24.013 -20.443  1.00  0.00    -0.114 N 
HETATM   20  N6  UNL     1     -13.417 -23.988 -19.527  1.00  0.00    -0.213 N 
ATOM     21  H5  UNL     1     -14.851 -23.203 -20.828  1.00  0.00     0.207 HD
HETATM   22  N7  UNL     1     -13.032 -25.227 -19.283  1.00  0.00    -0.213 N 
ATOM     23  H6  UNL     1     -13.042 -23.151 -19.081  1.00  0.00     0.210 HD
HETATM   24  N8  UNL     1     -13.739 -26.029 -20.045  1.00  0.00    -0.114 N 
ATOM     25  H7  UNL     1     -12.311 -25.511 -18.620  1.00  0.00     0.210 HD
ATOM     26  H8  UNL     1     -13.663 -27.045 -20.075  1.00  0.00     0.207 HD
ENDBRANCH  16  18
ENDBRANCH   2  16
TORSDOF 4
ENDMDL
MODEL 2
REMARK VINA RESULT: -7.503823355      4.041      6.174
REMARK  4 active torsions:
REMARK  status: ('A' for Active; 'I' for Inactive)
REMARK    1  A    between atoms: C1_4  and  C2_6 
REMARK    2  A    between atoms: C5_9  and  C6_10 
REMARK    3  A    between atoms: N3_11  and  N4_13 
REMARK    4  A    between atoms: N4_13  and  C7_15 
ROOT
HETATM    1  C6  UNL     1     -14.481 -28.174 -27.378  1.00  0.00     0.137 C 
HETATM    2  N3  UNL     1     -13.663 -28.874 -26.685  1.00  0.00    -0.295 N 
ATOM      3  H3  UNL     1     -14.011 -29.328 -25.840  1.00  0.00     0.186 HD
ENDROOT
BRANCH   1   4
HETATM    4  C5  UNL     1     -15.859 -28.024 -26.983  1.00  0.00     0.049 A 
HETATM    5  C4  UNL     1     -16.844 -28.597 -27.764  1.00  0.00     0.032 A 
HETATM    6  C3  UNL     1     -18.150 -28.436 -27.362  1.00  0.00     0.018 A 
HETATM    7  C2  UNL     1     -18.450 -27.729 -26.225  1.00  0.00     0.020 A 
HETATM    8  C8  UNL     1     -17.438 -27.178 -25.480  1.00  0.00     0.103 A 
HETATM    9  N9  UNL     1     -16.177 -27.336 -25.872  1.00  0.00    -0.364 N 
ATOM     10  H9  UNL     1     -15.429 -26.924 -25.313  1.00  0.00     0.165 HD
BRANCH   7  11
HETATM   11  C1  UNL     1     -19.864 -27.583 -25.833  1.00  0.00     0.121 C 
HETATM   12  N1  UNL     1     -20.732 -28.399 -26.318  1.00  0.00    -0.387 N 
ATOM     13  H12 UNL     1     -21.709 -28.299 -26.048  1.00  0.00     0.157 HD
ATOM     14  H11 UNL     1     -20.457 -29.139 -26.964  1.00  0.00     0.157 HD
HETATM   15  N2  UNL     1     -20.244 -26.556 -24.935  1.00  0.00    -0.082 NA
ENDBRANCH   7  11
ENDBRANCH   1   4
BRANCH   2  16
HETATM   16  N4  UNL     1     -12.322 -29.047 -27.025  1.00  0.00    -0.130 N 
ATOM     17  H4  UNL     1     -12.060 -29.524 -27.888  1.00  0.00     0.205 HD
BRANCH  16  18
HETATM   18  C7  UNL     1     -11.423 -28.594 -26.227  1.00  0.00     0.728 A 
HETATM   19  N5  UNL     1     -10.173 -29.028 -26.129  1.00  0.00    -0.114 N 
HETATM   20  N6  UNL     1      -9.569 -28.310 -25.201  1.00  0.00    -0.213 N 
ATOM     21  H5  UNL     1      -9.755 -29.782 -26.673  1.00  0.00     0.207 HD
HETATM   22  N7  UNL     1     -10.429 -27.433 -24.718  1.00  0.00    -0.213 N 
ATOM     23  H6  UNL     1      -8.599 -28.415 -24.905  1.00  0.00     0.210 HD
HETATM   24  N8  UNL     1     -11.571 -27.598 -25.342  1.00  0.00    -0.114 N 
ATOM     25  H7  UNL     1     -10.239 -26.746 -23.988  1.00  0.00     0.210 HD
ATOM     26  H8  UNL     1     -12.424 -27.062 -25.182  1.00  0.00     0.207 HD
ENDBRANCH  16  18
ENDBRANCH   2  16
TORSDOF 4
ENDMDL
MODEL 3
REMARK VINA RESULT: -7.439184930      4.099      6.181
REMARK  4 active torsions:
REMARK  status: ('A' for Active; 'I' for Inactive)
REMARK    1  A    between atoms: C1_4  and  C2_6 
REMARK    2  A    between atoms: C5_9  and  C6_10 
REMARK    3  A    between atoms: N3_11  and  N4_13 
REMARK    4  A    between atoms: N4_13  and  C7_15 
ROOT
HETATM    1  C6  UNL     1     -14.471 -28.118 -27.374  1.00  0.00     0.137 C 
HETATM    2  N3  UNL     1     -13.648 -28.833 -26.703  1.00  0.00    -0.295 N 
ATOM      3  H3  UNL     1     -13.993 -29.319 -25.875  1.00  0.00     0.186 HD
ENDROOT
BRANCH   1   4
HETATM    4  C5  UNL     1     -15.852 -27.996 -26.978  1.00  0.00     0.049 A 
HETATM    5  C4  UNL     1     -16.157 -27.302 -25.823  1.00  0.00     0.032 A 
HETATM    6  C3  UNL     1     -17.483 -27.203 -25.470  1.00  0.00     0.018 A 
HETATM    7  C2  UNL     1     -18.458 -27.778 -26.246  1.00  0.00     0.020 A 
HETATM    8  C8  UNL     1     -18.107 -28.458 -27.385  1.00  0.00     0.103 A 
HETATM    9  N9  UNL     1     -16.825 -28.551 -27.723  1.00  0.00    -0.364 N 
ATOM     10  H9  UNL     1     -16.571 -29.056 -28.572  1.00  0.00     0.165 HD
BRANCH   7  11
HETATM   11  C1  UNL     1     -19.866 -27.646 -25.828  1.00  0.00     0.121 C 
HETATM   12  N1  UNL     1     -20.714 -28.535 -26.209  1.00  0.00    -0.387 N 
ATOM     13  H12 UNL     1     -21.688 -28.444 -25.921  1.00  0.00     0.157 HD
ATOM     14  H11 UNL     1     -20.428 -29.323 -26.791  1.00  0.00     0.157 HD
HETATM   15  N2  UNL     1     -20.262 -26.552 -25.020  1.00  0.00    -0.082 NA
ENDBRANCH   7  11
ENDBRANCH   1   4
BRANCH   2  16
HETATM   16  N4  UNL     1     -12.304 -28.981 -27.045  1.00  0.00    -0.130 N 
ATOM     17  H4  UNL     1     -12.036 -29.421 -27.926  1.00  0.00     0.205 HD
BRANCH  16  18
HETATM   18  C7  UNL     1     -11.412 -28.551 -26.227  1.00  0.00     0.728 A 
HETATM   19  N5  UNL     1     -11.566 -27.576 -25.342  1.00  0.00    -0.114 N 
HETATM   20  N6  UNL     1     -10.426 -27.434 -24.694  1.00  0.00    -0.213 N 
ATOM     21  H5  UNL     1     -12.416 -27.032 -25.190  1.00  0.00     0.207 HD
HETATM   22  N7  UNL     1      -9.560 -28.311 -25.166  1.00  0.00    -0.213 N 
ATOM     23  H6  UNL     1     -10.243 -26.759 -23.952  1.00  0.00     0.210 HD
HETATM   24  N8  UNL     1     -10.155 -29.003 -26.108  1.00  0.00    -0.114 N 
ATOM     25  H7  UNL     1      -8.596 -28.430 -24.853  1.00  0.00     0.210 HD
ATOM     26  H8  UNL     1      -9.736 -29.755 -26.655  1.00  0.00     0.207 HD
ENDBRANCH  16  18
ENDBRANCH   2  16
TORSDOF 4
ENDMDL
MODEL 4
REMARK VINA RESULT: -7.420342004      3.977      6.330
REMARK  4 active torsions:
REMARK  status: ('A' for Active; 'I' for Inactive)
REMARK    1  A    between atoms: C1_4  and  C2_6 
REMARK    2  A    between atoms: C5_9  and  C6_10 
REMARK    3  A    between atoms: N3_11  and  N4_13 
REMARK    4  A    between atoms: N4_13  and  C7_15 
ROOT
HETATM    1  C6  UNL     1     -14.015 -27.671 -26.979  1.00  0.00     0.137 C 
HETATM    2  N3  UNL     1     -13.487 -28.538 -27.761  1.00  0.00    -0.295 N 
ATOM      3  H3  UNL     1     -14.093 -29.244 -28.178  1.00  0.00     0.186 HD
ENDROOT
BRANCH   1   4
HETATM    4  C5  UNL     1     -15.427 -27.686 -26.690  1.00  0.00     0.049 A 
HETATM    5  C4  UNL     1     -16.278 -28.357 -27.546  1.00  0.00     0.032 A 
HETATM    6  C3  UNL     1     -17.620 -28.352 -27.244  1.00  0.00     0.018 A 
HETATM    7  C2  UNL     1     -18.084 -27.700 -26.130  1.00  0.00     0.020 A 
HETATM    8  C8  UNL     1     -17.201 -27.046 -25.307  1.00  0.00     0.103 A 
HETATM    9  N9  UNL     1     -15.904 -27.054 -25.602  1.00  0.00    -0.364 N 
ATOM     10  H9  UNL     1     -15.253 -26.567 -24.986  1.00  0.00     0.165 HD
BRANCH   7  11
HETATM   11  C1  UNL     1     -19.530 -27.722 -25.846  1.00  0.00     0.121 C 
HETATM   12  N1  UNL     1     -20.248 -28.666 -26.345  1.00  0.00    -0.387 N 
ATOM     13  H12 UNL     1     -21.249 -28.681 -26.150  1.00  0.00     0.157 HD
ATOM     14  H11 UNL     1     -19.834 -29.392 -26.929  1.00  0.00     0.157 HD
HETATM   15  N2  UNL     1     -20.105 -26.713 -25.035  1.00  0.00    -0.082 NA
ENDBRANCH   7  11
ENDBRANCH   1   4
BRANCH   2  16
HETATM   16  N4  UNL     1     -12.128 -28.566 -28.070  1.00  0.00    -0.130 N 
ATOM     17  H4  UNL     1     -11.815 -28.585 -29.041  1.00  0.00     0.205 HD
BRANCH  16  18
HETATM   18  C7  UNL     1     -11.279 -28.567 -27.106  1.00  0.00     0.728 A 
HETATM   19  N5  UNL     1     -10.397 -27.613 -26.839  1.00  0.00    -0.114 N 
HETATM   20  N6  UNL     1      -9.712 -27.984 -25.774  1.00  0.00    -0.213 N 
ATOM     21  H5  UNL     1     -10.271 -26.748 -27.364  1.00  0.00     0.207 HD
HETATM   22  N7  UNL     1     -10.157 -29.160 -25.374  1.00  0.00    -0.213 N 
ATOM     23  H6  UNL     1      -8.962 -27.451 -25.334  1.00  0.00     0.210 HD
HETATM   24  N8  UNL     1     -11.121 -29.527 -26.184  1.00  0.00    -0.114 N 
ATOM     25  H7  UNL     1      -9.812 -29.691 -24.573  1.00  0.00     0.210 HD
ATOM     26  H8  UNL     1     -11.656 -30.393 -26.124  1.00  0.00     0.207 HD
ENDBRANCH  16  18
ENDBRANCH   2  16
TORSDOF 4
ENDMDL
MODEL 5
REMARK VINA RESULT: -7.408769732      4.149      6.409
REMARK  4 active torsions:
REMARK  status: ('A' for Active; 'I' for Inactive)
REMARK    1  A    between atoms: C1_4  and  C2_6 
REMARK    2  A    between atoms: C5_9  and  C6_10 
REMARK    3  A    between atoms: N3_11  and  N4_13 
REMARK    4  A    between atoms: N4_13  and  C7_15 
ROOT
HETATM    1  C6  UNL     1     -14.012 -27.784 -27.176  1.00  0.00     0.137 C 
HETATM    2  N3  UNL     1     -13.410 -28.738 -27.782  1.00  0.00    -0.295 N 
ATOM      3  H3  UNL     1     -13.958 -29.549 -28.070  1.00  0.00     0.186 HD
ENDROOT
BRANCH   1   4
HETATM    4  C5  UNL     1     -15.426 -27.846 -26.902  1.00  0.00     0.049 A 
HETATM    5  C4  UNL     1     -16.248 -28.527 -27.778  1.00  0.00     0.032 A 
HETATM    6  C3  UNL     1     -17.593 -28.569 -27.492  1.00  0.00     0.018 A 
HETATM    7  C2  UNL     1     -18.088 -27.950 -26.371  1.00  0.00     0.020 A 
HETATM    8  C8  UNL     1     -17.233 -27.284 -25.528  1.00  0.00     0.103 A 
HETATM    9  N9  UNL     1     -15.934 -27.247 -25.809  1.00  0.00    -0.364 N 
ATOM     10  H9  UNL     1     -15.304 -26.751 -25.178  1.00  0.00     0.165 HD
BRANCH   7  11
HETATM   11  C1  UNL     1     -19.535 -28.021 -26.104  1.00  0.00     0.121 C 
HETATM   12  N1  UNL     1     -20.128 -26.991 -25.610  1.00  0.00    -0.387 N 
ATOM     13  H12 UNL     1     -21.130 -27.040 -25.425  1.00  0.00     0.157 HD
ATOM     14  H11 UNL     1     -19.615 -26.134 -25.404  1.00  0.00     0.157 HD
HETATM   15  N2  UNL     1     -20.248 -29.211 -26.390  1.00  0.00    -0.082 NA
ENDBRANCH   7  11
ENDBRANCH   1   4
BRANCH   2  16
HETATM   16  N4  UNL     1     -12.046 -28.724 -28.069  1.00  0.00    -0.130 N 
ATOM     17  H4  UNL     1     -11.715 -28.760 -29.034  1.00  0.00     0.205 HD
BRANCH  16  18
HETATM   18  C7  UNL     1     -11.214 -28.667 -27.092  1.00  0.00     0.728 A 
HETATM   19  N5  UNL     1     -11.045 -29.588 -26.153  1.00  0.00    -0.114 N 
HETATM   20  N6  UNL     1     -10.103 -29.161 -25.333  1.00  0.00    -0.213 N 
ATOM     21  H5  UNL     1     -11.553 -30.469 -26.077  1.00  0.00     0.207 HD
HETATM   22  N7  UNL     1      -9.681 -27.982 -25.752  1.00  0.00    -0.213 N 
ATOM     23  H6  UNL     1      -9.757 -29.659 -24.513  1.00  0.00     0.210 HD
HETATM   24  N8  UNL     1     -10.357 -27.669 -26.832  1.00  0.00    -0.114 N 
ATOM     25  H7  UNL     1      -8.957 -27.414 -25.312  1.00  0.00     0.210 HD
ATOM     26  H8  UNL     1     -10.249 -26.815 -27.379  1.00  0.00     0.207 HD
ENDBRANCH  16  18
ENDBRANCH   2  16
TORSDOF 4
ENDMDL
