MODEL 1
REMARK VINA RESULT: -7.254480444      0.000      0.000
REMARK  4 active torsions:
REMARK  status: ('A' for Active; 'I' for Inactive)
REMARK    1  A    between atoms: N1_1  and  C1_4 
REMARK    2  A    between atoms: C3_9  and  C4_10 
REMARK    3  A    between atoms: C5_11  and  C6_12 
REMARK    4  A    between atoms: C6_12  and  N4_13 
ROOT
HETATM    1  C1  UNL     1     -12.760 -27.056 -25.743  1.00  0.00     0.680 A 
HETATM    2  N2  UNL     1     -12.947 -27.841 -26.826  1.00  0.00    -0.178 N 
ATOM      3  H2  UNL     1     -12.127 -28.176 -27.334  1.00  0.00     0.185 HD
HETATM    4  C2  UNL     1     -14.156 -28.196 -27.260  1.00  0.00     0.147 A 
HETATM    5  N3  UNL     1     -14.330 -29.028 -28.409  1.00  0.00    -0.081 NA
HETATM    6  C3  UNL     1     -15.312 -27.756 -26.587  1.00  0.00     0.074 A 
HETATM    7  C9  UNL     1     -15.066 -26.960 -25.490  1.00  0.00     0.273 A 
HETATM    8  O1  UNL     1     -16.043 -26.503 -24.804  1.00  0.00    -0.267 OA
HETATM    9  N7  UNL     1     -13.826 -26.609 -25.066  1.00  0.00    -0.156 N 
ATOM     10  H7  UNL     1     -13.707 -26.015 -24.244  1.00  0.00     0.187 HD
ENDROOT
BRANCH   6  11
HETATM   11  C4  UNL     1     -16.617 -28.147 -27.064  1.00  0.00     0.018 C 
HETATM   12  C5  UNL     1     -17.546 -28.835 -26.475  1.00  0.00    -0.004 C 
BRANCH  12  13
HETATM   13  C6  UNL     1     -18.846 -29.123 -27.177  1.00  0.00     0.177 C 
BRANCH  13  14
HETATM   14  N4  UNL     1     -18.807 -30.490 -27.691  1.00  0.00    -0.283 N 
HETATM   15  C7  UNL     1     -19.119 -31.588 -26.977  1.00  0.00     0.201 A 
HETATM   16  N5  UNL     1     -18.969 -32.674 -27.775  1.00  0.00    -0.346 N 
HETATM   17  C8  UNL     1     -18.563 -32.250 -28.987  1.00  0.00     0.198 A 
ATOM     18  H5  UNL     1     -19.134 -33.643 -27.504  1.00  0.00     0.167 HD
HETATM   19  N6  UNL     1     -18.478 -30.913 -28.887  1.00  0.00    -0.293 N 
ATOM     20  H6  UNL     1     -18.192 -30.300 -29.650  1.00  0.00     0.188 HD
ENDBRANCH  13  14
ENDBRANCH  12  13
ENDBRANCH   6  11
BRANCH   1  21
HETATM   21  N1  UNL     1     -11.588 -26.739 -25.362  1.00  0.00    -0.234 N 
ATOM     22  H12 UNL     1     -10.777 -27.098 -25.864  1.00  0.00     0.174 HD
ATOM     23  H11 UNL     1     -11.448 -26.129 -24.557  1.00  0.00     0.174 HD
ENDBRANCH   1  21
TORSDOF 4
ENDMDL
MODEL 2
REMARK VINA RESULT: -7.087013559      1.227      1.483
REMARK  4 active torsions:
REMARK  status: ('A' for Active; 'I' for Inactive)
REMARK    1  A    between atoms: N1_1  and  C1_4 
REMARK    2  A    between atoms: C3_9  and  C4_10 
REMARK    3  A    between atoms: C5_11  and  C6_12 
REMARK    4  A    between atoms: C6_12  and  N4_13 
ROOT
HETATM    1  C1  UNL     1     -11.304 -27.887 -26.396  1.00  0.00     0.680 A 
HETATM    2  N2  UNL     1     -11.918 -28.616 -27.352  1.00  0.00    -0.178 N 
ATOM      3  H2  UNL     1     -11.349 -29.211 -27.955  1.00  0.00     0.185 HD
HETATM    4  C2  UNL     1     -13.237 -28.592 -27.542  1.00  0.00     0.147 A 
HETATM    5  N3  UNL     1     -13.866 -29.373 -28.560  1.00  0.00    -0.081 NA
HETATM    6  C3  UNL     1     -14.059 -27.786 -26.732  1.00  0.00     0.074 A 
HETATM    7  C9  UNL     1     -13.382 -27.063 -25.773  1.00  0.00     0.273 A 
HETATM    8  O1  UNL     1     -14.029 -26.296 -24.981  1.00  0.00    -0.267 OA
HETATM    9  N7  UNL     1     -12.038 -27.102 -25.597  1.00  0.00    -0.156 N 
ATOM     10  H7  UNL     1     -11.593 -26.543 -24.868  1.00  0.00     0.187 HD
ENDROOT
BRANCH   6  11
HETATM   11  C4  UNL     1     -15.486 -27.766 -26.943  1.00  0.00     0.018 C 
HETATM   12  C5  UNL     1     -16.440 -28.291 -26.237  1.00  0.00    -0.004 C 
BRANCH  12  13
HETATM   13  C6  UNL     1     -17.877 -28.139 -26.658  1.00  0.00     0.177 C 
BRANCH  13  14
HETATM   14  N4  UNL     1     -18.297 -29.364 -27.336  1.00  0.00    -0.283 N 
HETATM   15  C7  UNL     1     -19.066 -30.322 -26.784  1.00  0.00     0.201 A 
HETATM   16  N5  UNL     1     -19.250 -31.302 -27.701  1.00  0.00    -0.346 N 
HETATM   17  C8  UNL     1     -18.596 -30.954 -28.825  1.00  0.00     0.198 A 
ATOM     18  H5  UNL     1     -19.790 -32.156 -27.564  1.00  0.00     0.167 HD
HETATM   19  N6  UNL     1     -18.030 -29.765 -28.554  1.00  0.00    -0.293 N 
ATOM     20  H6  UNL     1     -17.461 -29.239 -29.217  1.00  0.00     0.188 HD
ENDBRANCH  13  14
ENDBRANCH  12  13
ENDBRANCH   6  11
BRANCH   1  21
HETATM   21  N1  UNL     1     -10.041 -27.938 -26.248  1.00  0.00    -0.234 N 
ATOM     22  H12 UNL     1      -9.444 -27.289 -26.760  1.00  0.00     0.174 HD
ATOM     23  H11 UNL     1      -9.615 -28.621 -25.622  1.00  0.00     0.174 HD
ENDBRANCH   1  21
TORSDOF 4
ENDMDL
MODEL 3
REMARK VINA RESULT: -7.084698855      1.276      1.975
REMARK  4 active torsions:
REMARK  status: ('A' for Active; 'I' for Inactive)
REMARK    1  A    between atoms: N1_1  and  C1_4 
REMARK    2  A    between atoms: C3_9  and  C4_10 
REMARK    3  A    between atoms: C5_11  and  C6_12 
REMARK    4  A    between atoms: C6_12  and  N4_13 
ROOT
HETATM    1  C1  UNL     1     -12.735 -27.037 -25.662  1.00  0.00     0.680 A 
HETATM    2  N2  UNL     1     -13.853 -26.543 -25.089  1.00  0.00    -0.178 N 
ATOM      3  H2  UNL     1     -13.756 -25.883 -24.316  1.00  0.00     0.185 HD
HETATM    4  C2  UNL     1     -15.079 -26.879 -25.490  1.00  0.00     0.147 A 
HETATM    5  N3  UNL     1     -16.249 -26.343 -24.869  1.00  0.00    -0.081 NA
HETATM    6  C3  UNL     1     -15.258 -27.785 -26.553  1.00  0.00     0.074 A 
HETATM    7  C9  UNL     1     -14.086 -28.259 -27.102  1.00  0.00     0.273 A 
HETATM    8  O1  UNL     1     -14.129 -29.088 -28.074  1.00  0.00    -0.267 OA
HETATM    9  N7  UNL     1     -12.847 -27.904 -26.678  1.00  0.00    -0.156 N 
ATOM     10  H7  UNL     1     -12.015 -28.290 -27.125  1.00  0.00     0.187 HD
ENDROOT
BRANCH   6  11
HETATM   11  C4  UNL     1     -16.588 -28.143 -26.981  1.00  0.00     0.018 C 
HETATM   12  C5  UNL     1     -17.448 -28.951 -26.440  1.00  0.00    -0.004 C 
BRANCH  12  13
HETATM   13  C6  UNL     1     -18.795 -29.172 -27.074  1.00  0.00     0.177 C 
BRANCH  13  14
HETATM   14  N4  UNL     1     -18.824 -30.514 -27.653  1.00  0.00    -0.283 N 
HETATM   15  C7  UNL     1     -19.171 -31.630 -26.984  1.00  0.00     0.201 A 
HETATM   16  N5  UNL     1     -19.083 -32.682 -27.835  1.00  0.00    -0.346 N 
HETATM   17  C8  UNL     1     -18.681 -32.219 -29.034  1.00  0.00     0.198 A 
ATOM     18  H5  UNL     1     -19.285 -33.655 -27.607  1.00  0.00     0.167 HD
HETATM   19  N6  UNL     1     -18.536 -30.892 -28.873  1.00  0.00    -0.293 N 
ATOM     20  H6  UNL     1     -18.238 -30.256 -29.613  1.00  0.00     0.188 HD
ENDBRANCH  13  14
ENDBRANCH  12  13
ENDBRANCH   6  11
BRANCH   1  21
HETATM   21  N1  UNL     1     -11.583 -26.691 -25.249  1.00  0.00    -0.234 N 
ATOM     22  H12 UNL     1     -11.464 -25.803 -24.762  1.00  0.00     0.174 HD
ATOM     23  H11 UNL     1     -10.772 -27.292 -25.398  1.00  0.00     0.174 HD
ENDBRANCH   1  21
TORSDOF 4
ENDMDL
MODEL 4
REMARK VINA RESULT: -7.008058370      1.674      2.292
REMARK  4 active torsions:
REMARK  status: ('A' for Active; 'I' for Inactive)
REMARK    1  A    between atoms: N1_1  and  C1_4 
REMARK    2  A    between atoms: C3_9  and  C4_10 
REMARK    3  A    between atoms: C5_11  and  C6_12 
REMARK    4  A    between atoms: C6_12  and  N4_13 
ROOT
HETATM    1  C1  UNL     1     -11.761 -27.650 -27.084  1.00  0.00     0.680 A 
HETATM    2  N2  UNL     1     -12.555 -27.060 -26.166  1.00  0.00    -0.178 N 
ATOM      3  H2  UNL     1     -12.126 -26.456 -25.465  1.00  0.00     0.185 HD
HETATM    4  C2  UNL     1     -13.877 -27.232 -26.138  1.00  0.00     0.147 A 
HETATM    5  N3  UNL     1     -14.698 -26.597 -25.156  1.00  0.00    -0.081 NA
HETATM    6  C3  UNL     1     -14.509 -28.056 -27.088  1.00  0.00     0.074 A 
HETATM    7  C9  UNL     1     -13.653 -28.634 -28.001  1.00  0.00     0.273 A 
HETATM    8  O1  UNL     1     -14.119 -29.403 -28.910  1.00  0.00    -0.267 OA
HETATM    9  N7  UNL     1     -12.310 -28.445 -28.012  1.00  0.00    -0.156 N 
ATOM     10  H7  UNL     1     -11.728 -28.902 -28.716  1.00  0.00     0.187 HD
ENDROOT
BRANCH   6  11
HETATM   11  C4  UNL     1     -15.940 -28.237 -27.050  1.00  0.00     0.018 C 
HETATM   12  C5  UNL     1     -16.759 -28.594 -27.991  1.00  0.00    -0.004 C 
BRANCH  12  13
HETATM   13  C6  UNL     1     -18.234 -28.718 -27.715  1.00  0.00     0.177 C 
BRANCH  13  14
HETATM   14  N4  UNL     1     -18.634 -30.107 -27.932  1.00  0.00    -0.283 N 
HETATM   15  C7  UNL     1     -19.361 -30.840 -27.067  1.00  0.00     0.201 A 
HETATM   16  N5  UNL     1     -19.537 -32.075 -27.599  1.00  0.00    -0.346 N 
HETATM   17  C8  UNL     1     -18.920 -32.110 -28.794  1.00  0.00     0.198 A 
ATOM     18  H5  UNL     1     -20.049 -32.844 -27.167  1.00  0.00     0.167 HD
HETATM   19  N6  UNL     1     -18.383 -30.888 -28.953  1.00  0.00    -0.293 N 
ATOM     20  H6  UNL     1     -17.845 -30.602 -29.772  1.00  0.00     0.188 HD
ENDBRANCH  13  14
ENDBRANCH  12  13
ENDBRANCH   6  11
BRANCH   1  21
HETATM   21  N1  UNL     1     -10.503 -27.460 -27.077  1.00  0.00    -0.234 N 
ATOM     22  H12 UNL     1     -10.068 -26.975 -26.293  1.00  0.00     0.174 HD
ATOM     23  H11 UNL     1      -9.921 -27.788 -27.847  1.00  0.00     0.174 HD
ENDBRANCH   1  21
TORSDOF 4
ENDMDL
MODEL 5
REMARK VINA RESULT: -6.921070576      2.145      6.136
REMARK  4 active torsions:
REMARK  status: ('A' for Active; 'I' for Inactive)
REMARK    1  A    between atoms: N1_1  and  C1_4 
REMARK    2  A    between atoms: C3_9  and  C4_10 
REMARK    3  A    between atoms: C5_11  and  C6_12 
REMARK    4  A    between atoms: C6_12  and  N4_13 
ROOT
HETATM    1  C1  UNL     1     -19.271 -27.694 -25.604  1.00  0.00     0.680 A 
HETATM    2  N2  UNL     1     -19.028 -28.460 -26.688  1.00  0.00    -0.178 N 
ATOM      3  H2  UNL     1     -19.801 -28.985 -27.099  1.00  0.00     0.185 HD
HETATM    4  C2  UNL     1     -17.821 -28.560 -27.246  1.00  0.00     0.147 A 
HETATM    5  N3  UNL     1     -17.588 -29.378 -28.394  1.00  0.00    -0.081 NA
HETATM    6  C3  UNL     1     -16.728 -27.852 -26.711  1.00  0.00     0.074 A 
HETATM    7  C9  UNL     1     -17.030 -27.086 -25.606  1.00  0.00     0.273 A 
HETATM    8  O1  UNL     1     -16.113 -26.400 -25.038  1.00  0.00    -0.267 OA
HETATM    9  N7  UNL     1     -18.266 -26.999 -25.054  1.00  0.00    -0.156 N 
ATOM     10  H7  UNL     1     -18.428 -26.413 -24.234  1.00  0.00     0.187 HD
ENDROOT
BRANCH   6  11
HETATM   11  C4  UNL     1     -15.426 -27.966 -27.322  1.00  0.00     0.018 C 
HETATM   12  C5  UNL     1     -14.344 -28.529 -26.877  1.00  0.00    -0.004 C 
BRANCH  12  13
HETATM   13  C6  UNL     1     -13.085 -28.524 -27.701  1.00  0.00     0.177 C 
BRANCH  13  14
HETATM   14  N4  UNL     1     -11.938 -28.441 -26.799  1.00  0.00    -0.283 N 
HETATM   15  C7  UNL     1     -11.802 -27.536 -25.811  1.00  0.00     0.201 A 
HETATM   16  N5  UNL     1     -10.620 -27.760 -25.187  1.00  0.00    -0.346 N 
HETATM   17  C8  UNL     1     -10.020 -28.804 -25.787  1.00  0.00     0.198 A 
ATOM     18  H5  UNL     1     -10.249 -27.229 -24.399  1.00  0.00     0.167 HD
HETATM   19  N6  UNL     1     -10.860 -29.185 -26.765  1.00  0.00    -0.293 N 
ATOM     20  H6  UNL     1     -10.681 -29.961 -27.402  1.00  0.00     0.188 HD
ENDBRANCH  13  14
ENDBRANCH  12  13
ENDBRANCH   6  11
BRANCH   1  21
HETATM   21  N1  UNL     1     -20.437 -27.626 -25.101  1.00  0.00    -0.234 N 
ATOM     22  H12 UNL     1     -20.588 -27.897 -24.129  1.00  0.00     0.174 HD
ATOM     23  H11 UNL     1     -21.229 -27.304 -25.658  1.00  0.00     0.174 HD
ENDBRANCH   1  21
TORSDOF 4
ENDMDL
