MODEL 1
REMARK VINA RESULT: -7.312394293      0.000      0.000
REMARK  3 active torsions:
REMARK  status: ('A' for Active; 'I' for Inactive)
REMARK    1  A    between atoms: C2_5  and  N2_6 
REMARK    2  A    between atoms: N2_6  and  C3_8 
REMARK    3  A    between atoms: C6_15  and  N5_16 
ROOT
HETATM    1  O1  UNL     1      -9.384 -28.489 -25.178  1.00  0.00    -0.247 OA
HETATM    2  C1  UNL     1     -10.464 -28.532 -25.817  1.00  0.00     0.328 A 
HETATM    3  N1  UNL     1     -11.622 -28.913 -25.211  1.00  0.00    -0.292 N 
ATOM      4  H1  UNL     1     -11.618 -29.168 -24.224  1.00  0.00     0.172 HD
HETATM    5  C2  UNL     1     -12.756 -28.954 -25.897  1.00  0.00     0.151 A 
HETATM    6  C6  UNL     1     -12.756 -28.607 -27.233  1.00  0.00     0.214 A 
HETATM    7  C7  UNL     1     -11.565 -28.228 -27.807  1.00  0.00     0.286 A 
HETATM    8  O4  UNL     1     -11.584 -27.914 -29.028  1.00  0.00    -0.265 OA
HETATM    9  N6  UNL     1     -10.407 -28.184 -27.115  1.00  0.00    -0.273 N 
ATOM     10  H6  UNL     1      -9.531 -27.901 -27.555  1.00  0.00     0.173 HD
ENDROOT
BRANCH   5  11
HETATM   11  N2  UNL     1     -13.956 -29.338 -25.300  1.00  0.00    -0.312 N 
ATOM     12  H2  UNL     1     -14.121 -30.336 -25.172  1.00  0.00     0.170 HD
BRANCH  11  13
HETATM   13  C3  UNL     1     -14.979 -28.430 -24.851  1.00  0.00     0.176 C 
HETATM   14  N3  UNL     1     -16.223 -28.709 -24.807  1.00  0.00    -0.361 N 
HETATM   15  C4  UNL     1     -16.964 -27.583 -24.312  1.00  0.00     0.142 C 
ATOM     16  H3  UNL     1     -16.632 -29.602 -25.082  1.00  0.00     0.162 HD
HETATM   17  C5  UNL     1     -15.997 -26.415 -24.410  1.00  0.00     0.142 C 
HETATM   18  N4  UNL     1     -14.736 -27.112 -24.391  1.00  0.00    -0.361 N 
ATOM     19  H4  UNL     1     -13.837 -26.729 -24.100  1.00  0.00     0.162 HD
ENDBRANCH  11  13
ENDBRANCH   5  11
BRANCH   6  20
HETATM   20  N5  UNL     1     -13.983 -28.659 -27.947  1.00  0.00    -0.106 N 
HETATM   21  O2  UNL     1     -14.885 -27.849 -27.615  1.00  0.00    -0.531 OA
HETATM   22  O3  UNL     1     -14.209 -29.552 -28.969  1.00  0.00    -0.531 OA
ENDBRANCH   6  20
TORSDOF 3
ENDMDL
MODEL 2
REMARK VINA RESULT: -7.235010719      2.707      5.712
REMARK  3 active torsions:
REMARK  status: ('A' for Active; 'I' for Inactive)
REMARK    1  A    between atoms: C2_5  and  N2_6 
REMARK    2  A    between atoms: N2_6  and  C3_8 
REMARK    3  A    between atoms: C6_15  and  N5_16 
ROOT
HETATM    1  O1  UNL     1     -16.813 -28.826 -27.735  1.00  0.00    -0.247 OA
HETATM    2  C1  UNL     1     -16.489 -28.030 -26.819  1.00  0.00     0.328 A 
HETATM    3  N1  UNL     1     -15.181 -27.773 -26.544  1.00  0.00    -0.292 N 
ATOM      4  H1  UNL     1     -14.449 -28.232 -27.087  1.00  0.00     0.172 HD
HETATM    5  C2  UNL     1     -14.853 -26.931 -25.575  1.00  0.00     0.151 A 
HETATM    6  C6  UNL     1     -15.847 -26.312 -24.844  1.00  0.00     0.214 A 
HETATM    7  C7  UNL     1     -17.156 -26.600 -25.154  1.00  0.00     0.286 A 
HETATM    8  O4  UNL     1     -18.051 -26.026 -24.476  1.00  0.00    -0.265 OA
HETATM    9  N6  UNL     1     -17.498 -27.457 -26.139  1.00  0.00    -0.273 N 
ATOM     10  H6  UNL     1     -18.473 -27.660 -26.357  1.00  0.00     0.173 HD
ENDROOT
BRANCH   5  11
HETATM   11  N2  UNL     1     -13.520 -26.648 -25.274  1.00  0.00    -0.312 N 
ATOM     12  H2  UNL     1     -13.334 -25.871 -24.641  1.00  0.00     0.170 HD
BRANCH  11  13
HETATM   13  C3  UNL     1     -12.389 -27.373 -25.792  1.00  0.00     0.176 C 
HETATM   14  N3  UNL     1     -11.709 -27.018 -26.811  1.00  0.00    -0.361 N 
HETATM   15  C4  UNL     1     -10.655 -27.962 -27.054  1.00  0.00     0.142 C 
ATOM     16  H3  UNL     1     -11.889 -26.184 -27.371  1.00  0.00     0.162 HD
HETATM   17  C5  UNL     1     -11.030 -29.178 -26.224  1.00  0.00     0.142 C 
HETATM   18  N4  UNL     1     -11.878 -28.570 -25.231  1.00  0.00    -0.361 N 
ATOM     19  H4  UNL     1     -12.074 -28.933 -24.298  1.00  0.00     0.162 HD
ENDBRANCH  11  13
ENDBRANCH   5  11
BRANCH   6  20
HETATM   20  N5  UNL     1     -15.470 -25.414 -23.810  1.00  0.00    -0.106 N 
HETATM   21  O2  UNL     1     -15.287 -25.892 -22.662  1.00  0.00    -0.531 OA
HETATM   22  O3  UNL     1     -15.304 -24.066 -24.024  1.00  0.00    -0.531 OA
ENDBRANCH   6  20
TORSDOF 3
ENDMDL
MODEL 3
REMARK VINA RESULT: -7.100416798      1.951      3.027
REMARK  3 active torsions:
REMARK  status: ('A' for Active; 'I' for Inactive)
REMARK    1  A    between atoms: C2_5  and  N2_6 
REMARK    2  A    between atoms: N2_6  and  C3_8 
REMARK    3  A    between atoms: C6_15  and  N5_16 
ROOT
HETATM    1  O1  UNL     1     -11.011 -27.259 -27.885  1.00  0.00    -0.247 OA
HETATM    2  C1  UNL     1     -12.183 -27.507 -27.507  1.00  0.00     0.328 A 
HETATM    3  N1  UNL     1     -12.623 -27.106 -26.283  1.00  0.00    -0.292 N 
ATOM      4  H1  UNL     1     -11.996 -26.597 -25.660  1.00  0.00     0.172 HD
HETATM    5  C2  UNL     1     -13.863 -27.373 -25.896  1.00  0.00     0.151 A 
HETATM    6  C6  UNL     1     -14.708 -28.061 -26.743  1.00  0.00     0.214 A 
HETATM    7  C7  UNL     1     -14.223 -28.447 -27.971  1.00  0.00     0.286 A 
HETATM    8  O4  UNL     1     -15.009 -29.074 -28.732  1.00  0.00    -0.265 OA
HETATM    9  N6  UNL     1     -12.963 -28.180 -28.372  1.00  0.00    -0.273 N 
ATOM     10  H6  UNL     1     -12.618 -28.473 -29.286  1.00  0.00     0.173 HD
ENDROOT
BRANCH   5  11
HETATM   11  N2  UNL     1     -14.339 -26.972 -24.648  1.00  0.00    -0.312 N 
ATOM     12  H2  UNL     1     -14.168 -27.591 -23.856  1.00  0.00     0.170 HD
BRANCH  11  13
HETATM   13  C3  UNL     1     -15.054 -25.748 -24.395  1.00  0.00     0.176 C 
HETATM   14  N3  UNL     1     -14.525 -24.588 -24.406  1.00  0.00    -0.361 N 
HETATM   15  C4  UNL     1     -15.516 -23.591 -24.116  1.00  0.00     0.142 C 
ATOM     16  H3  UNL     1     -13.540 -24.397 -24.594  1.00  0.00     0.162 HD
HETATM   17  C5  UNL     1     -16.690 -24.371 -23.549  1.00  0.00     0.142 C 
HETATM   18  N4  UNL     1     -16.441 -25.673 -24.113  1.00  0.00    -0.361 N 
ATOM     19  H4  UNL     1     -17.133 -26.403 -24.278  1.00  0.00     0.162 HD
ENDBRANCH  11  13
ENDBRANCH   5  11
BRANCH   6  20
HETATM   20  N5  UNL     1     -16.030 -28.336 -26.306  1.00  0.00    -0.106 N 
HETATM   21  O2  UNL     1     -16.224 -29.403 -25.670  1.00  0.00    -0.531 OA
HETATM   22  O3  UNL     1     -17.085 -27.487 -26.552  1.00  0.00    -0.531 OA
ENDBRANCH   6  20
TORSDOF 3
ENDMDL
MODEL 4
REMARK VINA RESULT: -6.976710128      2.784      5.670
REMARK  3 active torsions:
REMARK  status: ('A' for Active; 'I' for Inactive)
REMARK    1  A    between atoms: C2_5  and  N2_6 
REMARK    2  A    between atoms: N2_6  and  C3_8 
REMARK    3  A    between atoms: C6_15  and  N5_16 
ROOT
HETATM    1  O1  UNL     1     -17.076 -29.168 -28.466  1.00  0.00    -0.247 OA
HETATM    2  C1  UNL     1     -16.871 -28.431 -27.470  1.00  0.00     0.328 A 
HETATM    3  N1  UNL     1     -15.609 -28.046 -27.132  1.00  0.00    -0.292 N 
ATOM      4  H1  UNL     1     -14.816 -28.358 -27.693  1.00  0.00     0.172 HD
HETATM    5  C2  UNL     1     -15.406 -27.267 -26.079  1.00  0.00     0.151 A 
HETATM    6  C6  UNL     1     -16.483 -26.846 -25.325  1.00  0.00     0.214 A 
HETATM    7  C7  UNL     1     -17.741 -27.258 -25.701  1.00  0.00     0.286 A 
HETATM    8  O4  UNL     1     -18.712 -26.865 -25.001  1.00  0.00    -0.265 OA
HETATM    9  N6  UNL     1     -17.955 -28.052 -26.771  1.00  0.00    -0.273 N 
ATOM     10  H6  UNL     1     -18.894 -28.349 -27.038  1.00  0.00     0.173 HD
ENDROOT
BRANCH   5  11
HETATM   11  N2  UNL     1     -14.125 -26.856 -25.712  1.00  0.00    -0.312 N 
ATOM     12  H2  UNL     1     -14.042 -26.001 -25.162  1.00  0.00     0.170 HD
BRANCH  11  13
HETATM   13  C3  UNL     1     -12.910 -27.550 -26.052  1.00  0.00     0.176 C 
HETATM   14  N3  UNL     1     -12.382 -28.471 -25.344  1.00  0.00    -0.361 N 
HETATM   15  C4  UNL     1     -11.182 -28.947 -25.970  1.00  0.00     0.142 C 
ATOM     16  H3  UNL     1     -12.759 -28.817 -24.462  1.00  0.00     0.162 HD
HETATM   17  C5  UNL     1     -10.849 -27.894 -27.014  1.00  0.00     0.142 C 
HETATM   18  N4  UNL     1     -12.149 -27.308 -27.223  1.00  0.00    -0.361 N 
ATOM     19  H4  UNL     1     -12.462 -26.812 -28.057  1.00  0.00     0.162 HD
ENDBRANCH  11  13
ENDBRANCH   5  11
BRANCH   6  20
HETATM   20  N5  UNL     1     -16.240 -26.013 -24.201  1.00  0.00    -0.106 N 
HETATM   21  O2  UNL     1     -16.342 -24.771 -24.364  1.00  0.00    -0.531 OA
HETATM   22  O3  UNL     1     -15.902 -26.515 -22.965  1.00  0.00    -0.531 OA
ENDBRANCH   6  20
TORSDOF 3
ENDMDL
MODEL 5
REMARK VINA RESULT: -6.963456625      2.367      5.061
REMARK  3 active torsions:
REMARK  status: ('A' for Active; 'I' for Inactive)
REMARK    1  A    between atoms: C2_5  and  N2_6 
REMARK    2  A    between atoms: N2_6  and  C3_8 
REMARK    3  A    between atoms: C6_15  and  N5_16 
ROOT
HETATM    1  O1  UNL     1     -15.370 -24.408 -22.818  1.00  0.00    -0.247 OA
HETATM    2  C1  UNL     1     -15.561 -25.379 -23.593  1.00  0.00     0.328 A 
HETATM    3  N1  UNL     1     -14.574 -26.285 -23.836  1.00  0.00    -0.292 N 
ATOM      4  H1  UNL     1     -13.665 -26.177 -23.385  1.00  0.00     0.172 HD
HETATM    5  C2  UNL     1     -14.788 -27.305 -24.654  1.00  0.00     0.151 A 
HETATM    6  C6  UNL     1     -16.020 -27.446 -25.260  1.00  0.00     0.214 A 
HETATM    7  C7  UNL     1     -16.989 -26.508 -24.987  1.00  0.00     0.286 A 
HETATM    8  O4  UNL     1     -18.108 -26.653 -25.549  1.00  0.00    -0.265 OA
HETATM    9  N6  UNL     1     -16.779 -25.467 -24.156  1.00  0.00    -0.273 N 
ATOM     10  H6  UNL     1     -17.508 -24.780 -23.963  1.00  0.00     0.173 HD
ENDROOT
BRANCH   5  11
HETATM   11  N2  UNL     1     -13.795 -28.248 -24.919  1.00  0.00    -0.312 N 
ATOM     12  H2  UNL     1     -13.847 -29.139 -24.426  1.00  0.00     0.170 HD
BRANCH  11  13
HETATM   13  C3  UNL     1     -12.702 -28.056 -25.836  1.00  0.00     0.176 C 
HETATM   14  N3  UNL     1     -12.821 -28.033 -27.106  1.00  0.00    -0.361 N 
HETATM   15  C4  UNL     1     -11.540 -27.823 -27.718  1.00  0.00     0.142 C 
ATOM     16  H3  UNL     1     -13.699 -28.147 -27.612  1.00  0.00     0.162 HD
HETATM   17  C5  UNL     1     -10.537 -28.095 -26.610  1.00  0.00     0.142 C 
HETATM   18  N4  UNL     1     -11.354 -27.858 -25.447  1.00  0.00    -0.361 N 
ATOM     19  H4  UNL     1     -11.024 -27.596 -24.519  1.00  0.00     0.162 HD
ENDBRANCH  11  13
ENDBRANCH   5  11
BRANCH   6  20
HETATM   20  N5  UNL     1     -16.224 -28.547 -26.133  1.00  0.00    -0.106 N 
HETATM   21  O2  UNL     1     -16.779 -29.571 -25.660  1.00  0.00    -0.531 OA
HETATM   22  O3  UNL     1     -15.841 -28.527 -27.454  1.00  0.00    -0.531 OA
ENDBRANCH   6  20
TORSDOF 3
ENDMDL
