MODEL 1
REMARK VINA RESULT: -5.712534353      0.000      0.000
REMARK  5 active torsions:
REMARK  status: ('A' for Active; 'I' for Inactive)
REMARK    1  A    between atoms: N1_1  and  C1_4 
REMARK    2  A    between atoms: C3_10  and  N4_11 
REMARK    3  A    between atoms: N4_11  and  O1_12 
REMARK    4  A    between atoms: N4_11  and  C4_14 
REMARK    5  A    between atoms: C5_16  and  N5_17 
ROOT
HETATM    1  C1  UNL     1     -15.491 -26.198 -24.669  1.00  0.00     0.130 A 
HETATM    2  N2  UNL     1     -16.505 -25.494 -24.140  1.00  0.00    -0.337 N 
ATOM      3  H2  UNL     1     -16.299 -24.680 -23.562  1.00  0.00     0.168 HD
HETATM    4  C2  UNL     1     -17.789 -25.841 -24.358  1.00  0.00     0.183 A 
HETATM    5  N3  UNL     1     -18.062 -26.911 -25.117  1.00  0.00    -0.335 N 
ATOM      6  H3  UNL     1     -19.039 -27.162 -25.272  1.00  0.00     0.168 HD
HETATM    7  C3  UNL     1     -17.086 -27.685 -25.696  1.00  0.00     0.167 A 
HETATM    8  C5  UNL     1     -15.797 -27.309 -25.459  1.00  0.00     0.121 A 
ENDROOT
BRANCH   8   9
HETATM    9  N5  UNL     1     -14.718 -28.032 -26.006  1.00  0.00    -0.372 N 
HETATM   10  C6  UNL     1     -14.017 -28.953 -25.138  1.00  0.00     0.150 C 
HETATM   11  C7  UNL     1     -12.759 -29.515 -25.679  1.00  0.00     0.252 C 
HETATM   12  N6  UNL     1     -12.478 -29.297 -27.052  1.00  0.00    -0.072 N 
HETATM   13  C8  UNL     1     -12.779 -27.895 -27.377  1.00  0.00     0.252 C 
ATOM     14  H62 UNL     1     -11.524 -29.560 -27.301  1.00  0.00     0.277 HD
ATOM     15  H61 UNL     1     -12.968 -29.954 -27.660  1.00  0.00     0.277 HD
HETATM   16  C9  UNL     1     -14.318 -27.844 -27.396  1.00  0.00     0.150 C 
ENDBRANCH   8   9
BRANCH   1  17
HETATM   17  N1  UNL     1     -14.258 -25.910 -24.491  1.00  0.00    -0.383 N 
ATOM     18  H12 UNL     1     -13.911 -25.866 -23.533  1.00  0.00     0.157 HD
ATOM     19  H11 UNL     1     -13.604 -25.722 -25.251  1.00  0.00     0.157 HD
ENDBRANCH   1  17
BRANCH   7  20
HETATM   20  N4  UNL     1     -17.424 -28.795 -26.491  1.00  0.00    -0.179 N 
BRANCH  20  21
HETATM   21  O1  UNL     1     -17.424 -30.019 -25.926  1.00  0.00    -0.279 OA
ATOM     22  H1  UNL     1     -18.092 -30.223 -25.282  1.00  0.00     0.245 HD
ENDBRANCH  20  21
BRANCH  20  23
HETATM   23  C4  UNL     1     -17.752 -28.707 -27.873  1.00  0.00     0.383 C 
HETATM   24  O2  UNL     1     -17.555 -29.709 -28.634  1.00  0.00    -0.281 OA
ENDBRANCH  20  23
ENDBRANCH   7  20
TORSDOF 5
ENDMDL
MODEL 2
REMARK VINA RESULT: -5.694891181      2.418      3.383
REMARK  5 active torsions:
REMARK  status: ('A' for Active; 'I' for Inactive)
REMARK    1  A    between atoms: N1_1  and  C1_4 
REMARK    2  A    between atoms: C3_10  and  N4_11 
REMARK    3  A    between atoms: N4_11  and  O1_12 
REMARK    4  A    between atoms: N4_11  and  C4_14 
REMARK    5  A    between atoms: C5_16  and  N5_17 
ROOT
HETATM    1  C1  UNL     1     -16.165 -28.104 -25.770  1.00  0.00     0.130 A 
HETATM    2  N2  UNL     1     -17.398 -28.246 -26.282  1.00  0.00    -0.337 N 
ATOM      3  H2  UNL     1     -18.208 -28.135 -25.672  1.00  0.00     0.168 HD
HETATM    4  C2  UNL     1     -17.589 -28.532 -27.585  1.00  0.00     0.183 A 
HETATM    5  N3  UNL     1     -16.527 -28.678 -28.390  1.00  0.00    -0.335 N 
ATOM      6  H3  UNL     1     -16.688 -28.896 -29.373  1.00  0.00     0.168 HD
HETATM    7  C3  UNL     1     -15.233 -28.549 -27.949  1.00  0.00     0.167 A 
HETATM    8  C5  UNL     1     -15.072 -28.260 -26.626  1.00  0.00     0.121 A 
ENDROOT
BRANCH   8   9
HETATM    9  N5  UNL     1     -13.785 -28.104 -26.069  1.00  0.00    -0.372 N 
HETATM   10  C6  UNL     1     -13.265 -26.761 -25.944  1.00  0.00     0.150 C 
HETATM   11  C7  UNL     1     -11.836 -26.656 -25.574  1.00  0.00     0.252 C 
HETATM   12  N6  UNL     1     -11.177 -27.839 -25.153  1.00  0.00    -0.072 N 
HETATM   13  C8  UNL     1     -11.557 -28.936 -26.056  1.00  0.00     0.252 C 
ATOM     14  H62 UNL     1     -10.166 -27.720 -25.086  1.00  0.00     0.277 HD
ATOM     15  H61 UNL     1     -11.358 -28.059 -24.173  1.00  0.00     0.277 HD
HETATM   16  C9  UNL     1     -13.005 -29.262 -25.649  1.00  0.00     0.150 C 
ENDBRANCH   8   9
BRANCH   1  17
HETATM   17  N1  UNL     1     -15.932 -27.835 -24.543  1.00  0.00    -0.383 N 
ATOM     18  H12 UNL     1     -15.404 -28.515 -23.996  1.00  0.00     0.157 HD
ATOM     19  H11 UNL     1     -16.244 -26.981 -24.080  1.00  0.00     0.157 HD
ENDBRANCH   1  17
BRANCH   7  20
HETATM   20  N4  UNL     1     -14.150 -28.706 -28.834  1.00  0.00    -0.179 N 
BRANCH  20  21
HETATM   21  O1  UNL     1     -13.189 -27.762 -28.853  1.00  0.00    -0.279 OA
ATOM     22  H1  UNL     1     -12.333 -27.990 -29.195  1.00  0.00     0.245 HD
ENDBRANCH  20  21
BRANCH  20  23
HETATM   23  C4  UNL     1     -14.016 -29.802 -29.730  1.00  0.00     0.383 C 
HETATM   24  O2  UNL     1     -13.248 -29.701 -30.742  1.00  0.00    -0.281 OA
ENDBRANCH  20  23
ENDBRANCH   7  20
TORSDOF 5
ENDMDL
MODEL 3
REMARK VINA RESULT: -5.608095722      1.975      3.476
REMARK  5 active torsions:
REMARK  status: ('A' for Active; 'I' for Inactive)
REMARK    1  A    between atoms: N1_1  and  C1_4 
REMARK    2  A    between atoms: C3_10  and  N4_11 
REMARK    3  A    between atoms: N4_11  and  O1_12 
REMARK    4  A    between atoms: N4_11  and  C4_14 
REMARK    5  A    between atoms: C5_16  and  N5_17 
ROOT
HETATM    1  C1  UNL     1     -15.565 -28.673 -28.129  1.00  0.00     0.130 A 
HETATM    2  N2  UNL     1     -16.774 -28.812 -28.697  1.00  0.00    -0.337 N 
ATOM      3  H2  UNL     1     -16.838 -29.138 -29.662  1.00  0.00     0.168 HD
HETATM    4  C2  UNL     1     -17.904 -28.531 -28.020  1.00  0.00     0.183 A 
HETATM    5  N3  UNL     1     -17.824 -28.103 -26.753  1.00  0.00    -0.335 N 
ATOM      6  H3  UNL     1     -18.688 -27.893 -26.254  1.00  0.00     0.168 HD
HETATM    7  C3  UNL     1     -16.629 -27.933 -26.097  1.00  0.00     0.167 A 
HETATM    8  C5  UNL     1     -15.503 -28.226 -26.807  1.00  0.00     0.121 A 
ENDROOT
BRANCH   8   9
HETATM    9  N5  UNL     1     -14.224 -28.089 -26.229  1.00  0.00    -0.372 N 
HETATM   10  C6  UNL     1     -13.522 -26.842 -26.438  1.00  0.00     0.150 C 
HETATM   11  C7  UNL     1     -12.104 -26.824 -26.016  1.00  0.00     0.252 C 
HETATM   12  N6  UNL     1     -11.632 -27.917 -25.247  1.00  0.00    -0.072 N 
HETATM   13  C8  UNL     1     -12.138 -29.163 -25.842  1.00  0.00     0.252 C 
ATOM     14  H62 UNL     1     -10.616 -27.916 -25.148  1.00  0.00     0.277 HD
ATOM     15  H61 UNL     1     -11.870 -27.831 -24.258  1.00  0.00     0.277 HD
HETATM   16  C9  UNL     1     -13.629 -29.175 -25.459  1.00  0.00     0.150 C 
ENDBRANCH   8   9
BRANCH   1  17
HETATM   17  N1  UNL     1     -14.465 -28.925 -28.730  1.00  0.00    -0.383 N 
ATOM     18  H12 UNL     1     -14.381 -29.814 -29.222  1.00  0.00     0.157 HD
ATOM     19  H11 UNL     1     -13.668 -28.289 -28.744  1.00  0.00     0.157 HD
ENDBRANCH   1  17
BRANCH   7  20
HETATM   20  N4  UNL     1     -16.596 -27.487 -24.762  1.00  0.00    -0.179 N 
BRANCH  20  21
HETATM   21  O1  UNL     1     -16.647 -28.402 -23.773  1.00  0.00    -0.279 OA
ATOM     22  H1  UNL     1     -15.842 -28.633 -23.325  1.00  0.00     0.245 HD
ENDBRANCH  20  21
BRANCH  20  23
HETATM   23  C4  UNL     1     -16.528 -26.116 -24.390  1.00  0.00     0.383 C 
HETATM   24  O2  UNL     1     -17.573 -25.391 -24.453  1.00  0.00    -0.281 OA
ENDBRANCH  20  23
ENDBRANCH   7  20
TORSDOF 5
ENDMDL
MODEL 4
REMARK VINA RESULT: -5.596095132      2.484      4.638
REMARK  5 active torsions:
REMARK  status: ('A' for Active; 'I' for Inactive)
REMARK    1  A    between atoms: N1_1  and  C1_4 
REMARK    2  A    between atoms: C3_10  and  N4_11 
REMARK    3  A    between atoms: N4_11  and  O1_12 
REMARK    4  A    between atoms: N4_11  and  C4_14 
REMARK    5  A    between atoms: C5_16  and  N5_17 
ROOT
HETATM    1  C1  UNL     1     -14.647 -26.663 -25.451  1.00  0.00     0.130 A 
HETATM    2  N2  UNL     1     -14.851 -27.470 -26.504  1.00  0.00    -0.337 N 
ATOM      3  H2  UNL     1     -14.064 -27.715 -27.105  1.00  0.00     0.168 HD
HETATM    4  C2  UNL     1     -16.073 -27.963 -26.785  1.00  0.00     0.183 A 
HETATM    5  N3  UNL     1     -17.109 -27.643 -25.998  1.00  0.00    -0.335 N 
ATOM      6  H3  UNL     1     -18.029 -28.024 -26.223  1.00  0.00     0.168 HD
HETATM    7  C3  UNL     1     -16.988 -26.826 -24.901  1.00  0.00     0.167 A 
HETATM    8  C5  UNL     1     -15.740 -26.342 -24.642  1.00  0.00     0.121 A 
ENDROOT
BRANCH   8   9
HETATM    9  N5  UNL     1     -15.504 -25.495 -23.540  1.00  0.00    -0.372 N 
HETATM   10  C6  UNL     1     -15.152 -26.114 -22.281  1.00  0.00     0.150 C 
HETATM   11  C7  UNL     1     -15.140 -25.216 -21.104  1.00  0.00     0.252 C 
HETATM   12  N6  UNL     1     -15.236 -23.820 -21.341  1.00  0.00    -0.072 N 
HETATM   13  C8  UNL     1     -16.278 -23.586 -22.352  1.00  0.00     0.252 C 
ATOM     14  H62 UNL     1     -15.397 -23.289 -20.484  1.00  0.00     0.277 HD
ATOM     15  H61 UNL     1     -14.341 -23.405 -21.598  1.00  0.00     0.277 HD
HETATM   16  C9  UNL     1     -15.625 -24.048 -23.667  1.00  0.00     0.150 C 
ENDBRANCH   8   9
BRANCH   1  17
HETATM   17  N1  UNL     1     -13.509 -26.169 -25.145  1.00  0.00    -0.383 N 
ATOM     18  H12 UNL     1     -13.455 -25.166 -24.966  1.00  0.00     0.157 HD
ATOM     19  H11 UNL     1     -12.653 -26.719 -25.070  1.00  0.00     0.157 HD
ENDBRANCH   1  17
BRANCH   7  20
HETATM   20  N4  UNL     1     -18.105 -26.523 -24.100  1.00  0.00    -0.179 N 
BRANCH  20  21
HETATM   21  O1  UNL     1     -18.767 -25.370 -24.321  1.00  0.00    -0.279 OA
ATOM     22  H1  UNL     1     -18.540 -24.608 -23.800  1.00  0.00     0.245 HD
ENDBRANCH  20  21
BRANCH  20  23
HETATM   23  C4  UNL     1     -18.574 -27.361 -23.050  1.00  0.00     0.383 C 
HETATM   24  O2  UNL     1     -17.887 -28.372 -22.693  1.00  0.00    -0.281 OA
ENDBRANCH  20  23
ENDBRANCH   7  20
TORSDOF 5
ENDMDL
MODEL 5
REMARK VINA RESULT: -5.521888361      2.596      4.984
REMARK  5 active torsions:
REMARK  status: ('A' for Active; 'I' for Inactive)
REMARK    1  A    between atoms: N1_1  and  C1_4 
REMARK    2  A    between atoms: C3_10  and  N4_11 
REMARK    3  A    between atoms: N4_11  and  O1_12 
REMARK    4  A    between atoms: N4_11  and  C4_14 
REMARK    5  A    between atoms: C5_16  and  N5_17 
ROOT
HETATM    1  C1  UNL     1     -15.731 -28.471 -27.988  1.00  0.00     0.130 A 
HETATM    2  N2  UNL     1     -15.255 -28.894 -29.170  1.00  0.00    -0.337 N 
ATOM      3  H2  UNL     1     -15.880 -28.931 -29.976  1.00  0.00     0.168 HD
HETATM    4  C2  UNL     1     -13.969 -29.269 -29.316  1.00  0.00     0.183 A 
HETATM    5  N3  UNL     1     -13.146 -29.221 -28.260  1.00  0.00    -0.335 N 
ATOM      6  H3  UNL     1     -12.175 -29.510 -28.386  1.00  0.00     0.168 HD
HETATM    7  C3  UNL     1     -13.550 -28.801 -27.017  1.00  0.00     0.167 A 
HETATM    8  C5  UNL     1     -14.856 -28.427 -26.900  1.00  0.00     0.121 A 
ENDROOT
BRANCH   8   9
HETATM    9  N5  UNL     1     -15.375 -27.978 -25.669  1.00  0.00    -0.372 N 
HETATM   10  C6  UNL     1     -16.268 -28.862 -24.953  1.00  0.00     0.150 C 
HETATM   11  C7  UNL     1     -16.966 -28.269 -23.791  1.00  0.00     0.252 C 
HETATM   12  N6  UNL     1     -16.536 -26.993 -23.346  1.00  0.00    -0.072 N 
HETATM   13  C8  UNL     1     -16.333 -26.129 -24.519  1.00  0.00     0.252 C 
ATOM     14  H62 UNL     1     -17.173 -26.582 -22.664  1.00  0.00     0.277 HD
ATOM     15  H61 UNL     1     -15.708 -27.046 -22.751  1.00  0.00     0.277 HD
HETATM   16  C9  UNL     1     -15.031 -26.660 -25.146  1.00  0.00     0.150 C 
ENDBRANCH   8   9
BRANCH   1  17
HETATM   17  N1  UNL     1     -16.941 -28.106 -27.799  1.00  0.00    -0.383 N 
ATOM     18  H12 UNL     1     -17.108 -27.160 -27.454  1.00  0.00     0.157 HD
ATOM     19  H11 UNL     1     -17.748 -28.705 -27.973  1.00  0.00     0.157 HD
ENDBRANCH   1  17
BRANCH   7  20
HETATM   20  N4  UNL     1     -12.645 -28.762 -25.940  1.00  0.00    -0.179 N 
BRANCH  20  21
HETATM   21  O1  UNL     1     -12.767 -29.679 -24.959  1.00  0.00    -0.279 OA
ATOM     22  H1  UNL     1     -12.949 -29.381 -24.076  1.00  0.00     0.245 HD
ENDBRANCH  20  21
BRANCH  20  23
HETATM   23  C4  UNL     1     -11.611 -27.794 -25.812  1.00  0.00     0.383 C 
HETATM   24  O2  UNL     1     -11.056 -27.321 -26.856  1.00  0.00    -0.281 OA
ENDBRANCH  20  23
ENDBRANCH   7  20
TORSDOF 5
ENDMDL
