MODEL 1
REMARK VINA RESULT: -7.601770725      0.000      0.000
REMARK  3 active torsions:
REMARK  status: ('A' for Active; 'I' for Inactive)
REMARK    1  A    between atoms: C2_3  and  C3_4 
REMARK    2  A    between atoms: C6_11  and  N4_12 
REMARK    3  A    between atoms: N4_12  and  N5_14 
REMARK       I    between atoms: N5_14  and  C7_16 
ROOT
HETATM    1  C1  UNL     1     -18.251 -27.535 -25.856  1.00  0.00     0.158 C 
HETATM    2  N1  UNL     1     -17.145 -26.843 -25.258  1.00  0.00    -0.331 N 
HETATM    3  C2  UNL     1     -17.224 -25.966 -24.244  1.00  0.00     0.174 A 
HETATM    4  N3  UNL     1     -15.975 -25.541 -23.979  1.00  0.00    -0.336 N 
ATOM      5  H3  UNL     1     -15.714 -24.869 -23.257  1.00  0.00     0.168 HD
HETATM    6  C4  UNL     1     -15.127 -26.157 -24.831  1.00  0.00     0.063 A 
HETATM    7  C5  UNL     1     -13.759 -26.118 -25.027  1.00  0.00     0.062 A 
HETATM    8  C6  UNL     1     -13.157 -26.878 -26.000  1.00  0.00     0.050 A 
HETATM    9  C8  UNL     1     -13.899 -27.707 -26.816  1.00  0.00     0.033 A 
HETATM   10  C9  UNL     1     -15.258 -27.755 -26.633  1.00  0.00     0.034 A 
HETATM   11  C10 UNL     1     -15.852 -26.993 -25.656  1.00  0.00     0.062 A 
ENDROOT
BRANCH   8  12
HETATM   12  N4  UNL     1     -11.739 -26.825 -26.189  1.00  0.00    -0.297 N 
ATOM     13  H4  UNL     1     -11.333 -26.184 -26.871  1.00  0.00     0.187 HD
BRANCH  12  14
HETATM   14  N5  UNL     1     -10.923 -27.657 -25.434  1.00  0.00    -0.254 N 
HETATM   15  C7  UNL     1     -10.355 -28.821 -26.005  1.00  0.00     0.347 C 
HETATM   16  N6  UNL     1      -9.526 -29.640 -25.194  1.00  0.00    -0.038 NA
HETATM   17  O2  UNL     1     -10.606 -29.084 -27.204  1.00  0.00    -0.249 OA
ATOM     18  H5  UNL     1     -10.731 -27.427 -24.458  1.00  0.00     0.191 HD
ENDBRANCH  12  14
ENDBRANCH   8  12
BRANCH   3  19
HETATM   19  C3  UNL     1     -18.468 -25.576 -23.582  1.00  0.00     0.299 C 
HETATM   20  N2  UNL     1     -18.906 -26.283 -22.431  1.00  0.00    -0.054 NA
HETATM   21  O1  UNL     1     -19.167 -24.626 -24.006  1.00  0.00    -0.268 OA
ENDBRANCH   3  19
TORSDOF 3
ENDMDL
MODEL 2
REMARK VINA RESULT: -7.483860420      1.984      6.358
REMARK  3 active torsions:
REMARK  status: ('A' for Active; 'I' for Inactive)
REMARK    1  A    between atoms: C2_3  and  C3_4 
REMARK    2  A    between atoms: C6_11  and  N4_12 
REMARK    3  A    between atoms: N4_12  and  N5_14 
REMARK       I    between atoms: N5_14  and  C7_16 
ROOT
HETATM    1  C1  UNL     1     -14.218 -28.910 -28.690  1.00  0.00     0.158 C 
HETATM    2  N1  UNL     1     -14.094 -28.138 -27.486  1.00  0.00    -0.331 N 
HETATM    3  C2  UNL     1     -12.944 -27.696 -26.953  1.00  0.00     0.174 A 
HETATM    4  N3  UNL     1     -13.252 -27.020 -25.832  1.00  0.00    -0.336 N 
ATOM      5  H3  UNL     1     -12.585 -26.565 -25.207  1.00  0.00     0.168 HD
HETATM    6  C4  UNL     1     -14.594 -27.045 -25.675  1.00  0.00     0.063 A 
HETATM    7  C5  UNL     1     -15.465 -26.534 -24.732  1.00  0.00     0.062 A 
HETATM    8  C6  UNL     1     -16.821 -26.725 -24.836  1.00  0.00     0.050 A 
HETATM    9  C8  UNL     1     -17.359 -27.437 -25.888  1.00  0.00     0.033 A 
HETATM   10  C9  UNL     1     -16.506 -27.952 -26.831  1.00  0.00     0.034 A 
HETATM   11  C10 UNL     1     -15.151 -27.754 -26.719  1.00  0.00     0.062 A 
ENDROOT
BRANCH   8  12
HETATM   12  N4  UNL     1     -17.708 -26.187 -23.851  1.00  0.00    -0.297 N 
ATOM     13  H4  UNL     1     -17.915 -25.188 -23.833  1.00  0.00     0.187 HD
BRANCH  12  14
HETATM   14  N5  UNL     1     -18.285 -27.041 -22.919  1.00  0.00    -0.254 N 
HETATM   15  C7  UNL     1     -17.702 -27.210 -21.640  1.00  0.00     0.347 C 
HETATM   16  N6  UNL     1     -18.328 -28.092 -20.720  1.00  0.00    -0.038 NA
HETATM   17  O2  UNL     1     -16.656 -26.575 -21.369  1.00  0.00    -0.249 OA
ATOM     18  H5  UNL     1     -19.136 -27.550 -23.158  1.00  0.00     0.191 HD
ENDBRANCH  12  14
ENDBRANCH   8  12
BRANCH   3  19
HETATM   19  C3  UNL     1     -11.620 -27.935 -27.526  1.00  0.00     0.299 C 
HETATM   20  N2  UNL     1     -10.726 -28.834 -26.887  1.00  0.00    -0.054 NA
HETATM   21  O1  UNL     1     -11.247 -27.362 -28.578  1.00  0.00    -0.268 OA
ENDBRANCH   3  19
TORSDOF 3
ENDMDL
MODEL 3
REMARK VINA RESULT: -7.458955777      1.835      6.386
REMARK  3 active torsions:
REMARK  status: ('A' for Active; 'I' for Inactive)
REMARK    1  A    between atoms: C2_3  and  C3_4 
REMARK    2  A    between atoms: C6_11  and  N4_12 
REMARK    3  A    between atoms: N4_12  and  N5_14 
REMARK       I    between atoms: N5_14  and  C7_16 
ROOT
HETATM    1  C1  UNL     1     -14.221 -28.914 -28.678  1.00  0.00     0.158 C 
HETATM    2  N1  UNL     1     -14.100 -28.135 -27.478  1.00  0.00    -0.331 N 
HETATM    3  C2  UNL     1     -12.951 -27.700 -26.938  1.00  0.00     0.174 A 
HETATM    4  N3  UNL     1     -13.262 -27.013 -25.825  1.00  0.00    -0.336 N 
ATOM      5  H3  UNL     1     -12.597 -26.560 -25.197  1.00  0.00     0.168 HD
HETATM    6  C4  UNL     1     -14.605 -27.026 -25.678  1.00  0.00     0.063 A 
HETATM    7  C5  UNL     1     -15.480 -26.500 -24.747  1.00  0.00     0.062 A 
HETATM    8  C6  UNL     1     -16.836 -26.680 -24.861  1.00  0.00     0.050 A 
HETATM    9  C8  UNL     1     -17.373 -27.394 -25.913  1.00  0.00     0.033 A 
HETATM   10  C9  UNL     1     -16.516 -27.922 -26.845  1.00  0.00     0.034 A 
HETATM   11  C10 UNL     1     -15.160 -27.736 -26.723  1.00  0.00     0.062 A 
ENDROOT
BRANCH   8  12
HETATM   12  N4  UNL     1     -17.727 -26.127 -23.887  1.00  0.00    -0.297 N 
ATOM     13  H4  UNL     1     -18.729 -26.317 -23.938  1.00  0.00     0.187 HD
BRANCH  12  14
HETATM   14  N5  UNL     1     -17.213 -25.331 -22.871  1.00  0.00    -0.254 N 
HETATM   15  C7  UNL     1     -17.104 -23.930 -23.041  1.00  0.00     0.347 C 
HETATM   16  N6  UNL     1     -16.574 -23.157 -21.975  1.00  0.00    -0.038 NA
HETATM   17  O2  UNL     1     -17.480 -23.426 -24.125  1.00  0.00    -0.249 OA
ATOM     18  H5  UNL     1     -16.912 -25.760 -21.996  1.00  0.00     0.191 HD
ENDBRANCH  12  14
ENDBRANCH   8  12
BRANCH   3  19
HETATM   19  C3  UNL     1     -11.624 -27.955 -27.498  1.00  0.00     0.299 C 
HETATM   20  N2  UNL     1     -10.748 -28.864 -26.851  1.00  0.00    -0.054 NA
HETATM   21  O1  UNL     1     -11.234 -27.386 -28.546  1.00  0.00    -0.268 OA
ENDBRANCH   3  19
TORSDOF 3
ENDMDL
MODEL 4
REMARK VINA RESULT: -7.321799908      2.086      6.396
REMARK  3 active torsions:
REMARK  status: ('A' for Active; 'I' for Inactive)
REMARK    1  A    between atoms: C2_3  and  C3_4 
REMARK    2  A    between atoms: C6_11  and  N4_12 
REMARK    3  A    between atoms: N4_12  and  N5_14 
REMARK       I    between atoms: N5_14  and  C7_16 
ROOT
HETATM    1  C1  UNL     1     -14.112 -29.034 -29.063  1.00  0.00     0.158 C 
HETATM    2  N1  UNL     1     -14.174 -28.310 -27.825  1.00  0.00    -0.331 N 
HETATM    3  C2  UNL     1     -13.123 -27.816 -27.151  1.00  0.00     0.174 A 
HETATM    4  N3  UNL     1     -13.599 -27.213 -26.047  1.00  0.00    -0.336 N 
ATOM      5  H3  UNL     1     -13.038 -26.743 -25.335  1.00  0.00     0.168 HD
HETATM    6  C4  UNL     1     -14.944 -27.336 -26.040  1.00  0.00     0.063 A 
HETATM    7  C5  UNL     1     -15.947 -26.926 -25.182  1.00  0.00     0.062 A 
HETATM    8  C6  UNL     1     -17.266 -27.204 -25.443  1.00  0.00     0.050 A 
HETATM    9  C8  UNL     1     -17.636 -27.902 -26.574  1.00  0.00     0.033 A 
HETATM   10  C9  UNL     1     -16.651 -28.315 -27.435  1.00  0.00     0.034 A 
HETATM   11  C10 UNL     1     -15.333 -28.032 -27.166  1.00  0.00     0.062 A 
ENDROOT
BRANCH   8  12
HETATM   12  N4  UNL     1     -18.291 -26.772 -24.542  1.00  0.00    -0.297 N 
ATOM     13  H4  UNL     1     -19.207 -26.494 -24.898  1.00  0.00     0.187 HD
BRANCH  12  14
HETATM   14  N5  UNL     1     -18.027 -26.735 -23.179  1.00  0.00    -0.254 N 
HETATM   15  C7  UNL     1     -18.233 -27.881 -22.374  1.00  0.00     0.347 C 
HETATM   16  N6  UNL     1     -17.948 -27.796 -20.987  1.00  0.00    -0.038 NA
HETATM   17  O2  UNL     1     -18.661 -28.926 -22.918  1.00  0.00    -0.249 OA
ATOM     18  H5  UNL     1     -17.681 -25.874 -22.755  1.00  0.00     0.191 HD
ENDBRANCH  12  14
ENDBRANCH   8  12
BRANCH   3  19
HETATM   19  C3  UNL     1     -11.732 -27.939 -27.582  1.00  0.00     0.299 C 
HETATM   20  N2  UNL     1     -10.874 -28.872 -26.941  1.00  0.00    -0.054 NA
HETATM   21  O1  UNL     1     -11.268 -27.237 -28.512  1.00  0.00    -0.268 OA
ENDBRANCH   3  19
TORSDOF 3
ENDMDL
MODEL 5
REMARK VINA RESULT: -7.277941216      1.582      1.861
REMARK  3 active torsions:
REMARK  status: ('A' for Active; 'I' for Inactive)
REMARK    1  A    between atoms: C2_3  and  C3_4 
REMARK    2  A    between atoms: C6_11  and  N4_12 
REMARK    3  A    between atoms: N4_12  and  N5_14 
REMARK       I    between atoms: N5_14  and  C7_16 
ROOT
HETATM    1  C1  UNL     1     -17.953 -28.867 -27.907  1.00  0.00     0.158 C 
HETATM    2  N1  UNL     1     -17.336 -28.158 -26.821  1.00  0.00    -0.331 N 
HETATM    3  C2  UNL     1     -17.971 -27.658 -25.749  1.00  0.00     0.174 A 
HETATM    4  N3  UNL     1     -17.046 -27.069 -24.970  1.00  0.00    -0.336 N 
ATOM      5  H3  UNL     1     -17.225 -26.599 -24.082  1.00  0.00     0.168 HD
HETATM    6  C4  UNL     1     -15.840 -27.206 -25.564  1.00  0.00     0.063 A 
HETATM    7  C5  UNL     1     -14.555 -26.814 -25.240  1.00  0.00     0.062 A 
HETATM    8  C6  UNL     1     -13.493 -27.102 -26.063  1.00  0.00     0.050 A 
HETATM    9  C8  UNL     1     -13.675 -27.795 -27.241  1.00  0.00     0.033 A 
HETATM   10  C9  UNL     1     -14.946 -28.191 -27.576  1.00  0.00     0.034 A 
HETATM   11  C10 UNL     1     -16.002 -27.898 -26.747  1.00  0.00     0.062 A 
ENDROOT
BRANCH   8  12
HETATM   12  N4  UNL     1     -12.169 -26.688 -25.711  1.00  0.00    -0.297 N 
ATOM     13  H4  UNL     1     -11.880 -25.719 -25.842  1.00  0.00     0.187 HD
BRANCH  12  14
HETATM   14  N5  UNL     1     -11.282 -27.622 -25.190  1.00  0.00    -0.254 N 
HETATM   15  C7  UNL     1     -10.368 -28.297 -26.035  1.00  0.00     0.347 C 
HETATM   16  N6  UNL     1      -9.480 -29.241 -25.457  1.00  0.00    -0.038 NA
HETATM   17  O2  UNL     1     -10.378 -28.033 -27.260  1.00  0.00    -0.249 OA
ATOM     18  H5  UNL     1     -11.290 -27.824 -24.190  1.00  0.00     0.191 HD
ENDBRANCH  12  14
ENDBRANCH   8  12
BRANCH   3  19
HETATM   19  C3  UNL     1     -19.411 -27.762 -25.517  1.00  0.00     0.299 C 
HETATM   20  N2  UNL     1     -19.932 -28.872 -24.802  1.00  0.00    -0.054 NA
HETATM   21  O1  UNL     1     -20.208 -26.889 -25.936  1.00  0.00    -0.268 OA
ENDBRANCH   3  19
TORSDOF 3
ENDMDL
