MODEL 1
REMARK VINA RESULT: -6.522884112      0.000      0.000
REMARK  4 active torsions:
REMARK  status: ('A' for Active; 'I' for Inactive)
REMARK    1  A    between atoms: N3_5  and  N4_6 
REMARK    2  A    between atoms: C2_9  and  C3_10 
REMARK    3  A    between atoms: C3_10  and  N6_14 
REMARK    4  A    between atoms: N6_14  and  N7_16 
ROOT
HETATM    1  C1  UNL     1     -16.634 -27.257 -24.658  1.00  0.00     0.180 C 
HETATM    2  N1  UNL     1     -15.368 -27.697 -25.170  1.00  0.00    -0.268 N 
HETATM    3  N2  UNL     1     -14.980 -28.854 -25.636  1.00  0.00    -0.218 N 
ATOM      4  H2  UNL     1     -15.590 -29.670 -25.700  1.00  0.00     0.210 HD
HETATM    5  N3  UNL     1     -13.737 -28.854 -26.008  1.00  0.00    -0.182 N 
HETATM    6  C2  UNL     1     -13.259 -27.599 -25.772  1.00  0.00     0.159 A 
HETATM    7  C4  UNL     1     -14.274 -26.866 -25.247  1.00  0.00     0.166 A 
HETATM    8  C5  UNL     1     -14.262 -25.501 -24.837  1.00  0.00     0.122 C 
HETATM    9  N8  UNL     1     -14.283 -24.386 -24.494  1.00  0.00    -0.190 NA
ENDROOT
BRANCH   6  10
HETATM   10  C3  UNL     1     -11.904 -27.203 -26.057  1.00  0.00     0.147 C 
HETATM   11  N5  UNL     1     -11.482 -26.842 -27.180  1.00  0.00    -0.382 N 
ATOM     12  H52 UNL     1     -12.152 -26.829 -27.948  1.00  0.00     0.157 HD
ATOM     13  H51 UNL     1     -10.522 -26.561 -27.382  1.00  0.00     0.157 HD
BRANCH  10  14
HETATM   14  N6  UNL     1     -10.939 -27.222 -24.950  1.00  0.00    -0.290 N 
ATOM     15  H6  UNL     1     -11.107 -26.699 -24.091  1.00  0.00     0.188 HD
BRANCH  14  16
HETATM   16  N7  UNL     1      -9.808 -27.968 -25.118  1.00  0.00    -0.344 N 
ATOM     17  H72 UNL     1      -9.661 -28.814 -24.567  1.00  0.00     0.176 HD
ATOM     18  H71 UNL     1      -9.130 -27.643 -25.808  1.00  0.00     0.176 HD
ENDBRANCH  14  16
ENDBRANCH  10  14
ENDBRANCH   6  10
BRANCH   5  19
HETATM   19  N4  UNL     1     -13.002 -29.904 -26.546  1.00  0.00    -0.322 N 
ATOM     20  H42 UNL     1     -13.052 -30.876 -26.239  1.00  0.00     0.179 HD
ATOM     21  H41 UNL     1     -12.321 -29.872 -27.305  1.00  0.00     0.179 HD
ENDBRANCH   5  19
TORSDOF 4
ENDMDL
MODEL 2
REMARK VINA RESULT: -6.369859604      0.503      1.188
REMARK  4 active torsions:
REMARK  status: ('A' for Active; 'I' for Inactive)
REMARK    1  A    between atoms: N3_5  and  N4_6 
REMARK    2  A    between atoms: C2_9  and  C3_10 
REMARK    3  A    between atoms: C3_10  and  N6_14 
REMARK    4  A    between atoms: N6_14  and  N7_16 
ROOT
HETATM    1  C1  UNL     1     -16.815 -27.300 -24.724  1.00  0.00     0.180 C 
HETATM    2  N1  UNL     1     -15.507 -27.715 -25.142  1.00  0.00    -0.268 N 
HETATM    3  N2  UNL     1     -15.065 -28.861 -25.587  1.00  0.00    -0.218 N 
ATOM      4  H2  UNL     1     -15.654 -29.686 -25.703  1.00  0.00     0.210 HD
HETATM    5  N3  UNL     1     -13.798 -28.836 -25.864  1.00  0.00    -0.182 N 
HETATM    6  C2  UNL     1     -13.360 -27.576 -25.583  1.00  0.00     0.159 A 
HETATM    7  C4  UNL     1     -14.424 -26.865 -25.130  1.00  0.00     0.166 A 
HETATM    8  C5  UNL     1     -14.467 -25.504 -24.710  1.00  0.00     0.122 C 
HETATM    9  N8  UNL     1     -14.533 -24.392 -24.361  1.00  0.00    -0.190 NA
ENDROOT
BRANCH   6  10
HETATM   10  C3  UNL     1     -11.995 -27.154 -25.762  1.00  0.00     0.147 C 
HETATM   11  N5  UNL     1     -11.151 -27.042 -24.844  1.00  0.00    -0.382 N 
ATOM     12  H52 UNL     1     -11.457 -27.268 -23.898  1.00  0.00     0.157 HD
ATOM     13  H51 UNL     1     -10.183 -26.743 -24.972  1.00  0.00     0.157 HD
BRANCH  10  14
HETATM   14  N6  UNL     1     -11.554 -26.829 -27.125  1.00  0.00    -0.290 N 
ATOM     15  H6  UNL     1     -12.000 -26.087 -27.663  1.00  0.00     0.188 HD
BRANCH  14  16
HETATM   16  N7  UNL     1     -10.523 -27.560 -27.641  1.00  0.00    -0.344 N 
ATOM     17  H72 UNL     1      -9.598 -27.525 -27.210  1.00  0.00     0.176 HD
ATOM     18  H71 UNL     1     -10.718 -28.131 -28.463  1.00  0.00     0.176 HD
ENDBRANCH  14  16
ENDBRANCH  10  14
ENDBRANCH   6  10
BRANCH   5  19
HETATM   19  N4  UNL     1     -13.006 -29.869 -26.353  1.00  0.00    -0.322 N 
ATOM     20  H42 UNL     1     -13.083 -30.849 -26.081  1.00  0.00     0.179 HD
ATOM     21  H41 UNL     1     -12.251 -29.815 -27.037  1.00  0.00     0.179 HD
ENDBRANCH   5  19
TORSDOF 4
ENDMDL
MODEL 3
REMARK VINA RESULT: -6.262850309      1.426      3.099
REMARK  4 active torsions:
REMARK  status: ('A' for Active; 'I' for Inactive)
REMARK    1  A    between atoms: N3_5  and  N4_6 
REMARK    2  A    between atoms: C2_9  and  C3_10 
REMARK    3  A    between atoms: C3_10  and  N6_14 
REMARK    4  A    between atoms: N6_14  and  N7_16 
ROOT
HETATM    1  C1  UNL     1     -14.481 -24.877 -24.628  1.00  0.00     0.180 C 
HETATM    2  N1  UNL     1     -13.550 -25.911 -24.979  1.00  0.00    -0.268 N 
HETATM    3  N2  UNL     1     -12.270 -26.035 -24.748  1.00  0.00    -0.218 N 
ATOM      4  H2  UNL     1     -11.719 -25.345 -24.239  1.00  0.00     0.210 HD
HETATM    5  N3  UNL     1     -11.777 -27.132 -25.236  1.00  0.00    -0.182 N 
HETATM    6  C2  UNL     1     -12.808 -27.790 -25.840  1.00  0.00     0.159 A 
HETATM    7  C4  UNL     1     -13.924 -27.032 -25.683  1.00  0.00     0.166 A 
HETATM    8  C5  UNL     1     -15.247 -27.299 -26.140  1.00  0.00     0.122 C 
HETATM    9  N8  UNL     1     -16.340 -27.490 -26.501  1.00  0.00    -0.190 NA
ENDROOT
BRANCH   6  10
HETATM   10  C3  UNL     1     -12.656 -29.059 -26.503  1.00  0.00     0.147 C 
HETATM   11  N5  UNL     1     -12.711 -30.176 -25.939  1.00  0.00    -0.382 N 
ATOM     12  H52 UNL     1     -12.877 -30.183 -24.932  1.00  0.00     0.157 HD
ATOM     13  H51 UNL     1     -12.603 -31.075 -26.409  1.00  0.00     0.157 HD
BRANCH  10  14
HETATM   14  N6  UNL     1     -12.417 -29.048 -27.952  1.00  0.00    -0.290 N 
ATOM     15  H6  UNL     1     -13.190 -29.020 -28.616  1.00  0.00     0.188 HD
BRANCH  14  16
HETATM   16  N7  UNL     1     -11.118 -29.078 -28.373  1.00  0.00    -0.344 N 
ATOM     17  H72 UNL     1     -10.689 -28.246 -28.779  1.00  0.00     0.176 HD
ATOM     18  H71 UNL     1     -10.610 -29.955 -28.264  1.00  0.00     0.176 HD
ENDBRANCH  14  16
ENDBRANCH  10  14
ENDBRANCH   6  10
BRANCH   5  19
HETATM   19  N4  UNL     1     -10.463 -27.584 -25.177  1.00  0.00    -0.322 N 
ATOM     20  H42 UNL     1      -9.876 -27.794 -25.985  1.00  0.00     0.179 HD
ATOM     21  H41 UNL     1      -9.898 -27.770 -24.349  1.00  0.00     0.179 HD
ENDBRANCH   5  19
TORSDOF 4
ENDMDL
MODEL 4
REMARK VINA RESULT: -6.211259685      1.615      3.092
REMARK  4 active torsions:
REMARK  status: ('A' for Active; 'I' for Inactive)
REMARK    1  A    between atoms: N3_5  and  N4_6 
REMARK    2  A    between atoms: C2_9  and  C3_10 
REMARK    3  A    between atoms: C3_10  and  N6_14 
REMARK    4  A    between atoms: N6_14  and  N7_16 
ROOT
HETATM    1  C1  UNL     1     -16.251 -25.722 -24.564  1.00  0.00     0.180 C 
HETATM    2  N1  UNL     1     -14.992 -26.334 -24.881  1.00  0.00    -0.268 N 
HETATM    3  N2  UNL     1     -13.770 -25.877 -24.819  1.00  0.00    -0.218 N 
ATOM      4  H2  UNL     1     -13.534 -24.935 -24.506  1.00  0.00     0.210 HD
HETATM    5  N3  UNL     1     -12.888 -26.751 -25.198  1.00  0.00    -0.182 N 
HETATM    6  C2  UNL     1     -13.576 -27.877 -25.539  1.00  0.00     0.159 A 
HETATM    7  C4  UNL     1     -14.895 -27.626 -25.344  1.00  0.00     0.166 A 
HETATM    8  C5  UNL     1     -16.004 -28.495 -25.560  1.00  0.00     0.122 C 
HETATM    9  N8  UNL     1     -16.932 -29.183 -25.727  1.00  0.00    -0.190 NA
ENDROOT
BRANCH   6  10
HETATM   10  C3  UNL     1     -12.940 -29.078 -26.014  1.00  0.00     0.147 C 
HETATM   11  N5  UNL     1     -12.668 -30.076 -25.307  1.00  0.00    -0.382 N 
ATOM     12  H52 UNL     1     -12.920 -30.030 -24.319  1.00  0.00     0.157 HD
ATOM     13  H51 UNL     1     -12.217 -30.927 -25.643  1.00  0.00     0.157 HD
BRANCH  10  14
HETATM   14  N6  UNL     1     -12.577 -29.144 -27.435  1.00  0.00    -0.290 N 
ATOM     15  H6  UNL     1     -13.290 -29.191 -28.163  1.00  0.00     0.188 HD
BRANCH  14  16
HETATM   16  N7  UNL     1     -11.247 -29.139 -27.744  1.00  0.00    -0.344 N 
ATOM     17  H72 UNL     1     -10.564 -28.771 -27.081  1.00  0.00     0.176 HD
ATOM     18  H71 UNL     1     -10.976 -29.514 -28.653  1.00  0.00     0.176 HD
ENDBRANCH  14  16
ENDBRANCH  10  14
ENDBRANCH   6  10
BRANCH   5  19
HETATM   19  N4  UNL     1     -11.507 -26.605 -25.258  1.00  0.00    -0.322 N 
ATOM     20  H42 UNL     1     -10.828 -27.277 -24.898  1.00  0.00     0.179 HD
ATOM     21  H41 UNL     1     -10.971 -25.834 -25.656  1.00  0.00     0.179 HD
ENDBRANCH   5  19
TORSDOF 4
ENDMDL
MODEL 5
REMARK VINA RESULT: -6.014557995      1.481      2.849
REMARK  4 active torsions:
REMARK  status: ('A' for Active; 'I' for Inactive)
REMARK    1  A    between atoms: N3_5  and  N4_6 
REMARK    2  A    between atoms: C2_9  and  C3_10 
REMARK    3  A    between atoms: C3_10  and  N6_14 
REMARK    4  A    between atoms: N6_14  and  N7_16 
ROOT
HETATM    1  C1  UNL     1     -15.562 -25.562 -23.629  1.00  0.00     0.180 C 
HETATM    2  N1  UNL     1     -14.474 -26.192 -24.321  1.00  0.00    -0.268 N 
HETATM    3  N2  UNL     1     -13.185 -26.160 -24.114  1.00  0.00    -0.218 N 
ATOM      4  H2  UNL     1     -12.747 -25.631 -23.359  1.00  0.00     0.210 HD
HETATM    5  N3  UNL     1     -12.521 -26.875 -24.971  1.00  0.00    -0.182 N 
HETATM    6  C2  UNL     1     -13.440 -27.425 -25.815  1.00  0.00     0.159 A 
HETATM    7  C4  UNL     1     -14.667 -27.004 -25.416  1.00  0.00     0.166 A 
HETATM    8  C5  UNL     1     -15.937 -27.311 -25.984  1.00  0.00     0.122 C 
HETATM    9  N8  UNL     1     -16.992 -27.544 -26.426  1.00  0.00    -0.190 NA
ENDROOT
BRANCH   6  10
HETATM   10  C3  UNL     1     -13.088 -28.290 -26.911  1.00  0.00     0.147 C 
HETATM   11  N5  UNL     1     -12.814 -27.905 -28.071  1.00  0.00    -0.382 N 
ATOM     12  H52 UNL     1     -12.844 -26.901 -28.249  1.00  0.00     0.157 HD
ATOM     13  H51 UNL     1     -12.565 -28.519 -28.848  1.00  0.00     0.157 HD
BRANCH  10  14
HETATM   14  N6  UNL     1     -13.045 -29.735 -26.654  1.00  0.00    -0.290 N 
ATOM     15  H6  UNL     1     -13.127 -30.411 -27.413  1.00  0.00     0.188 HD
BRANCH  14  16
HETATM   16  N7  UNL     1     -12.892 -30.138 -25.359  1.00  0.00    -0.344 N 
ATOM     17  H72 UNL     1     -12.236 -30.884 -25.124  1.00  0.00     0.176 HD
ATOM     18  H71 UNL     1     -13.454 -29.665 -24.651  1.00  0.00     0.176 HD
ENDBRANCH  14  16
ENDBRANCH  10  14
ENDBRANCH   6  10
BRANCH   5  19
HETATM   19  N4  UNL     1     -11.146 -27.066 -25.047  1.00  0.00    -0.322 N 
ATOM     20  H42 UNL     1     -10.615 -27.178 -25.910  1.00  0.00     0.179 HD
ATOM     21  H41 UNL     1     -10.475 -27.123 -24.281  1.00  0.00     0.179 HD
ENDBRANCH   5  19
TORSDOF 4
ENDMDL
